ACET-pdb6iip-B-ASP-30:MBZ-pdb6iip-B-PHE-47
     RDKit          3D

 22 21  0  0  0  0  0  0  0  0999 V2000
   -1.7892    5.7890   -3.2872 C   0  0  0  0  0  0  0  0  0  0  0  0
   -1.8549    6.3284   -2.4510 H   0  0  0  0  0  0  0  0  0  0  0  0
   -2.6120    5.9109   -3.8358 H   0  0  0  0  0  0  0  0  0  0  0  0
   -0.9421    6.1626   -3.8625 H   0  0  0  0  0  0  0  0  0  0  0  0
   -1.6664    4.3258   -2.9134 C   0  0  0  0  0  0  0  0  0  0  0  0
   -0.7298    3.6388   -3.3729 O   0  0  0  0  0  1  0  0  0  0  0  0
   -2.5339    3.8549   -2.1445 O   0  0  0  0  0  0  0  0  0  0  0  0
   -0.0119    2.9138   -0.0369 C   0  0  0  0  0  0  0  0  0  0  0  0
   -0.8563    3.1960   -0.4788 H   0  0  0  0  0  0  0  0  0  0  0  0
    0.7737    3.2046   -0.5715 H   0  0  0  0  0  0  0  0  0  0  0  0
    0.0406    3.4125    0.9309 H   0  0  0  0  0  0  0  0  0  0  0  0
   -0.0010    1.4022    0.0109 C   0  0  0  0  0  0  0  0  0  0  0  0
   -1.1909    0.6935   -0.0057 C   0  0  0  0  0  0  0  0  0  0  0  0
   -2.0613    1.1781   -0.0233 H   0  0  0  0  0  0  0  0  0  0  0  0
   -1.1913   -0.7005    0.0000 C   0  0  0  0  0  0  0  0  0  0  0  0
   -2.0712   -1.1913    0.0098 H   0  0  0  0  0  0  0  0  0  0  0  0
    0.0022   -1.3891   -0.0053 C   0  0  0  0  0  0  0  0  0  0  0  0
   -0.0012   -2.3923   -0.0131 H   0  0  0  0  0  0  0  0  0  0  0  0
    1.1913   -0.6980   -0.0000 C   0  0  0  0  0  0  0  0  0  0  0  0
    2.0785   -1.1934    0.0052 H   0  0  0  0  0  0  0  0  0  0  0  0
    1.1897    0.6919    0.0001 C   0  0  0  0  0  0  0  0  0  0  0  0
    2.0607    1.1854   -0.0083 H   0  0  0  0  0  0  0  0  0  0  0  0
  1  5  1  0
  5  6  1  0
  5  7  2  0
  1  2  1  0
  1  3  1  0
  1  4  1  0
  8 12  1  0
 12 13  2  0
 13 15  1  0
 15 17  2  0
 17 19  1  0
 19 21  2  0
 21 12  1  0
  8  9  1  0
  8 10  1  0
  8 11  1  0
 13 14  1  0
 15 16  1  0
 17 18  1  0
 19 20  1  0
 21 22  1  0
M  CHG  1   6  -1
M  END
>  <PDB_ID>  (1) 
pdb6iip

>  <RESIDUE_NAME>  (1) 
ASP   PHE

>  <FRAG_NAME>  (1) 
ACET   MBZ

>  <FRAG_ATOM_NUM>  (1) 
fragi: 7  fragj: 15

>  <atom.prop.CHAIN_ID>  (1) 
A A A A A A A Z Z Z Z Z Z Z Z Z Z Z Z Z Z Z

>  <atom.prop.IS_HEAVY_ATOM>  (1) 
1 0 0 0 1 1 1 1 0 0 0 1 1 0 1 0 1 0 1 0 1 0

>  <DIFUSE_FUNC_ATOM>  (1) 
atom 6   atom 7   

>  <FINAL_SINGLE_POINT_ENERGY>  (1) 
0

>  <NONCOV_INTER_ENERGY_QM>  (1) 
0

>  <FF_Energy>  (1) 
-0.27

>  <QM_Energy>  (1) 
-6.28

>  <source>  (1) 
ACET_MBZ_00

>  <Index>  (1) 
143

$$$$
ACET-pdb10gs-A-ASP-152:MBZ-pdb10gs-A-PHE-142
     RDKit          3D

 22 21  0  0  0  0  0  0  0  0999 V2000
   -4.5291    3.3099    2.7063 C   0  0  0  0  0  0  0  0  0  0  0  0
   -4.3251    2.8919    3.5842 H   0  0  0  0  0  0  0  0  0  0  0  0
   -4.9926    2.6624    2.1122 H   0  0  0  0  0  0  0  0  0  0  0  0
   -5.2050    4.1467    2.8829 H   0  0  0  0  0  0  0  0  0  0  0  0
   -3.2353    3.7367    2.0537 C   0  0  0  0  0  0  0  0  0  0  0  0
   -3.2868    4.2554    0.9260 O   0  0  0  0  0  1  0  0  0  0  0  0
   -2.1675    3.5536    2.6640 O   0  0  0  0  0  0  0  0  0  0  0  0
    0.0001    2.9110   -0.0480 C   0  0  0  0  0  0  0  0  0  0  0  0
    0.8807    3.2240    0.2645 H   0  0  0  0  0  0  0  0  0  0  0  0
   -0.7294    3.2314    0.5323 H   0  0  0  0  0  0  0  0  0  0  0  0
   -0.1648    3.3101   -1.0489 H   0  0  0  0  0  0  0  0  0  0  0  0
    0.0005    1.4049   -0.0027 C   0  0  0  0  0  0  0  0  0  0  0  0
   -1.1990    0.6946    0.0005 C   0  0  0  0  0  0  0  0  0  0  0  0
   -2.0642    1.1846    0.0019 H   0  0  0  0  0  0  0  0  0  0  0  0
   -1.2042   -0.6998   -0.0000 C   0  0  0  0  0  0  0  0  0  0  0  0
   -2.0792   -1.1926    0.0003 H   0  0  0  0  0  0  0  0  0  0  0  0
    0.0010   -1.3965    0.0009 C   0  0  0  0  0  0  0  0  0  0  0  0
   -0.0023   -2.3952    0.0019 H   0  0  0  0  0  0  0  0  0  0  0  0
    1.2042   -0.6983   -0.0000 C   0  0  0  0  0  0  0  0  0  0  0  0
    2.0844   -1.1943   -0.0007 H   0  0  0  0  0  0  0  0  0  0  0  0
    1.1975    0.6951    0.0013 C   0  0  0  0  0  0  0  0  0  0  0  0
    2.0658    1.1914    0.0042 H   0  0  0  0  0  0  0  0  0  0  0  0
  1  5  1  0
  5  6  1  0
  5  7  2  0
  1  2  1  0
  1  3  1  0
  1  4  1  0
  8 12  1  0
 12 13  2  0
 13 15  1  0
 15 17  2  0
 17 19  1  0
 19 21  2  0
 21 12  1  0
  8  9  1  0
  8 10  1  0
  8 11  1  0
 13 14  1  0
 15 16  1  0
 17 18  1  0
 19 20  1  0
 21 22  1  0
M  CHG  1   6  -1
M  END
>  <PDB_ID>  (2) 
pdb10gs

>  <RESIDUE_NAME>  (2) 
ASP   PHE

>  <FRAG_NAME>  (2) 
ACET   MBZ

>  <FRAG_ATOM_NUM>  (2) 
fragi: 7  fragj: 15

>  <atom.prop.CHAIN_ID>  (2) 
A A A A A A A Z Z Z Z Z Z Z Z Z Z Z Z Z Z Z

>  <atom.prop.IS_HEAVY_ATOM>  (2) 
1 0 0 0 1 1 1 1 0 0 0 1 1 0 1 0 1 0 1 0 1 0

>  <DIFUSE_FUNC_ATOM>  (2) 
atom 6   atom 7   

>  <FINAL_SINGLE_POINT_ENERGY>  (2) 
0

>  <NONCOV_INTER_ENERGY_QM>  (2) 
0

>  <FF_Energy>  (2) 
-1.46

>  <QM_Energy>  (2) 
-7.2

>  <source>  (2) 
ACET_MBZ_00

>  <Index>  (2) 
157

$$$$
ACET-pdb10gs-B-GLU-130:MBZ-pdb10gs-B-PHE-173
     RDKit          3D

 22 21  0  0  0  0  0  0  0  0999 V2000
   -4.4398    2.7366    0.7893 C   0  0  0  0  0  0  0  0  0  0  0  0
   -4.2859    2.0911    0.0602 H   0  0  0  0  0  0  0  0  0  0  0  0
   -5.3816    3.0274    0.8254 H   0  0  0  0  0  0  0  0  0  0  0  0
   -4.1998    2.2450    1.7321 H   0  0  0  0  0  0  0  0  0  0  0  0
   -3.5907    3.9768    0.4890 C   0  0  0  0  0  0  0  0  0  0  0  0
   -2.6134    4.2561    1.2137 O   0  0  0  0  0  1  0  0  0  0  0  0
   -3.8983    4.6794   -0.4977 O   0  0  0  0  0  0  0  0  0  0  0  0
    0.0012    2.9056   -0.0422 C   0  0  0  0  0  0  0  0  0  0  0  0
    0.8677    3.2209    0.3129 H   0  0  0  0  0  0  0  0  0  0  0  0
   -0.7532    3.2269    0.5086 H   0  0  0  0  0  0  0  0  0  0  0  0
   -0.1185    3.3164   -1.0447 H   0  0  0  0  0  0  0  0  0  0  0  0
    0.0004    1.4019   -0.0013 C   0  0  0  0  0  0  0  0  0  0  0  0
   -1.1980    0.6953    0.0013 C   0  0  0  0  0  0  0  0  0  0  0  0
   -2.0639    1.1866    0.0028 H   0  0  0  0  0  0  0  0  0  0  0  0
   -1.2047   -0.6961    0.0000 C   0  0  0  0  0  0  0  0  0  0  0  0
   -2.0810   -1.1895    0.0014 H   0  0  0  0  0  0  0  0  0  0  0  0
   -0.0009   -1.3957   -0.0009 C   0  0  0  0  0  0  0  0  0  0  0  0
   -0.0056   -2.3931   -0.0031 H   0  0  0  0  0  0  0  0  0  0  0  0
    1.2047   -0.6991   -0.0000 C   0  0  0  0  0  0  0  0  0  0  0  0
    2.0830   -1.1968    0.0016 H   0  0  0  0  0  0  0  0  0  0  0  0
    1.1986    0.6937    0.0009 C   0  0  0  0  0  0  0  0  0  0  0  0
    2.0659    1.1905    0.0020 H   0  0  0  0  0  0  0  0  0  0  0  0
  1  5  1  0
  5  6  1  0
  5  7  2  0
  1  2  1  0
  1  3  1  0
  1  4  1  0
  8 12  1  0
 12 13  2  0
 13 15  1  0
 15 17  2  0
 17 19  1  0
 19 21  2  0
 21 12  1  0
  8  9  1  0
  8 10  1  0
  8 11  1  0
 13 14  1  0
 15 16  1  0
 17 18  1  0
 19 20  1  0
 21 22  1  0
M  CHG  1   6  -1
M  END
>  <PDB_ID>  (3) 
pdb10gs

>  <RESIDUE_NAME>  (3) 
GLU   PHE

>  <FRAG_NAME>  (3) 
ACET   MBZ

>  <FRAG_ATOM_NUM>  (3) 
fragi: 7  fragj: 15

>  <atom.prop.CHAIN_ID>  (3) 
A A A A A A A Z Z Z Z Z Z Z Z Z Z Z Z Z Z Z

>  <atom.prop.IS_HEAVY_ATOM>  (3) 
1 0 0 0 1 1 1 1 0 0 0 1 1 0 1 0 1 0 1 0 1 0

>  <DIFUSE_FUNC_ATOM>  (3) 
atom 6   atom 7   

>  <FINAL_SINGLE_POINT_ENERGY>  (3) 
0

>  <NONCOV_INTER_ENERGY_QM>  (3) 
0

>  <FF_Energy>  (3) 
-0.86

>  <QM_Energy>  (3) 
-6.75

>  <source>  (3) 
ACET_MBZ_00

>  <Index>  (3) 
162

$$$$
ACET-pdb12ca-A-GLU-239:MBZ-pdb12ca-A-PHE-231
     RDKit          3D

 22 21  0  0  0  0  0  0  0  0999 V2000
    4.2006    2.2882    0.3502 C   0  0  0  0  0  0  0  0  0  0  0  0
    3.4982    1.7784   -0.1161 H   0  0  0  0  0  0  0  0  0  0  0  0
    5.0562    1.7998    0.3701 H   0  0  0  0  0  0  0  0  0  0  0  0
    4.3634    3.2055   -0.2157 H   0  0  0  0  0  0  0  0  0  0  0  0
    3.7517    2.5097    1.7819 C   0  0  0  0  0  0  0  0  0  0  0  0
    3.3930    3.6219    2.2087 O   0  0  0  0  0  1  0  0  0  0  0  0
    3.7783    1.4051    2.4836 O   0  0  0  0  0  0  0  0  0  0  0  0
   -0.0179    2.8930   -0.0257 C   0  0  0  0  0  0  0  0  0  0  0  0
    0.9588    3.1950   -0.0250 H   0  0  0  0  0  0  0  0  0  0  0  0
   -0.4132    3.2135    0.8612 H   0  0  0  0  0  0  0  0  0  0  0  0
   -0.5222    3.4458   -0.8182 H   0  0  0  0  0  0  0  0  0  0  0  0
   -0.0172    1.3898    0.0070 C   0  0  0  0  0  0  0  0  0  0  0  0
   -1.2244    0.6787   -0.0041 C   0  0  0  0  0  0  0  0  0  0  0  0
   -2.0812    1.1819   -0.0159 H   0  0  0  0  0  0  0  0  0  0  0  0
   -1.2092   -0.6755   -0.0000 C   0  0  0  0  0  0  0  0  0  0  0  0
   -2.0728   -1.2082   -0.0113 H   0  0  0  0  0  0  0  0  0  0  0  0
    0.0229   -1.4020    0.0221 C   0  0  0  0  0  0  0  0  0  0  0  0
   -0.0077   -2.3901    0.0518 H   0  0  0  0  0  0  0  0  0  0  0  0
    1.2092   -0.7056   -0.0000 C   0  0  0  0  0  0  0  0  0  0  0  0
    2.1014   -1.1900    0.0026 H   0  0  0  0  0  0  0  0  0  0  0  0
    1.2187    0.7146   -0.0250 C   0  0  0  0  0  0  0  0  0  0  0  0
    2.0603    1.2035   -0.0637 H   0  0  0  0  0  0  0  0  0  0  0  0
  1  5  1  0
  5  6  1  0
  5  7  2  0
  1  2  1  0
  1  3  1  0
  1  4  1  0
  8 12  1  0
 12 13  2  0
 13 15  1  0
 15 17  2  0
 17 19  1  0
 19 21  2  0
 21 12  1  0
  8  9  1  0
  8 10  1  0
  8 11  1  0
 13 14  1  0
 15 16  1  0
 17 18  1  0
 19 20  1  0
 21 22  1  0
M  CHG  1   6  -1
M  END
>  <PDB_ID>  (4) 
pdb12ca

>  <RESIDUE_NAME>  (4) 
GLU   PHE

>  <FRAG_NAME>  (4) 
ACET   MBZ

>  <FRAG_ATOM_NUM>  (4) 
fragi: 7  fragj: 15

>  <atom.prop.CHAIN_ID>  (4) 
A A A A A A A Z Z Z Z Z Z Z Z Z Z Z Z Z Z Z

>  <atom.prop.IS_HEAVY_ATOM>  (4) 
1 0 0 0 1 1 1 1 0 0 0 1 1 0 1 0 1 0 1 0 1 0

>  <DIFUSE_FUNC_ATOM>  (4) 
atom 6   atom 7   

>  <FINAL_SINGLE_POINT_ENERGY>  (4) 
0

>  <NONCOV_INTER_ENERGY_QM>  (4) 
0

>  <FF_Energy>  (4) 
20.94

>  <QM_Energy>  (4) 
-0.56

>  <source>  (4) 
ACET_MBZ_00

>  <Index>  (4) 
163

$$$$
ACET-pdb11as-D-GLU-226:MBZ-pdb11as-D-PHE-130
     RDKit          3D

 22 21  0  0  0  0  0  0  0  0999 V2000
    2.0956    4.5979   -1.8854 C   0  0  0  0  0  0  0  0  0  0  0  0
    1.4704    5.3454   -2.0336 H   0  0  0  0  0  0  0  0  0  0  0  0
    1.6703    3.8570   -1.3927 H   0  0  0  0  0  0  0  0  0  0  0  0
    2.4066    4.2214   -2.8599 H   0  0  0  0  0  0  0  0  0  0  0  0
    3.2426    5.1227   -1.0232 C   0  0  0  0  0  0  0  0  0  0  0  0
    4.1666    4.3324   -0.6912 O   0  0  0  0  0  1  0  0  0  0  0  0
    3.1809    6.3115   -0.6154 O   0  0  0  0  0  0  0  0  0  0  0  0
    0.0023    2.9079   -0.0612 C   0  0  0  0  0  0  0  0  0  0  0  0
   -0.6883    3.1887   -0.7141 H   0  0  0  0  0  0  0  0  0  0  0  0
    0.9034    3.2013   -0.3497 H   0  0  0  0  0  0  0  0  0  0  0  0
   -0.2186    3.3933    0.8894 H   0  0  0  0  0  0  0  0  0  0  0  0
    0.0000    1.4065   -0.0015 C   0  0  0  0  0  0  0  0  0  0  0  0
   -1.1961    0.6966   -0.0015 C   0  0  0  0  0  0  0  0  0  0  0  0
   -2.0640    1.1828   -0.0037 H   0  0  0  0  0  0  0  0  0  0  0  0
   -1.1984   -0.6991    0.0000 C   0  0  0  0  0  0  0  0  0  0  0  0
   -2.0782   -1.1903    0.0029 H   0  0  0  0  0  0  0  0  0  0  0  0
   -0.0013   -1.3959   -0.0006 C   0  0  0  0  0  0  0  0  0  0  0  0
   -0.0050   -2.3950   -0.0024 H   0  0  0  0  0  0  0  0  0  0  0  0
    1.1984   -0.7009   -0.0000 C   0  0  0  0  0  0  0  0  0  0  0  0
    2.0810   -1.1979   -0.0004 H   0  0  0  0  0  0  0  0  0  0  0  0
    1.1974    0.6928    0.0036 C   0  0  0  0  0  0  0  0  0  0  0  0
    2.0661    1.1864    0.0088 H   0  0  0  0  0  0  0  0  0  0  0  0
  1  5  1  0
  5  6  1  0
  5  7  2  0
  1  2  1  0
  1  3  1  0
  1  4  1  0
  8 12  1  0
 12 13  2  0
 13 15  1  0
 15 17  2  0
 17 19  1  0
 19 21  2  0
 21 12  1  0
  8  9  1  0
  8 10  1  0
  8 11  1  0
 13 14  1  0
 15 16  1  0
 17 18  1  0
 19 20  1  0
 21 22  1  0
M  CHG  1   6  -1
M  END
>  <PDB_ID>  (5) 
pdb11as

>  <RESIDUE_NAME>  (5) 
GLU   PHE

>  <FRAG_NAME>  (5) 
ACET   MBZ

>  <FRAG_ATOM_NUM>  (5) 
fragi: 7  fragj: 15

>  <atom.prop.CHAIN_ID>  (5) 
A A A A A A A Z Z Z Z Z Z Z Z Z Z Z Z Z Z Z

>  <atom.prop.IS_HEAVY_ATOM>  (5) 
1 0 0 0 1 1 1 1 0 0 0 1 1 0 1 0 1 0 1 0 1 0

>  <DIFUSE_FUNC_ATOM>  (5) 
atom 6   atom 7   

>  <FINAL_SINGLE_POINT_ENERGY>  (5) 
0

>  <NONCOV_INTER_ENERGY_QM>  (5) 
0

>  <FF_Energy>  (5) 
39.4

>  <QM_Energy>  (5) 
2.59

>  <source>  (5) 
ACET_MBZ_00

>  <Index>  (5) 
171

$$$$
ACET-pdb13pk-D-GLU-196:MBZ-pdb13pk-D-PHE-200
     RDKit          3D

 22 21  0  0  0  0  0  0  0  0999 V2000
    5.9575   -1.5060   -0.3242 C   0  0  0  0  0  0  0  0  0  0  0  0
    6.6622   -1.4744   -1.0077 H   0  0  0  0  0  0  0  0  0  0  0  0
    6.2588   -1.9424    0.5028 H   0  0  0  0  0  0  0  0  0  0  0  0
    5.6720   -0.4817   -0.0841 H   0  0  0  0  0  0  0  0  0  0  0  0
    4.8082   -2.3218   -0.8838 C   0  0  0  0  0  0  0  0  0  0  0  0
    3.6664   -1.8295   -0.8922 O   0  0  0  0  0  1  0  0  0  0  0  0
    5.0451   -3.4652   -1.3189 O   0  0  0  0  0  0  0  0  0  0  0  0
   -0.0051    2.9126    0.0354 C   0  0  0  0  0  0  0  0  0  0  0  0
    0.8914    3.2108    0.3257 H   0  0  0  0  0  0  0  0  0  0  0  0
   -0.7036    3.1977    0.6742 H   0  0  0  0  0  0  0  0  0  0  0  0
   -0.2197    3.3745   -0.9283 H   0  0  0  0  0  0  0  0  0  0  0  0
   -0.0004    1.4063   -0.0006 C   0  0  0  0  0  0  0  0  0  0  0  0
   -1.1984    0.6925   -0.0005 C   0  0  0  0  0  0  0  0  0  0  0  0
   -2.0652    1.1815   -0.0024 H   0  0  0  0  0  0  0  0  0  0  0  0
   -1.2023   -0.7015    0.0000 C   0  0  0  0  0  0  0  0  0  0  0  0
   -2.0791   -1.1934    0.0011 H   0  0  0  0  0  0  0  0  0  0  0  0
   -0.0014   -1.3934    0.0009 C   0  0  0  0  0  0  0  0  0  0  0  0
   -0.0042   -2.3941    0.0014 H   0  0  0  0  0  0  0  0  0  0  0  0
    1.2023   -0.6998   -0.0000 C   0  0  0  0  0  0  0  0  0  0  0  0
    2.0818   -1.1970    0.0011 H   0  0  0  0  0  0  0  0  0  0  0  0
    1.2003    0.6958    0.0002 C   0  0  0  0  0  0  0  0  0  0  0  0
    2.0667    1.1905   -0.0001 H   0  0  0  0  0  0  0  0  0  0  0  0
  1  5  1  0
  5  6  1  0
  5  7  2  0
  1  2  1  0
  1  3  1  0
  1  4  1  0
  8 12  1  0
 12 13  2  0
 13 15  1  0
 15 17  2  0
 17 19  1  0
 19 21  2  0
 21 12  1  0
  8  9  1  0
  8 10  1  0
  8 11  1  0
 13 14  1  0
 15 16  1  0
 17 18  1  0
 19 20  1  0
 21 22  1  0
M  CHG  1   6  -1
M  END
>  <PDB_ID>  (6) 
pdb13pk

>  <RESIDUE_NAME>  (6) 
GLU   PHE

>  <FRAG_NAME>  (6) 
ACET   MBZ

>  <FRAG_ATOM_NUM>  (6) 
fragi: 7  fragj: 15

>  <atom.prop.CHAIN_ID>  (6) 
A A A A A A A Z Z Z Z Z Z Z Z Z Z Z Z Z Z Z

>  <atom.prop.IS_HEAVY_ATOM>  (6) 
1 0 0 0 1 1 1 1 0 0 0 1 1 0 1 0 1 0 1 0 1 0

>  <DIFUSE_FUNC_ATOM>  (6) 
atom 6   atom 7   

>  <FINAL_SINGLE_POINT_ENERGY>  (6) 
0

>  <NONCOV_INTER_ENERGY_QM>  (6) 
0

>  <FF_Energy>  (6) 
10.99

>  <QM_Energy>  (6) 
-4.96

>  <source>  (6) 
ACET_MBZ_00

>  <Index>  (6) 
195

$$$$
ACET-pdb1a0p-A-ASP-95:MBZ-pdb1a0p-A-PHE-83
     RDKit          3D

 22 21  0  0  0  0  0  0  0  0999 V2000
   -3.4961    5.6998    2.7022 C   0  0  0  0  0  0  0  0  0  0  0  0
   -3.9536    6.0446    1.9021 H   0  0  0  0  0  0  0  0  0  0  0  0
   -3.5924    6.3042    3.4719 H   0  0  0  0  0  0  0  0  0  0  0  0
   -3.9209    4.7297    2.9601 H   0  0  0  0  0  0  0  0  0  0  0  0
   -2.0135    5.5555    2.3846 C   0  0  0  0  0  0  0  0  0  0  0  0
   -1.5472    4.3892    2.2389 O   0  0  0  0  0  1  0  0  0  0  0  0
   -1.3802    6.6258    2.2771 O   0  0  0  0  0  0  0  0  0  0  0  0
   -0.0239    2.8963   -0.0108 C   0  0  0  0  0  0  0  0  0  0  0  0
    0.8989    3.2155    0.0548 H   0  0  0  0  0  0  0  0  0  0  0  0
   -0.5919    3.2118    0.7215 H   0  0  0  0  0  0  0  0  0  0  0  0
   -0.4409    3.2795   -0.9421 H   0  0  0  0  0  0  0  0  0  0  0  0
   -0.0113    1.3993    0.0099 C   0  0  0  0  0  0  0  0  0  0  0  0
   -1.1921    0.6921   -0.0168 C   0  0  0  0  0  0  0  0  0  0  0  0
   -2.0663    1.1723   -0.0494 H   0  0  0  0  0  0  0  0  0  0  0  0
   -1.1906   -0.7003    0.0000 C   0  0  0  0  0  0  0  0  0  0  0  0
   -2.0695   -1.1938    0.0086 H   0  0  0  0  0  0  0  0  0  0  0  0
    0.0061   -1.3931    0.0070 C   0  0  0  0  0  0  0  0  0  0  0  0
    0.0048   -2.3904    0.0162 H   0  0  0  0  0  0  0  0  0  0  0  0
    1.1906   -0.6902    0.0000 C   0  0  0  0  0  0  0  0  0  0  0  0
    2.0822   -1.1907   -0.0033 H   0  0  0  0  0  0  0  0  0  0  0  0
    1.1973    0.6922   -0.0000 C   0  0  0  0  0  0  0  0  0  0  0  0
    2.0569    1.1924   -0.0079 H   0  0  0  0  0  0  0  0  0  0  0  0
  1  5  1  0
  5  6  1  0
  5  7  2  0
  1  2  1  0
  1  3  1  0
  1  4  1  0
  8 12  1  0
 12 13  2  0
 13 15  1  0
 15 17  2  0
 17 19  1  0
 19 21  2  0
 21 12  1  0
  8  9  1  0
  8 10  1  0
  8 11  1  0
 13 14  1  0
 15 16  1  0
 17 18  1  0
 19 20  1  0
 21 22  1  0
M  CHG  1   6  -1
M  END
>  <PDB_ID>  (7) 
pdb1a0p

>  <RESIDUE_NAME>  (7) 
ASP   PHE

>  <FRAG_NAME>  (7) 
ACET   MBZ

>  <FRAG_ATOM_NUM>  (7) 
fragi: 7  fragj: 15

>  <atom.prop.CHAIN_ID>  (7) 
A A A A A A A Z Z Z Z Z Z Z Z Z Z Z Z Z Z Z

>  <atom.prop.IS_HEAVY_ATOM>  (7) 
1 0 0 0 1 1 1 1 0 0 0 1 1 0 1 0 1 0 1 0 1 0

>  <DIFUSE_FUNC_ATOM>  (7) 
atom 6   atom 7   

>  <FINAL_SINGLE_POINT_ENERGY>  (7) 
0

>  <NONCOV_INTER_ENERGY_QM>  (7) 
0

>  <FF_Energy>  (7) 
1.8

>  <QM_Energy>  (7) 
-5.45

>  <source>  (7) 
ACET_MBZ_00

>  <Index>  (7) 
203

$$$$
ACET-pdb1a16-B-GLU-171:MBZ-pdb1a16-B-PHE-175
     RDKit          3D

 22 21  0  0  0  0  0  0  0  0999 V2000
    5.8819   -0.6018    1.0004 C   0  0  0  0  0  0  0  0  0  0  0  0
    6.3397   -1.0241    1.7696 H   0  0  0  0  0  0  0  0  0  0  0  0
    5.2638    0.1102    1.3013 H   0  0  0  0  0  0  0  0  0  0  0  0
    6.6422   -0.1428    0.3684 H   0  0  0  0  0  0  0  0  0  0  0  0
    5.0475   -1.6744    0.3189 C   0  0  0  0  0  0  0  0  0  0  0  0
    5.5075   -2.3034   -0.6642 O   0  0  0  0  0  1  0  0  0  0  0  0
    3.9199   -1.9053    0.8014 O   0  0  0  0  0  0  0  0  0  0  0  0
   -0.0034    2.8981   -0.0945 C   0  0  0  0  0  0  0  0  0  0  0  0
    0.8296    3.2351    0.3120 H   0  0  0  0  0  0  0  0  0  0  0  0
   -0.8023    3.2335    0.3774 H   0  0  0  0  0  0  0  0  0  0  0  0
   -0.0449    3.2637   -1.1205 H   0  0  0  0  0  0  0  0  0  0  0  0
    0.0021    1.4002    0.0009 C   0  0  0  0  0  0  0  0  0  0  0  0
   -1.1990    0.6893    0.0014 C   0  0  0  0  0  0  0  0  0  0  0  0
   -2.0635    1.1808    0.0012 H   0  0  0  0  0  0  0  0  0  0  0  0
   -1.2036   -0.7014    0.0000 C   0  0  0  0  0  0  0  0  0  0  0  0
   -2.0802   -1.1946    0.0037 H   0  0  0  0  0  0  0  0  0  0  0  0
   -0.0031   -1.3926   -0.0051 C   0  0  0  0  0  0  0  0  0  0  0  0
    0.0006   -2.3914   -0.0134 H   0  0  0  0  0  0  0  0  0  0  0  0
    1.2036   -0.6908   -0.0000 C   0  0  0  0  0  0  0  0  0  0  0  0
    2.0825   -1.1934    0.0037 H   0  0  0  0  0  0  0  0  0  0  0  0
    1.2001    0.6954    0.0027 C   0  0  0  0  0  0  0  0  0  0  0  0
    2.0666    1.1937    0.0051 H   0  0  0  0  0  0  0  0  0  0  0  0
  1  5  1  0
  5  6  1  0
  5  7  2  0
  1  2  1  0
  1  3  1  0
  1  4  1  0
  8 12  1  0
 12 13  2  0
 13 15  1  0
 15 17  2  0
 17 19  1  0
 19 21  2  0
 21 12  1  0
  8  9  1  0
  8 10  1  0
  8 11  1  0
 13 14  1  0
 15 16  1  0
 17 18  1  0
 19 20  1  0
 21 22  1  0
M  CHG  1   6  -1
M  END
>  <PDB_ID>  (8) 
pdb1a16

>  <RESIDUE_NAME>  (8) 
GLU   PHE

>  <FRAG_NAME>  (8) 
ACET   MBZ

>  <FRAG_ATOM_NUM>  (8) 
fragi: 7  fragj: 15

>  <atom.prop.CHAIN_ID>  (8) 
A A A A A A A Z Z Z Z Z Z Z Z Z Z Z Z Z Z Z

>  <atom.prop.IS_HEAVY_ATOM>  (8) 
1 0 0 0 1 1 1 1 0 0 0 1 1 0 1 0 1 0 1 0 1 0

>  <DIFUSE_FUNC_ATOM>  (8) 
atom 6   atom 7   

>  <FINAL_SINGLE_POINT_ENERGY>  (8) 
0

>  <NONCOV_INTER_ENERGY_QM>  (8) 
0

>  <FF_Energy>  (8) 
0.45

>  <QM_Energy>  (8) 
-5.87

>  <source>  (8) 
ACET_MBZ_00

>  <Index>  (8) 
214

$$$$
ACET-pdb1a28-A-ASP-878:MBZ-pdb1a28-A-PHE-930
     RDKit          3D

 22 21  0  0  0  0  0  0  0  0999 V2000
    5.2578    4.7518   -0.0322 C   0  0  0  0  0  0  0  0  0  0  0  0
    5.2380    5.0740    0.9085 H   0  0  0  0  0  0  0  0  0  0  0  0
    5.6299    5.4540   -0.6300 H   0  0  0  0  0  0  0  0  0  0  0  0
    5.9212    3.8880   -0.0760 H   0  0  0  0  0  0  0  0  0  0  0  0
    3.8332    4.4420   -0.4719 C   0  0  0  0  0  0  0  0  0  0  0  0
    3.5561    3.3014   -0.8997 O   0  0  0  0  0  1  0  0  0  0  0  0
    2.9835    5.3628   -0.3906 O   0  0  0  0  0  0  0  0  0  0  0  0
   -0.0136    2.8827   -0.0512 C   0  0  0  0  0  0  0  0  0  0  0  0
    0.8442    3.2145    0.3146 H   0  0  0  0  0  0  0  0  0  0  0  0
   -0.7799    3.2048    0.4868 H   0  0  0  0  0  0  0  0  0  0  0  0
   -0.1226    3.2841   -1.0587 H   0  0  0  0  0  0  0  0  0  0  0  0
    0.0002    1.3952    0.0001 C   0  0  0  0  0  0  0  0  0  0  0  0
   -1.1990    0.6911    0.0019 C   0  0  0  0  0  0  0  0  0  0  0  0
   -2.0628    1.1837    0.0037 H   0  0  0  0  0  0  0  0  0  0  0  0
   -1.2010   -0.6933    0.0000 C   0  0  0  0  0  0  0  0  0  0  0  0
   -2.0749   -1.1932    0.0016 H   0  0  0  0  0  0  0  0  0  0  0  0
    0.0051   -1.3899   -0.0016 C   0  0  0  0  0  0  0  0  0  0  0  0
   -0.0031   -2.3900   -0.0045 H   0  0  0  0  0  0  0  0  0  0  0  0
    1.2010   -0.6975   -0.0000 C   0  0  0  0  0  0  0  0  0  0  0  0
    2.0844   -1.1910    0.0025 H   0  0  0  0  0  0  0  0  0  0  0  0
    1.1937    0.6944   -0.0004 C   0  0  0  0  0  0  0  0  0  0  0  0
    2.0627    1.1905   -0.0016 H   0  0  0  0  0  0  0  0  0  0  0  0
  1  5  1  0
  5  6  1  0
  5  7  2  0
  1  2  1  0
  1  3  1  0
  1  4  1  0
  8 12  1  0
 12 13  2  0
 13 15  1  0
 15 17  2  0
 17 19  1  0
 19 21  2  0
 21 12  1  0
  8  9  1  0
  8 10  1  0
  8 11  1  0
 13 14  1  0
 15 16  1  0
 17 18  1  0
 19 20  1  0
 21 22  1  0
M  CHG  1   6  -1
M  END
>  <PDB_ID>  (9) 
pdb1a28

>  <RESIDUE_NAME>  (9) 
ASP   PHE

>  <FRAG_NAME>  (9) 
ACET   MBZ

>  <FRAG_ATOM_NUM>  (9) 
fragi: 7  fragj: 15

>  <atom.prop.CHAIN_ID>  (9) 
A A A A A A A Z Z Z Z Z Z Z Z Z Z Z Z Z Z Z

>  <atom.prop.IS_HEAVY_ATOM>  (9) 
1 0 0 0 1 1 1 1 0 0 0 1 1 0 1 0 1 0 1 0 1 0

>  <DIFUSE_FUNC_ATOM>  (9) 
atom 6   atom 7   

>  <FINAL_SINGLE_POINT_ENERGY>  (9) 
0

>  <NONCOV_INTER_ENERGY_QM>  (9) 
0

>  <FF_Energy>  (9) 
-2.39

>  <QM_Energy>  (9) 
-7.4

>  <source>  (9) 
ACET_MBZ_00

>  <Index>  (9) 
241

$$$$
ACET-pdb1a28-B-ASP-878:MBZ-pdb1a28-B-PHE-930
     RDKit          3D

 22 21  0  0  0  0  0  0  0  0999 V2000
   -5.6271    3.3062   -0.3148 C   0  0  0  0  0  0  0  0  0  0  0  0
   -5.8664    3.8015   -1.1447 H   0  0  0  0  0  0  0  0  0  0  0  0
   -5.9999    3.7718    0.4818 H   0  0  0  0  0  0  0  0  0  0  0  0
   -6.0867    2.3195   -0.3705 H   0  0  0  0  0  0  0  0  0  0  0  0
   -4.1254    3.2512   -0.1938 C   0  0  0  0  0  0  0  0  0  0  0  0
   -3.6148    2.6822    0.7949 O   0  0  0  0  0  1  0  0  0  0  0  0
   -3.4504    3.7878   -1.0942 O   0  0  0  0  0  0  0  0  0  0  0  0
    0.0126    2.8963    0.0265 C   0  0  0  0  0  0  0  0  0  0  0  0
   -0.7810    3.2220   -0.4680 H   0  0  0  0  0  0  0  0  0  0  0  0
    0.8506    3.2068   -0.4000 H   0  0  0  0  0  0  0  0  0  0  0  0
   -0.0253    3.3167    1.0314 H   0  0  0  0  0  0  0  0  0  0  0  0
   -0.0002    1.4038   -0.0011 C   0  0  0  0  0  0  0  0  0  0  0  0
   -1.2008    0.7009    0.0016 C   0  0  0  0  0  0  0  0  0  0  0  0
   -2.0651    1.1873    0.0036 H   0  0  0  0  0  0  0  0  0  0  0  0
   -1.2030   -0.6980   -0.0000 C   0  0  0  0  0  0  0  0  0  0  0  0
   -2.0782   -1.1909    0.0002 H   0  0  0  0  0  0  0  0  0  0  0  0
    0.0039   -1.3965    0.0001 C   0  0  0  0  0  0  0  0  0  0  0  0
   -0.0045   -2.3950    0.0001 H   0  0  0  0  0  0  0  0  0  0  0  0
    1.2030   -0.7031   -0.0000 C   0  0  0  0  0  0  0  0  0  0  0  0
    2.0851   -1.1970    0.0025 H   0  0  0  0  0  0  0  0  0  0  0  0
    1.1970    0.6929   -0.0007 C   0  0  0  0  0  0  0  0  0  0  0  0
    2.0657    1.1876   -0.0013 H   0  0  0  0  0  0  0  0  0  0  0  0
  1  5  1  0
  5  6  1  0
  5  7  2  0
  1  2  1  0
  1  3  1  0
  1  4  1  0
  8 12  1  0
 12 13  2  0
 13 15  1  0
 15 17  2  0
 17 19  1  0
 19 21  2  0
 21 12  1  0
  8  9  1  0
  8 10  1  0
  8 11  1  0
 13 14  1  0
 15 16  1  0
 17 18  1  0
 19 20  1  0
 21 22  1  0
M  CHG  1   6  -1
M  END
>  <PDB_ID>  (10) 
pdb1a28

>  <RESIDUE_NAME>  (10) 
ASP   PHE

>  <FRAG_NAME>  (10) 
ACET   MBZ

>  <FRAG_ATOM_NUM>  (10) 
fragi: 7  fragj: 15

>  <atom.prop.CHAIN_ID>  (10) 
A A A A A A A Z Z Z Z Z Z Z Z Z Z Z Z Z Z Z

>  <atom.prop.IS_HEAVY_ATOM>  (10) 
1 0 0 0 1 1 1 1 0 0 0 1 1 0 1 0 1 0 1 0 1 0

>  <DIFUSE_FUNC_ATOM>  (10) 
atom 6   atom 7   

>  <FINAL_SINGLE_POINT_ENERGY>  (10) 
0

>  <NONCOV_INTER_ENERGY_QM>  (10) 
0

>  <FF_Energy>  (10) 
-1.73

>  <QM_Energy>  (10) 
-9.18

>  <source>  (10) 
ACET_MBZ_00

>  <Index>  (10) 
259

$$$$
ACET-pdb2a1x-A-GLU-62:MBZ-pdb2a1x-A-PHE-44
     RDKit          3D

 22 21  0  0  0  0  0  0  0  0999 V2000
   -4.0420    2.2255    1.1713 C   0  0  0  0  0  0  0  0  0  0  0  0
   -4.1629    2.4812    2.1113 H   0  0  0  0  0  0  0  0  0  0  0  0
   -3.4063    1.4857    1.0609 H   0  0  0  0  0  0  0  0  0  0  0  0
   -5.0074    1.9182    0.7691 H   0  0  0  0  0  0  0  0  0  0  0  0
   -3.4621    3.4340    0.4422 C   0  0  0  0  0  0  0  0  0  0  0  0
   -3.6669    3.5889   -0.7998 O   0  0  0  0  0  1  0  0  0  0  0  0
   -2.7982    4.2356    1.1344 O   0  0  0  0  0  0  0  0  0  0  0  0
   -0.0087    2.9492   -0.0195 C   0  0  0  0  0  0  0  0  0  0  0  0
    0.8638    3.2525    0.3200 H   0  0  0  0  0  0  0  0  0  0  0  0
   -0.7526    3.2495    0.5495 H   0  0  0  0  0  0  0  0  0  0  0  0
   -0.1510    3.3751   -1.0127 H   0  0  0  0  0  0  0  0  0  0  0  0
   -0.0036    1.4186   -0.0016 C   0  0  0  0  0  0  0  0  0  0  0  0
   -1.1986    0.6980   -0.0009 C   0  0  0  0  0  0  0  0  0  0  0  0
   -2.0697    1.1827   -0.0021 H   0  0  0  0  0  0  0  0  0  0  0  0
   -1.2069   -0.7063    0.0000 C   0  0  0  0  0  0  0  0  0  0  0  0
   -2.0830   -1.1940   -0.0010 H   0  0  0  0  0  0  0  0  0  0  0  0
    0.0003   -1.4101    0.0039 C   0  0  0  0  0  0  0  0  0  0  0  0
   -0.0025   -2.4032    0.0094 H   0  0  0  0  0  0  0  0  0  0  0  0
    1.2069   -0.7041   -0.0000 C   0  0  0  0  0  0  0  0  0  0  0  0
    2.0882   -1.1948   -0.0002 H   0  0  0  0  0  0  0  0  0  0  0  0
    1.2018    0.7040   -0.0015 C   0  0  0  0  0  0  0  0  0  0  0  0
    2.0678    1.1954   -0.0036 H   0  0  0  0  0  0  0  0  0  0  0  0
  1  5  1  0
  5  6  1  0
  5  7  2  0
  1  2  1  0
  1  3  1  0
  1  4  1  0
  8 12  1  0
 12 13  2  0
 13 15  1  0
 15 17  2  0
 17 19  1  0
 19 21  2  0
 21 12  1  0
  8  9  1  0
  8 10  1  0
  8 11  1  0
 13 14  1  0
 15 16  1  0
 17 18  1  0
 19 20  1  0
 21 22  1  0
M  CHG  1   6  -1
M  END
>  <PDB_ID>  (11) 
pdb2a1x

>  <RESIDUE_NAME>  (11) 
GLU   PHE

>  <FRAG_NAME>  (11) 
ACET   MBZ

>  <FRAG_ATOM_NUM>  (11) 
fragi: 7  fragj: 15

>  <atom.prop.CHAIN_ID>  (11) 
A A A A A A A Z Z Z Z Z Z Z Z Z Z Z Z Z Z Z

>  <atom.prop.IS_HEAVY_ATOM>  (11) 
1 0 0 0 1 1 1 1 0 0 0 1 1 0 1 0 1 0 1 0 1 0

>  <DIFUSE_FUNC_ATOM>  (11) 
atom 6   atom 7   

>  <FINAL_SINGLE_POINT_ENERGY>  (11) 
0

>  <NONCOV_INTER_ENERGY_QM>  (11) 
0

>  <FF_Energy>  (11) 
5.12

>  <QM_Energy>  (11) 
-5.25

>  <source>  (11) 
ACET_MBZ_00

>  <Index>  (11) 
342

$$$$
ACET-pdb2a33-A-GLU-125:MBZ-pdb2a33-A-PHE-19
     RDKit          3D

 22 21  0  0  0  0  0  0  0  0999 V2000
   -1.9075    0.3939    4.1162 C   0  0  0  0  0  0  0  0  0  0  0  0
   -2.3588   -0.4704    4.0575 H   0  0  0  0  0  0  0  0  0  0  0  0
   -1.8323    0.7297    5.0307 H   0  0  0  0  0  0  0  0  0  0  0  0
   -0.9050    0.2889    3.7012 H   0  0  0  0  0  0  0  0  0  0  0  0
   -2.7670    1.4102    3.3292 C   0  0  0  0  0  0  0  0  0  0  0  0
   -2.2282    2.2516    2.5372 O   0  0  0  0  0  1  0  0  0  0  0  0
   -3.9974    1.3857    3.5509 O   0  0  0  0  0  0  0  0  0  0  0  0
    0.0082    2.9455    0.0530 C   0  0  0  0  0  0  0  0  0  0  0  0
    0.9386    3.2440   -0.1086 H   0  0  0  0  0  0  0  0  0  0  0  0
   -0.2991    3.2125    0.9551 H   0  0  0  0  0  0  0  0  0  0  0  0
   -0.6315    3.4434   -0.6758 H   0  0  0  0  0  0  0  0  0  0  0  0
   -0.0047    1.4205   -0.0072 C   0  0  0  0  0  0  0  0  0  0  0  0
   -1.1984    0.7145    0.0299 C   0  0  0  0  0  0  0  0  0  0  0  0
   -2.0680    1.1943    0.0767 H   0  0  0  0  0  0  0  0  0  0  0  0
   -1.2154   -0.7047   -0.0000 C   0  0  0  0  0  0  0  0  0  0  0  0
   -2.0920   -1.1819   -0.0101 H   0  0  0  0  0  0  0  0  0  0  0  0
   -0.0052   -1.4170   -0.0128 C   0  0  0  0  0  0  0  0  0  0  0  0
   -0.0199   -2.4132   -0.0317 H   0  0  0  0  0  0  0  0  0  0  0  0
    1.2154   -0.7292   -0.0000 C   0  0  0  0  0  0  0  0  0  0  0  0
    2.0890   -1.2064    0.0171 H   0  0  0  0  0  0  0  0  0  0  0  0
    1.2084    0.7161   -0.0100 C   0  0  0  0  0  0  0  0  0  0  0  0
    2.0723    1.1930   -0.0197 H   0  0  0  0  0  0  0  0  0  0  0  0
  1  5  1  0
  5  6  1  0
  5  7  2  0
  1  2  1  0
  1  3  1  0
  1  4  1  0
  8 12  1  0
 12 13  2  0
 13 15  1  0
 15 17  2  0
 17 19  1  0
 19 21  2  0
 21 12  1  0
  8  9  1  0
  8 10  1  0
  8 11  1  0
 13 14  1  0
 15 16  1  0
 17 18  1  0
 19 20  1  0
 21 22  1  0
M  CHG  1   6  -1
M  END
>  <PDB_ID>  (12) 
pdb2a33

>  <RESIDUE_NAME>  (12) 
GLU   PHE

>  <FRAG_NAME>  (12) 
ACET   MBZ

>  <FRAG_ATOM_NUM>  (12) 
fragi: 7  fragj: 15

>  <atom.prop.CHAIN_ID>  (12) 
A A A A A A A Z Z Z Z Z Z Z Z Z Z Z Z Z Z Z

>  <atom.prop.IS_HEAVY_ATOM>  (12) 
1 0 0 0 1 1 1 1 0 0 0 1 1 0 1 0 1 0 1 0 1 0

>  <DIFUSE_FUNC_ATOM>  (12) 
atom 6   atom 7   

>  <FINAL_SINGLE_POINT_ENERGY>  (12) 
0

>  <NONCOV_INTER_ENERGY_QM>  (12) 
0

>  <FF_Energy>  (12) 
-0.52

>  <QM_Energy>  (12) 
-5.98

>  <source>  (12) 
ACET_MBZ_00

>  <Index>  (12) 
390

$$$$
ACET-pdb2a3z-A-GLU-259:MBZ-pdb2a3z-A-PHE-223
     RDKit          3D

 22 21  0  0  0  0  0  0  0  0999 V2000
   -1.3298    0.5640   -3.6513 C   0  0  0  0  0  0  0  0  0  0  0  0
   -0.8300    0.0942   -2.9492 H   0  0  0  0  0  0  0  0  0  0  0  0
   -0.9595    0.4066   -4.5467 H   0  0  0  0  0  0  0  0  0  0  0  0
   -2.3448    0.1668   -3.6451 H   0  0  0  0  0  0  0  0  0  0  0  0
   -1.2773    2.0409   -3.3681 C   0  0  0  0  0  0  0  0  0  0  0  0
   -2.3565    2.6143   -3.0029 O   0  0  0  0  0  1  0  0  0  0  0  0
   -0.1656    2.6283   -3.5396 O   0  0  0  0  0  0  0  0  0  0  0  0
   -0.0134    2.9303    0.0059 C   0  0  0  0  0  0  0  0  0  0  0  0
   -0.6605    3.2245   -0.6750 H   0  0  0  0  0  0  0  0  0  0  0  0
    0.9010    3.2338   -0.1965 H   0  0  0  0  0  0  0  0  0  0  0  0
   -0.3091    3.3550    0.9652 H   0  0  0  0  0  0  0  0  0  0  0  0
   -0.0020    1.4022   -0.0049 C   0  0  0  0  0  0  0  0  0  0  0  0
   -1.1906    0.6875    0.0134 C   0  0  0  0  0  0  0  0  0  0  0  0
   -2.0625    1.1819    0.0351 H   0  0  0  0  0  0  0  0  0  0  0  0
   -1.2036   -0.6960    0.0000 C   0  0  0  0  0  0  0  0  0  0  0  0
   -2.0793   -1.1896   -0.0075 H   0  0  0  0  0  0  0  0  0  0  0  0
   -0.0014   -1.3945   -0.0013 C   0  0  0  0  0  0  0  0  0  0  0  0
   -0.0113   -2.3956   -0.0036 H   0  0  0  0  0  0  0  0  0  0  0  0
    1.2036   -0.7076    0.0000 C   0  0  0  0  0  0  0  0  0  0  0  0
    2.0825   -1.1925    0.0077 H   0  0  0  0  0  0  0  0  0  0  0  0
    1.1939    0.7083   -0.0073 C   0  0  0  0  0  0  0  0  0  0  0  0
    2.0625    1.1935   -0.0149 H   0  0  0  0  0  0  0  0  0  0  0  0
  1  5  1  0
  5  6  1  0
  5  7  2  0
  1  2  1  0
  1  3  1  0
  1  4  1  0
  8 12  1  0
 12 13  2  0
 13 15  1  0
 15 17  2  0
 17 19  1  0
 19 21  2  0
 21 12  1  0
  8  9  1  0
  8 10  1  0
  8 11  1  0
 13 14  1  0
 15 16  1  0
 17 18  1  0
 19 20  1  0
 21 22  1  0
M  CHG  1   6  -1
M  END
>  <PDB_ID>  (13) 
pdb2a3z

>  <RESIDUE_NAME>  (13) 
GLU   PHE

>  <FRAG_NAME>  (13) 
ACET   MBZ

>  <FRAG_ATOM_NUM>  (13) 
fragi: 7  fragj: 15

>  <atom.prop.CHAIN_ID>  (13) 
A A A A A A A Z Z Z Z Z Z Z Z Z Z Z Z Z Z Z

>  <atom.prop.IS_HEAVY_ATOM>  (13) 
1 0 0 0 1 1 1 1 0 0 0 1 1 0 1 0 1 0 1 0 1 0

>  <DIFUSE_FUNC_ATOM>  (13) 
atom 6   atom 7   

>  <FINAL_SINGLE_POINT_ENERGY>  (13) 
0

>  <NONCOV_INTER_ENERGY_QM>  (13) 
0

>  <FF_Energy>  (13) 
-0.67

>  <QM_Energy>  (13) 
-6.21

>  <source>  (13) 
ACET_MBZ_00

>  <Index>  (13) 
483

$$$$
ACET-pdb1a3g-B-GLU-260:MBZ-pdb1a3g-B-PHE-288
     RDKit          3D

 22 21  0  0  0  0  0  0  0  0999 V2000
    3.7237   -2.6744   -1.4795 C   0  0  0  0  0  0  0  0  0  0  0  0
    3.0712   -2.2532   -0.8692 H   0  0  0  0  0  0  0  0  0  0  0  0
    3.4026   -3.5498   -1.8044 H   0  0  0  0  0  0  0  0  0  0  0  0
    3.8451   -2.0199   -2.3426 H   0  0  0  0  0  0  0  0  0  0  0  0
    5.0172   -2.9538   -0.6348 C   0  0  0  0  0  0  0  0  0  0  0  0
    6.1811   -2.9631   -1.1559 O   0  0  0  0  0  1  0  0  0  0  0  0
    4.8443   -3.2035    0.5809 O   0  0  0  0  0  0  0  0  0  0  0  0
   -0.0037    2.9365   -0.0442 C   0  0  0  0  0  0  0  0  0  0  0  0
   -0.4381    3.2060   -0.8831 H   0  0  0  0  0  0  0  0  0  0  0  0
    0.9278    3.2414    0.0102 H   0  0  0  0  0  0  0  0  0  0  0  0
   -0.5544    3.3887    0.7806 H   0  0  0  0  0  0  0  0  0  0  0  0
    0.0085    1.4034   -0.0011 C   0  0  0  0  0  0  0  0  0  0  0  0
   -1.1945    0.6753    0.0025 C   0  0  0  0  0  0  0  0  0  0  0  0
   -2.0611    1.1732    0.0055 H   0  0  0  0  0  0  0  0  0  0  0  0
   -1.2077   -0.7124   -0.0000 C   0  0  0  0  0  0  0  0  0  0  0  0
   -2.0879   -1.1977    0.0020 H   0  0  0  0  0  0  0  0  0  0  0  0
   -0.0222   -1.3861   -0.0028 C   0  0  0  0  0  0  0  0  0  0  0  0
    0.0041   -2.3875   -0.0071 H   0  0  0  0  0  0  0  0  0  0  0  0
    1.2077   -0.6757    0.0000 C   0  0  0  0  0  0  0  0  0  0  0  0
    2.0747   -1.1957    0.0022 H   0  0  0  0  0  0  0  0  0  0  0  0
    1.2082    0.6955    0.0014 C   0  0  0  0  0  0  0  0  0  0  0  0
    2.0726    1.1997    0.0036 H   0  0  0  0  0  0  0  0  0  0  0  0
  1  5  1  0
  5  6  1  0
  5  7  2  0
  1  2  1  0
  1  3  1  0
  1  4  1  0
  8 12  1  0
 12 13  2  0
 13 15  1  0
 15 17  2  0
 17 19  1  0
 19 21  2  0
 21 12  1  0
  8  9  1  0
  8 10  1  0
  8 11  1  0
 13 14  1  0
 15 16  1  0
 17 18  1  0
 19 20  1  0
 21 22  1  0
M  CHG  1   6  -1
M  END
>  <PDB_ID>  (14) 
pdb1a3g

>  <RESIDUE_NAME>  (14) 
GLU   PHE

>  <FRAG_NAME>  (14) 
ACET   MBZ

>  <FRAG_ATOM_NUM>  (14) 
fragi: 7  fragj: 15

>  <atom.prop.CHAIN_ID>  (14) 
A A A A A A A Z Z Z Z Z Z Z Z Z Z Z Z Z Z Z

>  <atom.prop.IS_HEAVY_ATOM>  (14) 
1 0 0 0 1 1 1 1 0 0 0 1 1 0 1 0 1 0 1 0 1 0

>  <DIFUSE_FUNC_ATOM>  (14) 
atom 6   atom 7   

>  <FINAL_SINGLE_POINT_ENERGY>  (14) 
0

>  <NONCOV_INTER_ENERGY_QM>  (14) 
0

>  <FF_Energy>  (14) 
-2.51

>  <QM_Energy>  (14) 
-0.4

>  <source>  (14) 
ACET_MBZ_00

>  <Index>  (14) 
559

$$$$
ACET-pdb1a3q-A-ASP-219:MBZ-pdb1a3q-A-PHE-53
     RDKit          3D

 22 21  0  0  0  0  0  0  0  0999 V2000
    1.0055    0.4065   -3.4096 C   0  0  0  0  0  0  0  0  0  0  0  0
    1.3340   -0.0072   -2.5693 H   0  0  0  0  0  0  0  0  0  0  0  0
    1.6666    0.2877   -4.1398 H   0  0  0  0  0  0  0  0  0  0  0  0
    0.0957   -0.1183   -3.7009 H   0  0  0  0  0  0  0  0  0  0  0  0
    0.7972    1.9066   -3.1714 C   0  0  0  0  0  0  0  0  0  0  0  0
   -0.3323    2.3947   -3.3408 O   0  0  0  0  0  1  0  0  0  0  0  0
    1.7662    2.6176   -2.8143 O   0  0  0  0  0  0  0  0  0  0  0  0
    0.0409    2.9094    0.0371 C   0  0  0  0  0  0  0  0  0  0  0  0
    0.4917    3.2217   -0.7875 H   0  0  0  0  0  0  0  0  0  0  0  0
    0.5464    3.1830    0.8445 H   0  0  0  0  0  0  0  0  0  0  0  0
   -0.9379    3.3869    0.0817 H   0  0  0  0  0  0  0  0  0  0  0  0
    0.0049    1.3989    0.0017 C   0  0  0  0  0  0  0  0  0  0  0  0
   -1.1982    0.7015    0.0004 C   0  0  0  0  0  0  0  0  0  0  0  0
   -2.0607    1.1915   -0.0011 H   0  0  0  0  0  0  0  0  0  0  0  0
   -1.2065   -0.6976   -0.0000 C   0  0  0  0  0  0  0  0  0  0  0  0
   -2.0813   -1.1862    0.0032 H   0  0  0  0  0  0  0  0  0  0  0  0
   -0.0016   -1.3903   -0.0026 C   0  0  0  0  0  0  0  0  0  0  0  0
   -0.0032   -2.3904   -0.0063 H   0  0  0  0  0  0  0  0  0  0  0  0
    1.2065   -0.6944    0.0000 C   0  0  0  0  0  0  0  0  0  0  0  0
    2.0818   -1.1989    0.0027 H   0  0  0  0  0  0  0  0  0  0  0  0
    1.1949    0.6818    0.0006 C   0  0  0  0  0  0  0  0  0  0  0  0
    2.0676    1.1865   -0.0007 H   0  0  0  0  0  0  0  0  0  0  0  0
  1  5  1  0
  5  6  1  0
  5  7  2  0
  1  2  1  0
  1  3  1  0
  1  4  1  0
  8 12  1  0
 12 13  2  0
 13 15  1  0
 15 17  2  0
 17 19  1  0
 19 21  2  0
 21 12  1  0
  8  9  1  0
  8 10  1  0
  8 11  1  0
 13 14  1  0
 15 16  1  0
 17 18  1  0
 19 20  1  0
 21 22  1  0
M  CHG  1   6  -1
M  END
>  <PDB_ID>  (15) 
pdb1a3q

>  <RESIDUE_NAME>  (15) 
ASP   PHE

>  <FRAG_NAME>  (15) 
ACET   MBZ

>  <FRAG_ATOM_NUM>  (15) 
fragi: 7  fragj: 15

>  <atom.prop.CHAIN_ID>  (15) 
A A A A A A A Z Z Z Z Z Z Z Z Z Z Z Z Z Z Z

>  <atom.prop.IS_HEAVY_ATOM>  (15) 
1 0 0 0 1 1 1 1 0 0 0 1 1 0 1 0 1 0 1 0 1 0

>  <DIFUSE_FUNC_ATOM>  (15) 
atom 6   atom 7   

>  <FINAL_SINGLE_POINT_ENERGY>  (15) 
0

>  <NONCOV_INTER_ENERGY_QM>  (15) 
0

>  <FF_Energy>  (15) 
1.43

>  <QM_Energy>  (15) 
-6.66

>  <source>  (15) 
ACET_MBZ_00

>  <Index>  (15) 
575

$$$$
ACET-pdb1a3y-B-ASP-153:MBZ-pdb1a3y-B-PHE-38
     RDKit          3D

 22 21  0  0  0  0  0  0  0  0999 V2000
    3.8912    1.1723   -1.9274 C   0  0  0  0  0  0  0  0  0  0  0  0
    3.7794    0.9269   -0.9735 H   0  0  0  0  0  0  0  0  0  0  0  0
    4.8465    1.3190   -2.1437 H   0  0  0  0  0  0  0  0  0  0  0  0
    3.5318    0.3405   -2.5332 H   0  0  0  0  0  0  0  0  0  0  0  0
    3.1258    2.4741   -2.1891 C   0  0  0  0  0  0  0  0  0  0  0  0
    2.0013    2.4193   -2.7340 O   0  0  0  0  0  1  0  0  0  0  0  0
    3.6495    3.5578   -1.8518 O   0  0  0  0  0  0  0  0  0  0  0  0
    0.0029    2.9122    0.0906 C   0  0  0  0  0  0  0  0  0  0  0  0
   -0.8045    3.2474   -0.3660 H   0  0  0  0  0  0  0  0  0  0  0  0
    0.8281    3.2419   -0.3361 H   0  0  0  0  0  0  0  0  0  0  0  0
   -0.0146    3.2898    1.1129 H   0  0  0  0  0  0  0  0  0  0  0  0
    0.0002    1.4049    0.0015 C   0  0  0  0  0  0  0  0  0  0  0  0
   -1.1951    0.6954   -0.0031 C   0  0  0  0  0  0  0  0  0  0  0  0
   -2.0634    1.1835   -0.0104 H   0  0  0  0  0  0  0  0  0  0  0  0
   -1.2008   -0.7000   -0.0000 C   0  0  0  0  0  0  0  0  0  0  0  0
   -2.0792   -1.1895    0.0014 H   0  0  0  0  0  0  0  0  0  0  0  0
   -0.0022   -1.3945    0.0029 C   0  0  0  0  0  0  0  0  0  0  0  0
   -0.0038   -2.3940    0.0060 H   0  0  0  0  0  0  0  0  0  0  0  0
    1.2008   -0.6977    0.0000 C   0  0  0  0  0  0  0  0  0  0  0  0
    2.0809   -1.1974    0.0007 H   0  0  0  0  0  0  0  0  0  0  0  0
    1.1971    0.6919   -0.0012 C   0  0  0  0  0  0  0  0  0  0  0  0
    2.0652    1.1888   -0.0051 H   0  0  0  0  0  0  0  0  0  0  0  0
  1  5  1  0
  5  6  1  0
  5  7  2  0
  1  2  1  0
  1  3  1  0
  1  4  1  0
  8 12  1  0
 12 13  2  0
 13 15  1  0
 15 17  2  0
 17 19  1  0
 19 21  2  0
 21 12  1  0
  8  9  1  0
  8 10  1  0
  8 11  1  0
 13 14  1  0
 15 16  1  0
 17 18  1  0
 19 20  1  0
 21 22  1  0
M  CHG  1   6  -1
M  END
>  <PDB_ID>  (16) 
pdb1a3y

>  <RESIDUE_NAME>  (16) 
ASP   PHE

>  <FRAG_NAME>  (16) 
ACET   MBZ

>  <FRAG_ATOM_NUM>  (16) 
fragi: 7  fragj: 15

>  <atom.prop.CHAIN_ID>  (16) 
A A A A A A A Z Z Z Z Z Z Z Z Z Z Z Z Z Z Z

>  <atom.prop.IS_HEAVY_ATOM>  (16) 
1 0 0 0 1 1 1 1 0 0 0 1 1 0 1 0 1 0 1 0 1 0

>  <DIFUSE_FUNC_ATOM>  (16) 
atom 6   atom 7   

>  <FINAL_SINGLE_POINT_ENERGY>  (16) 
0

>  <NONCOV_INTER_ENERGY_QM>  (16) 
0

>  <FF_Energy>  (16) 
1.44

>  <QM_Energy>  (16) 
-4.68

>  <source>  (16) 
ACET_MBZ_00

>  <Index>  (16) 
587

$$$$
ACET-pdb1a40-A-ASP-56:MBZ-pdb1a40-A-PHE-11
     RDKit          3D

 22 21  0  0  0  0  0  0  0  0999 V2000
    0.3355    1.6406    4.7579 C   0  0  0  0  0  0  0  0  0  0  0  0
    1.2248    1.8598    5.1466 H   0  0  0  0  0  0  0  0  0  0  0  0
    0.3227    0.6986    4.4380 H   0  0  0  0  0  0  0  0  0  0  0  0
   -0.4064    1.7336    5.5509 H   0  0  0  0  0  0  0  0  0  0  0  0
    0.0639    2.5570    3.6026 C   0  0  0  0  0  0  0  0  0  0  0  0
   -1.0432    2.5210    3.0438 O   0  0  0  0  0  1  0  0  0  0  0  0
    0.9667    3.3477    3.2743 O   0  0  0  0  0  0  0  0  0  0  0  0
   -0.0018    2.9036    0.1875 C   0  0  0  0  0  0  0  0  0  0  0  0
    0.9164    3.1881    0.4467 H   0  0  0  0  0  0  0  0  0  0  0  0
   -0.6470    3.1272    0.9125 H   0  0  0  0  0  0  0  0  0  0  0  0
   -0.2854    3.4884   -0.6875 H   0  0  0  0  0  0  0  0  0  0  0  0
    0.0011    1.4201    0.0031 C   0  0  0  0  0  0  0  0  0  0  0  0
   -1.1984    0.6990   -0.0025 C   0  0  0  0  0  0  0  0  0  0  0  0
   -2.0680    1.1832   -0.0098 H   0  0  0  0  0  0  0  0  0  0  0  0
   -1.2091   -0.7129   -0.0000 C   0  0  0  0  0  0  0  0  0  0  0  0
   -2.0872   -1.1933   -0.0007 H   0  0  0  0  0  0  0  0  0  0  0  0
   -0.0078   -1.4123    0.0051 C   0  0  0  0  0  0  0  0  0  0  0  0
   -0.0015   -2.4051    0.0119 H   0  0  0  0  0  0  0  0  0  0  0  0
    1.2091   -0.7019   -0.0000 C   0  0  0  0  0  0  0  0  0  0  0  0
    2.0863   -1.1963    0.0015 H   0  0  0  0  0  0  0  0  0  0  0  0
    1.2051    0.7080   -0.0057 C   0  0  0  0  0  0  0  0  0  0  0  0
    2.0717    1.1979   -0.0164 H   0  0  0  0  0  0  0  0  0  0  0  0
  1  5  1  0
  5  6  1  0
  5  7  2  0
  1  2  1  0
  1  3  1  0
  1  4  1  0
  8 12  1  0
 12 13  2  0
 13 15  1  0
 15 17  2  0
 17 19  1  0
 19 21  2  0
 21 12  1  0
  8  9  1  0
  8 10  1  0
  8 11  1  0
 13 14  1  0
 15 16  1  0
 17 18  1  0
 19 20  1  0
 21 22  1  0
M  CHG  1   6  -1
M  END
>  <PDB_ID>  (17) 
pdb1a40

>  <RESIDUE_NAME>  (17) 
ASP   PHE

>  <FRAG_NAME>  (17) 
ACET   MBZ

>  <FRAG_ATOM_NUM>  (17) 
fragi: 7  fragj: 15

>  <atom.prop.CHAIN_ID>  (17) 
A A A A A A A Z Z Z Z Z Z Z Z Z Z Z Z Z Z Z

>  <atom.prop.IS_HEAVY_ATOM>  (17) 
1 0 0 0 1 1 1 1 0 0 0 1 1 0 1 0 1 0 1 0 1 0

>  <DIFUSE_FUNC_ATOM>  (17) 
atom 6   atom 7   

>  <FINAL_SINGLE_POINT_ENERGY>  (17) 
0

>  <NONCOV_INTER_ENERGY_QM>  (17) 
0

>  <FF_Energy>  (17) 
2.18

>  <QM_Energy>  (17) 
-6.14

>  <source>  (17) 
ACET_MBZ_00

>  <Index>  (17) 
590

$$$$
ACET-pdb1a49-A-GLU-130:MBZ-pdb1a49-A-PHE-201
     RDKit          3D

 22 21  0  0  0  0  0  0  0  0999 V2000
    3.6745    2.8713   -0.6609 C   0  0  0  0  0  0  0  0  0  0  0  0
    4.3550    2.2162   -0.4157 H   0  0  0  0  0  0  0  0  0  0  0  0
    2.9050    2.8764   -0.0599 H   0  0  0  0  0  0  0  0  0  0  0  0
    4.1380    3.8563   -0.6061 H   0  0  0  0  0  0  0  0  0  0  0  0
    3.1870    2.5528   -2.0571 C   0  0  0  0  0  0  0  0  0  0  0  0
    2.8290    3.4049   -2.8284 O   0  0  0  0  0  1  0  0  0  0  0  0
    3.2531    1.2829   -2.3721 O   0  0  0  0  0  0  0  0  0  0  0  0
   -0.0451    2.9085    0.1825 C   0  0  0  0  0  0  0  0  0  0  0  0
   -0.6600    3.2971   -0.4489 H   0  0  0  0  0  0  0  0  0  0  0  0
    0.8542    3.2516    0.1610 H   0  0  0  0  0  0  0  0  0  0  0  0
   -0.4396    3.1137    1.1776 H   0  0  0  0  0  0  0  0  0  0  0  0
   -0.0040    1.4097   -0.0304 C   0  0  0  0  0  0  0  0  0  0  0  0
   -1.1962    0.6884    0.0357 C   0  0  0  0  0  0  0  0  0  0  0  0
   -2.0641    1.1805    0.1091 H   0  0  0  0  0  0  0  0  0  0  0  0
   -1.2127   -0.7042   -0.0000 C   0  0  0  0  0  0  0  0  0  0  0  0
   -2.0803   -1.1964    0.0045 H   0  0  0  0  0  0  0  0  0  0  0  0
    0.0012   -1.3935   -0.0392 C   0  0  0  0  0  0  0  0  0  0  0  0
   -0.0002   -2.3930   -0.0960 H   0  0  0  0  0  0  0  0  0  0  0  0
    1.2127   -0.6988    0.0000 C   0  0  0  0  0  0  0  0  0  0  0  0
    2.0875   -1.1936    0.0054 H   0  0  0  0  0  0  0  0  0  0  0  0
    1.1991    0.6983    0.0340 C   0  0  0  0  0  0  0  0  0  0  0  0
    2.0620    1.1975    0.1049 H   0  0  0  0  0  0  0  0  0  0  0  0
  1  5  1  0
  5  6  1  0
  5  7  2  0
  1  2  1  0
  1  3  1  0
  1  4  1  0
  8 12  1  0
 12 13  2  0
 13 15  1  0
 15 17  2  0
 17 19  1  0
 19 21  2  0
 21 12  1  0
  8  9  1  0
  8 10  1  0
  8 11  1  0
 13 14  1  0
 15 16  1  0
 17 18  1  0
 19 20  1  0
 21 22  1  0
M  CHG  1   6  -1
M  END
>  <PDB_ID>  (18) 
pdb1a49

>  <RESIDUE_NAME>  (18) 
GLU   PHE

>  <FRAG_NAME>  (18) 
ACET   MBZ

>  <FRAG_ATOM_NUM>  (18) 
fragi: 7  fragj: 15

>  <atom.prop.CHAIN_ID>  (18) 
A A A A A A A Z Z Z Z Z Z Z Z Z Z Z Z Z Z Z

>  <atom.prop.IS_HEAVY_ATOM>  (18) 
1 0 0 0 1 1 1 1 0 0 0 1 1 0 1 0 1 0 1 0 1 0

>  <DIFUSE_FUNC_ATOM>  (18) 
atom 6   atom 7   

>  <FINAL_SINGLE_POINT_ENERGY>  (18) 
0

>  <NONCOV_INTER_ENERGY_QM>  (18) 
0

>  <FF_Energy>  (18) 
4.13

>  <QM_Energy>  (18) 
-1.78

>  <source>  (18) 
ACET_MBZ_00

>  <Index>  (18) 
611

$$$$
ACET-pdb1a49-D-GLU-2196:MBZ-pdb1a49-B-PHE-625
     RDKit          3D

 22 21  0  0  0  0  0  0  0  0999 V2000
    2.6075    7.1493    1.7353 C   0  0  0  0  0  0  0  0  0  0  0  0
    2.0045    7.9104    1.8609 H   0  0  0  0  0  0  0  0  0  0  0  0
    3.3013    7.3172    1.0654 H   0  0  0  0  0  0  0  0  0  0  0  0
    3.1160    6.9895    2.6860 H   0  0  0  0  0  0  0  0  0  0  0  0
    1.7902    5.9537    1.2929 C   0  0  0  0  0  0  0  0  0  0  0  0
    2.0669    4.8672    2.0150 O   0  0  0  0  0  1  0  0  0  0  0  0
    0.9777    5.9866    0.3375 O   0  0  0  0  0  0  0  0  0  0  0  0
   -0.0380    2.8756    0.0229 C   0  0  0  0  0  0  0  0  0  0  0  0
   -0.3373    3.2091   -0.8410 H   0  0  0  0  0  0  0  0  0  0  0  0
    0.8409    3.1986    0.2901 H   0  0  0  0  0  0  0  0  0  0  0  0
   -0.7598    3.1881    0.7775 H   0  0  0  0  0  0  0  0  0  0  0  0
   -0.0041    1.3963   -0.0255 C   0  0  0  0  0  0  0  0  0  0  0  0
   -1.2051    0.6880    0.0102 C   0  0  0  0  0  0  0  0  0  0  0  0
   -2.0691    1.1825    0.0420 H   0  0  0  0  0  0  0  0  0  0  0  0
   -1.2151   -0.7030   -0.0000 C   0  0  0  0  0  0  0  0  0  0  0  0
   -2.0805   -1.1993    0.0014 H   0  0  0  0  0  0  0  0  0  0  0  0
    0.0022   -1.3871   -0.0098 C   0  0  0  0  0  0  0  0  0  0  0  0
    0.0024   -2.3902   -0.0249 H   0  0  0  0  0  0  0  0  0  0  0  0
    1.2151   -0.6934    0.0000 C   0  0  0  0  0  0  0  0  0  0  0  0
    2.0891   -1.1932   -0.0094 H   0  0  0  0  0  0  0  0  0  0  0  0
    1.2069    0.6991    0.0251 C   0  0  0  0  0  0  0  0  0  0  0  0
    2.0637    1.2012    0.0778 H   0  0  0  0  0  0  0  0  0  0  0  0
  1  5  1  0
  5  6  1  0
  5  7  2  0
  1  2  1  0
  1  3  1  0
  1  4  1  0
  8 12  1  0
 12 13  2  0
 13 15  1  0
 15 17  2  0
 17 19  1  0
 19 21  2  0
 21 12  1  0
  8  9  1  0
  8 10  1  0
  8 11  1  0
 13 14  1  0
 15 16  1  0
 17 18  1  0
 19 20  1  0
 21 22  1  0
M  CHG  1   6  -1
M  END
>  <PDB_ID>  (19) 
pdb1a49

>  <RESIDUE_NAME>  (19) 
GLU   PHE

>  <FRAG_NAME>  (19) 
ACET   MBZ

>  <FRAG_ATOM_NUM>  (19) 
fragi: 7  fragj: 15

>  <atom.prop.CHAIN_ID>  (19) 
A A A A A A A Z Z Z Z Z Z Z Z Z Z Z Z Z Z Z

>  <atom.prop.IS_HEAVY_ATOM>  (19) 
1 0 0 0 1 1 1 1 0 0 0 1 1 0 1 0 1 0 1 0 1 0

>  <DIFUSE_FUNC_ATOM>  (19) 
atom 6   atom 7   

>  <FINAL_SINGLE_POINT_ENERGY>  (19) 
0

>  <NONCOV_INTER_ENERGY_QM>  (19) 
0

>  <FF_Energy>  (19) 
-1.3

>  <QM_Energy>  (19) 
-6.31

>  <source>  (19) 
ACET_MBZ_00

>  <Index>  (19) 
617

$$$$
ACET-pdb1a49-E-GLU-3396:MBZ-pdb1a49-G-PHE-4225
     RDKit          3D

 22 21  0  0  0  0  0  0  0  0999 V2000
    3.4213    6.8774   -0.1517 C   0  0  0  0  0  0  0  0  0  0  0  0
    3.1092    7.7993   -0.2328 H   0  0  0  0  0  0  0  0  0  0  0  0
    3.9651    6.5837   -0.9080 H   0  0  0  0  0  0  0  0  0  0  0  0
    4.0554    6.8344    0.7337 H   0  0  0  0  0  0  0  0  0  0  0  0
    2.2175    5.9677   -0.0425 C   0  0  0  0  0  0  0  0  0  0  0  0
    2.4856    4.8068    0.5846 O   0  0  0  0  0  1  0  0  0  0  0  0
    1.1048    6.2807   -0.4596 O   0  0  0  0  0  0  0  0  0  0  0  0
   -0.0116    2.8680   -0.0455 C   0  0  0  0  0  0  0  0  0  0  0  0
   -0.5746    3.1314   -0.8104 H   0  0  0  0  0  0  0  0  0  0  0  0
    0.9189    3.1734   -0.1516 H   0  0  0  0  0  0  0  0  0  0  0  0
   -0.4265    3.2909    0.8694 H   0  0  0  0  0  0  0  0  0  0  0  0
   -0.0015    1.3971    0.0255 C   0  0  0  0  0  0  0  0  0  0  0  0
   -1.1952    0.6979   -0.0089 C   0  0  0  0  0  0  0  0  0  0  0  0
   -2.0613    1.1912   -0.0419 H   0  0  0  0  0  0  0  0  0  0  0  0
   -1.2057   -0.6892    0.0000 C   0  0  0  0  0  0  0  0  0  0  0  0
   -2.0796   -1.1829    0.0360 H   0  0  0  0  0  0  0  0  0  0  0  0
   -0.0017   -1.3909   -0.0391 C   0  0  0  0  0  0  0  0  0  0  0  0
   -0.0121   -2.3882   -0.0954 H   0  0  0  0  0  0  0  0  0  0  0  0
    1.2057   -0.7023   -0.0000 C   0  0  0  0  0  0  0  0  0  0  0  0
    2.0814   -1.2022    0.0135 H   0  0  0  0  0  0  0  0  0  0  0  0
    1.1984    0.6874    0.0225 C   0  0  0  0  0  0  0  0  0  0  0  0
    2.0649    1.1868    0.0362 H   0  0  0  0  0  0  0  0  0  0  0  0
  1  5  1  0
  5  6  1  0
  5  7  2  0
  1  2  1  0
  1  3  1  0
  1  4  1  0
  8 12  1  0
 12 13  2  0
 13 15  1  0
 15 17  2  0
 17 19  1  0
 19 21  2  0
 21 12  1  0
  8  9  1  0
  8 10  1  0
  8 11  1  0
 13 14  1  0
 15 16  1  0
 17 18  1  0
 19 20  1  0
 21 22  1  0
M  CHG  1   6  -1
M  END
>  <PDB_ID>  (20) 
pdb1a49

>  <RESIDUE_NAME>  (20) 
GLU   PHE

>  <FRAG_NAME>  (20) 
ACET   MBZ

>  <FRAG_ATOM_NUM>  (20) 
fragi: 7  fragj: 15

>  <atom.prop.CHAIN_ID>  (20) 
A A A A A A A Z Z Z Z Z Z Z Z Z Z Z Z Z Z Z

>  <atom.prop.IS_HEAVY_ATOM>  (20) 
1 0 0 0 1 1 1 1 0 0 0 1 1 0 1 0 1 0 1 0 1 0

>  <DIFUSE_FUNC_ATOM>  (20) 
atom 6   atom 7   

>  <FINAL_SINGLE_POINT_ENERGY>  (20) 
0

>  <NONCOV_INTER_ENERGY_QM>  (20) 
0

>  <FF_Energy>  (20) 
-1.17

>  <QM_Energy>  (20) 
-6.54

>  <source>  (20) 
ACET_MBZ_00

>  <Index>  (20) 
647

$$$$
ACET-pdb1a49-H-ASP-5027:MBZ-pdb1a49-H-PHE-4875
     RDKit          3D

 22 21  0  0  0  0  0  0  0  0999 V2000
    3.4539    1.1437   -2.8799 C   0  0  0  0  0  0  0  0  0  0  0  0
    3.6156    1.8407   -3.5827 H   0  0  0  0  0  0  0  0  0  0  0  0
    2.4740    0.9362   -2.8453 H   0  0  0  0  0  0  0  0  0  0  0  0
    3.9745    0.2368   -3.1877 H   0  0  0  0  0  0  0  0  0  0  0  0
    3.8958    1.6539   -1.5701 C   0  0  0  0  0  0  0  0  0  0  0  0
    4.5062    0.7302   -0.8838 O   0  0  0  0  0  1  0  0  0  0  0  0
    3.6645    2.7930   -1.1746 O   0  0  0  0  0  0  0  0  0  0  0  0
   -0.0132    2.8533    0.0116 C   0  0  0  0  0  0  0  0  0  0  0  0
   -0.4461    3.1835   -0.8028 H   0  0  0  0  0  0  0  0  0  0  0  0
    0.9009    3.1899    0.1196 H   0  0  0  0  0  0  0  0  0  0  0  0
   -0.5945    3.2169    0.8589 H   0  0  0  0  0  0  0  0  0  0  0  0
    0.0023    1.3990   -0.0022 C   0  0  0  0  0  0  0  0  0  0  0  0
   -1.2035    0.7006   -0.0316 C   0  0  0  0  0  0  0  0  0  0  0  0
   -2.0636    1.1949   -0.0767 H   0  0  0  0  0  0  0  0  0  0  0  0
   -1.2164   -0.6944    0.0000 C   0  0  0  0  0  0  0  0  0  0  0  0
   -2.0855   -1.1874   -0.0022 H   0  0  0  0  0  0  0  0  0  0  0  0
   -0.0008   -1.3918    0.0368 C   0  0  0  0  0  0  0  0  0  0  0  0
   -0.0103   -2.3918    0.0892 H   0  0  0  0  0  0  0  0  0  0  0  0
    1.2164   -0.7056   -0.0000 C   0  0  0  0  0  0  0  0  0  0  0  0
    2.0859   -1.2018   -0.0228 H   0  0  0  0  0  0  0  0  0  0  0  0
    1.2020    0.6922   -0.0030 C   0  0  0  0  0  0  0  0  0  0  0  0
    2.0694    1.1906   -0.0068 H   0  0  0  0  0  0  0  0  0  0  0  0
  1  5  1  0
  5  6  1  0
  5  7  2  0
  1  2  1  0
  1  3  1  0
  1  4  1  0
  8 12  1  0
 12 13  2  0
 13 15  1  0
 15 17  2  0
 17 19  1  0
 19 21  2  0
 21 12  1  0
  8  9  1  0
  8 10  1  0
  8 11  1  0
 13 14  1  0
 15 16  1  0
 17 18  1  0
 19 20  1  0
 21 22  1  0
M  CHG  1   6  -1
M  END
>  <PDB_ID>  (21) 
pdb1a49

>  <RESIDUE_NAME>  (21) 
ASP   PHE

>  <FRAG_NAME>  (21) 
ACET   MBZ

>  <FRAG_ATOM_NUM>  (21) 
fragi: 7  fragj: 15

>  <atom.prop.CHAIN_ID>  (21) 
A A A A A A A Z Z Z Z Z Z Z Z Z Z Z Z Z Z Z

>  <atom.prop.IS_HEAVY_ATOM>  (21) 
1 0 0 0 1 1 1 1 0 0 0 1 1 0 1 0 1 0 1 0 1 0

>  <DIFUSE_FUNC_ATOM>  (21) 
atom 6   atom 7   

>  <FINAL_SINGLE_POINT_ENERGY>  (21) 
0

>  <NONCOV_INTER_ENERGY_QM>  (21) 
0

>  <FF_Energy>  (21) 
-1.66

>  <QM_Energy>  (21) 
-8.31

>  <source>  (21) 
ACET_MBZ_00

>  <Index>  (21) 
653

$$$$
ACET-pdb1a49-H-GLU-4930:MBZ-pdb1a49-H-PHE-5001
     RDKit          3D

 22 21  0  0  0  0  0  0  0  0999 V2000
    4.4893    4.0404   -1.5327 C   0  0  0  0  0  0  0  0  0  0  0  0
    4.4270    4.9309   -1.1267 H   0  0  0  0  0  0  0  0  0  0  0  0
    5.3103    3.9196   -2.0559 H   0  0  0  0  0  0  0  0  0  0  0  0
    4.4725    3.2958   -0.7368 H   0  0  0  0  0  0  0  0  0  0  0  0
    3.3089    3.9003   -2.5044 C   0  0  0  0  0  0  0  0  0  0  0  0
    2.4317    2.9679   -2.3281 O   0  0  0  0  0  1  0  0  0  0  0  0
    3.1929    4.7101   -3.5007 O   0  0  0  0  0  0  0  0  0  0  0  0
   -0.0260    2.8666    0.0602 C   0  0  0  0  0  0  0  0  0  0  0  0
   -0.7739    3.2043   -0.4695 H   0  0  0  0  0  0  0  0  0  0  0  0
    0.8408    3.2154   -0.2251 H   0  0  0  0  0  0  0  0  0  0  0  0
   -0.1838    3.1916    1.0886 H   0  0  0  0  0  0  0  0  0  0  0  0
   -0.0047    1.3977   -0.0115 C   0  0  0  0  0  0  0  0  0  0  0  0
   -1.1968    0.6917    0.0114 C   0  0  0  0  0  0  0  0  0  0  0  0
   -2.0656    1.1844    0.0358 H   0  0  0  0  0  0  0  0  0  0  0  0
   -1.2108   -0.6994    0.0000 C   0  0  0  0  0  0  0  0  0  0  0  0
   -2.0804   -1.1921   -0.0088 H   0  0  0  0  0  0  0  0  0  0  0  0
   -0.0002   -1.3892    0.0024 C   0  0  0  0  0  0  0  0  0  0  0  0
   -0.0025   -2.3912    0.0053 H   0  0  0  0  0  0  0  0  0  0  0  0
    1.2108   -0.6957    0.0000 C   0  0  0  0  0  0  0  0  0  0  0  0
    2.0855   -1.1949    0.0017 H   0  0  0  0  0  0  0  0  0  0  0  0
    1.2018    0.6950   -0.0023 C   0  0  0  0  0  0  0  0  0  0  0  0
    2.0642    1.1966    0.0020 H   0  0  0  0  0  0  0  0  0  0  0  0
  1  5  1  0
  5  6  1  0
  5  7  2  0
  1  2  1  0
  1  3  1  0
  1  4  1  0
  8 12  1  0
 12 13  2  0
 13 15  1  0
 15 17  2  0
 17 19  1  0
 19 21  2  0
 21 12  1  0
  8  9  1  0
  8 10  1  0
  8 11  1  0
 13 14  1  0
 15 16  1  0
 17 18  1  0
 19 20  1  0
 21 22  1  0
M  CHG  1   6  -1
M  END
>  <PDB_ID>  (22) 
pdb1a49

>  <RESIDUE_NAME>  (22) 
GLU   PHE

>  <FRAG_NAME>  (22) 
ACET   MBZ

>  <FRAG_ATOM_NUM>  (22) 
fragi: 7  fragj: 15

>  <atom.prop.CHAIN_ID>  (22) 
A A A A A A A Z Z Z Z Z Z Z Z Z Z Z Z Z Z Z

>  <atom.prop.IS_HEAVY_ATOM>  (22) 
1 0 0 0 1 1 1 1 0 0 0 1 1 0 1 0 1 0 1 0 1 0

>  <DIFUSE_FUNC_ATOM>  (22) 
atom 6   atom 7   

>  <FINAL_SINGLE_POINT_ENERGY>  (22) 
0

>  <NONCOV_INTER_ENERGY_QM>  (22) 
0

>  <FF_Energy>  (22) 
-0.18

>  <QM_Energy>  (22) 
-5.19

>  <source>  (22) 
ACET_MBZ_00

>  <Index>  (22) 
654

$$$$
ACET-pdb1a49-H-ASP-4912:MBZ-pdb1a49-H-PHE-5040
     RDKit          3D

 22 21  0  0  0  0  0  0  0  0999 V2000
    3.3388    3.3552   -2.1001 C   0  0  0  0  0  0  0  0  0  0  0  0
    3.0980    2.3830   -2.0324 H   0  0  0  0  0  0  0  0  0  0  0  0
    4.2257    3.4372   -2.5627 H   0  0  0  0  0  0  0  0  0  0  0  0
    2.5904    3.8386   -2.7279 H   0  0  0  0  0  0  0  0  0  0  0  0
    3.4497    3.9272   -0.7273 C   0  0  0  0  0  0  0  0  0  0  0  0
    3.5541    5.2270   -0.7397 O   0  0  0  0  0  1  0  0  0  0  0  0
    3.4152    3.2338    0.2959 O   0  0  0  0  0  0  0  0  0  0  0  0
   -0.0125    2.8792   -0.0275 C   0  0  0  0  0  0  0  0  0  0  0  0
    0.6988    3.2017   -0.6440 H   0  0  0  0  0  0  0  0  0  0  0  0
    0.1606    3.2031    0.8977 H   0  0  0  0  0  0  0  0  0  0  0  0
   -0.9473    3.3349   -0.3542 H   0  0  0  0  0  0  0  0  0  0  0  0
   -0.0048    1.4014   -0.0233 C   0  0  0  0  0  0  0  0  0  0  0  0
   -1.2074    0.6950    0.0229 C   0  0  0  0  0  0  0  0  0  0  0  0
   -2.0704    1.1867    0.0714 H   0  0  0  0  0  0  0  0  0  0  0  0
   -1.2225   -0.7065    0.0000 C   0  0  0  0  0  0  0  0  0  0  0  0
   -2.0877   -1.1964   -0.0159 H   0  0  0  0  0  0  0  0  0  0  0  0
   -0.0036   -1.3910    0.0020 C   0  0  0  0  0  0  0  0  0  0  0  0
   -0.0028   -2.3961    0.0042 H   0  0  0  0  0  0  0  0  0  0  0  0
    1.2225   -0.7002   -0.0000 C   0  0  0  0  0  0  0  0  0  0  0  0
    2.0898   -1.2003    0.0011 H   0  0  0  0  0  0  0  0  0  0  0  0
    1.2158    0.7013   -0.0015 C   0  0  0  0  0  0  0  0  0  0  0  0
    2.0702    1.2023    0.0115 H   0  0  0  0  0  0  0  0  0  0  0  0
  1  5  1  0
  5  6  1  0
  5  7  2  0
  1  2  1  0
  1  3  1  0
  1  4  1  0
  8 12  1  0
 12 13  2  0
 13 15  1  0
 15 17  2  0
 17 19  1  0
 19 21  2  0
 21 12  1  0
  8  9  1  0
  8 10  1  0
  8 11  1  0
 13 14  1  0
 15 16  1  0
 17 18  1  0
 19 20  1  0
 21 22  1  0
M  CHG  1   6  -1
M  END
>  <PDB_ID>  (23) 
pdb1a49

>  <RESIDUE_NAME>  (23) 
ASP   PHE

>  <FRAG_NAME>  (23) 
ACET   MBZ

>  <FRAG_ATOM_NUM>  (23) 
fragi: 7  fragj: 15

>  <atom.prop.CHAIN_ID>  (23) 
A A A A A A A Z Z Z Z Z Z Z Z Z Z Z Z Z Z Z

>  <atom.prop.IS_HEAVY_ATOM>  (23) 
1 0 0 0 1 1 1 1 0 0 0 1 1 0 1 0 1 0 1 0 1 0

>  <DIFUSE_FUNC_ATOM>  (23) 
atom 6   atom 7   

>  <FINAL_SINGLE_POINT_ENERGY>  (23) 
0

>  <NONCOV_INTER_ENERGY_QM>  (23) 
0

>  <FF_Energy>  (23) 
-2.46

>  <QM_Energy>  (23) 
-7.7

>  <source>  (23) 
ACET_MBZ_00

>  <Index>  (23) 
655

$$$$
ACET-pdb2a9f-A-ASP-162:MBZ-pdb2a9f-A-PHE-325
     RDKit          3D

 22 21  0  0  0  0  0  0  0  0999 V2000
    2.5923    3.3718   -4.2451 C   0  0  0  0  0  0  0  0  0  0  0  0
    1.6758    3.7572   -4.2257 H   0  0  0  0  0  0  0  0  0  0  0  0
    2.6613    2.6786   -4.9541 H   0  0  0  0  0  0  0  0  0  0  0  0
    3.2859    4.1747   -4.4948 H   0  0  0  0  0  0  0  0  0  0  0  0
    2.8991    2.7585   -2.9212 C   0  0  0  0  0  0  0  0  0  0  0  0
    3.6256    1.7431   -2.9087 O   0  0  0  0  0  1  0  0  0  0  0  0
    2.4321    3.3047   -1.8955 O   0  0  0  0  0  0  0  0  0  0  0  0
    0.0096    2.9018   -0.1087 C   0  0  0  0  0  0  0  0  0  0  0  0
   -0.7122    3.1727   -0.7349 H   0  0  0  0  0  0  0  0  0  0  0  0
    0.8974    3.1828   -0.4548 H   0  0  0  0  0  0  0  0  0  0  0  0
   -0.1570    3.4335    0.8282 H   0  0  0  0  0  0  0  0  0  0  0  0
    0.0007    1.4047   -0.0017 C   0  0  0  0  0  0  0  0  0  0  0  0
   -1.2060    0.6990    0.0021 C   0  0  0  0  0  0  0  0  0  0  0  0
   -2.0669    1.1876    0.0046 H   0  0  0  0  0  0  0  0  0  0  0  0
   -1.2073   -0.6991    0.0000 C   0  0  0  0  0  0  0  0  0  0  0  0
   -2.0783   -1.1953    0.0021 H   0  0  0  0  0  0  0  0  0  0  0  0
    0.0063   -1.3972   -0.0035 C   0  0  0  0  0  0  0  0  0  0  0  0
   -0.0003   -2.3943   -0.0087 H   0  0  0  0  0  0  0  0  0  0  0  0
    1.2073   -0.6983   -0.0000 C   0  0  0  0  0  0  0  0  0  0  0  0
    2.0883   -1.1949    0.0015 H   0  0  0  0  0  0  0  0  0  0  0  0
    1.1990    0.6909    0.0031 C   0  0  0  0  0  0  0  0  0  0  0  0
    2.0668    1.1908    0.0078 H   0  0  0  0  0  0  0  0  0  0  0  0
  1  5  1  0
  5  6  1  0
  5  7  2  0
  1  2  1  0
  1  3  1  0
  1  4  1  0
  8 12  1  0
 12 13  2  0
 13 15  1  0
 15 17  2  0
 17 19  1  0
 19 21  2  0
 21 12  1  0
  8  9  1  0
  8 10  1  0
  8 11  1  0
 13 14  1  0
 15 16  1  0
 17 18  1  0
 19 20  1  0
 21 22  1  0
M  CHG  1   6  -1
M  END
>  <PDB_ID>  (24) 
pdb2a9f

>  <RESIDUE_NAME>  (24) 
ASP   PHE

>  <FRAG_NAME>  (24) 
ACET   MBZ

>  <FRAG_ATOM_NUM>  (24) 
fragi: 7  fragj: 15

>  <atom.prop.CHAIN_ID>  (24) 
A A A A A A A Z Z Z Z Z Z Z Z Z Z Z Z Z Z Z

>  <atom.prop.IS_HEAVY_ATOM>  (24) 
1 0 0 0 1 1 1 1 0 0 0 1 1 0 1 0 1 0 1 0 1 0

>  <DIFUSE_FUNC_ATOM>  (24) 
atom 6   atom 7   

>  <FINAL_SINGLE_POINT_ENERGY>  (24) 
0

>  <NONCOV_INTER_ENERGY_QM>  (24) 
0

>  <FF_Energy>  (24) 
1.97

>  <QM_Energy>  (24) 
-6.96

>  <source>  (24) 
ACET_MBZ_00

>  <Index>  (24) 
773

$$$$
ACET-pdb2aa1-C-GLU-117:MBZ-pdb2aa1-C-PHE-114
     RDKit          3D

 22 21  0  0  0  0  0  0  0  0999 V2000
   -3.3993    4.0114    2.8723 C   0  0  0  0  0  0  0  0  0  0  0  0
   -3.2580    3.1383    3.3082 H   0  0  0  0  0  0  0  0  0  0  0  0
   -4.1259    4.5210    3.3007 H   0  0  0  0  0  0  0  0  0  0  0  0
   -2.4791    4.5886    2.9630 H   0  0  0  0  0  0  0  0  0  0  0  0
   -3.8214    3.7392    1.4294 C   0  0  0  0  0  0  0  0  0  0  0  0
   -3.0127    3.9470    0.4979 O   0  0  0  0  0  1  0  0  0  0  0  0
   -4.9763    3.3046    1.2282 O   0  0  0  0  0  0  0  0  0  0  0  0
   -0.0015    2.9094   -0.0169 C   0  0  0  0  0  0  0  0  0  0  0  0
    0.8643    3.2204    0.3423 H   0  0  0  0  0  0  0  0  0  0  0  0
   -0.7568    3.2220    0.5384 H   0  0  0  0  0  0  0  0  0  0  0  0
   -0.1215    3.3383   -1.0118 H   0  0  0  0  0  0  0  0  0  0  0  0
   -0.0013    1.4058   -0.0015 C   0  0  0  0  0  0  0  0  0  0  0  0
   -1.1967    0.6965    0.0006 C   0  0  0  0  0  0  0  0  0  0  0  0
   -2.0645    1.1847    0.0013 H   0  0  0  0  0  0  0  0  0  0  0  0
   -1.2036   -0.6999   -0.0000 C   0  0  0  0  0  0  0  0  0  0  0  0
   -2.0789   -1.1912    0.0003 H   0  0  0  0  0  0  0  0  0  0  0  0
    0.0021   -1.3999    0.0001 C   0  0  0  0  0  0  0  0  0  0  0  0
   -0.0033   -2.3959   -0.0006 H   0  0  0  0  0  0  0  0  0  0  0  0
    1.2036   -0.7001   -0.0000 C   0  0  0  0  0  0  0  0  0  0  0  0
    2.0851   -1.1928    0.0010 H   0  0  0  0  0  0  0  0  0  0  0  0
    1.1959    0.6977    0.0007 C   0  0  0  0  0  0  0  0  0  0  0  0
    2.0647    1.1918    0.0021 H   0  0  0  0  0  0  0  0  0  0  0  0
  1  5  1  0
  5  6  1  0
  5  7  2  0
  1  2  1  0
  1  3  1  0
  1  4  1  0
  8 12  1  0
 12 13  2  0
 13 15  1  0
 15 17  2  0
 17 19  1  0
 19 21  2  0
 21 12  1  0
  8  9  1  0
  8 10  1  0
  8 11  1  0
 13 14  1  0
 15 16  1  0
 17 18  1  0
 19 20  1  0
 21 22  1  0
M  CHG  1   6  -1
M  END
>  <PDB_ID>  (25) 
pdb2aa1

>  <RESIDUE_NAME>  (25) 
GLU   PHE

>  <FRAG_NAME>  (25) 
ACET   MBZ

>  <FRAG_ATOM_NUM>  (25) 
fragi: 7  fragj: 15

>  <atom.prop.CHAIN_ID>  (25) 
A A A A A A A Z Z Z Z Z Z Z Z Z Z Z Z Z Z Z

>  <atom.prop.IS_HEAVY_ATOM>  (25) 
1 0 0 0 1 1 1 1 0 0 0 1 1 0 1 0 1 0 1 0 1 0

>  <DIFUSE_FUNC_ATOM>  (25) 
atom 6   atom 7   

>  <FINAL_SINGLE_POINT_ENERGY>  (25) 
0

>  <NONCOV_INTER_ENERGY_QM>  (25) 
0

>  <FF_Energy>  (25) 
-1.87

>  <QM_Energy>  (25) 
-7.14

>  <source>  (25) 
ACET_MBZ_00

>  <Index>  (25) 
810

$$$$
ACET-pdb2aag-B-GLU-122:MBZ-pdb2aag-B-PHE-116
     RDKit          3D

 22 21  0  0  0  0  0  0  0  0999 V2000
    4.8698    3.6303    0.3327 C   0  0  0  0  0  0  0  0  0  0  0  0
    4.5891    3.9615    1.2180 H   0  0  0  0  0  0  0  0  0  0  0  0
    5.5976    4.1779   -0.0470 H   0  0  0  0  0  0  0  0  0  0  0  0
    5.2522    2.6183    0.4661 H   0  0  0  0  0  0  0  0  0  0  0  0
    3.6841    3.7197   -0.5975 C   0  0  0  0  0  0  0  0  0  0  0  0
    3.4584    2.7537   -1.3754 O   0  0  0  0  0  1  0  0  0  0  0  0
    3.0124    4.7876   -0.5967 O   0  0  0  0  0  0  0  0  0  0  0  0
    0.0548    2.9123   -0.0261 C   0  0  0  0  0  0  0  0  0  0  0  0
    0.9477    3.2085    0.2624 H   0  0  0  0  0  0  0  0  0  0  0  0
   -0.6564    3.2566    0.5607 H   0  0  0  0  0  0  0  0  0  0  0  0
   -0.1179    3.3273   -1.0191 H   0  0  0  0  0  0  0  0  0  0  0  0
    0.0160    1.4152    0.0029 C   0  0  0  0  0  0  0  0  0  0  0  0
   -1.2065    0.7327    0.0025 C   0  0  0  0  0  0  0  0  0  0  0  0
   -2.0590    1.2086    0.0029 H   0  0  0  0  0  0  0  0  0  0  0  0
   -1.2136   -0.7065    0.0000 C   0  0  0  0  0  0  0  0  0  0  0  0
   -2.0943   -1.1777   -0.0047 H   0  0  0  0  0  0  0  0  0  0  0  0
   -0.0072   -1.4174    0.0058 C   0  0  0  0  0  0  0  0  0  0  0  0
   -0.0078   -2.4059    0.0136 H   0  0  0  0  0  0  0  0  0  0  0  0
    1.2136   -0.7062   -0.0000 C   0  0  0  0  0  0  0  0  0  0  0  0
    2.0859   -1.2068    0.0053 H   0  0  0  0  0  0  0  0  0  0  0  0
    1.1977    0.6822   -0.0111 C   0  0  0  0  0  0  0  0  0  0  0  0
    2.0787    1.1802   -0.0308 H   0  0  0  0  0  0  0  0  0  0  0  0
  1  5  1  0
  5  6  1  0
  5  7  2  0
  1  2  1  0
  1  3  1  0
  1  4  1  0
  8 12  1  0
 12 13  2  0
 13 15  1  0
 15 17  2  0
 17 19  1  0
 19 21  2  0
 21 12  1  0
  8  9  1  0
  8 10  1  0
  8 11  1  0
 13 14  1  0
 15 16  1  0
 17 18  1  0
 19 20  1  0
 21 22  1  0
M  CHG  1   6  -1
M  END
>  <PDB_ID>  (26) 
pdb2aag

>  <RESIDUE_NAME>  (26) 
GLU   PHE

>  <FRAG_NAME>  (26) 
ACET   MBZ

>  <FRAG_ATOM_NUM>  (26) 
fragi: 7  fragj: 15

>  <atom.prop.CHAIN_ID>  (26) 
A A A A A A A Z Z Z Z Z Z Z Z Z Z Z Z Z Z Z

>  <atom.prop.IS_HEAVY_ATOM>  (26) 
1 0 0 0 1 1 1 1 0 0 0 1 1 0 1 0 1 0 1 0 1 0

>  <DIFUSE_FUNC_ATOM>  (26) 
atom 6   atom 7   

>  <FINAL_SINGLE_POINT_ENERGY>  (26) 
0

>  <NONCOV_INTER_ENERGY_QM>  (26) 
0

>  <FF_Energy>  (26) 
-2.29

>  <QM_Energy>  (26) 
-7.78

>  <source>  (26) 
ACET_MBZ_00

>  <Index>  (26) 
836

$$$$
ACET-pdb2aag-D-GLU-122:MBZ-pdb2aag-D-PHE-116
     RDKit          3D

 22 21  0  0  0  0  0  0  0  0999 V2000
    4.7668    3.8978    0.3936 C   0  0  0  0  0  0  0  0  0  0  0  0
    4.4830    4.2559    1.2671 H   0  0  0  0  0  0  0  0  0  0  0  0
    5.4344    4.4778   -0.0408 H   0  0  0  0  0  0  0  0  0  0  0  0
    5.2199    2.9203    0.5582 H   0  0  0  0  0  0  0  0  0  0  0  0
    3.5215    3.8804   -0.5163 C   0  0  0  0  0  0  0  0  0  0  0  0
    3.2967    2.8791   -1.2605 O   0  0  0  0  0  1  0  0  0  0  0  0
    2.8056    4.9189   -0.5319 O   0  0  0  0  0  0  0  0  0  0  0  0
    0.0188    2.8449   -0.0380 C   0  0  0  0  0  0  0  0  0  0  0  0
    0.9186    3.1710    0.2154 H   0  0  0  0  0  0  0  0  0  0  0  0
   -0.6747    3.2047    0.5702 H   0  0  0  0  0  0  0  0  0  0  0  0
   -0.1945    3.2372   -1.0324 H   0  0  0  0  0  0  0  0  0  0  0  0
    0.0015    1.3826    0.0245 C   0  0  0  0  0  0  0  0  0  0  0  0
   -1.2060    0.6651   -0.0039 C   0  0  0  0  0  0  0  0  0  0  0  0
   -2.0650    1.1783   -0.0280 H   0  0  0  0  0  0  0  0  0  0  0  0
   -1.2112   -0.6879   -0.0000 C   0  0  0  0  0  0  0  0  0  0  0  0
   -2.0708   -1.2068    0.0117 H   0  0  0  0  0  0  0  0  0  0  0  0
    0.0102   -1.3723   -0.0107 C   0  0  0  0  0  0  0  0  0  0  0  0
    0.0072   -2.3753   -0.0268 H   0  0  0  0  0  0  0  0  0  0  0  0
    1.2112   -0.6781    0.0000 C   0  0  0  0  0  0  0  0  0  0  0  0
    2.0891   -1.1807    0.0167 H   0  0  0  0  0  0  0  0  0  0  0  0
    1.1943    0.6906   -0.0100 C   0  0  0  0  0  0  0  0  0  0  0  0
    2.0593    1.2018   -0.0436 H   0  0  0  0  0  0  0  0  0  0  0  0
  1  5  1  0
  5  6  1  0
  5  7  2  0
  1  2  1  0
  1  3  1  0
  1  4  1  0
  8 12  1  0
 12 13  2  0
 13 15  1  0
 15 17  2  0
 17 19  1  0
 19 21  2  0
 21 12  1  0
  8  9  1  0
  8 10  1  0
  8 11  1  0
 13 14  1  0
 15 16  1  0
 17 18  1  0
 19 20  1  0
 21 22  1  0
M  CHG  1   6  -1
M  END
>  <PDB_ID>  (27) 
pdb2aag

>  <RESIDUE_NAME>  (27) 
GLU   PHE

>  <FRAG_NAME>  (27) 
ACET   MBZ

>  <FRAG_ATOM_NUM>  (27) 
fragi: 7  fragj: 15

>  <atom.prop.CHAIN_ID>  (27) 
A A A A A A A Z Z Z Z Z Z Z Z Z Z Z Z Z Z Z

>  <atom.prop.IS_HEAVY_ATOM>  (27) 
1 0 0 0 1 1 1 1 0 0 0 1 1 0 1 0 1 0 1 0 1 0

>  <DIFUSE_FUNC_ATOM>  (27) 
atom 6   atom 7   

>  <FINAL_SINGLE_POINT_ENERGY>  (27) 
0

>  <NONCOV_INTER_ENERGY_QM>  (27) 
0

>  <FF_Energy>  (27) 
-2.01

>  <QM_Energy>  (27) 
-8.13

>  <source>  (27) 
ACET_MBZ_00

>  <Index>  (27) 
840

$$$$
ACET-pdb2aag-E-GLU-122:MBZ-pdb2aag-E-PHE-116
     RDKit          3D

 22 21  0  0  0  0  0  0  0  0999 V2000
    4.8776    3.6786    0.2091 C   0  0  0  0  0  0  0  0  0  0  0  0
    4.6462    4.0952    1.0649 H   0  0  0  0  0  0  0  0  0  0  0  0
    5.5869    4.1563   -0.2677 H   0  0  0  0  0  0  0  0  0  0  0  0
    5.2299    2.6674    0.4127 H   0  0  0  0  0  0  0  0  0  0  0  0
    3.6361    3.6951   -0.6681 C   0  0  0  0  0  0  0  0  0  0  0  0
    3.4080    2.6980   -1.4170 O   0  0  0  0  0  1  0  0  0  0  0  0
    2.9134    4.7259   -0.6539 O   0  0  0  0  0  0  0  0  0  0  0  0
    0.0217    2.8684   -0.0361 C   0  0  0  0  0  0  0  0  0  0  0  0
    0.9039    3.2090    0.2382 H   0  0  0  0  0  0  0  0  0  0  0  0
   -0.7036    3.2239    0.5268 H   0  0  0  0  0  0  0  0  0  0  0  0
   -0.1558    3.2509   -1.0412 H   0  0  0  0  0  0  0  0  0  0  0  0
    0.0174    1.4079    0.0148 C   0  0  0  0  0  0  0  0  0  0  0  0
   -1.1812    0.7019   -0.0084 C   0  0  0  0  0  0  0  0  0  0  0  0
   -2.0477    1.2016   -0.0326 H   0  0  0  0  0  0  0  0  0  0  0  0
   -1.2067   -0.6901   -0.0000 C   0  0  0  0  0  0  0  0  0  0  0  0
   -2.1105   -1.1554    0.0176 H   0  0  0  0  0  0  0  0  0  0  0  0
   -0.0549   -1.3982   -0.0131 C   0  0  0  0  0  0  0  0  0  0  0  0
   -0.0441   -2.3948   -0.0324 H   0  0  0  0  0  0  0  0  0  0  0  0
    1.2067   -0.7097    0.0000 C   0  0  0  0  0  0  0  0  0  0  0  0
    2.0554   -1.2335    0.0051 H   0  0  0  0  0  0  0  0  0  0  0  0
    1.2187    0.6882    0.0067 C   0  0  0  0  0  0  0  0  0  0  0  0
    2.0855    1.1755    0.0052 H   0  0  0  0  0  0  0  0  0  0  0  0
  1  5  1  0
  5  6  1  0
  5  7  2  0
  1  2  1  0
  1  3  1  0
  1  4  1  0
  8 12  1  0
 12 13  2  0
 13 15  1  0
 15 17  2  0
 17 19  1  0
 19 21  2  0
 21 12  1  0
  8  9  1  0
  8 10  1  0
  8 11  1  0
 13 14  1  0
 15 16  1  0
 17 18  1  0
 19 20  1  0
 21 22  1  0
M  CHG  1   6  -1
M  END
>  <PDB_ID>  (28) 
pdb2aag

>  <RESIDUE_NAME>  (28) 
GLU   PHE

>  <FRAG_NAME>  (28) 
ACET   MBZ

>  <FRAG_ATOM_NUM>  (28) 
fragi: 7  fragj: 15

>  <atom.prop.CHAIN_ID>  (28) 
A A A A A A A Z Z Z Z Z Z Z Z Z Z Z Z Z Z Z

>  <atom.prop.IS_HEAVY_ATOM>  (28) 
1 0 0 0 1 1 1 1 0 0 0 1 1 0 1 0 1 0 1 0 1 0

>  <DIFUSE_FUNC_ATOM>  (28) 
atom 6   atom 7   

>  <FINAL_SINGLE_POINT_ENERGY>  (28) 
0

>  <NONCOV_INTER_ENERGY_QM>  (28) 
0

>  <FF_Energy>  (28) 
-2.04

>  <QM_Energy>  (28) 
-7.95

>  <source>  (28) 
ACET_MBZ_00

>  <Index>  (28) 
842

$$$$
ACET-pdb2aaz-I-GLU-19:MBZ-pdb2aaz-I-PHE-56
     RDKit          3D

 22 21  0  0  0  0  0  0  0  0999 V2000
   -4.5395    1.8987   -2.6542 C   0  0  0  0  0  0  0  0  0  0  0  0
   -4.0314    1.7746   -3.4861 H   0  0  0  0  0  0  0  0  0  0  0  0
   -5.4888    2.0898   -2.8210 H   0  0  0  0  0  0  0  0  0  0  0  0
   -4.4725    0.9787   -2.0735 H   0  0  0  0  0  0  0  0  0  0  0  0
   -3.9501    3.0950   -1.9303 C   0  0  0  0  0  0  0  0  0  0  0  0
   -3.8763    4.1831   -2.5363 O   0  0  0  0  0  1  0  0  0  0  0  0
   -3.5647    2.9498   -0.7534 O   0  0  0  0  0  0  0  0  0  0  0  0
    0.0035    2.9005    0.0048 C   0  0  0  0  0  0  0  0  0  0  0  0
    0.9059    3.2056    0.2742 H   0  0  0  0  0  0  0  0  0  0  0  0
   -0.6847    3.2090    0.6468 H   0  0  0  0  0  0  0  0  0  0  0  0
   -0.2224    3.3482   -0.9631 H   0  0  0  0  0  0  0  0  0  0  0  0
   -0.0003    1.4026    0.0002 C   0  0  0  0  0  0  0  0  0  0  0  0
   -1.1980    0.6956   -0.0019 C   0  0  0  0  0  0  0  0  0  0  0  0
   -2.0644    1.1862   -0.0063 H   0  0  0  0  0  0  0  0  0  0  0  0
   -1.2040   -0.6966   -0.0000 C   0  0  0  0  0  0  0  0  0  0  0  0
   -2.0791   -1.1901    0.0016 H   0  0  0  0  0  0  0  0  0  0  0  0
    0.0005   -1.3964    0.0016 C   0  0  0  0  0  0  0  0  0  0  0  0
   -0.0057   -2.3937    0.0034 H   0  0  0  0  0  0  0  0  0  0  0  0
    1.2040   -0.6994    0.0000 C   0  0  0  0  0  0  0  0  0  0  0  0
    2.0837   -1.1956    0.0000 H   0  0  0  0  0  0  0  0  0  0  0  0
    1.1978    0.6941    0.0001 C   0  0  0  0  0  0  0  0  0  0  0  0
    2.0654    1.1909   -0.0002 H   0  0  0  0  0  0  0  0  0  0  0  0
  1  5  1  0
  5  6  1  0
  5  7  2  0
  1  2  1  0
  1  3  1  0
  1  4  1  0
  8 12  1  0
 12 13  2  0
 13 15  1  0
 15 17  2  0
 17 19  1  0
 19 21  2  0
 21 12  1  0
  8  9  1  0
  8 10  1  0
  8 11  1  0
 13 14  1  0
 15 16  1  0
 17 18  1  0
 19 20  1  0
 21 22  1  0
M  CHG  1   6  -1
M  END
>  <PDB_ID>  (29) 
pdb2aaz

>  <RESIDUE_NAME>  (29) 
GLU   PHE

>  <FRAG_NAME>  (29) 
ACET   MBZ

>  <FRAG_ATOM_NUM>  (29) 
fragi: 7  fragj: 15

>  <atom.prop.CHAIN_ID>  (29) 
A A A A A A A Z Z Z Z Z Z Z Z Z Z Z Z Z Z Z

>  <atom.prop.IS_HEAVY_ATOM>  (29) 
1 0 0 0 1 1 1 1 0 0 0 1 1 0 1 0 1 0 1 0 1 0

>  <DIFUSE_FUNC_ATOM>  (29) 
atom 6   atom 7   

>  <FINAL_SINGLE_POINT_ENERGY>  (29) 
0

>  <NONCOV_INTER_ENERGY_QM>  (29) 
0

>  <FF_Energy>  (29) 
-2.12

>  <QM_Energy>  (29) 
-7.26

>  <source>  (29) 
ACET_MBZ_00

>  <Index>  (29) 
891

$$$$
ACET-pdb2aaz-J-GLU-19:MBZ-pdb2aaz-J-PHE-56
     RDKit          3D

 22 21  0  0  0  0  0  0  0  0999 V2000
   -4.5450    1.8961   -2.6499 C   0  0  0  0  0  0  0  0  0  0  0  0
   -4.0341    1.7698   -3.4792 H   0  0  0  0  0  0  0  0  0  0  0  0
   -5.4935    2.0860   -2.8202 H   0  0  0  0  0  0  0  0  0  0  0  0
   -4.4802    0.9771   -2.0672 H   0  0  0  0  0  0  0  0  0  0  0  0
   -3.9591    3.0917   -1.9245 C   0  0  0  0  0  0  0  0  0  0  0  0
   -3.8859    4.1798   -2.5280 O   0  0  0  0  0  1  0  0  0  0  0  0
   -3.5771    2.9474   -0.7468 O   0  0  0  0  0  0  0  0  0  0  0  0
   -0.0019    2.9039    0.0033 C   0  0  0  0  0  0  0  0  0  0  0  0
    0.8978    3.2109    0.2785 H   0  0  0  0  0  0  0  0  0  0  0  0
   -0.6954    3.2095    0.6400 H   0  0  0  0  0  0  0  0  0  0  0  0
   -0.2227    3.3486   -0.9671 H   0  0  0  0  0  0  0  0  0  0  0  0
   -0.0014    1.4022    0.0004 C   0  0  0  0  0  0  0  0  0  0  0  0
   -1.1975    0.6953   -0.0004 C   0  0  0  0  0  0  0  0  0  0  0  0
   -2.0645    1.1865   -0.0029 H   0  0  0  0  0  0  0  0  0  0  0  0
   -1.2053   -0.6958    0.0000 C   0  0  0  0  0  0  0  0  0  0  0  0
   -2.0794   -1.1901    0.0019 H   0  0  0  0  0  0  0  0  0  0  0  0
    0.0015   -1.3969   -0.0007 C   0  0  0  0  0  0  0  0  0  0  0  0
   -0.0059   -2.3948   -0.0023 H   0  0  0  0  0  0  0  0  0  0  0  0
    1.2053   -0.7009   -0.0000 C   0  0  0  0  0  0  0  0  0  0  0  0
    2.0854   -1.1944    0.0017 H   0  0  0  0  0  0  0  0  0  0  0  0
    1.1974    0.6962    0.0007 C   0  0  0  0  0  0  0  0  0  0  0  0
    2.0647    1.1915    0.0008 H   0  0  0  0  0  0  0  0  0  0  0  0
  1  5  1  0
  5  6  1  0
  5  7  2  0
  1  2  1  0
  1  3  1  0
  1  4  1  0
  8 12  1  0
 12 13  2  0
 13 15  1  0
 15 17  2  0
 17 19  1  0
 19 21  2  0
 21 12  1  0
  8  9  1  0
  8 10  1  0
  8 11  1  0
 13 14  1  0
 15 16  1  0
 17 18  1  0
 19 20  1  0
 21 22  1  0
M  CHG  1   6  -1
M  END
>  <PDB_ID>  (30) 
pdb2aaz

>  <RESIDUE_NAME>  (30) 
GLU   PHE

>  <FRAG_NAME>  (30) 
ACET   MBZ

>  <FRAG_ATOM_NUM>  (30) 
fragi: 7  fragj: 15

>  <atom.prop.CHAIN_ID>  (30) 
A A A A A A A Z Z Z Z Z Z Z Z Z Z Z Z Z Z Z

>  <atom.prop.IS_HEAVY_ATOM>  (30) 
1 0 0 0 1 1 1 1 0 0 0 1 1 0 1 0 1 0 1 0 1 0

>  <DIFUSE_FUNC_ATOM>  (30) 
atom 6   atom 7   

>  <FINAL_SINGLE_POINT_ENERGY>  (30) 
0

>  <NONCOV_INTER_ENERGY_QM>  (30) 
0

>  <FF_Energy>  (30) 
-2.14

>  <QM_Energy>  (30) 
-7.26

>  <source>  (30) 
ACET_MBZ_00

>  <Index>  (30) 
895

$$$$
ACET-pdb2aaz-K-GLU-19:MBZ-pdb2aaz-K-PHE-56
     RDKit          3D

 22 21  0  0  0  0  0  0  0  0999 V2000
   -4.4933    1.9020   -2.7200 C   0  0  0  0  0  0  0  0  0  0  0  0
   -3.9694    1.7776   -3.5421 H   0  0  0  0  0  0  0  0  0  0  0  0
   -5.4387    2.0953   -2.9056 H   0  0  0  0  0  0  0  0  0  0  0  0
   -4.4393    0.9816   -2.1386 H   0  0  0  0  0  0  0  0  0  0  0  0
   -3.9172    3.0963   -1.9833 C   0  0  0  0  0  0  0  0  0  0  0  0
   -3.8358    4.1861   -2.5846 O   0  0  0  0  0  1  0  0  0  0  0  0
   -3.5493    2.9509   -0.8005 O   0  0  0  0  0  0  0  0  0  0  0  0
    0.0042    2.9066    0.0000 C   0  0  0  0  0  0  0  0  0  0  0  0
    0.9015    3.2101    0.2848 H   0  0  0  0  0  0  0  0  0  0  0  0
   -0.6939    3.2139    0.6299 H   0  0  0  0  0  0  0  0  0  0  0  0
   -0.2049    3.3511   -0.9731 H   0  0  0  0  0  0  0  0  0  0  0  0
    0.0001    1.4032   -0.0003 C   0  0  0  0  0  0  0  0  0  0  0  0
   -1.1972    0.6962   -0.0003 C   0  0  0  0  0  0  0  0  0  0  0  0
   -2.0640    1.1859   -0.0022 H   0  0  0  0  0  0  0  0  0  0  0  0
   -1.2019   -0.6964   -0.0000 C   0  0  0  0  0  0  0  0  0  0  0  0
   -2.0790   -1.1898    0.0003 H   0  0  0  0  0  0  0  0  0  0  0  0
    0.0000   -1.3970    0.0010 C   0  0  0  0  0  0  0  0  0  0  0  0
   -0.0056   -2.3936    0.0019 H   0  0  0  0  0  0  0  0  0  0  0  0
    1.2019   -0.6999    0.0000 C   0  0  0  0  0  0  0  0  0  0  0  0
    2.0830   -1.1963    0.0005 H   0  0  0  0  0  0  0  0  0  0  0  0
    1.1971    0.6939   -0.0003 C   0  0  0  0  0  0  0  0  0  0  0  0
    2.0657    1.1896   -0.0012 H   0  0  0  0  0  0  0  0  0  0  0  0
  1  5  1  0
  5  6  1  0
  5  7  2  0
  1  2  1  0
  1  3  1  0
  1  4  1  0
  8 12  1  0
 12 13  2  0
 13 15  1  0
 15 17  2  0
 17 19  1  0
 19 21  2  0
 21 12  1  0
  8  9  1  0
  8 10  1  0
  8 11  1  0
 13 14  1  0
 15 16  1  0
 17 18  1  0
 19 20  1  0
 21 22  1  0
M  CHG  1   6  -1
M  END
>  <PDB_ID>  (31) 
pdb2aaz

>  <RESIDUE_NAME>  (31) 
GLU   PHE

>  <FRAG_NAME>  (31) 
ACET   MBZ

>  <FRAG_ATOM_NUM>  (31) 
fragi: 7  fragj: 15

>  <atom.prop.CHAIN_ID>  (31) 
A A A A A A A Z Z Z Z Z Z Z Z Z Z Z Z Z Z Z

>  <atom.prop.IS_HEAVY_ATOM>  (31) 
1 0 0 0 1 1 1 1 0 0 0 1 1 0 1 0 1 0 1 0 1 0

>  <DIFUSE_FUNC_ATOM>  (31) 
atom 6   atom 7   

>  <FINAL_SINGLE_POINT_ENERGY>  (31) 
0

>  <NONCOV_INTER_ENERGY_QM>  (31) 
0

>  <FF_Energy>  (31) 
-2.11

>  <QM_Energy>  (31) 
-7.22

>  <source>  (31) 
ACET_MBZ_00

>  <Index>  (31) 
898

$$$$
ACET-pdb1a5d-B-GLU-94:MBZ-pdb1a5d-B-PHE-118
     RDKit          3D

 22 21  0  0  0  0  0  0  0  0999 V2000
    4.8396    1.7272    0.8456 C   0  0  0  0  0  0  0  0  0  0  0  0
    5.7712    1.7230    1.1399 H   0  0  0  0  0  0  0  0  0  0  0  0
    4.7349    1.9434   -0.1017 H   0  0  0  0  0  0  0  0  0  0  0  0
    4.4172    0.7382    1.0236 H   0  0  0  0  0  0  0  0  0  0  0  0
    4.1060    2.7592    1.6412 C   0  0  0  0  0  0  0  0  0  0  0  0
    2.9774    3.1135    1.2379 O   0  0  0  0  0  1  0  0  0  0  0  0
    4.6242    3.1792    2.6917 O   0  0  0  0  0  0  0  0  0  0  0  0
    0.0116    2.9151    0.1694 C   0  0  0  0  0  0  0  0  0  0  0  0
    0.8497    3.1616    0.6429 H   0  0  0  0  0  0  0  0  0  0  0  0
   -0.7818    3.1682    0.7116 H   0  0  0  0  0  0  0  0  0  0  0  0
   -0.0251    3.4954   -0.7526 H   0  0  0  0  0  0  0  0  0  0  0  0
   -0.0016    1.4072    0.0027 C   0  0  0  0  0  0  0  0  0  0  0  0
   -1.1979    0.7008   -0.0045 C   0  0  0  0  0  0  0  0  0  0  0  0
   -2.0654    1.1832   -0.0135 H   0  0  0  0  0  0  0  0  0  0  0  0
   -1.1974   -0.7008   -0.0000 C   0  0  0  0  0  0  0  0  0  0  0  0
   -2.0727   -1.1934    0.0017 H   0  0  0  0  0  0  0  0  0  0  0  0
    0.0076   -1.3950    0.0038 C   0  0  0  0  0  0  0  0  0  0  0  0
    0.0015   -2.3945    0.0084 H   0  0  0  0  0  0  0  0  0  0  0  0
    1.1974   -0.6991   -0.0000 C   0  0  0  0  0  0  0  0  0  0  0  0
    2.0842   -1.1942    0.0003 H   0  0  0  0  0  0  0  0  0  0  0  0
    1.1918    0.6869   -0.0020 C   0  0  0  0  0  0  0  0  0  0  0  0
    2.0636    1.1854   -0.0074 H   0  0  0  0  0  0  0  0  0  0  0  0
  1  5  1  0
  5  6  1  0
  5  7  2  0
  1  2  1  0
  1  3  1  0
  1  4  1  0
  8 12  1  0
 12 13  2  0
 13 15  1  0
 15 17  2  0
 17 19  1  0
 19 21  2  0
 21 12  1  0
  8  9  1  0
  8 10  1  0
  8 11  1  0
 13 14  1  0
 15 16  1  0
 17 18  1  0
 19 20  1  0
 21 22  1  0
M  CHG  1   6  -1
M  END
>  <PDB_ID>  (32) 
pdb1a5d

>  <RESIDUE_NAME>  (32) 
GLU   PHE

>  <FRAG_NAME>  (32) 
ACET   MBZ

>  <FRAG_ATOM_NUM>  (32) 
fragi: 7  fragj: 15

>  <atom.prop.CHAIN_ID>  (32) 
A A A A A A A Z Z Z Z Z Z Z Z Z Z Z Z Z Z Z

>  <atom.prop.IS_HEAVY_ATOM>  (32) 
1 0 0 0 1 1 1 1 0 0 0 1 1 0 1 0 1 0 1 0 1 0

>  <DIFUSE_FUNC_ATOM>  (32) 
atom 6   atom 7   

>  <FINAL_SINGLE_POINT_ENERGY>  (32) 
0

>  <NONCOV_INTER_ENERGY_QM>  (32) 
0

>  <FF_Energy>  (32) 
-0.23

>  <QM_Energy>  (32) 
-8.02

>  <source>  (32) 
ACET_MBZ_00

>  <Index>  (32) 
904

$$$$
ACET-pdb2ahe-A-ASP-188:MBZ-pdb2ahe-A-PHE-178
     RDKit          3D

 22 21  0  0  0  0  0  0  0  0999 V2000
   -2.6570    3.0605    4.3756 C   0  0  0  0  0  0  0  0  0  0  0  0
   -1.9936    2.7066    5.0186 H   0  0  0  0  0  0  0  0  0  0  0  0
   -3.2116    2.3355    3.9968 H   0  0  0  0  0  0  0  0  0  0  0  0
   -3.3049    3.7694    4.8912 H   0  0  0  0  0  0  0  0  0  0  0  0
   -1.8835    3.7227    3.2138 C   0  0  0  0  0  0  0  0  0  0  0  0
   -2.5570    4.2319    2.2897 O   0  0  0  0  0  1  0  0  0  0  0  0
   -0.6491    3.7921    3.3192 O   0  0  0  0  0  0  0  0  0  0  0  0
   -0.0694    2.8828   -0.0361 C   0  0  0  0  0  0  0  0  0  0  0  0
    0.8552    3.2205    0.0129 H   0  0  0  0  0  0  0  0  0  0  0  0
   -0.6150    3.1930    0.7246 H   0  0  0  0  0  0  0  0  0  0  0  0
   -0.5153    3.2935   -0.9420 H   0  0  0  0  0  0  0  0  0  0  0  0
   -0.0317    1.3857   -0.0165 C   0  0  0  0  0  0  0  0  0  0  0  0
   -1.1883    0.6488    0.0314 C   0  0  0  0  0  0  0  0  0  0  0  0
   -2.0757    1.1348    0.0906 H   0  0  0  0  0  0  0  0  0  0  0  0
   -1.1849   -0.7130    0.0000 C   0  0  0  0  0  0  0  0  0  0  0  0
   -2.0378   -1.2344   -0.0126 H   0  0  0  0  0  0  0  0  0  0  0  0
    0.0444   -1.3756   -0.0134 C   0  0  0  0  0  0  0  0  0  0  0  0
    0.0524   -2.3770   -0.0333 H   0  0  0  0  0  0  0  0  0  0  0  0
    1.1849   -0.6557   -0.0000 C   0  0  0  0  0  0  0  0  0  0  0  0
    2.1009   -1.1413    0.0132 H   0  0  0  0  0  0  0  0  0  0  0  0
    1.1756    0.7100   -0.0015 C   0  0  0  0  0  0  0  0  0  0  0  0
    2.0301    1.2242    0.0072 H   0  0  0  0  0  0  0  0  0  0  0  0
  1  5  1  0
  5  6  1  0
  5  7  2  0
  1  2  1  0
  1  3  1  0
  1  4  1  0
  8 12  1  0
 12 13  2  0
 13 15  1  0
 15 17  2  0
 17 19  1  0
 19 21  2  0
 21 12  1  0
  8  9  1  0
  8 10  1  0
  8 11  1  0
 13 14  1  0
 15 16  1  0
 17 18  1  0
 19 20  1  0
 21 22  1  0
M  CHG  1   6  -1
M  END
>  <PDB_ID>  (33) 
pdb2ahe

>  <RESIDUE_NAME>  (33) 
ASP   PHE

>  <FRAG_NAME>  (33) 
ACET   MBZ

>  <FRAG_ATOM_NUM>  (33) 
fragi: 7  fragj: 15

>  <atom.prop.CHAIN_ID>  (33) 
A A A A A A A Z Z Z Z Z Z Z Z Z Z Z Z Z Z Z

>  <atom.prop.IS_HEAVY_ATOM>  (33) 
1 0 0 0 1 1 1 1 0 0 0 1 1 0 1 0 1 0 1 0 1 0

>  <DIFUSE_FUNC_ATOM>  (33) 
atom 6   atom 7   

>  <FINAL_SINGLE_POINT_ENERGY>  (33) 
0

>  <NONCOV_INTER_ENERGY_QM>  (33) 
0

>  <FF_Energy>  (33) 
-1.14

>  <QM_Energy>  (33) 
-6.12

>  <source>  (33) 
ACET_MBZ_00

>  <Index>  (33) 
1133

$$$$
ACET-pdb2ai0-H-ASP-100:MBZ-pdb2ai0-H-PHE-109
     RDKit          3D

 22 21  0  0  0  0  0  0  0  0999 V2000
   -1.9143   -1.0557    3.2707 C   0  0  0  0  0  0  0  0  0  0  0  0
   -2.1679   -0.2519    2.7466 H   0  0  0  0  0  0  0  0  0  0  0  0
   -0.9503   -1.2605    3.1525 H   0  0  0  0  0  0  0  0  0  0  0  0
   -2.0819   -0.8336    4.3247 H   0  0  0  0  0  0  0  0  0  0  0  0
   -2.7332   -2.2466    2.7648 C   0  0  0  0  0  0  0  0  0  0  0  0
   -3.2523   -3.0502    3.5771 O   0  0  0  0  0  1  0  0  0  0  0  0
   -2.8515   -2.3897    1.5325 O   0  0  0  0  0  0  0  0  0  0  0  0
    0.0085    2.9159    0.0139 C   0  0  0  0  0  0  0  0  0  0  0  0
   -0.5564    3.2317   -0.7316 H   0  0  0  0  0  0  0  0  0  0  0  0
    0.9422    3.2191   -0.0836 H   0  0  0  0  0  0  0  0  0  0  0  0
   -0.3845    3.3536    0.9316 H   0  0  0  0  0  0  0  0  0  0  0  0
    0.0019    1.4052    0.0009 C   0  0  0  0  0  0  0  0  0  0  0  0
   -1.1980    0.6908    0.0062 C   0  0  0  0  0  0  0  0  0  0  0  0
   -2.0639    1.1842    0.0129 H   0  0  0  0  0  0  0  0  0  0  0  0
   -1.2033   -0.6978   -0.0000 C   0  0  0  0  0  0  0  0  0  0  0  0
   -2.0794   -1.1928   -0.0048 H   0  0  0  0  0  0  0  0  0  0  0  0
   -0.0013   -1.3945    0.0019 C   0  0  0  0  0  0  0  0  0  0  0  0
   -0.0062   -2.3942    0.0036 H   0  0  0  0  0  0  0  0  0  0  0  0
    1.2033   -0.7014    0.0000 C   0  0  0  0  0  0  0  0  0  0  0  0
    2.0828   -1.1960    0.0069 H   0  0  0  0  0  0  0  0  0  0  0  0
    1.1974    0.6977   -0.0090 C   0  0  0  0  0  0  0  0  0  0  0  0
    2.0670    1.1901   -0.0230 H   0  0  0  0  0  0  0  0  0  0  0  0
  1  5  1  0
  5  6  1  0
  5  7  2  0
  1  2  1  0
  1  3  1  0
  1  4  1  0
  8 12  1  0
 12 13  2  0
 13 15  1  0
 15 17  2  0
 17 19  1  0
 19 21  2  0
 21 12  1  0
  8  9  1  0
  8 10  1  0
  8 11  1  0
 13 14  1  0
 15 16  1  0
 17 18  1  0
 19 20  1  0
 21 22  1  0
M  CHG  1   6  -1
M  END
>  <PDB_ID>  (34) 
pdb2ai0

>  <RESIDUE_NAME>  (34) 
ASP   PHE

>  <FRAG_NAME>  (34) 
ACET   MBZ

>  <FRAG_ATOM_NUM>  (34) 
fragi: 7  fragj: 15

>  <atom.prop.CHAIN_ID>  (34) 
A A A A A A A Z Z Z Z Z Z Z Z Z Z Z Z Z Z Z

>  <atom.prop.IS_HEAVY_ATOM>  (34) 
1 0 0 0 1 1 1 1 0 0 0 1 1 0 1 0 1 0 1 0 1 0

>  <DIFUSE_FUNC_ATOM>  (34) 
atom 6   atom 7   

>  <FINAL_SINGLE_POINT_ENERGY>  (34) 
0

>  <NONCOV_INTER_ENERGY_QM>  (34) 
0

>  <FF_Energy>  (34) 
-0.99

>  <QM_Energy>  (34) 
-3.63

>  <source>  (34) 
ACET_MBZ_00

>  <Index>  (34) 
1177

$$$$
ACET-pdb1a99-A-ASP-124:MBZ-pdb1a99-A-PHE-129
     RDKit          3D

 22 21  0  0  0  0  0  0  0  0999 V2000
   -4.6804    4.9555   -1.1182 C   0  0  0  0  0  0  0  0  0  0  0  0
   -4.1068    5.2105   -1.8851 H   0  0  0  0  0  0  0  0  0  0  0  0
   -5.0970    5.7540   -0.7065 H   0  0  0  0  0  0  0  0  0  0  0  0
   -5.4760    4.3097   -1.4897 H   0  0  0  0  0  0  0  0  0  0  0  0
   -3.8143    4.2631   -0.0712 C   0  0  0  0  0  0  0  0  0  0  0  0
   -3.8040    3.0313   -0.0901 O   0  0  0  0  0  1  0  0  0  0  0  0
   -3.1593    4.9772    0.7420 O   0  0  0  0  0  0  0  0  0  0  0  0
    0.0028    2.8937    0.0272 C   0  0  0  0  0  0  0  0  0  0  0  0
   -0.8007    3.2135   -0.4537 H   0  0  0  0  0  0  0  0  0  0  0  0
    0.8314    3.2098   -0.4107 H   0  0  0  0  0  0  0  0  0  0  0  0
   -0.0222    3.3199    1.0301 H   0  0  0  0  0  0  0  0  0  0  0  0
   -0.0001    1.3967    0.0012 C   0  0  0  0  0  0  0  0  0  0  0  0
   -1.2027    0.6913   -0.0020 C   0  0  0  0  0  0  0  0  0  0  0  0
   -2.0646    1.1856   -0.0067 H   0  0  0  0  0  0  0  0  0  0  0  0
   -1.2050   -0.6936    0.0000 C   0  0  0  0  0  0  0  0  0  0  0  0
   -2.0772   -1.1936    0.0018 H   0  0  0  0  0  0  0  0  0  0  0  0
    0.0020   -1.3853    0.0011 C   0  0  0  0  0  0  0  0  0  0  0  0
   -0.0046   -2.3878    0.0022 H   0  0  0  0  0  0  0  0  0  0  0  0
    1.2050   -0.6962    0.0000 C   0  0  0  0  0  0  0  0  0  0  0  0
    2.0832   -1.1981    0.0005 H   0  0  0  0  0  0  0  0  0  0  0  0
    1.2007    0.6870   -0.0004 C   0  0  0  0  0  0  0  0  0  0  0  0
    2.0666    1.1883   -0.0026 H   0  0  0  0  0  0  0  0  0  0  0  0
  1  5  1  0
  5  6  1  0
  5  7  2  0
  1  2  1  0
  1  3  1  0
  1  4  1  0
  8 12  1  0
 12 13  2  0
 13 15  1  0
 15 17  2  0
 17 19  1  0
 19 21  2  0
 21 12  1  0
  8  9  1  0
  8 10  1  0
  8 11  1  0
 13 14  1  0
 15 16  1  0
 17 18  1  0
 19 20  1  0
 21 22  1  0
M  CHG  1   6  -1
M  END
>  <PDB_ID>  (35) 
pdb1a99

>  <RESIDUE_NAME>  (35) 
ASP   PHE

>  <FRAG_NAME>  (35) 
ACET   MBZ

>  <FRAG_ATOM_NUM>  (35) 
fragi: 7  fragj: 15

>  <atom.prop.CHAIN_ID>  (35) 
A A A A A A A Z Z Z Z Z Z Z Z Z Z Z Z Z Z Z

>  <atom.prop.IS_HEAVY_ATOM>  (35) 
1 0 0 0 1 1 1 1 0 0 0 1 1 0 1 0 1 0 1 0 1 0

>  <DIFUSE_FUNC_ATOM>  (35) 
atom 6   atom 7   

>  <FINAL_SINGLE_POINT_ENERGY>  (35) 
0

>  <NONCOV_INTER_ENERGY_QM>  (35) 
0

>  <FF_Energy>  (35) 
-2.66

>  <QM_Energy>  (35) 
-7.95

>  <source>  (35) 
ACET_MBZ_00

>  <Index>  (35) 
1209

$$$$
ACET-pdb1a99-D-GLU-69:MBZ-pdb1a99-D-PHE-88
     RDKit          3D

 22 21  0  0  0  0  0  0  0  0999 V2000
    6.1243    2.1909   -0.1217 C   0  0  0  0  0  0  0  0  0  0  0  0
    6.8594    1.5396   -0.0599 H   0  0  0  0  0  0  0  0  0  0  0  0
    6.4512    3.1192   -0.1023 H   0  0  0  0  0  0  0  0  0  0  0  0
    5.5991    2.0283   -1.0629 H   0  0  0  0  0  0  0  0  0  0  0  0
    5.2319    1.9927    1.0497 C   0  0  0  0  0  0  0  0  0  0  0  0
    4.0966    1.5300    0.8467 O   0  0  0  0  0  1  0  0  0  0  0  0
    5.6609    2.3038    2.1739 O   0  0  0  0  0  0  0  0  0  0  0  0
   -0.0078    2.9131    0.0780 C   0  0  0  0  0  0  0  0  0  0  0  0
   -0.7065    3.2456   -0.5343 H   0  0  0  0  0  0  0  0  0  0  0  0
    0.8890    3.2326   -0.1853 H   0  0  0  0  0  0  0  0  0  0  0  0
   -0.2224    3.2999    1.0742 H   0  0  0  0  0  0  0  0  0  0  0  0
   -0.0026    1.4037    0.0008 C   0  0  0  0  0  0  0  0  0  0  0  0
   -1.2022    0.6916   -0.0022 C   0  0  0  0  0  0  0  0  0  0  0  0
   -2.0677    1.1812   -0.0073 H   0  0  0  0  0  0  0  0  0  0  0  0
   -1.2059   -0.7013   -0.0000 C   0  0  0  0  0  0  0  0  0  0  0  0
   -2.0772   -1.1984    0.0002 H   0  0  0  0  0  0  0  0  0  0  0  0
    0.0049   -1.3930    0.0038 C   0  0  0  0  0  0  0  0  0  0  0  0
    0.0022   -2.3925    0.0083 H   0  0  0  0  0  0  0  0  0  0  0  0
    1.2059   -0.6952   -0.0000 C   0  0  0  0  0  0  0  0  0  0  0  0
    2.0872   -1.1927   -0.0002 H   0  0  0  0  0  0  0  0  0  0  0  0
    1.1999    0.6941   -0.0024 C   0  0  0  0  0  0  0  0  0  0  0  0
    2.0647    1.1942   -0.0075 H   0  0  0  0  0  0  0  0  0  0  0  0
  1  5  1  0
  5  6  1  0
  5  7  2  0
  1  2  1  0
  1  3  1  0
  1  4  1  0
  8 12  1  0
 12 13  2  0
 13 15  1  0
 15 17  2  0
 17 19  1  0
 19 21  2  0
 21 12  1  0
  8  9  1  0
  8 10  1  0
  8 11  1  0
 13 14  1  0
 15 16  1  0
 17 18  1  0
 19 20  1  0
 21 22  1  0
M  CHG  1   6  -1
M  END
>  <PDB_ID>  (36) 
pdb1a99

>  <RESIDUE_NAME>  (36) 
GLU   PHE

>  <FRAG_NAME>  (36) 
ACET   MBZ

>  <FRAG_ATOM_NUM>  (36) 
fragi: 7  fragj: 15

>  <atom.prop.CHAIN_ID>  (36) 
A A A A A A A Z Z Z Z Z Z Z Z Z Z Z Z Z Z Z

>  <atom.prop.IS_HEAVY_ATOM>  (36) 
1 0 0 0 1 1 1 1 0 0 0 1 1 0 1 0 1 0 1 0 1 0

>  <DIFUSE_FUNC_ATOM>  (36) 
atom 6   atom 7   

>  <FINAL_SINGLE_POINT_ENERGY>  (36) 
0

>  <NONCOV_INTER_ENERGY_QM>  (36) 
0

>  <FF_Energy>  (36) 
3.93

>  <QM_Energy>  (36) 
-6.39

>  <source>  (36) 
ACET_MBZ_00

>  <Index>  (36) 
1234

$$$$
ACET-pdb1acc-A-ASP-555:MBZ-pdb1acc-A-PHE-324
     RDKit          3D

 22 21  0  0  0  0  0  0  0  0999 V2000
   -3.0837   -1.7257   -2.6647 C   0  0  0  0  0  0  0  0  0  0  0  0
   -2.1057   -1.8297   -2.5183 H   0  0  0  0  0  0  0  0  0  0  0  0
   -3.2889   -0.8112   -2.9962 H   0  0  0  0  0  0  0  0  0  0  0  0
   -3.3829   -2.4355   -3.4359 H   0  0  0  0  0  0  0  0  0  0  0  0
   -3.8014   -1.9412   -1.3444 C   0  0  0  0  0  0  0  0  0  0  0  0
   -3.4074   -2.8515   -0.5862 O   0  0  0  0  0  1  0  0  0  0  0  0
   -4.7387   -1.1770   -1.0471 O   0  0  0  0  0  0  0  0  0  0  0  0
    0.0105    2.8870    0.0440 C   0  0  0  0  0  0  0  0  0  0  0  0
    0.9486    3.1951   -0.0514 H   0  0  0  0  0  0  0  0  0  0  0  0
   -0.3676    3.1757    0.9154 H   0  0  0  0  0  0  0  0  0  0  0  0
   -0.5746    3.3624   -0.7433 H   0  0  0  0  0  0  0  0  0  0  0  0
    0.0013    1.3967    0.0015 C   0  0  0  0  0  0  0  0  0  0  0  0
   -1.1940    0.6953   -0.0010 C   0  0  0  0  0  0  0  0  0  0  0  0
   -2.0599    1.1890   -0.0052 H   0  0  0  0  0  0  0  0  0  0  0  0
   -1.1998   -0.6882   -0.0000 C   0  0  0  0  0  0  0  0  0  0  0  0
   -2.0801   -1.1829    0.0010 H   0  0  0  0  0  0  0  0  0  0  0  0
   -0.0040   -1.3914    0.0005 C   0  0  0  0  0  0  0  0  0  0  0  0
   -0.0130   -2.3897    0.0009 H   0  0  0  0  0  0  0  0  0  0  0  0
    1.1998   -0.7001    0.0000 C   0  0  0  0  0  0  0  0  0  0  0  0
    2.0780   -1.2007    0.0016 H   0  0  0  0  0  0  0  0  0  0  0  0
    1.1967    0.6878   -0.0010 C   0  0  0  0  0  0  0  0  0  0  0  0
    2.0653    1.1845   -0.0041 H   0  0  0  0  0  0  0  0  0  0  0  0
  1  5  1  0
  5  6  1  0
  5  7  2  0
  1  2  1  0
  1  3  1  0
  1  4  1  0
  8 12  1  0
 12 13  2  0
 13 15  1  0
 15 17  2  0
 17 19  1  0
 19 21  2  0
 21 12  1  0
  8  9  1  0
  8 10  1  0
  8 11  1  0
 13 14  1  0
 15 16  1  0
 17 18  1  0
 19 20  1  0
 21 22  1  0
M  CHG  1   6  -1
M  END
>  <PDB_ID>  (37) 
pdb1acc

>  <RESIDUE_NAME>  (37) 
ASP   PHE

>  <FRAG_NAME>  (37) 
ACET   MBZ

>  <FRAG_ATOM_NUM>  (37) 
fragi: 7  fragj: 15

>  <atom.prop.CHAIN_ID>  (37) 
A A A A A A A Z Z Z Z Z Z Z Z Z Z Z Z Z Z Z

>  <atom.prop.IS_HEAVY_ATOM>  (37) 
1 0 0 0 1 1 1 1 0 0 0 1 1 0 1 0 1 0 1 0 1 0

>  <DIFUSE_FUNC_ATOM>  (37) 
atom 6   atom 7   

>  <FINAL_SINGLE_POINT_ENERGY>  (37) 
0

>  <NONCOV_INTER_ENERGY_QM>  (37) 
0

>  <FF_Energy>  (37) 
2.11

>  <QM_Energy>  (37) 
-5.71

>  <source>  (37) 
ACET_MBZ_00

>  <Index>  (37) 
1369

$$$$
ACET-pdb1a2v-C-GLU-110:MBZ-pdb1a2v-B-PHE-205
     RDKit          3D

 22 21  0  0  0  0  0  0  0  0999 V2000
    6.0999   -1.1416   -1.2521 C   0  0  0  0  0  0  0  0  0  0  0  0
    7.0444   -1.3209   -1.4224 H   0  0  0  0  0  0  0  0  0  0  0  0
    5.5090   -1.8642   -1.5391 H   0  0  0  0  0  0  0  0  0  0  0  0
    5.9579   -0.9655   -0.1859 H   0  0  0  0  0  0  0  0  0  0  0  0
    5.7228    0.0943   -2.0547 C   0  0  0  0  0  0  0  0  0  0  0  0
    4.7285    0.7654   -1.6794 O   0  0  0  0  0  1  0  0  0  0  0  0
    6.4181    0.4033   -3.0508 O   0  0  0  0  0  0  0  0  0  0  0  0
   -0.0017    2.9083   -0.0359 C   0  0  0  0  0  0  0  0  0  0  0  0
    0.8170    3.2295    0.4113 H   0  0  0  0  0  0  0  0  0  0  0  0
   -0.8157    3.2275    0.4209 H   0  0  0  0  0  0  0  0  0  0  0  0
   -0.0080    3.3236   -1.0437 H   0  0  0  0  0  0  0  0  0  0  0  0
   -0.0004    1.4038   -0.0002 C   0  0  0  0  0  0  0  0  0  0  0  0
   -1.1901    0.7026    0.0006 C   0  0  0  0  0  0  0  0  0  0  0  0
   -2.0602    1.1859   -0.0002 H   0  0  0  0  0  0  0  0  0  0  0  0
   -1.1973   -0.6991   -0.0000 C   0  0  0  0  0  0  0  0  0  0  0  0
   -2.0765   -1.1852    0.0030 H   0  0  0  0  0  0  0  0  0  0  0  0
    0.0016   -1.3979   -0.0027 C   0  0  0  0  0  0  0  0  0  0  0  0
   -0.0036   -2.3950   -0.0069 H   0  0  0  0  0  0  0  0  0  0  0  0
    1.1973   -0.7007    0.0000 C   0  0  0  0  0  0  0  0  0  0  0  0
    2.0820   -1.1942    0.0023 H   0  0  0  0  0  0  0  0  0  0  0  0
    1.1890    0.6913    0.0023 C   0  0  0  0  0  0  0  0  0  0  0  0
    2.0618    1.1863    0.0050 H   0  0  0  0  0  0  0  0  0  0  0  0
  1  5  1  0
  5  6  1  0
  5  7  2  0
  1  2  1  0
  1  3  1  0
  1  4  1  0
  8 12  1  0
 12 13  2  0
 13 15  1  0
 15 17  2  0
 17 19  1  0
 19 21  2  0
 21 12  1  0
  8  9  1  0
  8 10  1  0
  8 11  1  0
 13 14  1  0
 15 16  1  0
 17 18  1  0
 19 20  1  0
 21 22  1  0
M  CHG  1   6  -1
M  END
>  <PDB_ID>  (38) 
pdb1a2v

>  <RESIDUE_NAME>  (38) 
GLU   PHE

>  <FRAG_NAME>  (38) 
ACET   MBZ

>  <FRAG_ATOM_NUM>  (38) 
fragi: 7  fragj: 15

>  <atom.prop.CHAIN_ID>  (38) 
A A A A A A A Z Z Z Z Z Z Z Z Z Z Z Z Z Z Z

>  <atom.prop.IS_HEAVY_ATOM>  (38) 
1 0 0 0 1 1 1 1 0 0 0 1 1 0 1 0 1 0 1 0 1 0

>  <DIFUSE_FUNC_ATOM>  (38) 
atom 6   atom 7   

>  <FINAL_SINGLE_POINT_ENERGY>  (38) 
0

>  <NONCOV_INTER_ENERGY_QM>  (38) 
0

>  <FF_Energy>  (38) 
0.58

>  <QM_Energy>  (38) 
-4.44

>  <source>  (38) 
ACET_MBZ_00

>  <Index>  (38) 
1395

$$$$
ACET-pdb1af6-B-ASP-274:MBZ-pdb1af6-B-PHE-230
     RDKit          3D

 22 21  0  0  0  0  0  0  0  0999 V2000
   -4.7991    2.6640    0.9616 C   0  0  0  0  0  0  0  0  0  0  0  0
   -4.2679    1.8532    0.8195 H   0  0  0  0  0  0  0  0  0  0  0  0
   -5.7600    2.5142    0.8532 H   0  0  0  0  0  0  0  0  0  0  0  0
   -4.6212    3.0132    1.9788 H   0  0  0  0  0  0  0  0  0  0  0  0
   -4.3492    3.7290   -0.0407 C   0  0  0  0  0  0  0  0  0  0  0  0
   -5.1293    4.6653   -0.2914 O   0  0  0  0  0  1  0  0  0  0  0  0
   -3.2125    3.6250   -0.5387 O   0  0  0  0  0  0  0  0  0  0  0  0
   -0.0306    2.8963    0.0114 C   0  0  0  0  0  0  0  0  0  0  0  0
   -0.7446    3.1954   -0.5812 H   0  0  0  0  0  0  0  0  0  0  0  0
    0.8532    3.2192   -0.2432 H   0  0  0  0  0  0  0  0  0  0  0  0
   -0.2483    3.2691    1.0123 H   0  0  0  0  0  0  0  0  0  0  0  0
   -0.0048    1.3881   -0.0033 C   0  0  0  0  0  0  0  0  0  0  0  0
   -1.1929    0.6806    0.0024 C   0  0  0  0  0  0  0  0  0  0  0  0
   -2.0632    1.1713    0.0070 H   0  0  0  0  0  0  0  0  0  0  0  0
   -1.1942   -0.6994    0.0000 C   0  0  0  0  0  0  0  0  0  0  0  0
   -2.0707   -1.1983   -0.0019 H   0  0  0  0  0  0  0  0  0  0  0  0
    0.0015   -1.3816    0.0019 C   0  0  0  0  0  0  0  0  0  0  0  0
    0.0037   -2.3860    0.0041 H   0  0  0  0  0  0  0  0  0  0  0  0
    1.1942   -0.6880    0.0000 C   0  0  0  0  0  0  0  0  0  0  0  0
    2.0800   -1.1873    0.0010 H   0  0  0  0  0  0  0  0  0  0  0  0
    1.1963    0.7003   -0.0009 C   0  0  0  0  0  0  0  0  0  0  0  0
    2.0580    1.1963   -0.0006 H   0  0  0  0  0  0  0  0  0  0  0  0
  1  5  1  0
  5  6  1  0
  5  7  2  0
  1  2  1  0
  1  3  1  0
  1  4  1  0
  8 12  1  0
 12 13  2  0
 13 15  1  0
 15 17  2  0
 17 19  1  0
 19 21  2  0
 21 12  1  0
  8  9  1  0
  8 10  1  0
  8 11  1  0
 13 14  1  0
 15 16  1  0
 17 18  1  0
 19 20  1  0
 21 22  1  0
M  CHG  1   6  -1
M  END
>  <PDB_ID>  (39) 
pdb1af6

>  <RESIDUE_NAME>  (39) 
ASP   PHE

>  <FRAG_NAME>  (39) 
ACET   MBZ

>  <FRAG_ATOM_NUM>  (39) 
fragi: 7  fragj: 15

>  <atom.prop.CHAIN_ID>  (39) 
A A A A A A A Z Z Z Z Z Z Z Z Z Z Z Z Z Z Z

>  <atom.prop.IS_HEAVY_ATOM>  (39) 
1 0 0 0 1 1 1 1 0 0 0 1 1 0 1 0 1 0 1 0 1 0

>  <DIFUSE_FUNC_ATOM>  (39) 
atom 6   atom 7   

>  <FINAL_SINGLE_POINT_ENERGY>  (39) 
0

>  <NONCOV_INTER_ENERGY_QM>  (39) 
0

>  <FF_Energy>  (39) 
-2.12

>  <QM_Energy>  (39) 
-7.2

>  <source>  (39) 
ACET_MBZ_00

>  <Index>  (39) 
1481

$$$$
ACET-pdb1af6-B-ASP-255:MBZ-pdb1af6-B-PHE-259
     RDKit          3D

 22 21  0  0  0  0  0  0  0  0999 V2000
    4.2761    5.3813    0.4357 C   0  0  0  0  0  0  0  0  0  0  0  0
    5.1952    5.0771    0.6977 H   0  0  0  0  0  0  0  0  0  0  0  0
    3.8776    5.9026    1.1935 H   0  0  0  0  0  0  0  0  0  0  0  0
    4.3705    6.0460   -0.4230 H   0  0  0  0  0  0  0  0  0  0  0  0
    3.4189    4.1590    0.1914 C   0  0  0  0  0  0  0  0  0  0  0  0
    3.2498    3.7618   -0.9847 O   0  0  0  0  0  1  0  0  0  0  0  0
    2.9068    3.5856    1.1818 O   0  0  0  0  0  0  0  0  0  0  0  0
    0.0054    2.8971   -0.0032 C   0  0  0  0  0  0  0  0  0  0  0  0
    0.9061    3.1999    0.2983 H   0  0  0  0  0  0  0  0  0  0  0  0
   -0.6899    3.2049    0.6417 H   0  0  0  0  0  0  0  0  0  0  0  0
   -0.2004    3.3679   -0.9645 H   0  0  0  0  0  0  0  0  0  0  0  0
    0.0011    1.3969   -0.0023 C   0  0  0  0  0  0  0  0  0  0  0  0
   -1.1932    0.6886    0.0003 C   0  0  0  0  0  0  0  0  0  0  0  0
   -2.0605    1.1795    0.0013 H   0  0  0  0  0  0  0  0  0  0  0  0
   -1.1944   -0.6962   -0.0000 C   0  0  0  0  0  0  0  0  0  0  0  0
   -2.0732   -1.1915   -0.0026 H   0  0  0  0  0  0  0  0  0  0  0  0
   -0.0001   -1.3842    0.0048 C   0  0  0  0  0  0  0  0  0  0  0  0
   -0.0024   -2.3870    0.0112 H   0  0  0  0  0  0  0  0  0  0  0  0
    1.1944   -0.6935    0.0000 C   0  0  0  0  0  0  0  0  0  0  0  0
    2.0779   -1.1939   -0.0003 H   0  0  0  0  0  0  0  0  0  0  0  0
    1.1922    0.6884   -0.0028 C   0  0  0  0  0  0  0  0  0  0  0  0
    2.0620    1.1860   -0.0060 H   0  0  0  0  0  0  0  0  0  0  0  0
  1  5  1  0
  5  6  1  0
  5  7  2  0
  1  2  1  0
  1  3  1  0
  1  4  1  0
  8 12  1  0
 12 13  2  0
 13 15  1  0
 15 17  2  0
 17 19  1  0
 19 21  2  0
 21 12  1  0
  8  9  1  0
  8 10  1  0
  8 11  1  0
 13 14  1  0
 15 16  1  0
 17 18  1  0
 19 20  1  0
 21 22  1  0
M  CHG  1   6  -1
M  END
>  <PDB_ID>  (40) 
pdb1af6

>  <RESIDUE_NAME>  (40) 
ASP   PHE

>  <FRAG_NAME>  (40) 
ACET   MBZ

>  <FRAG_ATOM_NUM>  (40) 
fragi: 7  fragj: 15

>  <atom.prop.CHAIN_ID>  (40) 
A A A A A A A Z Z Z Z Z Z Z Z Z Z Z Z Z Z Z

>  <atom.prop.IS_HEAVY_ATOM>  (40) 
1 0 0 0 1 1 1 1 0 0 0 1 1 0 1 0 1 0 1 0 1 0

>  <DIFUSE_FUNC_ATOM>  (40) 
atom 6   atom 7   

>  <FINAL_SINGLE_POINT_ENERGY>  (40) 
0

>  <NONCOV_INTER_ENERGY_QM>  (40) 
0

>  <FF_Energy>  (40) 
-0.72

>  <QM_Energy>  (40) 
-9.0

>  <source>  (40) 
ACET_MBZ_00

>  <Index>  (40) 
1482

$$$$
ACET-pdb1af6-C-ASP-274:MBZ-pdb1af6-C-PHE-230
     RDKit          3D

 22 21  0  0  0  0  0  0  0  0999 V2000
   -4.8052    2.6554    0.9801 C   0  0  0  0  0  0  0  0  0  0  0  0
   -4.2839    1.8368    0.8325 H   0  0  0  0  0  0  0  0  0  0  0  0
   -5.7703    2.5100    0.8743 H   0  0  0  0  0  0  0  0  0  0  0  0
   -4.6201    2.9987    1.9979 H   0  0  0  0  0  0  0  0  0  0  0  0
   -4.3540    3.7129   -0.0272 C   0  0  0  0  0  0  0  0  0  0  0  0
   -5.1133    4.6697   -0.2542 O   0  0  0  0  0  1  0  0  0  0  0  0
   -3.2363    3.5891   -0.5574 O   0  0  0  0  0  0  0  0  0  0  0  0
   -0.0130    2.8912    0.0103 C   0  0  0  0  0  0  0  0  0  0  0  0
   -0.7228    3.2019   -0.5836 H   0  0  0  0  0  0  0  0  0  0  0  0
    0.8747    3.2102   -0.2437 H   0  0  0  0  0  0  0  0  0  0  0  0
   -0.2272    3.2713    1.0091 H   0  0  0  0  0  0  0  0  0  0  0  0
   -0.0023    1.3912   -0.0036 C   0  0  0  0  0  0  0  0  0  0  0  0
   -1.1876    0.6833    0.0041 C   0  0  0  0  0  0  0  0  0  0  0  0
   -2.0596    1.1734    0.0113 H   0  0  0  0  0  0  0  0  0  0  0  0
   -1.1927   -0.6987   -0.0000 C   0  0  0  0  0  0  0  0  0  0  0  0
   -2.0699   -1.1932    0.0006 H   0  0  0  0  0  0  0  0  0  0  0  0
    0.0009   -1.3798   -0.0023 C   0  0  0  0  0  0  0  0  0  0  0  0
    0.0023   -2.3848   -0.0062 H   0  0  0  0  0  0  0  0  0  0  0  0
    1.1927   -0.6881    0.0000 C   0  0  0  0  0  0  0  0  0  0  0  0
    2.0773   -1.1880    0.0015 H   0  0  0  0  0  0  0  0  0  0  0  0
    1.1890    0.6921    0.0019 C   0  0  0  0  0  0  0  0  0  0  0  0
    2.0575    1.1905    0.0064 H   0  0  0  0  0  0  0  0  0  0  0  0
  1  5  1  0
  5  6  1  0
  5  7  2  0
  1  2  1  0
  1  3  1  0
  1  4  1  0
  8 12  1  0
 12 13  2  0
 13 15  1  0
 15 17  2  0
 17 19  1  0
 19 21  2  0
 21 12  1  0
  8  9  1  0
  8 10  1  0
  8 11  1  0
 13 14  1  0
 15 16  1  0
 17 18  1  0
 19 20  1  0
 21 22  1  0
M  CHG  1   6  -1
M  END
>  <PDB_ID>  (41) 
pdb1af6

>  <RESIDUE_NAME>  (41) 
ASP   PHE

>  <FRAG_NAME>  (41) 
ACET   MBZ

>  <FRAG_ATOM_NUM>  (41) 
fragi: 7  fragj: 15

>  <atom.prop.CHAIN_ID>  (41) 
A A A A A A A Z Z Z Z Z Z Z Z Z Z Z Z Z Z Z

>  <atom.prop.IS_HEAVY_ATOM>  (41) 
1 0 0 0 1 1 1 1 0 0 0 1 1 0 1 0 1 0 1 0 1 0

>  <DIFUSE_FUNC_ATOM>  (41) 
atom 6   atom 7   

>  <FINAL_SINGLE_POINT_ENERGY>  (41) 
0

>  <NONCOV_INTER_ENERGY_QM>  (41) 
0

>  <FF_Energy>  (41) 
-2.18

>  <QM_Energy>  (41) 
-7.19

>  <source>  (41) 
ACET_MBZ_00

>  <Index>  (41) 
1487

$$$$
ACET-pdb2aq4-A-ASP-512:MBZ-pdb2aq4-A-PHE-533
     RDKit          3D

 22 21  0  0  0  0  0  0  0  0999 V2000
    3.5348    0.1592    2.8142 C   0  0  0  0  0  0  0  0  0  0  0  0
    4.4965    0.0678    3.0139 H   0  0  0  0  0  0  0  0  0  0  0  0
    3.2712   -0.3848    2.0351 H   0  0  0  0  0  0  0  0  0  0  0  0
    2.9758   -0.1975    3.6792 H   0  0  0  0  0  0  0  0  0  0  0  0
    3.2468    1.6538    2.4855 C   0  0  0  0  0  0  0  0  0  0  0  0
    3.9488    2.1727    1.5841 O   0  0  0  0  0  1  0  0  0  0  0  0
    2.3693    2.4083    3.0300 O   0  0  0  0  0  0  0  0  0  0  0  0
   -0.0084    2.8544    0.0256 C   0  0  0  0  0  0  0  0  0  0  0  0
   -0.5419    3.1930   -0.7363 H   0  0  0  0  0  0  0  0  0  0  0  0
    0.9203    3.1961   -0.0074 H   0  0  0  0  0  0  0  0  0  0  0  0
   -0.4611    3.2540    0.9330 H   0  0  0  0  0  0  0  0  0  0  0  0
    0.0096    1.3991   -0.0059 C   0  0  0  0  0  0  0  0  0  0  0  0
   -1.1815    0.6832   -0.0121 C   0  0  0  0  0  0  0  0  0  0  0  0
   -2.0528    1.1857   -0.0272 H   0  0  0  0  0  0  0  0  0  0  0  0
   -1.2054   -0.6963    0.0000 C   0  0  0  0  0  0  0  0  0  0  0  0
   -2.0985   -1.1741   -0.0003 H   0  0  0  0  0  0  0  0  0  0  0  0
   -0.0374   -1.3999    0.0141 C   0  0  0  0  0  0  0  0  0  0  0  0
   -0.0294   -2.3967    0.0341 H   0  0  0  0  0  0  0  0  0  0  0  0
    1.2054   -0.7057    0.0000 C   0  0  0  0  0  0  0  0  0  0  0  0
    2.0670   -1.2052   -0.0112 H   0  0  0  0  0  0  0  0  0  0  0  0
    1.2093    0.7197    0.0039 C   0  0  0  0  0  0  0  0  0  0  0  0
    2.0729    1.1958    0.0129 H   0  0  0  0  0  0  0  0  0  0  0  0
  1  5  1  0
  5  6  1  0
  5  7  2  0
  1  2  1  0
  1  3  1  0
  1  4  1  0
  8 12  1  0
 12 13  2  0
 13 15  1  0
 15 17  2  0
 17 19  1  0
 19 21  2  0
 21 12  1  0
  8  9  1  0
  8 10  1  0
  8 11  1  0
 13 14  1  0
 15 16  1  0
 17 18  1  0
 19 20  1  0
 21 22  1  0
M  CHG  1   6  -1
M  END
>  <PDB_ID>  (42) 
pdb2aq4

>  <RESIDUE_NAME>  (42) 
ASP   PHE

>  <FRAG_NAME>  (42) 
ACET   MBZ

>  <FRAG_ATOM_NUM>  (42) 
fragi: 7  fragj: 15

>  <atom.prop.CHAIN_ID>  (42) 
A A A A A A A Z Z Z Z Z Z Z Z Z Z Z Z Z Z Z

>  <atom.prop.IS_HEAVY_ATOM>  (42) 
1 0 0 0 1 1 1 1 0 0 0 1 1 0 1 0 1 0 1 0 1 0

>  <DIFUSE_FUNC_ATOM>  (42) 
atom 6   atom 7   

>  <FINAL_SINGLE_POINT_ENERGY>  (42) 
0

>  <NONCOV_INTER_ENERGY_QM>  (42) 
0

>  <FF_Energy>  (42) 
-1.33

>  <QM_Energy>  (42) 
-6.49

>  <source>  (42) 
ACET_MBZ_00

>  <Index>  (42) 
1573

$$$$
ACET-pdb1agq-D-GLU-62:MBZ-pdb1agq-D-PHE-114
     RDKit          3D

 22 21  0  0  0  0  0  0  0  0999 V2000
   -0.2332    5.1062   -3.4311 C   0  0  0  0  0  0  0  0  0  0  0  0
    0.6545    4.7194   -3.6067 H   0  0  0  0  0  0  0  0  0  0  0  0
   -0.4084    5.8968   -3.9910 H   0  0  0  0  0  0  0  0  0  0  0  0
   -0.9833    4.3506   -3.6648 H   0  0  0  0  0  0  0  0  0  0  0  0
   -0.2587    5.5582   -1.9785 C   0  0  0  0  0  0  0  0  0  0  0  0
   -1.3071    5.3818   -1.3144 O   0  0  0  0  0  1  0  0  0  0  0  0
    0.7730    6.0911   -1.5003 O   0  0  0  0  0  0  0  0  0  0  0  0
   -0.0117    2.9155    0.0026 C   0  0  0  0  0  0  0  0  0  0  0  0
   -0.8222    3.2177   -0.4757 H   0  0  0  0  0  0  0  0  0  0  0  0
    0.8103    3.2317   -0.4458 H   0  0  0  0  0  0  0  0  0  0  0  0
   -0.0334    3.3621    0.9967 H   0  0  0  0  0  0  0  0  0  0  0  0
    0.0007    1.4079    0.0004 C   0  0  0  0  0  0  0  0  0  0  0  0
   -1.2049    0.6920   -0.0030 C   0  0  0  0  0  0  0  0  0  0  0  0
   -2.0682    1.1845   -0.0087 H   0  0  0  0  0  0  0  0  0  0  0  0
   -1.2084   -0.7004   -0.0000 C   0  0  0  0  0  0  0  0  0  0  0  0
   -2.0791   -1.1982    0.0005 H   0  0  0  0  0  0  0  0  0  0  0  0
    0.0060   -1.4018    0.0036 C   0  0  0  0  0  0  0  0  0  0  0  0
    0.0010   -2.3962    0.0083 H   0  0  0  0  0  0  0  0  0  0  0  0
    1.2084   -0.6965    0.0000 C   0  0  0  0  0  0  0  0  0  0  0  0
    2.0903   -1.1900    0.0000 H   0  0  0  0  0  0  0  0  0  0  0  0
    1.1982    0.6988   -0.0010 C   0  0  0  0  0  0  0  0  0  0  0  0
    2.0665    1.1958   -0.0037 H   0  0  0  0  0  0  0  0  0  0  0  0
  1  5  1  0
  5  6  1  0
  5  7  2  0
  1  2  1  0
  1  3  1  0
  1  4  1  0
  8 12  1  0
 12 13  2  0
 13 15  1  0
 15 17  2  0
 17 19  1  0
 19 21  2  0
 21 12  1  0
  8  9  1  0
  8 10  1  0
  8 11  1  0
 13 14  1  0
 15 16  1  0
 17 18  1  0
 19 20  1  0
 21 22  1  0
M  CHG  1   6  -1
M  END
>  <PDB_ID>  (43) 
pdb1agq

>  <RESIDUE_NAME>  (43) 
GLU   PHE

>  <FRAG_NAME>  (43) 
ACET   MBZ

>  <FRAG_ATOM_NUM>  (43) 
fragi: 7  fragj: 15

>  <atom.prop.CHAIN_ID>  (43) 
A A A A A A A Z Z Z Z Z Z Z Z Z Z Z Z Z Z Z

>  <atom.prop.IS_HEAVY_ATOM>  (43) 
1 0 0 0 1 1 1 1 0 0 0 1 1 0 1 0 1 0 1 0 1 0

>  <DIFUSE_FUNC_ATOM>  (43) 
atom 6   atom 7   

>  <FINAL_SINGLE_POINT_ENERGY>  (43) 
0

>  <NONCOV_INTER_ENERGY_QM>  (43) 
0

>  <FF_Energy>  (43) 
-0.6

>  <QM_Energy>  (43) 
-5.68

>  <source>  (43) 
ACET_MBZ_00

>  <Index>  (43) 
1581

$$$$
ACET-pdb1agw-B-ASP-519:MBZ-pdb1agw-B-PHE-489
     RDKit          3D

 22 21  0  0  0  0  0  0  0  0999 V2000
    4.0541   -0.8281    2.1180 C   0  0  0  0  0  0  0  0  0  0  0  0
    3.5496   -1.5224    1.6209 H   0  0  0  0  0  0  0  0  0  0  0  0
    4.6228   -1.2404    2.8179 H   0  0  0  0  0  0  0  0  0  0  0  0
    4.7063   -0.3146    1.4115 H   0  0  0  0  0  0  0  0  0  0  0  0
    3.0542    0.1101    2.7930 C   0  0  0  0  0  0  0  0  0  0  0  0
    2.6670    1.1357    2.1918 O   0  0  0  0  0  1  0  0  0  0  0  0
    2.6488   -0.1794    3.9363 O   0  0  0  0  0  0  0  0  0  0  0  0
   -0.0098    2.8935   -0.0242 C   0  0  0  0  0  0  0  0  0  0  0  0
   -0.8211    3.1912   -0.5289 H   0  0  0  0  0  0  0  0  0  0  0  0
    0.8109    3.2044   -0.5056 H   0  0  0  0  0  0  0  0  0  0  0  0
   -0.0273    3.3939    0.9440 H   0  0  0  0  0  0  0  0  0  0  0  0
    0.0018    1.3990   -0.0072 C   0  0  0  0  0  0  0  0  0  0  0  0
   -1.1985    0.6921   -0.0085 C   0  0  0  0  0  0  0  0  0  0  0  0
   -2.0646    1.1934   -0.0167 H   0  0  0  0  0  0  0  0  0  0  0  0
   -1.2193   -0.6927    0.0000 C   0  0  0  0  0  0  0  0  0  0  0  0
   -2.0878   -1.1863   -0.0110 H   0  0  0  0  0  0  0  0  0  0  0  0
   -0.0060   -1.3907    0.0249 C   0  0  0  0  0  0  0  0  0  0  0  0
   -0.0109   -2.3895    0.0616 H   0  0  0  0  0  0  0  0  0  0  0  0
    1.2193   -0.7007   -0.0000 C   0  0  0  0  0  0  0  0  0  0  0  0
    2.0858   -1.2002   -0.0096 H   0  0  0  0  0  0  0  0  0  0  0  0
    1.2027    0.6930   -0.0093 C   0  0  0  0  0  0  0  0  0  0  0  0
    2.0684    1.1953   -0.0184 H   0  0  0  0  0  0  0  0  0  0  0  0
  1  5  1  0
  5  6  1  0
  5  7  2  0
  1  2  1  0
  1  3  1  0
  1  4  1  0
  8 12  1  0
 12 13  2  0
 13 15  1  0
 15 17  2  0
 17 19  1  0
 19 21  2  0
 21 12  1  0
  8  9  1  0
  8 10  1  0
  8 11  1  0
 13 14  1  0
 15 16  1  0
 17 18  1  0
 19 20  1  0
 21 22  1  0
M  CHG  1   6  -1
M  END
>  <PDB_ID>  (44) 
pdb1agw

>  <RESIDUE_NAME>  (44) 
ASP   PHE

>  <FRAG_NAME>  (44) 
ACET   MBZ

>  <FRAG_ATOM_NUM>  (44) 
fragi: 7  fragj: 15

>  <atom.prop.CHAIN_ID>  (44) 
A A A A A A A Z Z Z Z Z Z Z Z Z Z Z Z Z Z Z

>  <atom.prop.IS_HEAVY_ATOM>  (44) 
1 0 0 0 1 1 1 1 0 0 0 1 1 0 1 0 1 0 1 0 1 0

>  <DIFUSE_FUNC_ATOM>  (44) 
atom 6   atom 7   

>  <FINAL_SINGLE_POINT_ENERGY>  (44) 
0

>  <NONCOV_INTER_ENERGY_QM>  (44) 
0

>  <FF_Energy>  (44) 
5.71

>  <QM_Energy>  (44) 
-1.29

>  <source>  (44) 
ACET_MBZ_00

>  <Index>  (44) 
1582

$$$$
ACET-pdb1af6-A-GLU-83:MBZ-pdb1af6-A-PHE-106
     RDKit          3D

 22 21  0  0  0  0  0  0  0  0999 V2000
   -1.1171    0.8182   -3.8282 C   0  0  0  0  0  0  0  0  0  0  0  0
   -1.8528    1.3061   -3.4278 H   0  0  0  0  0  0  0  0  0  0  0  0
   -1.0009   -0.0848   -3.4947 H   0  0  0  0  0  0  0  0  0  0  0  0
   -1.2971    0.7607   -4.9017 H   0  0  0  0  0  0  0  0  0  0  0  0
    0.1625    1.5882   -3.5571 C   0  0  0  0  0  0  0  0  0  0  0  0
    1.2427    0.9635   -3.5723 O   0  0  0  0  0  1  0  0  0  0  0  0
    0.0815    2.8113   -3.3412 O   0  0  0  0  0  0  0  0  0  0  0  0
    0.0339    2.9003    0.0152 C   0  0  0  0  0  0  0  0  0  0  0  0
    0.5379    3.2006   -0.7950 H   0  0  0  0  0  0  0  0  0  0  0  0
    0.5234    3.1904    0.8385 H   0  0  0  0  0  0  0  0  0  0  0  0
   -0.9288    3.4115    0.0100 H   0  0  0  0  0  0  0  0  0  0  0  0
   -0.0027    1.4011    0.0050 C   0  0  0  0  0  0  0  0  0  0  0  0
   -1.1980    0.6835    0.0070 C   0  0  0  0  0  0  0  0  0  0  0  0
   -2.0651    1.1779    0.0125 H   0  0  0  0  0  0  0  0  0  0  0  0
   -1.1976   -0.6932   -0.0000 C   0  0  0  0  0  0  0  0  0  0  0  0
   -2.0749   -1.1952    0.0009 H   0  0  0  0  0  0  0  0  0  0  0  0
    0.0019   -1.3918   -0.0057 C   0  0  0  0  0  0  0  0  0  0  0  0
   -0.0030   -2.3891   -0.0143 H   0  0  0  0  0  0  0  0  0  0  0  0
    1.1976   -0.6932   -0.0000 C   0  0  0  0  0  0  0  0  0  0  0  0
    2.0819   -1.1938    0.0101 H   0  0  0  0  0  0  0  0  0  0  0  0
    1.1987    0.6936   -0.0063 C   0  0  0  0  0  0  0  0  0  0  0  0
    2.0634    1.1914   -0.0199 H   0  0  0  0  0  0  0  0  0  0  0  0
  1  5  1  0
  5  6  1  0
  5  7  2  0
  1  2  1  0
  1  3  1  0
  1  4  1  0
  8 12  1  0
 12 13  2  0
 13 15  1  0
 15 17  2  0
 17 19  1  0
 19 21  2  0
 21 12  1  0
  8  9  1  0
  8 10  1  0
  8 11  1  0
 13 14  1  0
 15 16  1  0
 17 18  1  0
 19 20  1  0
 21 22  1  0
M  CHG  1   6  -1
M  END
>  <PDB_ID>  (45) 
pdb1af6

>  <RESIDUE_NAME>  (45) 
GLU   PHE

>  <FRAG_NAME>  (45) 
ACET   MBZ

>  <FRAG_ATOM_NUM>  (45) 
fragi: 7  fragj: 15

>  <atom.prop.CHAIN_ID>  (45) 
A A A A A A A Z Z Z Z Z Z Z Z Z Z Z Z Z Z Z

>  <atom.prop.IS_HEAVY_ATOM>  (45) 
1 0 0 0 1 1 1 1 0 0 0 1 1 0 1 0 1 0 1 0 1 0

>  <DIFUSE_FUNC_ATOM>  (45) 
atom 6   atom 7   

>  <FINAL_SINGLE_POINT_ENERGY>  (45) 
0

>  <NONCOV_INTER_ENERGY_QM>  (45) 
0

>  <FF_Energy>  (45) 
0.91

>  <QM_Energy>  (45) 
-4.38

>  <source>  (45) 
ACET_MBZ_00

>  <Index>  (45) 
1608

$$$$
ACET-pdb1aih-A-ASP-193:MBZ-pdb1aih-A-PHE-255
     RDKit          3D

 22 21  0  0  0  0  0  0  0  0999 V2000
   -2.5941    3.4670    2.0461 C   0  0  0  0  0  0  0  0  0  0  0  0
   -2.1995    4.2453    2.5225 H   0  0  0  0  0  0  0  0  0  0  0  0
   -1.8890    2.8037    1.8222 H   0  0  0  0  0  0  0  0  0  0  0  0
   -3.3039    2.9868    2.7197 H   0  0  0  0  0  0  0  0  0  0  0  0
   -3.2345    3.9549    0.7591 C   0  0  0  0  0  0  0  0  0  0  0  0
   -4.2620    3.3815    0.3356 O   0  0  0  0  0  1  0  0  0  0  0  0
   -2.6990    4.9164    0.1652 O   0  0  0  0  0  0  0  0  0  0  0  0
    0.0076    2.9132   -0.0217 C   0  0  0  0  0  0  0  0  0  0  0  0
    0.8889    3.2266    0.3031 H   0  0  0  0  0  0  0  0  0  0  0  0
   -0.7234    3.2362    0.5634 H   0  0  0  0  0  0  0  0  0  0  0  0
   -0.1487    3.3568   -1.0050 H   0  0  0  0  0  0  0  0  0  0  0  0
    0.0016    1.4101   -0.0003 C   0  0  0  0  0  0  0  0  0  0  0  0
   -1.2057    0.7011    0.0029 C   0  0  0  0  0  0  0  0  0  0  0  0
   -2.0682    1.1893    0.0060 H   0  0  0  0  0  0  0  0  0  0  0  0
   -1.2121   -0.7033    0.0000 C   0  0  0  0  0  0  0  0  0  0  0  0
   -2.0859   -1.1923    0.0021 H   0  0  0  0  0  0  0  0  0  0  0  0
   -0.0028   -1.4026   -0.0040 C   0  0  0  0  0  0  0  0  0  0  0  0
   -0.0046   -2.3983   -0.0106 H   0  0  0  0  0  0  0  0  0  0  0  0
    1.2121   -0.7019   -0.0000 C   0  0  0  0  0  0  0  0  0  0  0  0
    2.0868   -1.2004    0.0034 H   0  0  0  0  0  0  0  0  0  0  0  0
    1.2069    0.6966    0.0014 C   0  0  0  0  0  0  0  0  0  0  0  0
    2.0723    1.1929    0.0028 H   0  0  0  0  0  0  0  0  0  0  0  0
  1  5  1  0
  5  6  1  0
  5  7  2  0
  1  2  1  0
  1  3  1  0
  1  4  1  0
  8 12  1  0
 12 13  2  0
 13 15  1  0
 15 17  2  0
 17 19  1  0
 19 21  2  0
 21 12  1  0
  8  9  1  0
  8 10  1  0
  8 11  1  0
 13 14  1  0
 15 16  1  0
 17 18  1  0
 19 20  1  0
 21 22  1  0
M  CHG  1   6  -1
M  END
>  <PDB_ID>  (46) 
pdb1aih

>  <RESIDUE_NAME>  (46) 
ASP   PHE

>  <FRAG_NAME>  (46) 
ACET   MBZ

>  <FRAG_ATOM_NUM>  (46) 
fragi: 7  fragj: 15

>  <atom.prop.CHAIN_ID>  (46) 
A A A A A A A Z Z Z Z Z Z Z Z Z Z Z Z Z Z Z

>  <atom.prop.IS_HEAVY_ATOM>  (46) 
1 0 0 0 1 1 1 1 0 0 0 1 1 0 1 0 1 0 1 0 1 0

>  <DIFUSE_FUNC_ATOM>  (46) 
atom 6   atom 7   

>  <FINAL_SINGLE_POINT_ENERGY>  (46) 
0

>  <NONCOV_INTER_ENERGY_QM>  (46) 
0

>  <FF_Energy>  (46) 
3.42

>  <QM_Energy>  (46) 
-4.43

>  <source>  (46) 
ACET_MBZ_00

>  <Index>  (46) 
1646

$$$$
ACET-pdb2ash-A-ASP-254:MBZ-pdb2ash-A-PHE-351
     RDKit          3D

 22 21  0  0  0  0  0  0  0  0999 V2000
    2.8668   -3.9680   -0.4547 C   0  0  0  0  0  0  0  0  0  0  0  0
    2.0304   -3.8200    0.0743 H   0  0  0  0  0  0  0  0  0  0  0  0
    3.2005   -4.8973   -0.2915 H   0  0  0  0  0  0  0  0  0  0  0  0
    2.6118   -3.8860   -1.5112 H   0  0  0  0  0  0  0  0  0  0  0  0
    3.9142   -2.9856    0.0083 C   0  0  0  0  0  0  0  0  0  0  0  0
    4.0893   -1.8996   -0.5933 O   0  0  0  0  0  1  0  0  0  0  0  0
    4.5727   -3.3003    1.0262 O   0  0  0  0  0  0  0  0  0  0  0  0
   -0.0008    2.9162    0.0087 C   0  0  0  0  0  0  0  0  0  0  0  0
   -0.6517    3.2245   -0.6660 H   0  0  0  0  0  0  0  0  0  0  0  0
    0.9149    3.2148   -0.2055 H   0  0  0  0  0  0  0  0  0  0  0  0
   -0.2811    3.3418    0.9722 H   0  0  0  0  0  0  0  0  0  0  0  0
   -0.0060    1.4035   -0.0056 C   0  0  0  0  0  0  0  0  0  0  0  0
   -1.1852    0.6969   -0.0110 C   0  0  0  0  0  0  0  0  0  0  0  0
   -2.0638    1.1640   -0.0237 H   0  0  0  0  0  0  0  0  0  0  0  0
   -1.1874   -0.7260   -0.0000 C   0  0  0  0  0  0  0  0  0  0  0  0
   -2.0664   -1.1998   -0.0004 H   0  0  0  0  0  0  0  0  0  0  0  0
    0.0021   -1.3859    0.0126 C   0  0  0  0  0  0  0  0  0  0  0  0
    0.0174   -2.3965    0.0314 H   0  0  0  0  0  0  0  0  0  0  0  0
    1.1874   -0.6897   -0.0000 C   0  0  0  0  0  0  0  0  0  0  0  0
    2.0777   -1.1847   -0.0109 H   0  0  0  0  0  0  0  0  0  0  0  0
    1.1891    0.7012    0.0040 C   0  0  0  0  0  0  0  0  0  0  0  0
    2.0564    1.1945    0.0129 H   0  0  0  0  0  0  0  0  0  0  0  0
  1  5  1  0
  5  6  1  0
  5  7  2  0
  1  2  1  0
  1  3  1  0
  1  4  1  0
  8 12  1  0
 12 13  2  0
 13 15  1  0
 15 17  2  0
 17 19  1  0
 19 21  2  0
 21 12  1  0
  8  9  1  0
  8 10  1  0
  8 11  1  0
 13 14  1  0
 15 16  1  0
 17 18  1  0
 19 20  1  0
 21 22  1  0
M  CHG  1   6  -1
M  END
>  <PDB_ID>  (47) 
pdb2ash

>  <RESIDUE_NAME>  (47) 
ASP   PHE

>  <FRAG_NAME>  (47) 
ACET   MBZ

>  <FRAG_ATOM_NUM>  (47) 
fragi: 7  fragj: 15

>  <atom.prop.CHAIN_ID>  (47) 
A A A A A A A Z Z Z Z Z Z Z Z Z Z Z Z Z Z Z

>  <atom.prop.IS_HEAVY_ATOM>  (47) 
1 0 0 0 1 1 1 1 0 0 0 1 1 0 1 0 1 0 1 0 1 0

>  <DIFUSE_FUNC_ATOM>  (47) 
atom 6   atom 7   

>  <FINAL_SINGLE_POINT_ENERGY>  (47) 
0

>  <NONCOV_INTER_ENERGY_QM>  (47) 
0

>  <FF_Energy>  (47) 
-0.58

>  <QM_Energy>  (47) 
-5.6

>  <source>  (47) 
ACET_MBZ_00

>  <Index>  (47) 
1675

$$$$
ACET-pdb1aja-A-ASP-346:MBZ-pdb1aja-A-PHE-72
     RDKit          3D

 22 21  0  0  0  0  0  0  0  0999 V2000
   -2.0825    1.2773    4.0405 C   0  0  0  0  0  0  0  0  0  0  0  0
   -1.1828    0.9210    3.8021 H   0  0  0  0  0  0  0  0  0  0  0  0
   -2.7723    0.5697    3.9154 H   0  0  0  0  0  0  0  0  0  0  0  0
   -2.0703    1.5621    5.0926 H   0  0  0  0  0  0  0  0  0  0  0  0
   -2.4051    2.4349    3.0926 C   0  0  0  0  0  0  0  0  0  0  0  0
   -1.5091    3.2261    2.8274 O   0  0  0  0  0  1  0  0  0  0  0  0
   -3.5414    2.5511    2.6350 O   0  0  0  0  0  0  0  0  0  0  0  0
    0.0299    2.8981    0.0589 C   0  0  0  0  0  0  0  0  0  0  0  0
    0.9690    3.1838   -0.1287 H   0  0  0  0  0  0  0  0  0  0  0  0
   -0.2218    3.1616    0.9892 H   0  0  0  0  0  0  0  0  0  0  0  0
   -0.6312    3.4171   -0.6352 H   0  0  0  0  0  0  0  0  0  0  0  0
   -0.0002    1.3891   -0.0031 C   0  0  0  0  0  0  0  0  0  0  0  0
   -1.2148    0.6934    0.0000 C   0  0  0  0  0  0  0  0  0  0  0  0
   -2.0695    1.1832    0.0014 H   0  0  0  0  0  0  0  0  0  0  0  0
   -1.2104   -0.7017   -0.0000 C   0  0  0  0  0  0  0  0  0  0  0  0
   -2.0817   -1.2011   -0.0039 H   0  0  0  0  0  0  0  0  0  0  0  0
    0.0007   -1.3935    0.0067 C   0  0  0  0  0  0  0  0  0  0  0  0
    0.0021   -2.3918    0.0162 H   0  0  0  0  0  0  0  0  0  0  0  0
    1.2104   -0.6911   -0.0000 C   0  0  0  0  0  0  0  0  0  0  0  0
    2.0887   -1.1934   -0.0007 H   0  0  0  0  0  0  0  0  0  0  0  0
    1.2143    0.7038   -0.0036 C   0  0  0  0  0  0  0  0  0  0  0  0
    2.0688    1.2004   -0.0073 H   0  0  0  0  0  0  0  0  0  0  0  0
  1  5  1  0
  5  6  1  0
  5  7  2  0
  1  2  1  0
  1  3  1  0
  1  4  1  0
  8 12  1  0
 12 13  2  0
 13 15  1  0
 15 17  2  0
 17 19  1  0
 19 21  2  0
 21 12  1  0
  8  9  1  0
  8 10  1  0
  8 11  1  0
 13 14  1  0
 15 16  1  0
 17 18  1  0
 19 20  1  0
 21 22  1  0
M  CHG  1   6  -1
M  END
>  <PDB_ID>  (48) 
pdb1aja

>  <RESIDUE_NAME>  (48) 
ASP   PHE

>  <FRAG_NAME>  (48) 
ACET   MBZ

>  <FRAG_ATOM_NUM>  (48) 
fragi: 7  fragj: 15

>  <atom.prop.CHAIN_ID>  (48) 
A A A A A A A Z Z Z Z Z Z Z Z Z Z Z Z Z Z Z

>  <atom.prop.IS_HEAVY_ATOM>  (48) 
1 0 0 0 1 1 1 1 0 0 0 1 1 0 1 0 1 0 1 0 1 0

>  <DIFUSE_FUNC_ATOM>  (48) 
atom 6   atom 7   

>  <FINAL_SINGLE_POINT_ENERGY>  (48) 
0

>  <NONCOV_INTER_ENERGY_QM>  (48) 
0

>  <FF_Energy>  (48) 
-0.1

>  <QM_Energy>  (48) 
-6.9

>  <source>  (48) 
ACET_MBZ_00

>  <Index>  (48) 
1765

$$$$
ACET-pdb2auk-B-ASP-172:MBZ-pdb2auk-B-PHE-98
     RDKit          3D

 22 21  0  0  0  0  0  0  0  0999 V2000
    0.0685    0.3433   -3.3472 C   0  0  0  0  0  0  0  0  0  0  0  0
    0.5377    0.1041   -2.5047 H   0  0  0  0  0  0  0  0  0  0  0  0
    0.6670    0.2119   -4.1280 H   0  0  0  0  0  0  0  0  0  0  0  0
   -0.7847   -0.3257   -3.4591 H   0  0  0  0  0  0  0  0  0  0  0  0
   -0.3367    1.8034   -3.2824 C   0  0  0  0  0  0  0  0  0  0  0  0
   -1.5430    2.0885   -3.1060 O   0  0  0  0  0  1  0  0  0  0  0  0
    0.5591    2.6637   -3.3986 O   0  0  0  0  0  0  0  0  0  0  0  0
    0.0250    2.9194   -0.0352 C   0  0  0  0  0  0  0  0  0  0  0  0
    0.3051    3.1995   -0.9423 H   0  0  0  0  0  0  0  0  0  0  0  0
    0.6681    3.2302    0.6500 H   0  0  0  0  0  0  0  0  0  0  0  0
   -0.9367    3.3873    0.1751 H   0  0  0  0  0  0  0  0  0  0  0  0
    0.0024    1.4114   -0.0012 C   0  0  0  0  0  0  0  0  0  0  0  0
   -1.2049    0.7065    0.0008 C   0  0  0  0  0  0  0  0  0  0  0  0
   -2.0668    1.1981    0.0016 H   0  0  0  0  0  0  0  0  0  0  0  0
   -1.2152   -0.6933    0.0000 C   0  0  0  0  0  0  0  0  0  0  0  0
   -2.0905   -1.1841    0.0013 H   0  0  0  0  0  0  0  0  0  0  0  0
   -0.0045   -1.4085   -0.0006 C   0  0  0  0  0  0  0  0  0  0  0  0
   -0.0142   -2.3992   -0.0018 H   0  0  0  0  0  0  0  0  0  0  0  0
    1.2152   -0.7068    0.0000 C   0  0  0  0  0  0  0  0  0  0  0  0
    2.0880   -1.2059    0.0012 H   0  0  0  0  0  0  0  0  0  0  0  0
    1.2070    0.6908    0.0010 C   0  0  0  0  0  0  0  0  0  0  0  0
    2.0736    1.1891    0.0025 H   0  0  0  0  0  0  0  0  0  0  0  0
  1  5  1  0
  5  6  1  0
  5  7  2  0
  1  2  1  0
  1  3  1  0
  1  4  1  0
  8 12  1  0
 12 13  2  0
 13 15  1  0
 15 17  2  0
 17 19  1  0
 19 21  2  0
 21 12  1  0
  8  9  1  0
  8 10  1  0
  8 11  1  0
 13 14  1  0
 15 16  1  0
 17 18  1  0
 19 20  1  0
 21 22  1  0
M  CHG  1   6  -1
M  END
>  <PDB_ID>  (49) 
pdb2auk

>  <RESIDUE_NAME>  (49) 
ASP   PHE

>  <FRAG_NAME>  (49) 
ACET   MBZ

>  <FRAG_ATOM_NUM>  (49) 
fragi: 7  fragj: 15

>  <atom.prop.CHAIN_ID>  (49) 
A A A A A A A Z Z Z Z Z Z Z Z Z Z Z Z Z Z Z

>  <atom.prop.IS_HEAVY_ATOM>  (49) 
1 0 0 0 1 1 1 1 0 0 0 1 1 0 1 0 1 0 1 0 1 0

>  <DIFUSE_FUNC_ATOM>  (49) 
atom 6   atom 7   

>  <FINAL_SINGLE_POINT_ENERGY>  (49) 
0

>  <NONCOV_INTER_ENERGY_QM>  (49) 
0

>  <FF_Energy>  (49) 
1.15

>  <QM_Energy>  (49) 
-6.33

>  <source>  (49) 
ACET_MBZ_00

>  <Index>  (49) 
1780

$$$$
ACET-pdb2auk-C-ASP-172:MBZ-pdb2auk-C-PHE-98
     RDKit          3D

 22 21  0  0  0  0  0  0  0  0999 V2000
    0.0056    0.4001   -3.4773 C   0  0  0  0  0  0  0  0  0  0  0  0
    0.5774    0.1481   -2.7059 H   0  0  0  0  0  0  0  0  0  0  0  0
    0.5037    0.2950   -4.3297 H   0  0  0  0  0  0  0  0  0  0  0  0
   -0.8426   -0.2842   -3.5001 H   0  0  0  0  0  0  0  0  0  0  0  0
   -0.4138    1.8471   -3.3266 C   0  0  0  0  0  0  0  0  0  0  0  0
   -1.5211    2.1122   -2.8124 O   0  0  0  0  0  1  0  0  0  0  0  0
    0.3686    2.7351   -3.7069 O   0  0  0  0  0  0  0  0  0  0  0  0
    0.0221    2.8986   -0.0199 C   0  0  0  0  0  0  0  0  0  0  0  0
    0.2335    3.1904   -0.9441 H   0  0  0  0  0  0  0  0  0  0  0  0
    0.7203    3.2061    0.6144 H   0  0  0  0  0  0  0  0  0  0  0  0
   -0.9183    3.3680    0.2689 H   0  0  0  0  0  0  0  0  0  0  0  0
    0.0026    1.3997    0.0016 C   0  0  0  0  0  0  0  0  0  0  0  0
   -1.1961    0.6951   -0.0003 C   0  0  0  0  0  0  0  0  0  0  0  0
   -2.0612    1.1892   -0.0027 H   0  0  0  0  0  0  0  0  0  0  0  0
   -1.2060   -0.6938    0.0000 C   0  0  0  0  0  0  0  0  0  0  0  0
   -2.0831   -1.1868    0.0031 H   0  0  0  0  0  0  0  0  0  0  0  0
   -0.0039   -1.3974   -0.0025 C   0  0  0  0  0  0  0  0  0  0  0  0
   -0.0079   -2.3920   -0.0065 H   0  0  0  0  0  0  0  0  0  0  0  0
    1.2060   -0.6968   -0.0000 C   0  0  0  0  0  0  0  0  0  0  0  0
    2.0826   -1.1965    0.0026 H   0  0  0  0  0  0  0  0  0  0  0  0
    1.1974    0.6931    0.0011 C   0  0  0  0  0  0  0  0  0  0  0  0
    2.0665    1.1906    0.0003 H   0  0  0  0  0  0  0  0  0  0  0  0
  1  5  1  0
  5  6  1  0
  5  7  2  0
  1  2  1  0
  1  3  1  0
  1  4  1  0
  8 12  1  0
 12 13  2  0
 13 15  1  0
 15 17  2  0
 17 19  1  0
 19 21  2  0
 21 12  1  0
  8  9  1  0
  8 10  1  0
  8 11  1  0
 13 14  1  0
 15 16  1  0
 17 18  1  0
 19 20  1  0
 21 22  1  0
M  CHG  1   6  -1
M  END
>  <PDB_ID>  (50) 
pdb2auk

>  <RESIDUE_NAME>  (50) 
ASP   PHE

>  <FRAG_NAME>  (50) 
ACET   MBZ

>  <FRAG_ATOM_NUM>  (50) 
fragi: 7  fragj: 15

>  <atom.prop.CHAIN_ID>  (50) 
A A A A A A A Z Z Z Z Z Z Z Z Z Z Z Z Z Z Z

>  <atom.prop.IS_HEAVY_ATOM>  (50) 
1 0 0 0 1 1 1 1 0 0 0 1 1 0 1 0 1 0 1 0 1 0

>  <DIFUSE_FUNC_ATOM>  (50) 
atom 6   atom 7   

>  <FINAL_SINGLE_POINT_ENERGY>  (50) 
0

>  <NONCOV_INTER_ENERGY_QM>  (50) 
0

>  <FF_Energy>  (50) 
0.82

>  <QM_Energy>  (50) 
-6.34

>  <source>  (50) 
ACET_MBZ_00

>  <Index>  (50) 
1781

$$$$
ACET-pdb1af6-B-GLU-83:MBZ-pdb1af6-B-PHE-106
     RDKit          3D

 22 21  0  0  0  0  0  0  0  0999 V2000
   -1.1714    0.8357   -3.7946 C   0  0  0  0  0  0  0  0  0  0  0  0
   -1.8980    1.3278   -3.3757 H   0  0  0  0  0  0  0  0  0  0  0  0
   -1.0599   -0.0700   -3.4601 H   0  0  0  0  0  0  0  0  0  0  0  0
   -1.3681    0.7835   -4.8654 H   0  0  0  0  0  0  0  0  0  0  0  0
    0.1210    1.5938   -3.5218 C   0  0  0  0  0  0  0  0  0  0  0  0
    1.2077    0.9712   -3.5229 O   0  0  0  0  0  1  0  0  0  0  0  0
    0.0328    2.8218   -3.3143 O   0  0  0  0  0  0  0  0  0  0  0  0
    0.0202    2.9036    0.0294 C   0  0  0  0  0  0  0  0  0  0  0  0
    0.5157    3.2169   -0.7790 H   0  0  0  0  0  0  0  0  0  0  0  0
    0.5064    3.1881    0.8537 H   0  0  0  0  0  0  0  0  0  0  0  0
   -0.9477    3.4049    0.0329 H   0  0  0  0  0  0  0  0  0  0  0  0
   -0.0091    1.4036    0.0027 C   0  0  0  0  0  0  0  0  0  0  0  0
   -1.1916    0.6796   -0.0038 C   0  0  0  0  0  0  0  0  0  0  0  0
   -2.0693    1.1660   -0.0133 H   0  0  0  0  0  0  0  0  0  0  0  0
   -1.2005   -0.7120    0.0000 C   0  0  0  0  0  0  0  0  0  0  0  0
   -2.0698   -1.2053    0.0044 H   0  0  0  0  0  0  0  0  0  0  0  0
    0.0070   -1.3869   -0.0000 C   0  0  0  0  0  0  0  0  0  0  0  0
    0.0140   -2.3911   -0.0005 H   0  0  0  0  0  0  0  0  0  0  0  0
    1.2005   -0.6857   -0.0000 C   0  0  0  0  0  0  0  0  0  0  0  0
    2.0863   -1.1813    0.0005 H   0  0  0  0  0  0  0  0  0  0  0  0
    1.1937    0.7015    0.0012 C   0  0  0  0  0  0  0  0  0  0  0  0
    2.0570    1.2023    0.0002 H   0  0  0  0  0  0  0  0  0  0  0  0
  1  5  1  0
  5  6  1  0
  5  7  2  0
  1  2  1  0
  1  3  1  0
  1  4  1  0
  8 12  1  0
 12 13  2  0
 13 15  1  0
 15 17  2  0
 17 19  1  0
 19 21  2  0
 21 12  1  0
  8  9  1  0
  8 10  1  0
  8 11  1  0
 13 14  1  0
 15 16  1  0
 17 18  1  0
 19 20  1  0
 21 22  1  0
M  CHG  1   6  -1
M  END
>  <PDB_ID>  (51) 
pdb1af6

>  <RESIDUE_NAME>  (51) 
GLU   PHE

>  <FRAG_NAME>  (51) 
ACET   MBZ

>  <FRAG_ATOM_NUM>  (51) 
fragi: 7  fragj: 15

>  <atom.prop.CHAIN_ID>  (51) 
A A A A A A A Z Z Z Z Z Z Z Z Z Z Z Z Z Z Z

>  <atom.prop.IS_HEAVY_ATOM>  (51) 
1 0 0 0 1 1 1 1 0 0 0 1 1 0 1 0 1 0 1 0 1 0

>  <DIFUSE_FUNC_ATOM>  (51) 
atom 6   atom 7   

>  <FINAL_SINGLE_POINT_ENERGY>  (51) 
0

>  <NONCOV_INTER_ENERGY_QM>  (51) 
0

>  <FF_Energy>  (51) 
1.04

>  <QM_Energy>  (51) 
-4.39

>  <source>  (51) 
ACET_MBZ_00

>  <Index>  (51) 
1783

$$$$
ACET-pdb2aw5-C-GLU-350:MBZ-pdb2aw5-C-PHE-253
     RDKit          3D

 22 21  0  0  0  0  0  0  0  0999 V2000
    1.5521    0.0787   -4.8516 C   0  0  0  0  0  0  0  0  0  0  0  0
    2.4495   -0.2116   -5.1470 H   0  0  0  0  0  0  0  0  0  0  0  0
    1.3151    0.9589   -5.2337 H   0  0  0  0  0  0  0  0  0  0  0  0
    0.8294   -0.6500   -5.2185 H   0  0  0  0  0  0  0  0  0  0  0  0
    1.5876    0.2256   -3.3427 C   0  0  0  0  0  0  0  0  0  0  0  0
    0.8906   -0.3958   -2.5703 O   0  0  0  0  0  1  0  0  0  0  0  0
    2.4282    1.0862   -2.9873 O   0  0  0  0  0  0  0  0  0  0  0  0
    0.0017    2.8877    0.0152 C   0  0  0  0  0  0  0  0  0  0  0  0
   -0.8993    3.2017   -0.2416 H   0  0  0  0  0  0  0  0  0  0  0  0
    0.6886    3.2053   -0.6208 H   0  0  0  0  0  0  0  0  0  0  0  0
    0.2349    3.3055    0.9945 H   0  0  0  0  0  0  0  0  0  0  0  0
    0.0003    1.3983   -0.0041 C   0  0  0  0  0  0  0  0  0  0  0  0
   -1.1988    0.6879    0.0031 C   0  0  0  0  0  0  0  0  0  0  0  0
   -2.0646    1.1799    0.0096 H   0  0  0  0  0  0  0  0  0  0  0  0
   -1.2047   -0.7020    0.0000 C   0  0  0  0  0  0  0  0  0  0  0  0
   -2.0766   -1.1972    0.0002 H   0  0  0  0  0  0  0  0  0  0  0  0
    0.0030   -1.3929   -0.0017 C   0  0  0  0  0  0  0  0  0  0  0  0
    0.0047   -2.3910   -0.0049 H   0  0  0  0  0  0  0  0  0  0  0  0
    1.2047   -0.6899    0.0000 C   0  0  0  0  0  0  0  0  0  0  0  0
    2.0867   -1.1868    0.0007 H   0  0  0  0  0  0  0  0  0  0  0  0
    1.1954    0.6986    0.0026 C   0  0  0  0  0  0  0  0  0  0  0  0
    2.0635    1.1971    0.0085 H   0  0  0  0  0  0  0  0  0  0  0  0
  1  5  1  0
  5  6  1  0
  5  7  2  0
  1  2  1  0
  1  3  1  0
  1  4  1  0
  8 12  1  0
 12 13  2  0
 13 15  1  0
 15 17  2  0
 17 19  1  0
 19 21  2  0
 21 12  1  0
  8  9  1  0
  8 10  1  0
  8 11  1  0
 13 14  1  0
 15 16  1  0
 17 18  1  0
 19 20  1  0
 21 22  1  0
M  CHG  1   6  -1
M  END
>  <PDB_ID>  (52) 
pdb2aw5

>  <RESIDUE_NAME>  (52) 
GLU   PHE

>  <FRAG_NAME>  (52) 
ACET   MBZ

>  <FRAG_ATOM_NUM>  (52) 
fragi: 7  fragj: 15

>  <atom.prop.CHAIN_ID>  (52) 
A A A A A A A Z Z Z Z Z Z Z Z Z Z Z Z Z Z Z

>  <atom.prop.IS_HEAVY_ATOM>  (52) 
1 0 0 0 1 1 1 1 0 0 0 1 1 0 1 0 1 0 1 0 1 0

>  <DIFUSE_FUNC_ATOM>  (52) 
atom 6   atom 7   

>  <FINAL_SINGLE_POINT_ENERGY>  (52) 
0

>  <NONCOV_INTER_ENERGY_QM>  (52) 
0

>  <FF_Energy>  (52) 
13.09

>  <QM_Energy>  (52) 
3.5

>  <source>  (52) 
ACET_MBZ_00

>  <Index>  (52) 
1837

$$$$
ACET-pdb2aw5-C-ASP-268:MBZ-pdb2aw5-C-PHE-458
     RDKit          3D

 22 21  0  0  0  0  0  0  0  0999 V2000
    3.6518    2.7590   -4.1271 C   0  0  0  0  0  0  0  0  0  0  0  0
    2.7890    3.0111   -4.5556 H   0  0  0  0  0  0  0  0  0  0  0  0
    4.1131    2.0617   -4.6656 H   0  0  0  0  0  0  0  0  0  0  0  0
    4.2881    3.6437   -4.1058 H   0  0  0  0  0  0  0  0  0  0  0  0
    3.3604    2.1941   -2.7447 C   0  0  0  0  0  0  0  0  0  0  0  0
    3.6623    2.8623   -1.7370 O   0  0  0  0  0  1  0  0  0  0  0  0
    2.8126    1.0698   -2.6675 O   0  0  0  0  0  0  0  0  0  0  0  0
    0.0109    2.8851   -0.0358 C   0  0  0  0  0  0  0  0  0  0  0  0
   -0.7349    3.1889   -0.6192 H   0  0  0  0  0  0  0  0  0  0  0  0
    0.8840    3.1839   -0.4065 H   0  0  0  0  0  0  0  0  0  0  0  0
   -0.1142    3.3737    0.9305 H   0  0  0  0  0  0  0  0  0  0  0  0
   -0.0001    1.4000    0.0073 C   0  0  0  0  0  0  0  0  0  0  0  0
   -1.1924    0.7028   -0.0034 C   0  0  0  0  0  0  0  0  0  0  0  0
   -2.0607    1.1900   -0.0152 H   0  0  0  0  0  0  0  0  0  0  0  0
   -1.2021   -0.6952    0.0000 C   0  0  0  0  0  0  0  0  0  0  0  0
   -2.0801   -1.1825   -0.0017 H   0  0  0  0  0  0  0  0  0  0  0  0
   -0.0015   -1.3967    0.0079 C   0  0  0  0  0  0  0  0  0  0  0  0
   -0.0091   -2.3943    0.0194 H   0  0  0  0  0  0  0  0  0  0  0  0
    1.2021   -0.7034   -0.0000 C   0  0  0  0  0  0  0  0  0  0  0  0
    2.0814   -1.1974    0.0044 H   0  0  0  0  0  0  0  0  0  0  0  0
    1.1940    0.6926   -0.0118 C   0  0  0  0  0  0  0  0  0  0  0  0
    2.0643    1.1868   -0.0351 H   0  0  0  0  0  0  0  0  0  0  0  0
  1  5  1  0
  5  6  1  0
  5  7  2  0
  1  2  1  0
  1  3  1  0
  1  4  1  0
  8 12  1  0
 12 13  2  0
 13 15  1  0
 15 17  2  0
 17 19  1  0
 19 21  2  0
 21 12  1  0
  8  9  1  0
  8 10  1  0
  8 11  1  0
 13 14  1  0
 15 16  1  0
 17 18  1  0
 19 20  1  0
 21 22  1  0
M  CHG  1   6  -1
M  END
>  <PDB_ID>  (53) 
pdb2aw5

>  <RESIDUE_NAME>  (53) 
ASP   PHE

>  <FRAG_NAME>  (53) 
ACET   MBZ

>  <FRAG_ATOM_NUM>  (53) 
fragi: 7  fragj: 15

>  <atom.prop.CHAIN_ID>  (53) 
A A A A A A A Z Z Z Z Z Z Z Z Z Z Z Z Z Z Z

>  <atom.prop.IS_HEAVY_ATOM>  (53) 
1 0 0 0 1 1 1 1 0 0 0 1 1 0 1 0 1 0 1 0 1 0

>  <DIFUSE_FUNC_ATOM>  (53) 
atom 6   atom 7   

>  <FINAL_SINGLE_POINT_ENERGY>  (53) 
0

>  <NONCOV_INTER_ENERGY_QM>  (53) 
0

>  <FF_Energy>  (53) 
-0.78

>  <QM_Energy>  (53) 
-6.19

>  <source>  (53) 
ACET_MBZ_00

>  <Index>  (53) 
1843

$$$$
ACET-pdb2awi-G-GLU-60:MBZ-pdb2awi-H-PHE-149
     RDKit          3D

 22 21  0  0  0  0  0  0  0  0999 V2000
    4.4626    5.1135   -1.5264 C   0  0  0  0  0  0  0  0  0  0  0  0
    4.9002    4.2309   -1.5318 H   0  0  0  0  0  0  0  0  0  0  0  0
    4.9718    5.7715   -0.9978 H   0  0  0  0  0  0  0  0  0  0  0  0
    4.3975    5.4713   -2.5539 H   0  0  0  0  0  0  0  0  0  0  0  0
    3.1083    4.9452   -0.8585 C   0  0  0  0  0  0  0  0  0  0  0  0
    2.2337    5.8252   -1.0303 O   0  0  0  0  0  1  0  0  0  0  0  0
    2.9286    3.9332   -0.1452 O   0  0  0  0  0  0  0  0  0  0  0  0
   -0.0059    2.9037    0.1025 C   0  0  0  0  0  0  0  0  0  0  0  0
   -0.8406    3.2361   -0.3043 H   0  0  0  0  0  0  0  0  0  0  0  0
    0.7906    3.2453   -0.3671 H   0  0  0  0  0  0  0  0  0  0  0  0
    0.0318    3.2655    1.1300 H   0  0  0  0  0  0  0  0  0  0  0  0
   -0.0010    1.4050    0.0015 C   0  0  0  0  0  0  0  0  0  0  0  0
   -1.1984    0.6915   -0.0013 C   0  0  0  0  0  0  0  0  0  0  0  0
   -2.0653    1.1793   -0.0056 H   0  0  0  0  0  0  0  0  0  0  0  0
   -1.2011   -0.7025    0.0000 C   0  0  0  0  0  0  0  0  0  0  0  0
   -2.0762   -1.1965    0.0007 H   0  0  0  0  0  0  0  0  0  0  0  0
    0.0028   -1.3952    0.0027 C   0  0  0  0  0  0  0  0  0  0  0  0
    0.0010   -2.3948    0.0059 H   0  0  0  0  0  0  0  0  0  0  0  0
    1.2011   -0.6969   -0.0000 C   0  0  0  0  0  0  0  0  0  0  0  0
    2.0851   -1.1913    0.0012 H   0  0  0  0  0  0  0  0  0  0  0  0
    1.1966    0.6981   -0.0028 C   0  0  0  0  0  0  0  0  0  0  0  0
    2.0645    1.1928   -0.0090 H   0  0  0  0  0  0  0  0  0  0  0  0
  1  5  1  0
  5  6  1  0
  5  7  2  0
  1  2  1  0
  1  3  1  0
  1  4  1  0
  8 12  1  0
 12 13  2  0
 13 15  1  0
 15 17  2  0
 17 19  1  0
 19 21  2  0
 21 12  1  0
  8  9  1  0
  8 10  1  0
  8 11  1  0
 13 14  1  0
 15 16  1  0
 17 18  1  0
 19 20  1  0
 21 22  1  0
M  CHG  1   6  -1
M  END
>  <PDB_ID>  (54) 
pdb2awi

>  <RESIDUE_NAME>  (54) 
GLU   PHE

>  <FRAG_NAME>  (54) 
ACET   MBZ

>  <FRAG_ATOM_NUM>  (54) 
fragi: 7  fragj: 15

>  <atom.prop.CHAIN_ID>  (54) 
A A A A A A A Z Z Z Z Z Z Z Z Z Z Z Z Z Z Z

>  <atom.prop.IS_HEAVY_ATOM>  (54) 
1 0 0 0 1 1 1 1 0 0 0 1 1 0 1 0 1 0 1 0 1 0

>  <DIFUSE_FUNC_ATOM>  (54) 
atom 6   atom 7   

>  <FINAL_SINGLE_POINT_ENERGY>  (54) 
0

>  <NONCOV_INTER_ENERGY_QM>  (54) 
0

>  <FF_Energy>  (54) 
-0.85

>  <QM_Energy>  (54) 
-7.5

>  <source>  (54) 
ACET_MBZ_00

>  <Index>  (54) 
1901

$$$$
ACET-pdb2awn-D-ASP-208:MBZ-pdb2awn-D-PHE-229
     RDKit          3D

 22 21  0  0  0  0  0  0  0  0999 V2000
    0.2129   -0.8514   -3.3749 C   0  0  0  0  0  0  0  0  0  0  0  0
    0.6287   -0.8828   -2.4743 H   0  0  0  0  0  0  0  0  0  0  0  0
    0.7067   -0.2263   -3.9666 H   0  0  0  0  0  0  0  0  0  0  0  0
    0.2681   -1.8489   -3.8107 H   0  0  0  0  0  0  0  0  0  0  0  0
   -1.2167   -0.3614   -3.2335 C   0  0  0  0  0  0  0  0  0  0  0  0
   -2.0668   -1.1390   -2.7317 O   0  0  0  0  0  1  0  0  0  0  0  0
   -1.4924    0.8002   -3.6148 O   0  0  0  0  0  0  0  0  0  0  0  0
    0.0023    2.9122    0.1157 C   0  0  0  0  0  0  0  0  0  0  0  0
   -0.7746    3.2550   -0.3846 H   0  0  0  0  0  0  0  0  0  0  0  0
    0.8533    3.2436   -0.2566 H   0  0  0  0  0  0  0  0  0  0  0  0
   -0.0765    3.2652    1.1440 H   0  0  0  0  0  0  0  0  0  0  0  0
    0.0009    1.4087    0.0017 C   0  0  0  0  0  0  0  0  0  0  0  0
   -1.1958    0.6977   -0.0028 C   0  0  0  0  0  0  0  0  0  0  0  0
   -2.0643    1.1827   -0.0089 H   0  0  0  0  0  0  0  0  0  0  0  0
   -1.2016   -0.7051   -0.0000 C   0  0  0  0  0  0  0  0  0  0  0  0
   -2.0797   -1.1920    0.0007 H   0  0  0  0  0  0  0  0  0  0  0  0
   -0.0021   -1.4007    0.0040 C   0  0  0  0  0  0  0  0  0  0  0  0
   -0.0014   -2.3979    0.0095 H   0  0  0  0  0  0  0  0  0  0  0  0
    1.2016   -0.6988    0.0000 C   0  0  0  0  0  0  0  0  0  0  0  0
    2.0832   -1.1945    0.0011 H   0  0  0  0  0  0  0  0  0  0  0  0
    1.1970    0.6983   -0.0028 C   0  0  0  0  0  0  0  0  0  0  0  0
    2.0668    1.1914   -0.0087 H   0  0  0  0  0  0  0  0  0  0  0  0
  1  5  1  0
  5  6  1  0
  5  7  2  0
  1  2  1  0
  1  3  1  0
  1  4  1  0
  8 12  1  0
 12 13  2  0
 13 15  1  0
 15 17  2  0
 17 19  1  0
 19 21  2  0
 21 12  1  0
  8  9  1  0
  8 10  1  0
  8 11  1  0
 13 14  1  0
 15 16  1  0
 17 18  1  0
 19 20  1  0
 21 22  1  0
M  CHG  1   6  -1
M  END
>  <PDB_ID>  (55) 
pdb2awn

>  <RESIDUE_NAME>  (55) 
ASP   PHE

>  <FRAG_NAME>  (55) 
ACET   MBZ

>  <FRAG_ATOM_NUM>  (55) 
fragi: 7  fragj: 15

>  <atom.prop.CHAIN_ID>  (55) 
A A A A A A A Z Z Z Z Z Z Z Z Z Z Z Z Z Z Z

>  <atom.prop.IS_HEAVY_ATOM>  (55) 
1 0 0 0 1 1 1 1 0 0 0 1 1 0 1 0 1 0 1 0 1 0

>  <DIFUSE_FUNC_ATOM>  (55) 
atom 6   atom 7   

>  <FINAL_SINGLE_POINT_ENERGY>  (55) 
0

>  <NONCOV_INTER_ENERGY_QM>  (55) 
0

>  <FF_Energy>  (55) 
3.51

>  <QM_Energy>  (55) 
-1.89

>  <source>  (55) 
ACET_MBZ_00

>  <Index>  (55) 
1929

$$$$
ACET-pdb2awi-L-ASP-185:MBZ-pdb2awi-K-PHE-59
     RDKit          3D

 22 21  0  0  0  0  0  0  0  0999 V2000
   -5.1767    4.1151    0.3330 C   0  0  0  0  0  0  0  0  0  0  0  0
   -4.3156    4.4927    0.0138 H   0  0  0  0  0  0  0  0  0  0  0  0
   -5.3059    4.3107    1.2974 H   0  0  0  0  0  0  0  0  0  0  0  0
   -5.9826    4.5966   -0.2209 H   0  0  0  0  0  0  0  0  0  0  0  0
   -5.1489    2.6086    0.1397 C   0  0  0  0  0  0  0  0  0  0  0  0
   -4.1464    1.9830    0.5393 O   0  0  0  0  0  1  0  0  0  0  0  0
   -6.1280    2.0470   -0.3995 O   0  0  0  0  0  0  0  0  0  0  0  0
   -0.0054    2.9011   -0.0134 C   0  0  0  0  0  0  0  0  0  0  0  0
   -0.6823    3.2126    0.6375 H   0  0  0  0  0  0  0  0  0  0  0  0
   -0.2268    3.1995   -0.9307 H   0  0  0  0  0  0  0  0  0  0  0  0
    0.9511    3.3462    0.2606 H   0  0  0  0  0  0  0  0  0  0  0  0
   -0.0014    1.4022    0.0002 C   0  0  0  0  0  0  0  0  0  0  0  0
   -1.1952    0.6942    0.0003 C   0  0  0  0  0  0  0  0  0  0  0  0
   -2.0635    1.1824   -0.0007 H   0  0  0  0  0  0  0  0  0  0  0  0
   -1.1989   -0.6983    0.0000 C   0  0  0  0  0  0  0  0  0  0  0  0
   -2.0748   -1.1917    0.0018 H   0  0  0  0  0  0  0  0  0  0  0  0
    0.0031   -1.3935   -0.0011 C   0  0  0  0  0  0  0  0  0  0  0  0
   -0.0019   -2.3925   -0.0035 H   0  0  0  0  0  0  0  0  0  0  0  0
    1.1989   -0.6983   -0.0000 C   0  0  0  0  0  0  0  0  0  0  0  0
    2.0832   -1.1927    0.0020 H   0  0  0  0  0  0  0  0  0  0  0  0
    1.1935    0.6936    0.0007 C   0  0  0  0  0  0  0  0  0  0  0  0
    2.0625    1.1889    0.0007 H   0  0  0  0  0  0  0  0  0  0  0  0
  1  5  1  0
  5  6  1  0
  5  7  2  0
  1  2  1  0
  1  3  1  0
  1  4  1  0
  8 12  1  0
 12 13  2  0
 13 15  1  0
 15 17  2  0
 17 19  1  0
 19 21  2  0
 21 12  1  0
  8  9  1  0
  8 10  1  0
  8 11  1  0
 13 14  1  0
 15 16  1  0
 17 18  1  0
 19 20  1  0
 21 22  1  0
M  CHG  1   6  -1
M  END
>  <PDB_ID>  (56) 
pdb2awi

>  <RESIDUE_NAME>  (56) 
ASP   PHE

>  <FRAG_NAME>  (56) 
ACET   MBZ

>  <FRAG_ATOM_NUM>  (56) 
fragi: 7  fragj: 15

>  <atom.prop.CHAIN_ID>  (56) 
A A A A A A A Z Z Z Z Z Z Z Z Z Z Z Z Z Z Z

>  <atom.prop.IS_HEAVY_ATOM>  (56) 
1 0 0 0 1 1 1 1 0 0 0 1 1 0 1 0 1 0 1 0 1 0

>  <DIFUSE_FUNC_ATOM>  (56) 
atom 6   atom 7   

>  <FINAL_SINGLE_POINT_ENERGY>  (56) 
0

>  <NONCOV_INTER_ENERGY_QM>  (56) 
0

>  <FF_Energy>  (56) 
-1.54

>  <QM_Energy>  (56) 
-6.87

>  <source>  (56) 
ACET_MBZ_00

>  <Index>  (56) 
1959

$$$$
ACET-pdb2awi-A-GLU-60:MBZ-pdb2awi-B-PHE-149
     RDKit          3D

 22 21  0  0  0  0  0  0  0  0999 V2000
    4.6654    5.0135   -1.3142 C   0  0  0  0  0  0  0  0  0  0  0  0
    5.0961    4.1260   -1.3388 H   0  0  0  0  0  0  0  0  0  0  0  0
    5.1430    5.6324   -0.7108 H   0  0  0  0  0  0  0  0  0  0  0  0
    4.6831    5.4313   -2.3208 H   0  0  0  0  0  0  0  0  0  0  0  0
    3.2665    4.8247   -0.7563 C   0  0  0  0  0  0  0  0  0  0  0  0
    2.4387    5.7376   -0.9302 O   0  0  0  0  0  1  0  0  0  0  0  0
    3.0016    3.7733   -0.1283 O   0  0  0  0  0  0  0  0  0  0  0  0
    0.0008    2.9161    0.0916 C   0  0  0  0  0  0  0  0  0  0  0  0
   -0.8255    3.2451   -0.3335 H   0  0  0  0  0  0  0  0  0  0  0  0
    0.8069    3.2479   -0.3688 H   0  0  0  0  0  0  0  0  0  0  0  0
    0.0227    3.2885    1.1157 H   0  0  0  0  0  0  0  0  0  0  0  0
    0.0013    1.4080    0.0009 C   0  0  0  0  0  0  0  0  0  0  0  0
   -1.2009    0.6949   -0.0000 C   0  0  0  0  0  0  0  0  0  0  0  0
   -2.0663    1.1857   -0.0021 H   0  0  0  0  0  0  0  0  0  0  0  0
   -1.2082   -0.7024    0.0000 C   0  0  0  0  0  0  0  0  0  0  0  0
   -2.0820   -1.1934   -0.0002 H   0  0  0  0  0  0  0  0  0  0  0  0
   -0.0012   -1.4004    0.0027 C   0  0  0  0  0  0  0  0  0  0  0  0
   -0.0016   -2.3958    0.0060 H   0  0  0  0  0  0  0  0  0  0  0  0
    1.2082   -0.6976    0.0000 C   0  0  0  0  0  0  0  0  0  0  0  0
    2.0860   -1.1950    0.0019 H   0  0  0  0  0  0  0  0  0  0  0  0
    1.2008    0.6975   -0.0035 C   0  0  0  0  0  0  0  0  0  0  0  0
    2.0686    1.1948   -0.0101 H   0  0  0  0  0  0  0  0  0  0  0  0
  1  5  1  0
  5  6  1  0
  5  7  2  0
  1  2  1  0
  1  3  1  0
  1  4  1  0
  8 12  1  0
 12 13  2  0
 13 15  1  0
 15 17  2  0
 17 19  1  0
 19 21  2  0
 21 12  1  0
  8  9  1  0
  8 10  1  0
  8 11  1  0
 13 14  1  0
 15 16  1  0
 17 18  1  0
 19 20  1  0
 21 22  1  0
M  CHG  1   6  -1
M  END
>  <PDB_ID>  (57) 
pdb2awi

>  <RESIDUE_NAME>  (57) 
GLU   PHE

>  <FRAG_NAME>  (57) 
ACET   MBZ

>  <FRAG_ATOM_NUM>  (57) 
fragi: 7  fragj: 15

>  <atom.prop.CHAIN_ID>  (57) 
A A A A A A A Z Z Z Z Z Z Z Z Z Z Z Z Z Z Z

>  <atom.prop.IS_HEAVY_ATOM>  (57) 
1 0 0 0 1 1 1 1 0 0 0 1 1 0 1 0 1 0 1 0 1 0

>  <DIFUSE_FUNC_ATOM>  (57) 
atom 6   atom 7   

>  <FINAL_SINGLE_POINT_ENERGY>  (57) 
0

>  <NONCOV_INTER_ENERGY_QM>  (57) 
0

>  <FF_Energy>  (57) 
-1.06

>  <QM_Energy>  (57) 
-7.92

>  <source>  (57) 
ACET_MBZ_00

>  <Index>  (57) 
1971

$$$$
ACET-pdb2awi-B-GLU-60:MBZ-pdb2awi-A-PHE-149
     RDKit          3D

 22 21  0  0  0  0  0  0  0  0999 V2000
    5.0165    4.8099   -0.9383 C   0  0  0  0  0  0  0  0  0  0  0  0
    5.4705    3.9423   -0.8354 H   0  0  0  0  0  0  0  0  0  0  0  0
    5.4058    5.4998   -0.3535 H   0  0  0  0  0  0  0  0  0  0  0  0
    5.1403    5.1334   -1.9718 H   0  0  0  0  0  0  0  0  0  0  0  0
    3.5680    4.6252   -0.5331 C   0  0  0  0  0  0  0  0  0  0  0  0
    2.7575    5.5510   -0.7554 O   0  0  0  0  0  1  0  0  0  0  0  0
    3.2421    3.5543    0.0205 O   0  0  0  0  0  0  0  0  0  0  0  0
   -0.0005    2.9191    0.0527 C   0  0  0  0  0  0  0  0  0  0  0  0
   -0.8011    3.2404   -0.4271 H   0  0  0  0  0  0  0  0  0  0  0  0
    0.8316    3.2381   -0.3717 H   0  0  0  0  0  0  0  0  0  0  0  0
   -0.0341    3.3213    1.0653 H   0  0  0  0  0  0  0  0  0  0  0  0
   -0.0013    1.4100    0.0000 C   0  0  0  0  0  0  0  0  0  0  0  0
   -1.2013    0.7004   -0.0004 C   0  0  0  0  0  0  0  0  0  0  0  0
   -2.0672    1.1898   -0.0021 H   0  0  0  0  0  0  0  0  0  0  0  0
   -1.2095   -0.6961   -0.0000 C   0  0  0  0  0  0  0  0  0  0  0  0
   -2.0830   -1.1890   -0.0001 H   0  0  0  0  0  0  0  0  0  0  0  0
    0.0024   -1.4039    0.0022 C   0  0  0  0  0  0  0  0  0  0  0  0
   -0.0088   -2.3989    0.0047 H   0  0  0  0  0  0  0  0  0  0  0  0
    1.2095   -0.7075    0.0000 C   0  0  0  0  0  0  0  0  0  0  0  0
    2.0886   -1.1981    0.0013 H   0  0  0  0  0  0  0  0  0  0  0  0
    1.2002    0.6971   -0.0019 C   0  0  0  0  0  0  0  0  0  0  0  0
    2.0681    1.1908   -0.0056 H   0  0  0  0  0  0  0  0  0  0  0  0
  1  5  1  0
  5  6  1  0
  5  7  2  0
  1  2  1  0
  1  3  1  0
  1  4  1  0
  8 12  1  0
 12 13  2  0
 13 15  1  0
 15 17  2  0
 17 19  1  0
 19 21  2  0
 21 12  1  0
  8  9  1  0
  8 10  1  0
  8 11  1  0
 13 14  1  0
 15 16  1  0
 17 18  1  0
 19 20  1  0
 21 22  1  0
M  CHG  1   6  -1
M  END
>  <PDB_ID>  (58) 
pdb2awi

>  <RESIDUE_NAME>  (58) 
GLU   PHE

>  <FRAG_NAME>  (58) 
ACET   MBZ

>  <FRAG_ATOM_NUM>  (58) 
fragi: 7  fragj: 15

>  <atom.prop.CHAIN_ID>  (58) 
A A A A A A A Z Z Z Z Z Z Z Z Z Z Z Z Z Z Z

>  <atom.prop.IS_HEAVY_ATOM>  (58) 
1 0 0 0 1 1 1 1 0 0 0 1 1 0 1 0 1 0 1 0 1 0

>  <DIFUSE_FUNC_ATOM>  (58) 
atom 6   atom 7   

>  <FINAL_SINGLE_POINT_ENERGY>  (58) 
0

>  <NONCOV_INTER_ENERGY_QM>  (58) 
0

>  <FF_Energy>  (58) 
-2.19

>  <QM_Energy>  (58) 
-8.41

>  <source>  (58) 
ACET_MBZ_00

>  <Index>  (58) 
1972

$$$$
ACET-pdb2awi-E-GLU-60:MBZ-pdb2awi-F-PHE-149
     RDKit          3D

 22 21  0  0  0  0  0  0  0  0999 V2000
    4.8634    4.7460   -0.4361 C   0  0  0  0  0  0  0  0  0  0  0  0
    5.1296    3.8047   -0.3329 H   0  0  0  0  0  0  0  0  0  0  0  0
    5.3162    5.3318    0.2116 H   0  0  0  0  0  0  0  0  0  0  0  0
    5.1339    5.0699   -1.4412 H   0  0  0  0  0  0  0  0  0  0  0  0
    3.3788    4.8345   -0.1737 C   0  0  0  0  0  0  0  0  0  0  0  0
    2.7712    5.8568   -0.5454 O   0  0  0  0  0  1  0  0  0  0  0  0
    2.8194    3.8899    0.4176 O   0  0  0  0  0  0  0  0  0  0  0  0
   -0.0009    2.8922    0.0692 C   0  0  0  0  0  0  0  0  0  0  0  0
   -0.7505    3.2269   -0.4799 H   0  0  0  0  0  0  0  0  0  0  0  0
    0.8683    3.2177   -0.2676 H   0  0  0  0  0  0  0  0  0  0  0  0
   -0.1313    3.2777    1.0804 H   0  0  0  0  0  0  0  0  0  0  0  0
   -0.0005    1.3997    0.0014 C   0  0  0  0  0  0  0  0  0  0  0  0
   -1.1987    0.6934   -0.0009 C   0  0  0  0  0  0  0  0  0  0  0  0
   -2.0643    1.1853   -0.0043 H   0  0  0  0  0  0  0  0  0  0  0  0
   -1.2042   -0.6948   -0.0000 C   0  0  0  0  0  0  0  0  0  0  0  0
   -2.0779   -1.1905    0.0009 H   0  0  0  0  0  0  0  0  0  0  0  0
    0.0019   -1.3923    0.0016 C   0  0  0  0  0  0  0  0  0  0  0  0
   -0.0045   -2.3914    0.0035 H   0  0  0  0  0  0  0  0  0  0  0  0
    1.2042   -0.6987   -0.0000 C   0  0  0  0  0  0  0  0  0  0  0  0
    2.0840   -1.1953    0.0020 H   0  0  0  0  0  0  0  0  0  0  0  0
    1.1973    0.6927   -0.0021 C   0  0  0  0  0  0  0  0  0  0  0  0
    2.0649    1.1906   -0.0072 H   0  0  0  0  0  0  0  0  0  0  0  0
  1  5  1  0
  5  6  1  0
  5  7  2  0
  1  2  1  0
  1  3  1  0
  1  4  1  0
  8 12  1  0
 12 13  2  0
 13 15  1  0
 15 17  2  0
 17 19  1  0
 19 21  2  0
 21 12  1  0
  8  9  1  0
  8 10  1  0
  8 11  1  0
 13 14  1  0
 15 16  1  0
 17 18  1  0
 19 20  1  0
 21 22  1  0
M  CHG  1   6  -1
M  END
>  <PDB_ID>  (59) 
pdb2awi

>  <RESIDUE_NAME>  (59) 
GLU   PHE

>  <FRAG_NAME>  (59) 
ACET   MBZ

>  <FRAG_ATOM_NUM>  (59) 
fragi: 7  fragj: 15

>  <atom.prop.CHAIN_ID>  (59) 
A A A A A A A Z Z Z Z Z Z Z Z Z Z Z Z Z Z Z

>  <atom.prop.IS_HEAVY_ATOM>  (59) 
1 0 0 0 1 1 1 1 0 0 0 1 1 0 1 0 1 0 1 0 1 0

>  <DIFUSE_FUNC_ATOM>  (59) 
atom 6   atom 7   

>  <FINAL_SINGLE_POINT_ENERGY>  (59) 
0

>  <NONCOV_INTER_ENERGY_QM>  (59) 
0

>  <FF_Energy>  (59) 
0.35

>  <QM_Energy>  (59) 
-6.88

>  <source>  (59) 
ACET_MBZ_00

>  <Index>  (59) 
1977

$$$$
ACET-pdb2awi-H-GLU-60:MBZ-pdb2awi-G-PHE-149
     RDKit          3D

 22 21  0  0  0  0  0  0  0  0999 V2000
    5.1138    4.3346   -0.3437 C   0  0  0  0  0  0  0  0  0  0  0  0
    5.2699    3.3664   -0.2589 H   0  0  0  0  0  0  0  0  0  0  0  0
    5.5721    4.8455    0.3623 H   0  0  0  0  0  0  0  0  0  0  0  0
    5.5028    4.6591   -1.3088 H   0  0  0  0  0  0  0  0  0  0  0  0
    3.6245    4.5749   -0.1882 C   0  0  0  0  0  0  0  0  0  0  0  0
    3.1444    5.6517   -0.6026 O   0  0  0  0  0  1  0  0  0  0  0  0
    2.9351    3.6916    0.3625 O   0  0  0  0  0  0  0  0  0  0  0  0
    0.0026    2.9009    0.0167 C   0  0  0  0  0  0  0  0  0  0  0  0
   -0.7327    3.2155   -0.5657 H   0  0  0  0  0  0  0  0  0  0  0  0
    0.8814    3.2117   -0.3155 H   0  0  0  0  0  0  0  0  0  0  0  0
   -0.1495    3.3331    1.0057 H   0  0  0  0  0  0  0  0  0  0  0  0
    0.0011    1.4005    0.0003 C   0  0  0  0  0  0  0  0  0  0  0  0
   -1.1974    0.6925    0.0002 C   0  0  0  0  0  0  0  0  0  0  0  0
   -2.0629    1.1849   -0.0007 H   0  0  0  0  0  0  0  0  0  0  0  0
   -1.2040   -0.6967   -0.0000 C   0  0  0  0  0  0  0  0  0  0  0  0
   -2.0810   -1.1904    0.0015 H   0  0  0  0  0  0  0  0  0  0  0  0
   -0.0028   -1.3942   -0.0002 C   0  0  0  0  0  0  0  0  0  0  0  0
   -0.0042   -2.3919   -0.0015 H   0  0  0  0  0  0  0  0  0  0  0  0
    1.2040   -0.6956   -0.0000 C   0  0  0  0  0  0  0  0  0  0  0  0
    2.0820   -1.1959    0.0019 H   0  0  0  0  0  0  0  0  0  0  0  0
    1.1991    0.6934   -0.0002 C   0  0  0  0  0  0  0  0  0  0  0  0
    2.0659    1.1912   -0.0020 H   0  0  0  0  0  0  0  0  0  0  0  0
  1  5  1  0
  5  6  1  0
  5  7  2  0
  1  2  1  0
  1  3  1  0
  1  4  1  0
  8 12  1  0
 12 13  2  0
 13 15  1  0
 15 17  2  0
 17 19  1  0
 19 21  2  0
 21 12  1  0
  8  9  1  0
  8 10  1  0
  8 11  1  0
 13 14  1  0
 15 16  1  0
 17 18  1  0
 19 20  1  0
 21 22  1  0
M  CHG  1   6  -1
M  END
>  <PDB_ID>  (60) 
pdb2awi

>  <RESIDUE_NAME>  (60) 
GLU   PHE

>  <FRAG_NAME>  (60) 
ACET   MBZ

>  <FRAG_ATOM_NUM>  (60) 
fragi: 7  fragj: 15

>  <atom.prop.CHAIN_ID>  (60) 
A A A A A A A Z Z Z Z Z Z Z Z Z Z Z Z Z Z Z

>  <atom.prop.IS_HEAVY_ATOM>  (60) 
1 0 0 0 1 1 1 1 0 0 0 1 1 0 1 0 1 0 1 0 1 0

>  <DIFUSE_FUNC_ATOM>  (60) 
atom 6   atom 7   

>  <FINAL_SINGLE_POINT_ENERGY>  (60) 
0

>  <NONCOV_INTER_ENERGY_QM>  (60) 
0

>  <FF_Energy>  (60) 
-0.34

>  <QM_Energy>  (60) 
-7.47

>  <source>  (60) 
ACET_MBZ_00

>  <Index>  (60) 
1983

$$$$
ACET-pdb1af6-C-GLU-83:MBZ-pdb1af6-C-PHE-106
     RDKit          3D

 22 21  0  0  0  0  0  0  0  0999 V2000
   -1.1073    0.7538   -3.8195 C   0  0  0  0  0  0  0  0  0  0  0  0
   -1.8526    1.2604   -3.4590 H   0  0  0  0  0  0  0  0  0  0  0  0
   -0.9944   -0.1274   -3.4288 H   0  0  0  0  0  0  0  0  0  0  0  0
   -1.2608    0.6366   -4.8922 H   0  0  0  0  0  0  0  0  0  0  0  0
    0.1667    1.5476   -3.5520 C   0  0  0  0  0  0  0  0  0  0  0  0
    1.2650    0.9540   -3.5254 O   0  0  0  0  0  1  0  0  0  0  0  0
    0.0442    2.7793   -3.3711 O   0  0  0  0  0  0  0  0  0  0  0  0
    0.0296    2.8996   -0.0010 C   0  0  0  0  0  0  0  0  0  0  0  0
    0.5559    3.1907   -0.7996 H   0  0  0  0  0  0  0  0  0  0  0  0
    0.4977    3.1914    0.8325 H   0  0  0  0  0  0  0  0  0  0  0  0
   -0.9357    3.4044   -0.0354 H   0  0  0  0  0  0  0  0  0  0  0  0
   -0.0074    1.3978   -0.0013 C   0  0  0  0  0  0  0  0  0  0  0  0
   -1.1876    0.6865    0.0020 C   0  0  0  0  0  0  0  0  0  0  0  0
   -2.0645    1.1724    0.0041 H   0  0  0  0  0  0  0  0  0  0  0  0
   -1.1985   -0.7070    0.0000 C   0  0  0  0  0  0  0  0  0  0  0  0
   -2.0709   -1.1960   -0.0029 H   0  0  0  0  0  0  0  0  0  0  0  0
    0.0028   -1.3829    0.0032 C   0  0  0  0  0  0  0  0  0  0  0  0
    0.0091   -2.3877    0.0077 H   0  0  0  0  0  0  0  0  0  0  0  0
    1.1985   -0.6860   -0.0000 C   0  0  0  0  0  0  0  0  0  0  0  0
    2.0811   -1.1877    0.0019 H   0  0  0  0  0  0  0  0  0  0  0  0
    1.1922    0.6916   -0.0039 C   0  0  0  0  0  0  0  0  0  0  0  0
    2.0575    1.1959   -0.0098 H   0  0  0  0  0  0  0  0  0  0  0  0
  1  5  1  0
  5  6  1  0
  5  7  2  0
  1  2  1  0
  1  3  1  0
  1  4  1  0
  8 12  1  0
 12 13  2  0
 13 15  1  0
 15 17  2  0
 17 19  1  0
 19 21  2  0
 21 12  1  0
  8  9  1  0
  8 10  1  0
  8 11  1  0
 13 14  1  0
 15 16  1  0
 17 18  1  0
 19 20  1  0
 21 22  1  0
M  CHG  1   6  -1
M  END
>  <PDB_ID>  (61) 
pdb1af6

>  <RESIDUE_NAME>  (61) 
GLU   PHE

>  <FRAG_NAME>  (61) 
ACET   MBZ

>  <FRAG_ATOM_NUM>  (61) 
fragi: 7  fragj: 15

>  <atom.prop.CHAIN_ID>  (61) 
A A A A A A A Z Z Z Z Z Z Z Z Z Z Z Z Z Z Z

>  <atom.prop.IS_HEAVY_ATOM>  (61) 
1 0 0 0 1 1 1 1 0 0 0 1 1 0 1 0 1 0 1 0 1 0

>  <DIFUSE_FUNC_ATOM>  (61) 
atom 6   atom 7   

>  <FINAL_SINGLE_POINT_ENERGY>  (61) 
0

>  <NONCOV_INTER_ENERGY_QM>  (61) 
0

>  <FF_Energy>  (61) 
0.92

>  <QM_Energy>  (61) 
-4.39

>  <source>  (61) 
ACET_MBZ_00

>  <Index>  (61) 
1984

$$$$
ACET-pdb2awi-J-GLU-60:MBZ-pdb2awi-I-PHE-149
     RDKit          3D

 22 21  0  0  0  0  0  0  0  0999 V2000
    4.7905    4.7869   -0.4528 C   0  0  0  0  0  0  0  0  0  0  0  0
    5.1764    3.9698   -0.0632 H   0  0  0  0  0  0  0  0  0  0  0  0
    5.0463    5.5927    0.0513 H   0  0  0  0  0  0  0  0  0  0  0  0
    5.1624    4.8879   -1.4724 H   0  0  0  0  0  0  0  0  0  0  0  0
    3.2815    4.6616   -0.3786 C   0  0  0  0  0  0  0  0  0  0  0  0
    2.5822    5.4009   -1.1040 O   0  0  0  0  0  1  0  0  0  0  0  0
    2.7983    3.8274    0.4183 O   0  0  0  0  0  0  0  0  0  0  0  0
   -0.0004    2.9064    0.0378 C   0  0  0  0  0  0  0  0  0  0  0  0
   -0.7146    3.2274   -0.5638 H   0  0  0  0  0  0  0  0  0  0  0  0
    0.8884    3.2200   -0.2563 H   0  0  0  0  0  0  0  0  0  0  0  0
   -0.1884    3.3195    1.0289 H   0  0  0  0  0  0  0  0  0  0  0  0
   -0.0002    1.4032   -0.0001 C   0  0  0  0  0  0  0  0  0  0  0  0
   -1.1969    0.6934    0.0002 C   0  0  0  0  0  0  0  0  0  0  0  0
   -2.0639    1.1834   -0.0007 H   0  0  0  0  0  0  0  0  0  0  0  0
   -1.2032   -0.6991   -0.0000 C   0  0  0  0  0  0  0  0  0  0  0  0
   -2.0789   -1.1919    0.0008 H   0  0  0  0  0  0  0  0  0  0  0  0
   -0.0004   -1.3953    0.0013 C   0  0  0  0  0  0  0  0  0  0  0  0
   -0.0033   -2.3936    0.0021 H   0  0  0  0  0  0  0  0  0  0  0  0
    1.2032   -0.6974   -0.0000 C   0  0  0  0  0  0  0  0  0  0  0  0
    2.0836   -1.1946    0.0015 H   0  0  0  0  0  0  0  0  0  0  0  0
    1.1975    0.6952   -0.0014 C   0  0  0  0  0  0  0  0  0  0  0  0
    2.0655    1.1913   -0.0045 H   0  0  0  0  0  0  0  0  0  0  0  0
  1  5  1  0
  5  6  1  0
  5  7  2  0
  1  2  1  0
  1  3  1  0
  1  4  1  0
  8 12  1  0
 12 13  2  0
 13 15  1  0
 15 17  2  0
 17 19  1  0
 19 21  2  0
 21 12  1  0
  8  9  1  0
  8 10  1  0
  8 11  1  0
 13 14  1  0
 15 16  1  0
 17 18  1  0
 19 20  1  0
 21 22  1  0
M  CHG  1   6  -1
M  END
>  <PDB_ID>  (62) 
pdb2awi

>  <RESIDUE_NAME>  (62) 
GLU   PHE

>  <FRAG_NAME>  (62) 
ACET   MBZ

>  <FRAG_ATOM_NUM>  (62) 
fragi: 7  fragj: 15

>  <atom.prop.CHAIN_ID>  (62) 
A A A A A A A Z Z Z Z Z Z Z Z Z Z Z Z Z Z Z

>  <atom.prop.IS_HEAVY_ATOM>  (62) 
1 0 0 0 1 1 1 1 0 0 0 1 1 0 1 0 1 0 1 0 1 0

>  <DIFUSE_FUNC_ATOM>  (62) 
atom 6   atom 7   

>  <FINAL_SINGLE_POINT_ENERGY>  (62) 
0

>  <NONCOV_INTER_ENERGY_QM>  (62) 
0

>  <FF_Energy>  (62) 
1.56

>  <QM_Energy>  (62) 
-6.98

>  <source>  (62) 
ACET_MBZ_00

>  <Index>  (62) 
1986

$$$$
ACET-pdb2awi-K-GLU-60:MBZ-pdb2awi-L-PHE-149
     RDKit          3D

 22 21  0  0  0  0  0  0  0  0999 V2000
    4.7222    4.8648   -1.1187 C   0  0  0  0  0  0  0  0  0  0  0  0
    4.9864    3.9210   -1.2318 H   0  0  0  0  0  0  0  0  0  0  0  0
    5.2536    5.3107   -0.4173 H   0  0  0  0  0  0  0  0  0  0  0  0
    4.8887    5.3848   -2.0621 H   0  0  0  0  0  0  0  0  0  0  0  0
    3.2795    4.8839   -0.6765 C   0  0  0  0  0  0  0  0  0  0  0  0
    2.6698    5.9680   -0.6720 O   0  0  0  0  0  1  0  0  0  0  0  0
    2.7553    3.8115   -0.3184 O   0  0  0  0  0  0  0  0  0  0  0  0
   -0.0001    2.9027    0.0703 C   0  0  0  0  0  0  0  0  0  0  0  0
   -0.7956    3.2315   -0.4113 H   0  0  0  0  0  0  0  0  0  0  0  0
    0.8352    3.2294   -0.3407 H   0  0  0  0  0  0  0  0  0  0  0  0
   -0.0437    3.2852    1.0900 H   0  0  0  0  0  0  0  0  0  0  0  0
    0.0008    1.4037    0.0004 C   0  0  0  0  0  0  0  0  0  0  0  0
   -1.1986    0.6954   -0.0008 C   0  0  0  0  0  0  0  0  0  0  0  0
   -2.0638    1.1868   -0.0033 H   0  0  0  0  0  0  0  0  0  0  0  0
   -1.2066   -0.6987   -0.0000 C   0  0  0  0  0  0  0  0  0  0  0  0
   -2.0812   -1.1904    0.0007 H   0  0  0  0  0  0  0  0  0  0  0  0
   -0.0012   -1.3971    0.0022 C   0  0  0  0  0  0  0  0  0  0  0  0
   -0.0051   -2.3946    0.0049 H   0  0  0  0  0  0  0  0  0  0  0  0
    1.2066   -0.6988   -0.0000 C   0  0  0  0  0  0  0  0  0  0  0  0
    2.0850   -1.1954    0.0012 H   0  0  0  0  0  0  0  0  0  0  0  0
    1.1990    0.6956   -0.0017 C   0  0  0  0  0  0  0  0  0  0  0  0
    2.0667    1.1926   -0.0058 H   0  0  0  0  0  0  0  0  0  0  0  0
  1  5  1  0
  5  6  1  0
  5  7  2  0
  1  2  1  0
  1  3  1  0
  1  4  1  0
  8 12  1  0
 12 13  2  0
 13 15  1  0
 15 17  2  0
 17 19  1  0
 19 21  2  0
 21 12  1  0
  8  9  1  0
  8 10  1  0
  8 11  1  0
 13 14  1  0
 15 16  1  0
 17 18  1  0
 19 20  1  0
 21 22  1  0
M  CHG  1   6  -1
M  END
>  <PDB_ID>  (63) 
pdb2awi

>  <RESIDUE_NAME>  (63) 
GLU   PHE

>  <FRAG_NAME>  (63) 
ACET   MBZ

>  <FRAG_ATOM_NUM>  (63) 
fragi: 7  fragj: 15

>  <atom.prop.CHAIN_ID>  (63) 
A A A A A A A Z Z Z Z Z Z Z Z Z Z Z Z Z Z Z

>  <atom.prop.IS_HEAVY_ATOM>  (63) 
1 0 0 0 1 1 1 1 0 0 0 1 1 0 1 0 1 0 1 0 1 0

>  <DIFUSE_FUNC_ATOM>  (63) 
atom 6   atom 7   

>  <FINAL_SINGLE_POINT_ENERGY>  (63) 
0

>  <NONCOV_INTER_ENERGY_QM>  (63) 
0

>  <FF_Energy>  (63) 
4.88

>  <QM_Energy>  (63) 
-6.79

>  <source>  (63) 
ACET_MBZ_00

>  <Index>  (63) 
1989

$$$$
ACET-pdb2az1-D-ASP-15:MBZ-pdb2az1-D-PHE-68
     RDKit          3D

 22 21  0  0  0  0  0  0  0  0999 V2000
   -1.6549   -4.6453   -0.4744 C   0  0  0  0  0  0  0  0  0  0  0  0
   -2.1360   -5.2172   -1.1376 H   0  0  0  0  0  0  0  0  0  0  0  0
   -1.9007   -3.6876   -0.6191 H   0  0  0  0  0  0  0  0  0  0  0  0
   -1.9823   -4.9339    0.5244 H   0  0  0  0  0  0  0  0  0  0  0  0
   -0.1647   -4.7998   -0.6968 C   0  0  0  0  0  0  0  0  0  0  0  0
    0.6590   -4.4235    0.2003 O   0  0  0  0  0  1  0  0  0  0  0  0
    0.2656   -5.2715   -1.7797 O   0  0  0  0  0  0  0  0  0  0  0  0
   -0.0236    2.8773    0.0707 C   0  0  0  0  0  0  0  0  0  0  0  0
   -0.4503    3.2334   -0.7426 H   0  0  0  0  0  0  0  0  0  0  0  0
    0.8983    3.2070    0.1786 H   0  0  0  0  0  0  0  0  0  0  0  0
   -0.5976    3.2436    0.9219 H   0  0  0  0  0  0  0  0  0  0  0  0
   -0.0016    1.4019   -0.0037 C   0  0  0  0  0  0  0  0  0  0  0  0
   -1.2098    0.6731   -0.0034 C   0  0  0  0  0  0  0  0  0  0  0  0
   -2.0721    1.1688   -0.0074 H   0  0  0  0  0  0  0  0  0  0  0  0
   -1.2039   -0.7069   -0.0000 C   0  0  0  0  0  0  0  0  0  0  0  0
   -2.0702   -1.2149    0.0109 H   0  0  0  0  0  0  0  0  0  0  0  0
    0.0106   -1.3885   -0.0105 C   0  0  0  0  0  0  0  0  0  0  0  0
    0.0147   -2.3896   -0.0260 H   0  0  0  0  0  0  0  0  0  0  0  0
    1.2039   -0.6839    0.0000 C   0  0  0  0  0  0  0  0  0  0  0  0
    2.0912   -1.1808   -0.0035 H   0  0  0  0  0  0  0  0  0  0  0  0
    1.2008    0.7043    0.0176 C   0  0  0  0  0  0  0  0  0  0  0  0
    2.0629    1.2023    0.0445 H   0  0  0  0  0  0  0  0  0  0  0  0
  1  5  1  0
  5  6  1  0
  5  7  2  0
  1  2  1  0
  1  3  1  0
  1  4  1  0
  8 12  1  0
 12 13  2  0
 13 15  1  0
 15 17  2  0
 17 19  1  0
 19 21  2  0
 21 12  1  0
  8  9  1  0
  8 10  1  0
  8 11  1  0
 13 14  1  0
 15 16  1  0
 17 18  1  0
 19 20  1  0
 21 22  1  0
M  CHG  1   6  -1
M  END
>  <PDB_ID>  (64) 
pdb2az1

>  <RESIDUE_NAME>  (64) 
ASP   PHE

>  <FRAG_NAME>  (64) 
ACET   MBZ

>  <FRAG_ATOM_NUM>  (64) 
fragi: 7  fragj: 15

>  <atom.prop.CHAIN_ID>  (64) 
A A A A A A A Z Z Z Z Z Z Z Z Z Z Z Z Z Z Z

>  <atom.prop.IS_HEAVY_ATOM>  (64) 
1 0 0 0 1 1 1 1 0 0 0 1 1 0 1 0 1 0 1 0 1 0

>  <DIFUSE_FUNC_ATOM>  (64) 
atom 6   atom 7   

>  <FINAL_SINGLE_POINT_ENERGY>  (64) 
0

>  <NONCOV_INTER_ENERGY_QM>  (64) 
0

>  <FF_Energy>  (64) 
1.12

>  <QM_Energy>  (64) 
-5.06

>  <source>  (64) 
ACET_MBZ_00

>  <Index>  (64) 
2008

$$$$
ACET-pdb2b0t-A-ASP-375:MBZ-pdb2b0t-A-PHE-179
     RDKit          3D

 22 21  0  0  0  0  0  0  0  0999 V2000
   -3.8144    2.7137    2.4499 C   0  0  0  0  0  0  0  0  0  0  0  0
   -3.2786    1.8854    2.5528 H   0  0  0  0  0  0  0  0  0  0  0  0
   -4.6415    2.5361    1.9328 H   0  0  0  0  0  0  0  0  0  0  0  0
   -4.1028    3.0559    3.4438 H   0  0  0  0  0  0  0  0  0  0  0  0
   -2.9910    3.7422    1.7191 C   0  0  0  0  0  0  0  0  0  0  0  0
   -3.4890    4.2979    0.7145 O   0  0  0  0  0  1  0  0  0  0  0  0
   -1.8533    4.0072    2.1645 O   0  0  0  0  0  0  0  0  0  0  0  0
   -0.0089    2.9335   -0.0442 C   0  0  0  0  0  0  0  0  0  0  0  0
   -0.8676    3.2418    0.3343 H   0  0  0  0  0  0  0  0  0  0  0  0
    0.0891    3.2085   -0.9885 H   0  0  0  0  0  0  0  0  0  0  0  0
    0.7932    3.4041    0.5243 H   0  0  0  0  0  0  0  0  0  0  0  0
   -0.0011    1.4152   -0.0006 C   0  0  0  0  0  0  0  0  0  0  0  0
   -1.1999    0.7023   -0.0001 C   0  0  0  0  0  0  0  0  0  0  0  0
   -2.0673    1.1868   -0.0007 H   0  0  0  0  0  0  0  0  0  0  0  0
   -1.2046   -0.7028    0.0000 C   0  0  0  0  0  0  0  0  0  0  0  0
   -2.0815   -1.1909    0.0015 H   0  0  0  0  0  0  0  0  0  0  0  0
    0.0011   -1.4055   -0.0004 C   0  0  0  0  0  0  0  0  0  0  0  0
   -0.0061   -2.4014   -0.0010 H   0  0  0  0  0  0  0  0  0  0  0  0
    1.2046   -0.7076   -0.0000 C   0  0  0  0  0  0  0  0  0  0  0  0
    2.0858   -1.1987    0.0006 H   0  0  0  0  0  0  0  0  0  0  0  0
    1.1999    0.6984    0.0011 C   0  0  0  0  0  0  0  0  0  0  0  0
    2.0685    1.1890    0.0023 H   0  0  0  0  0  0  0  0  0  0  0  0
  1  5  1  0
  5  6  1  0
  5  7  2  0
  1  2  1  0
  1  3  1  0
  1  4  1  0
  8 12  1  0
 12 13  2  0
 13 15  1  0
 15 17  2  0
 17 19  1  0
 19 21  2  0
 21 12  1  0
  8  9  1  0
  8 10  1  0
  8 11  1  0
 13 14  1  0
 15 16  1  0
 17 18  1  0
 19 20  1  0
 21 22  1  0
M  CHG  1   6  -1
M  END
>  <PDB_ID>  (65) 
pdb2b0t

>  <RESIDUE_NAME>  (65) 
ASP   PHE

>  <FRAG_NAME>  (65) 
ACET   MBZ

>  <FRAG_ATOM_NUM>  (65) 
fragi: 7  fragj: 15

>  <atom.prop.CHAIN_ID>  (65) 
A A A A A A A Z Z Z Z Z Z Z Z Z Z Z Z Z Z Z

>  <atom.prop.IS_HEAVY_ATOM>  (65) 
1 0 0 0 1 1 1 1 0 0 0 1 1 0 1 0 1 0 1 0 1 0

>  <DIFUSE_FUNC_ATOM>  (65) 
atom 6   atom 7   

>  <FINAL_SINGLE_POINT_ENERGY>  (65) 
0

>  <NONCOV_INTER_ENERGY_QM>  (65) 
0

>  <FF_Energy>  (65) 
0.4

>  <QM_Energy>  (65) 
-6.53

>  <source>  (65) 
ACET_MBZ_00

>  <Index>  (65) 
2062

$$$$
ACET-pdb1aoa-A-ASP-154:MBZ-pdb1aoa-A-PHE-157
     RDKit          3D

 22 21  0  0  0  0  0  0  0  0999 V2000
    4.4673    1.4907   -0.6658 C   0  0  0  0  0  0  0  0  0  0  0  0
    3.5937    1.7236   -0.2510 H   0  0  0  0  0  0  0  0  0  0  0  0
    4.7925    0.6176   -0.3171 H   0  0  0  0  0  0  0  0  0  0  0  0
    4.3069    1.3816   -1.7384 H   0  0  0  0  0  0  0  0  0  0  0  0
    5.4812    2.5694   -0.3092 C   0  0  0  0  0  0  0  0  0  0  0  0
    5.8377    3.4104   -1.1780 O   0  0  0  0  0  1  0  0  0  0  0  0
    5.9199    2.5649    0.8722 O   0  0  0  0  0  0  0  0  0  0  0  0
   -0.0003    2.9206   -0.0937 C   0  0  0  0  0  0  0  0  0  0  0  0
    0.9345    3.2203   -0.1848 H   0  0  0  0  0  0  0  0  0  0  0  0
   -0.4200    3.2737    0.7254 H   0  0  0  0  0  0  0  0  0  0  0  0
   -0.5593    3.3048   -0.9470 H   0  0  0  0  0  0  0  0  0  0  0  0
    0.0013    1.4107   -0.0025 C   0  0  0  0  0  0  0  0  0  0  0  0
   -1.2018    0.6956    0.0028 C   0  0  0  0  0  0  0  0  0  0  0  0
   -2.0668    1.1818    0.0078 H   0  0  0  0  0  0  0  0  0  0  0  0
   -1.2026   -0.7050    0.0000 C   0  0  0  0  0  0  0  0  0  0  0  0
   -2.0777   -1.1976    0.0008 H   0  0  0  0  0  0  0  0  0  0  0  0
    0.0037   -1.3983   -0.0019 C   0  0  0  0  0  0  0  0  0  0  0  0
    0.0001   -2.3981   -0.0048 H   0  0  0  0  0  0  0  0  0  0  0  0
    1.2026   -0.7017   -0.0000 C   0  0  0  0  0  0  0  0  0  0  0  0
    2.0857   -1.1936    0.0022 H   0  0  0  0  0  0  0  0  0  0  0  0
    1.1968    0.6986    0.0016 C   0  0  0  0  0  0  0  0  0  0  0  0
    2.0670    1.1912    0.0047 H   0  0  0  0  0  0  0  0  0  0  0  0
  1  5  1  0
  5  6  1  0
  5  7  2  0
  1  2  1  0
  1  3  1  0
  1  4  1  0
  8 12  1  0
 12 13  2  0
 13 15  1  0
 15 17  2  0
 17 19  1  0
 19 21  2  0
 21 12  1  0
  8  9  1  0
  8 10  1  0
  8 11  1  0
 13 14  1  0
 15 16  1  0
 17 18  1  0
 19 20  1  0
 21 22  1  0
M  CHG  1   6  -1
M  END
>  <PDB_ID>  (66) 
pdb1aoa

>  <RESIDUE_NAME>  (66) 
ASP   PHE

>  <FRAG_NAME>  (66) 
ACET   MBZ

>  <FRAG_ATOM_NUM>  (66) 
fragi: 7  fragj: 15

>  <atom.prop.CHAIN_ID>  (66) 
A A A A A A A Z Z Z Z Z Z Z Z Z Z Z Z Z Z Z

>  <atom.prop.IS_HEAVY_ATOM>  (66) 
1 0 0 0 1 1 1 1 0 0 0 1 1 0 1 0 1 0 1 0 1 0

>  <DIFUSE_FUNC_ATOM>  (66) 
atom 6   atom 7   

>  <FINAL_SINGLE_POINT_ENERGY>  (66) 
0

>  <NONCOV_INTER_ENERGY_QM>  (66) 
0

>  <FF_Energy>  (66) 
9.93

>  <QM_Energy>  (66) 
-0.06

>  <source>  (66) 
ACET_MBZ_00

>  <Index>  (66) 
2085

$$$$
ACET-pdb1ann-A-ASP-18:MBZ-pdb1ann-A-PHE-13
     RDKit          3D

 22 21  0  0  0  0  0  0  0  0999 V2000
   -4.6681   -2.8500    2.6753 C   0  0  0  0  0  0  0  0  0  0  0  0
   -3.7284   -3.1188    2.8544 H   0  0  0  0  0  0  0  0  0  0  0  0
   -5.0921   -3.4762    2.0321 H   0  0  0  0  0  0  0  0  0  0  0  0
   -5.2180   -2.9105    3.6144 H   0  0  0  0  0  0  0  0  0  0  0  0
   -4.6636   -1.4458    2.0590 C   0  0  0  0  0  0  0  0  0  0  0  0
   -5.5019   -0.5942    2.4097 O   0  0  0  0  0  1  0  0  0  0  0  0
   -3.8105   -1.2077    1.1822 O   0  0  0  0  0  0  0  0  0  0  0  0
    0.0020    2.9121    0.0485 C   0  0  0  0  0  0  0  0  0  0  0  0
   -0.4205    3.2416   -0.7811 H   0  0  0  0  0  0  0  0  0  0  0  0
    0.9394    3.2126    0.1225 H   0  0  0  0  0  0  0  0  0  0  0  0
   -0.5509    3.3201    0.8945 H   0  0  0  0  0  0  0  0  0  0  0  0
    0.0017    1.4058    0.0010 C   0  0  0  0  0  0  0  0  0  0  0  0
   -1.1972    0.6971   -0.0037 C   0  0  0  0  0  0  0  0  0  0  0  0
   -2.0625    1.1823   -0.0111 H   0  0  0  0  0  0  0  0  0  0  0  0
   -1.1949   -0.6984   -0.0000 C   0  0  0  0  0  0  0  0  0  0  0  0
   -2.0758   -1.1910    0.0034 H   0  0  0  0  0  0  0  0  0  0  0  0
   -0.0002   -1.3923    0.0010 C   0  0  0  0  0  0  0  0  0  0  0  0
   -0.0078   -2.3945    0.0019 H   0  0  0  0  0  0  0  0  0  0  0  0
    1.1949   -0.7047   -0.0000 C   0  0  0  0  0  0  0  0  0  0  0  0
    2.0790   -1.1994   -0.0001 H   0  0  0  0  0  0  0  0  0  0  0  0
    1.1957    0.6926    0.0017 C   0  0  0  0  0  0  0  0  0  0  0  0
    2.0661    1.1828    0.0025 H   0  0  0  0  0  0  0  0  0  0  0  0
  1  5  1  0
  5  6  1  0
  5  7  2  0
  1  2  1  0
  1  3  1  0
  1  4  1  0
  8 12  1  0
 12 13  2  0
 13 15  1  0
 15 17  2  0
 17 19  1  0
 19 21  2  0
 21 12  1  0
  8  9  1  0
  8 10  1  0
  8 11  1  0
 13 14  1  0
 15 16  1  0
 17 18  1  0
 19 20  1  0
 21 22  1  0
M  CHG  1   6  -1
M  END
>  <PDB_ID>  (67) 
pdb1ann

>  <RESIDUE_NAME>  (67) 
ASP   PHE

>  <FRAG_NAME>  (67) 
ACET   MBZ

>  <FRAG_ATOM_NUM>  (67) 
fragi: 7  fragj: 15

>  <atom.prop.CHAIN_ID>  (67) 
A A A A A A A Z Z Z Z Z Z Z Z Z Z Z Z Z Z Z

>  <atom.prop.IS_HEAVY_ATOM>  (67) 
1 0 0 0 1 1 1 1 0 0 0 1 1 0 1 0 1 0 1 0 1 0

>  <DIFUSE_FUNC_ATOM>  (67) 
atom 6   atom 7   

>  <FINAL_SINGLE_POINT_ENERGY>  (67) 
0

>  <NONCOV_INTER_ENERGY_QM>  (67) 
0

>  <FF_Energy>  (67) 
2.23

>  <QM_Energy>  (67) 
-5.36

>  <source>  (67) 
ACET_MBZ_00

>  <Index>  (67) 
2101

$$$$
ACET-pdb1anw-B-ASP-20:MBZ-pdb1anw-B-PHE-15
     RDKit          3D

 22 21  0  0  0  0  0  0  0  0999 V2000
   -4.7137   -1.5864    2.4513 C   0  0  0  0  0  0  0  0  0  0  0  0
   -3.7913   -2.0152    2.4676 H   0  0  0  0  0  0  0  0  0  0  0  0
   -5.2640   -2.1010    1.7679 H   0  0  0  0  0  0  0  0  0  0  0  0
   -5.1694   -1.7392    3.4297 H   0  0  0  0  0  0  0  0  0  0  0  0
   -4.5665   -0.1697    1.9683 C   0  0  0  0  0  0  0  0  0  0  0  0
   -5.0556    0.6697    2.7644 O   0  0  0  0  0  1  0  0  0  0  0  0
   -4.0134    0.1413    0.9113 O   0  0  0  0  0  0  0  0  0  0  0  0
    0.0404    2.9112   -0.0045 C   0  0  0  0  0  0  0  0  0  0  0  0
   -0.7239    3.2272   -0.5903 H   0  0  0  0  0  0  0  0  0  0  0  0
    0.9034    3.1912   -0.4559 H   0  0  0  0  0  0  0  0  0  0  0  0
   -0.0255    3.4464    0.9428 H   0  0  0  0  0  0  0  0  0  0  0  0
    0.0060    1.4163    0.0052 C   0  0  0  0  0  0  0  0  0  0  0  0
   -1.1956    0.6949   -0.0037 C   0  0  0  0  0  0  0  0  0  0  0  0
   -2.0611    1.1892   -0.0146 H   0  0  0  0  0  0  0  0  0  0  0  0
   -1.1999   -0.6912    0.0000 C   0  0  0  0  0  0  0  0  0  0  0  0
   -2.0746   -1.1878    0.0052 H   0  0  0  0  0  0  0  0  0  0  0  0
    0.0017   -1.3824   -0.0016 C   0  0  0  0  0  0  0  0  0  0  0  0
   -0.0123   -2.3903   -0.0046 H   0  0  0  0  0  0  0  0  0  0  0  0
    1.1999   -0.7074    0.0000 C   0  0  0  0  0  0  0  0  0  0  0  0
    2.0768   -1.2068    0.0025 H   0  0  0  0  0  0  0  0  0  0  0  0
    1.1879    0.6699    0.0001 C   0  0  0  0  0  0  0  0  0  0  0  0
    2.0699    1.1721   -0.0042 H   0  0  0  0  0  0  0  0  0  0  0  0
  1  5  1  0
  5  6  1  0
  5  7  2  0
  1  2  1  0
  1  3  1  0
  1  4  1  0
  8 12  1  0
 12 13  2  0
 13 15  1  0
 15 17  2  0
 17 19  1  0
 19 21  2  0
 21 12  1  0
  8  9  1  0
  8 10  1  0
  8 11  1  0
 13 14  1  0
 15 16  1  0
 17 18  1  0
 19 20  1  0
 21 22  1  0
M  CHG  1   6  -1
M  END
>  <PDB_ID>  (68) 
pdb1anw

>  <RESIDUE_NAME>  (68) 
ASP   PHE

>  <FRAG_NAME>  (68) 
ACET   MBZ

>  <FRAG_ATOM_NUM>  (68) 
fragi: 7  fragj: 15

>  <atom.prop.CHAIN_ID>  (68) 
A A A A A A A Z Z Z Z Z Z Z Z Z Z Z Z Z Z Z

>  <atom.prop.IS_HEAVY_ATOM>  (68) 
1 0 0 0 1 1 1 1 0 0 0 1 1 0 1 0 1 0 1 0 1 0

>  <DIFUSE_FUNC_ATOM>  (68) 
atom 6   atom 7   

>  <FINAL_SINGLE_POINT_ENERGY>  (68) 
0

>  <NONCOV_INTER_ENERGY_QM>  (68) 
0

>  <FF_Energy>  (68) 
-0.9

>  <QM_Energy>  (68) 
-5.92

>  <source>  (68) 
ACET_MBZ_00

>  <Index>  (68) 
2102

$$$$
ACET-pdb2b1e-A-ASP-160:MBZ-pdb2b1e-A-PHE-216
     RDKit          3D

 22 21  0  0  0  0  0  0  0  0999 V2000
   -0.3157    1.6889    3.6157 C   0  0  0  0  0  0  0  0  0  0  0  0
   -0.6890    1.0374    2.9672 H   0  0  0  0  0  0  0  0  0  0  0  0
   -0.4943    1.3981    4.5472 H   0  0  0  0  0  0  0  0  0  0  0  0
    0.7647    1.7205    3.4752 H   0  0  0  0  0  0  0  0  0  0  0  0
   -0.9640    3.0355    3.3880 C   0  0  0  0  0  0  0  0  0  0  0  0
   -0.4543    4.0337    3.9364 O   0  0  0  0  0  1  0  0  0  0  0  0
   -1.9803    3.1012    2.6662 O   0  0  0  0  0  0  0  0  0  0  0  0
   -0.0018    2.9027   -0.0064 C   0  0  0  0  0  0  0  0  0  0  0  0
    0.9042    3.2129    0.2441 H   0  0  0  0  0  0  0  0  0  0  0  0
   -0.6799    3.2131    0.6428 H   0  0  0  0  0  0  0  0  0  0  0  0
   -0.2457    3.3407   -0.9742 H   0  0  0  0  0  0  0  0  0  0  0  0
   -0.0006    1.4034    0.0003 C   0  0  0  0  0  0  0  0  0  0  0  0
   -1.1978    0.6970    0.0006 C   0  0  0  0  0  0  0  0  0  0  0  0
   -2.0640    1.1854    0.0001 H   0  0  0  0  0  0  0  0  0  0  0  0
   -1.2019   -0.6976   -0.0000 C   0  0  0  0  0  0  0  0  0  0  0  0
   -2.0782   -1.1908    0.0018 H   0  0  0  0  0  0  0  0  0  0  0  0
    0.0027   -1.3959   -0.0010 C   0  0  0  0  0  0  0  0  0  0  0  0
   -0.0033   -2.3938   -0.0033 H   0  0  0  0  0  0  0  0  0  0  0  0
    1.2019   -0.7000    0.0000 C   0  0  0  0  0  0  0  0  0  0  0  0
    2.0842   -1.1955    0.0027 H   0  0  0  0  0  0  0  0  0  0  0  0
    1.1957    0.6930    0.0001 C   0  0  0  0  0  0  0  0  0  0  0  0
    2.0642    1.1890   -0.0007 H   0  0  0  0  0  0  0  0  0  0  0  0
  1  5  1  0
  5  6  1  0
  5  7  2  0
  1  2  1  0
  1  3  1  0
  1  4  1  0
  8 12  1  0
 12 13  2  0
 13 15  1  0
 15 17  2  0
 17 19  1  0
 19 21  2  0
 21 12  1  0
  8  9  1  0
  8 10  1  0
  8 11  1  0
 13 14  1  0
 15 16  1  0
 17 18  1  0
 19 20  1  0
 21 22  1  0
M  CHG  1   6  -1
M  END
>  <PDB_ID>  (69) 
pdb2b1e

>  <RESIDUE_NAME>  (69) 
ASP   PHE

>  <FRAG_NAME>  (69) 
ACET   MBZ

>  <FRAG_ATOM_NUM>  (69) 
fragi: 7  fragj: 15

>  <atom.prop.CHAIN_ID>  (69) 
A A A A A A A Z Z Z Z Z Z Z Z Z Z Z Z Z Z Z

>  <atom.prop.IS_HEAVY_ATOM>  (69) 
1 0 0 0 1 1 1 1 0 0 0 1 1 0 1 0 1 0 1 0 1 0

>  <DIFUSE_FUNC_ATOM>  (69) 
atom 6   atom 7   

>  <FINAL_SINGLE_POINT_ENERGY>  (69) 
0

>  <NONCOV_INTER_ENERGY_QM>  (69) 
0

>  <FF_Energy>  (69) 
-0.89

>  <QM_Energy>  (69) 
-6.35

>  <source>  (69) 
ACET_MBZ_00

>  <Index>  (69) 
2105

$$$$
ACET-pdb1aoc-A-GLU-64:MBZ-pdb1aoc-A-PHE-48
     RDKit          3D

 22 21  0  0  0  0  0  0  0  0999 V2000
   -2.9850    1.9387   -3.4406 C   0  0  0  0  0  0  0  0  0  0  0  0
   -3.3752    1.7561   -2.5594 H   0  0  0  0  0  0  0  0  0  0  0  0
   -2.6582    1.1269   -3.8845 H   0  0  0  0  0  0  0  0  0  0  0  0
   -3.7500    2.3938   -4.0697 H   0  0  0  0  0  0  0  0  0  0  0  0
   -1.7713    2.8536   -3.2192 C   0  0  0  0  0  0  0  0  0  0  0  0
   -1.9440    4.0928   -3.1996 O   0  0  0  0  0  1  0  0  0  0  0  0
   -0.6404    2.3281   -3.0512 O   0  0  0  0  0  0  0  0  0  0  0  0
    0.0107    2.9305    0.0844 C   0  0  0  0  0  0  0  0  0  0  0  0
   -0.8043    3.2601   -0.3594 H   0  0  0  0  0  0  0  0  0  0  0  0
    0.8294    3.2509   -0.3590 H   0  0  0  0  0  0  0  0  0  0  0  0
    0.0128    3.3110    1.1057 H   0  0  0  0  0  0  0  0  0  0  0  0
    0.0023    1.4109    0.0017 C   0  0  0  0  0  0  0  0  0  0  0  0
   -1.2024    0.7061   -0.0022 C   0  0  0  0  0  0  0  0  0  0  0  0
   -2.0650    1.1977   -0.0078 H   0  0  0  0  0  0  0  0  0  0  0  0
   -1.2094   -0.6892   -0.0000 C   0  0  0  0  0  0  0  0  0  0  0  0
   -2.0876   -1.1805    0.0009 H   0  0  0  0  0  0  0  0  0  0  0  0
   -0.0064   -1.3989    0.0031 C   0  0  0  0  0  0  0  0  0  0  0  0
   -0.0203   -2.3965    0.0068 H   0  0  0  0  0  0  0  0  0  0  0  0
    1.2094   -0.7132    0.0000 C   0  0  0  0  0  0  0  0  0  0  0  0
    2.0812   -1.2136    0.0014 H   0  0  0  0  0  0  0  0  0  0  0  0
    1.2064    0.6844   -0.0026 C   0  0  0  0  0  0  0  0  0  0  0  0
    2.0741    1.1798   -0.0086 H   0  0  0  0  0  0  0  0  0  0  0  0
  1  5  1  0
  5  6  1  0
  5  7  2  0
  1  2  1  0
  1  3  1  0
  1  4  1  0
  8 12  1  0
 12 13  2  0
 13 15  1  0
 15 17  2  0
 17 19  1  0
 19 21  2  0
 21 12  1  0
  8  9  1  0
  8 10  1  0
  8 11  1  0
 13 14  1  0
 15 16  1  0
 17 18  1  0
 19 20  1  0
 21 22  1  0
M  CHG  1   6  -1
M  END
>  <PDB_ID>  (70) 
pdb1aoc

>  <RESIDUE_NAME>  (70) 
GLU   PHE

>  <FRAG_NAME>  (70) 
ACET   MBZ

>  <FRAG_ATOM_NUM>  (70) 
fragi: 7  fragj: 15

>  <atom.prop.CHAIN_ID>  (70) 
A A A A A A A Z Z Z Z Z Z Z Z Z Z Z Z Z Z Z

>  <atom.prop.IS_HEAVY_ATOM>  (70) 
1 0 0 0 1 1 1 1 0 0 0 1 1 0 1 0 1 0 1 0 1 0

>  <DIFUSE_FUNC_ATOM>  (70) 
atom 6   atom 7   

>  <FINAL_SINGLE_POINT_ENERGY>  (70) 
0

>  <NONCOV_INTER_ENERGY_QM>  (70) 
0

>  <FF_Energy>  (70) 
1.42

>  <QM_Energy>  (70) 
-3.95

>  <source>  (70) 
ACET_MBZ_00

>  <Index>  (70) 
2107

$$$$
ACET-pdb1aok-A-ASP-99:MBZ-pdb1aok-A-PHE-5
     RDKit          3D

 22 21  0  0  0  0  0  0  0  0999 V2000
   -3.0814    2.2243   -2.7807 C   0  0  0  0  0  0  0  0  0  0  0  0
   -3.7681    2.8118   -3.1963 H   0  0  0  0  0  0  0  0  0  0  0  0
   -3.1410    2.2707   -1.7897 H   0  0  0  0  0  0  0  0  0  0  0  0
   -3.3176    1.2002   -3.0697 H   0  0  0  0  0  0  0  0  0  0  0  0
   -1.7113    2.6664   -3.2217 C   0  0  0  0  0  0  0  0  0  0  0  0
   -0.9356    1.9100   -3.8330 O   0  0  0  0  0  1  0  0  0  0  0  0
   -1.3248    3.8276   -2.9431 O   0  0  0  0  0  0  0  0  0  0  0  0
    0.0315    2.9211   -0.0295 C   0  0  0  0  0  0  0  0  0  0  0  0
   -0.2427    3.2049   -0.9388 H   0  0  0  0  0  0  0  0  0  0  0  0
    0.9591    3.2082    0.1661 H   0  0  0  0  0  0  0  0  0  0  0  0
   -0.6296    3.4062    0.6886 H   0  0  0  0  0  0  0  0  0  0  0  0
    0.0021    1.4072    0.0074 C   0  0  0  0  0  0  0  0  0  0  0  0
   -1.1831    0.7002    0.0242 C   0  0  0  0  0  0  0  0  0  0  0  0
   -2.0554    1.1850    0.0526 H   0  0  0  0  0  0  0  0  0  0  0  0
   -1.1891   -0.6922   -0.0000 C   0  0  0  0  0  0  0  0  0  0  0  0
   -2.0802   -1.1761   -0.0073 H   0  0  0  0  0  0  0  0  0  0  0  0
   -0.0102   -1.4022   -0.0124 C   0  0  0  0  0  0  0  0  0  0  0  0
   -0.0145   -2.3943   -0.0306 H   0  0  0  0  0  0  0  0  0  0  0  0
    1.1891   -0.7008    0.0000 C   0  0  0  0  0  0  0  0  0  0  0  0
    2.0726   -1.2017    0.0247 H   0  0  0  0  0  0  0  0  0  0  0  0
    1.1913    0.6878   -0.0192 C   0  0  0  0  0  0  0  0  0  0  0  0
    2.0637    1.1799   -0.0536 H   0  0  0  0  0  0  0  0  0  0  0  0
  1  5  1  0
  5  6  1  0
  5  7  2  0
  1  2  1  0
  1  3  1  0
  1  4  1  0
  8 12  1  0
 12 13  2  0
 13 15  1  0
 15 17  2  0
 17 19  1  0
 19 21  2  0
 21 12  1  0
  8  9  1  0
  8 10  1  0
  8 11  1  0
 13 14  1  0
 15 16  1  0
 17 18  1  0
 19 20  1  0
 21 22  1  0
M  CHG  1   6  -1
M  END
>  <PDB_ID>  (71) 
pdb1aok

>  <RESIDUE_NAME>  (71) 
ASP   PHE

>  <FRAG_NAME>  (71) 
ACET   MBZ

>  <FRAG_ATOM_NUM>  (71) 
fragi: 7  fragj: 15

>  <atom.prop.CHAIN_ID>  (71) 
A A A A A A A Z Z Z Z Z Z Z Z Z Z Z Z Z Z Z

>  <atom.prop.IS_HEAVY_ATOM>  (71) 
1 0 0 0 1 1 1 1 0 0 0 1 1 0 1 0 1 0 1 0 1 0

>  <DIFUSE_FUNC_ATOM>  (71) 
atom 6   atom 7   

>  <FINAL_SINGLE_POINT_ENERGY>  (71) 
0

>  <NONCOV_INTER_ENERGY_QM>  (71) 
0

>  <FF_Energy>  (71) 
-0.16

>  <QM_Energy>  (71) 
-4.87

>  <source>  (71) 
ACET_MBZ_00

>  <Index>  (71) 
2137

$$$$
ACET-pdb1aof-B-ASP-457:MBZ-pdb1aof-B-PHE-444
     RDKit          3D

 22 21  0  0  0  0  0  0  0  0999 V2000
    4.8149    5.3936   -0.8781 C   0  0  0  0  0  0  0  0  0  0  0  0
    5.7427    5.0444   -0.9558 H   0  0  0  0  0  0  0  0  0  0  0  0
    4.6391    5.7037    0.0500 H   0  0  0  0  0  0  0  0  0  0  0  0
    4.7304    6.2573   -1.5376 H   0  0  0  0  0  0  0  0  0  0  0  0
    3.8367    4.2656   -1.2124 C   0  0  0  0  0  0  0  0  0  0  0  0
    3.4271    4.1139   -2.3770 O   0  0  0  0  0  1  0  0  0  0  0  0
    3.4997    3.4902   -0.2959 O   0  0  0  0  0  0  0  0  0  0  0  0
    0.0158    2.8978   -0.0493 C   0  0  0  0  0  0  0  0  0  0  0  0
    0.9038    3.2114    0.2497 H   0  0  0  0  0  0  0  0  0  0  0  0
   -0.7032    3.2346    0.5387 H   0  0  0  0  0  0  0  0  0  0  0  0
   -0.1584    3.3022   -1.0464 H   0  0  0  0  0  0  0  0  0  0  0  0
    0.0028    1.4052   -0.0003 C   0  0  0  0  0  0  0  0  0  0  0  0
   -1.1965    0.7019    0.0013 C   0  0  0  0  0  0  0  0  0  0  0  0
   -2.0620    1.1868    0.0023 H   0  0  0  0  0  0  0  0  0  0  0  0
   -1.2015   -0.7004    0.0000 C   0  0  0  0  0  0  0  0  0  0  0  0
   -2.0808   -1.1875    0.0008 H   0  0  0  0  0  0  0  0  0  0  0  0
   -0.0031   -1.3981   -0.0004 C   0  0  0  0  0  0  0  0  0  0  0  0
   -0.0056   -2.3957   -0.0014 H   0  0  0  0  0  0  0  0  0  0  0  0
    1.2015   -0.6997   -0.0000 C   0  0  0  0  0  0  0  0  0  0  0  0
    2.0806   -1.1985    0.0020 H   0  0  0  0  0  0  0  0  0  0  0  0
    1.1968    0.6911   -0.0006 C   0  0  0  0  0  0  0  0  0  0  0  0
    2.0675    1.1866   -0.0016 H   0  0  0  0  0  0  0  0  0  0  0  0
  1  5  1  0
  5  6  1  0
  5  7  2  0
  1  2  1  0
  1  3  1  0
  1  4  1  0
  8 12  1  0
 12 13  2  0
 13 15  1  0
 15 17  2  0
 17 19  1  0
 19 21  2  0
 21 12  1  0
  8  9  1  0
  8 10  1  0
  8 11  1  0
 13 14  1  0
 15 16  1  0
 17 18  1  0
 19 20  1  0
 21 22  1  0
M  CHG  1   6  -1
M  END
>  <PDB_ID>  (72) 
pdb1aof

>  <RESIDUE_NAME>  (72) 
ASP   PHE

>  <FRAG_NAME>  (72) 
ACET   MBZ

>  <FRAG_ATOM_NUM>  (72) 
fragi: 7  fragj: 15

>  <atom.prop.CHAIN_ID>  (72) 
A A A A A A A Z Z Z Z Z Z Z Z Z Z Z Z Z Z Z

>  <atom.prop.IS_HEAVY_ATOM>  (72) 
1 0 0 0 1 1 1 1 0 0 0 1 1 0 1 0 1 0 1 0 1 0

>  <DIFUSE_FUNC_ATOM>  (72) 
atom 6   atom 7   

>  <FINAL_SINGLE_POINT_ENERGY>  (72) 
0

>  <NONCOV_INTER_ENERGY_QM>  (72) 
0

>  <FF_Energy>  (72) 
-0.88

>  <QM_Energy>  (72) 
-7.51

>  <source>  (72) 
ACET_MBZ_00

>  <Index>  (72) 
2149

$$$$
ACET-pdb1apx-C-ASP-214:MBZ-pdb1apx-C-PHE-217
     RDKit          3D

 22 21  0  0  0  0  0  0  0  0999 V2000
    2.5258    2.6419   -2.5434 C   0  0  0  0  0  0  0  0  0  0  0  0
    3.3398    2.2329   -2.1450 H   0  0  0  0  0  0  0  0  0  0  0  0
    1.9366    3.0043   -1.8293 H   0  0  0  0  0  0  0  0  0  0  0  0
    2.8427    3.4742   -3.1719 H   0  0  0  0  0  0  0  0  0  0  0  0
    1.7724    1.5852   -3.3126 C   0  0  0  0  0  0  0  0  0  0  0  0
    2.4234    0.6721   -3.8695 O   0  0  0  0  0  1  0  0  0  0  0  0
    0.5294    1.6724   -3.3684 O   0  0  0  0  0  0  0  0  0  0  0  0
    0.0044    2.9113    0.0284 C   0  0  0  0  0  0  0  0  0  0  0  0
    0.7445    3.2232   -0.5509 H   0  0  0  0  0  0  0  0  0  0  0  0
    0.1382    3.2016    0.9659 H   0  0  0  0  0  0  0  0  0  0  0  0
   -0.9174    3.3674   -0.3329 H   0  0  0  0  0  0  0  0  0  0  0  0
    0.0000    1.4064    0.0049 C   0  0  0  0  0  0  0  0  0  0  0  0
   -1.1993    0.6917   -0.0014 C   0  0  0  0  0  0  0  0  0  0  0  0
   -2.0659    1.1813   -0.0087 H   0  0  0  0  0  0  0  0  0  0  0  0
   -1.2039   -0.7029   -0.0000 C   0  0  0  0  0  0  0  0  0  0  0  0
   -2.0779   -1.1958    0.0045 H   0  0  0  0  0  0  0  0  0  0  0  0
    0.0019   -1.3980   -0.0028 C   0  0  0  0  0  0  0  0  0  0  0  0
    0.0011   -2.3957   -0.0072 H   0  0  0  0  0  0  0  0  0  0  0  0
    1.2039   -0.6967    0.0000 C   0  0  0  0  0  0  0  0  0  0  0  0
    2.0860   -1.1914    0.0038 H   0  0  0  0  0  0  0  0  0  0  0  0
    1.1974    0.6995   -0.0007 C   0  0  0  0  0  0  0  0  0  0  0  0
    2.0660    1.1945   -0.0062 H   0  0  0  0  0  0  0  0  0  0  0  0
  1  5  1  0
  5  6  1  0
  5  7  2  0
  1  2  1  0
  1  3  1  0
  1  4  1  0
  8 12  1  0
 12 13  2  0
 13 15  1  0
 15 17  2  0
 17 19  1  0
 19 21  2  0
 21 12  1  0
  8  9  1  0
  8 10  1  0
  8 11  1  0
 13 14  1  0
 15 16  1  0
 17 18  1  0
 19 20  1  0
 21 22  1  0
M  CHG  1   6  -1
M  END
>  <PDB_ID>  (73) 
pdb1apx

>  <RESIDUE_NAME>  (73) 
ASP   PHE

>  <FRAG_NAME>  (73) 
ACET   MBZ

>  <FRAG_ATOM_NUM>  (73) 
fragi: 7  fragj: 15

>  <atom.prop.CHAIN_ID>  (73) 
A A A A A A A Z Z Z Z Z Z Z Z Z Z Z Z Z Z Z

>  <atom.prop.IS_HEAVY_ATOM>  (73) 
1 0 0 0 1 1 1 1 0 0 0 1 1 0 1 0 1 0 1 0 1 0

>  <DIFUSE_FUNC_ATOM>  (73) 
atom 6   atom 7   

>  <FINAL_SINGLE_POINT_ENERGY>  (73) 
0

>  <NONCOV_INTER_ENERGY_QM>  (73) 
0

>  <FF_Energy>  (73) 
5.88

>  <QM_Energy>  (73) 
-0.34

>  <source>  (73) 
ACET_MBZ_00

>  <Index>  (73) 
2242

$$$$
ACET-pdb1aq8-C-GLU-180:MBZ-pdb1aq8-C-PHE-220
     RDKit          3D

 22 21  0  0  0  0  0  0  0  0999 V2000
   -4.6312   -0.6831   -1.1378 C   0  0  0  0  0  0  0  0  0  0  0  0
   -5.4690   -0.5362   -1.6278 H   0  0  0  0  0  0  0  0  0  0  0  0
   -3.8801   -0.1797   -1.5202 H   0  0  0  0  0  0  0  0  0  0  0  0
   -4.7758   -0.3559   -0.1082 H   0  0  0  0  0  0  0  0  0  0  0  0
   -4.2928   -2.1596   -1.2395 C   0  0  0  0  0  0  0  0  0  0  0  0
   -4.7432   -2.8126   -2.2009 O   0  0  0  0  0  1  0  0  0  0  0  0
   -3.5686   -2.6708   -0.3603 O   0  0  0  0  0  0  0  0  0  0  0  0
    0.0182    2.9121    0.0440 C   0  0  0  0  0  0  0  0  0  0  0  0
    0.7733    3.2254   -0.5152 H   0  0  0  0  0  0  0  0  0  0  0  0
    0.1344    3.1912    0.9877 H   0  0  0  0  0  0  0  0  0  0  0  0
   -0.8896    3.3844   -0.3312 H   0  0  0  0  0  0  0  0  0  0  0  0
    0.0009    1.4076    0.0021 C   0  0  0  0  0  0  0  0  0  0  0  0
   -1.1974    0.7013   -0.0017 C   0  0  0  0  0  0  0  0  0  0  0  0
   -2.0633    1.1893   -0.0067 H   0  0  0  0  0  0  0  0  0  0  0  0
   -1.2020   -0.6952    0.0000 C   0  0  0  0  0  0  0  0  0  0  0  0
   -2.0813   -1.1858    0.0028 H   0  0  0  0  0  0  0  0  0  0  0  0
   -0.0015   -1.3995    0.0003 C   0  0  0  0  0  0  0  0  0  0  0  0
   -0.0105   -2.3966   -0.0001 H   0  0  0  0  0  0  0  0  0  0  0  0
    1.2020   -0.7062    0.0000 C   0  0  0  0  0  0  0  0  0  0  0  0
    2.0822   -1.2010    0.0019 H   0  0  0  0  0  0  0  0  0  0  0  0
    1.1980    0.6920   -0.0007 C   0  0  0  0  0  0  0  0  0  0  0  0
    2.0673    1.1849   -0.0041 H   0  0  0  0  0  0  0  0  0  0  0  0
  1  5  1  0
  5  6  1  0
  5  7  2  0
  1  2  1  0
  1  3  1  0
  1  4  1  0
  8 12  1  0
 12 13  2  0
 13 15  1  0
 15 17  2  0
 17 19  1  0
 19 21  2  0
 21 12  1  0
  8  9  1  0
  8 10  1  0
  8 11  1  0
 13 14  1  0
 15 16  1  0
 17 18  1  0
 19 20  1  0
 21 22  1  0
M  CHG  1   6  -1
M  END
>  <PDB_ID>  (74) 
pdb1aq8

>  <RESIDUE_NAME>  (74) 
GLU   PHE

>  <FRAG_NAME>  (74) 
ACET   MBZ

>  <FRAG_ATOM_NUM>  (74) 
fragi: 7  fragj: 15

>  <atom.prop.CHAIN_ID>  (74) 
A A A A A A A Z Z Z Z Z Z Z Z Z Z Z Z Z Z Z

>  <atom.prop.IS_HEAVY_ATOM>  (74) 
1 0 0 0 1 1 1 1 0 0 0 1 1 0 1 0 1 0 1 0 1 0

>  <DIFUSE_FUNC_ATOM>  (74) 
atom 6   atom 7   

>  <FINAL_SINGLE_POINT_ENERGY>  (74) 
0

>  <NONCOV_INTER_ENERGY_QM>  (74) 
0

>  <FF_Energy>  (74) 
0.44

>  <QM_Energy>  (74) 
-6.07

>  <source>  (74) 
ACET_MBZ_00

>  <Index>  (74) 
2270

$$$$
ACET-pdb2b3y-A-ASP-352:MBZ-pdb2b3y-A-PHE-281
     RDKit          3D

 22 21  0  0  0  0  0  0  0  0999 V2000
   -3.8971    1.0539   -2.8802 C   0  0  0  0  0  0  0  0  0  0  0  0
   -4.6165    0.3974   -3.0948 H   0  0  0  0  0  0  0  0  0  0  0  0
   -3.0059    0.6100   -2.9298 H   0  0  0  0  0  0  0  0  0  0  0  0
   -3.9226    1.8350   -3.6399 H   0  0  0  0  0  0  0  0  0  0  0  0
   -4.1091    1.5773   -1.4909 C   0  0  0  0  0  0  0  0  0  0  0  0
   -3.8750    2.7832   -1.2148 O   0  0  0  0  0  1  0  0  0  0  0  0
   -4.4880    0.7532   -0.6568 O   0  0  0  0  0  0  0  0  0  0  0  0
    0.0006    2.9283    0.0133 C   0  0  0  0  0  0  0  0  0  0  0  0
   -0.9355    3.2327   -0.0998 H   0  0  0  0  0  0  0  0  0  0  0  0
    0.5684    3.2398   -0.7358 H   0  0  0  0  0  0  0  0  0  0  0  0
    0.3847    3.3862    0.9248 H   0  0  0  0  0  0  0  0  0  0  0  0
    0.0053    1.4172    0.0078 C   0  0  0  0  0  0  0  0  0  0  0  0
   -1.2031    0.7041   -0.0111 C   0  0  0  0  0  0  0  0  0  0  0  0
   -2.0656    1.1905   -0.0336 H   0  0  0  0  0  0  0  0  0  0  0  0
   -1.2067   -0.7026    0.0000 C   0  0  0  0  0  0  0  0  0  0  0  0
   -2.0862   -1.1896    0.0098 H   0  0  0  0  0  0  0  0  0  0  0  0
   -0.0051   -1.4092   -0.0014 C   0  0  0  0  0  0  0  0  0  0  0  0
   -0.0097   -2.4029   -0.0040 H   0  0  0  0  0  0  0  0  0  0  0  0
    1.2067   -0.7089   -0.0000 C   0  0  0  0  0  0  0  0  0  0  0  0
    2.0845   -1.2024   -0.0003 H   0  0  0  0  0  0  0  0  0  0  0  0
    1.2029    0.6993    0.0046 C   0  0  0  0  0  0  0  0  0  0  0  0
    2.0739    1.1869    0.0046 H   0  0  0  0  0  0  0  0  0  0  0  0
  1  5  1  0
  5  6  1  0
  5  7  2  0
  1  2  1  0
  1  3  1  0
  1  4  1  0
  8 12  1  0
 12 13  2  0
 13 15  1  0
 15 17  2  0
 17 19  1  0
 19 21  2  0
 21 12  1  0
  8  9  1  0
  8 10  1  0
  8 11  1  0
 13 14  1  0
 15 16  1  0
 17 18  1  0
 19 20  1  0
 21 22  1  0
M  CHG  1   6  -1
M  END
>  <PDB_ID>  (75) 
pdb2b3y

>  <RESIDUE_NAME>  (75) 
ASP   PHE

>  <FRAG_NAME>  (75) 
ACET   MBZ

>  <FRAG_ATOM_NUM>  (75) 
fragi: 7  fragj: 15

>  <atom.prop.CHAIN_ID>  (75) 
A A A A A A A Z Z Z Z Z Z Z Z Z Z Z Z Z Z Z

>  <atom.prop.IS_HEAVY_ATOM>  (75) 
1 0 0 0 1 1 1 1 0 0 0 1 1 0 1 0 1 0 1 0 1 0

>  <DIFUSE_FUNC_ATOM>  (75) 
atom 6   atom 7   

>  <FINAL_SINGLE_POINT_ENERGY>  (75) 
0

>  <NONCOV_INTER_ENERGY_QM>  (75) 
0

>  <FF_Energy>  (75) 
-2.54

>  <QM_Energy>  (75) 
-8.53

>  <source>  (75) 
ACET_MBZ_00

>  <Index>  (75) 
2277

$$$$
ACET-pdb2b4r-R-GLU-173:MBZ-pdb2b4r-Q-PHE-310
     RDKit          3D

 22 21  0  0  0  0  0  0  0  0999 V2000
    0.6297    0.0914   -4.1214 C   0  0  0  0  0  0  0  0  0  0  0  0
    0.3583   -0.1626   -5.0315 H   0  0  0  0  0  0  0  0  0  0  0  0
    0.4303   -0.6115   -3.4635 H   0  0  0  0  0  0  0  0  0  0  0  0
    1.7058    0.2654   -4.1220 H   0  0  0  0  0  0  0  0  0  0  0  0
   -0.1748    1.3241   -3.7306 C   0  0  0  0  0  0  0  0  0  0  0  0
    0.2522    2.4574   -4.0344 O   0  0  0  0  0  1  0  0  0  0  0  0
   -1.2547    1.1593   -3.1241 O   0  0  0  0  0  0  0  0  0  0  0  0
    0.0003    2.8976   -0.0054 C   0  0  0  0  0  0  0  0  0  0  0  0
   -0.4053    3.1990   -0.8566 H   0  0  0  0  0  0  0  0  0  0  0  0
    0.9375    3.2064    0.0726 H   0  0  0  0  0  0  0  0  0  0  0  0
   -0.5659    3.3476    0.8101 H   0  0  0  0  0  0  0  0  0  0  0  0
   -0.0002    1.3989    0.0066 C   0  0  0  0  0  0  0  0  0  0  0  0
   -1.1971    0.6907   -0.0063 C   0  0  0  0  0  0  0  0  0  0  0  0
   -2.0636    1.1820   -0.0215 H   0  0  0  0  0  0  0  0  0  0  0  0
   -1.1999   -0.6963   -0.0000 C   0  0  0  0  0  0  0  0  0  0  0  0
   -2.0753   -1.1924    0.0036 H   0  0  0  0  0  0  0  0  0  0  0  0
    0.0024   -1.3908    0.0028 C   0  0  0  0  0  0  0  0  0  0  0  0
   -0.0013   -2.3906    0.0063 H   0  0  0  0  0  0  0  0  0  0  0  0
    1.1999   -0.6942    0.0000 C   0  0  0  0  0  0  0  0  0  0  0  0
    2.0825   -1.1922    0.0016 H   0  0  0  0  0  0  0  0  0  0  0  0
    1.1949    0.6917   -0.0030 C   0  0  0  0  0  0  0  0  0  0  0  0
    2.0634    1.1898   -0.0129 H   0  0  0  0  0  0  0  0  0  0  0  0
  1  5  1  0
  5  6  1  0
  5  7  2  0
  1  2  1  0
  1  3  1  0
  1  4  1  0
  8 12  1  0
 12 13  2  0
 13 15  1  0
 15 17  2  0
 17 19  1  0
 19 21  2  0
 21 12  1  0
  8  9  1  0
  8 10  1  0
  8 11  1  0
 13 14  1  0
 15 16  1  0
 17 18  1  0
 19 20  1  0
 21 22  1  0
M  CHG  1   6  -1
M  END
>  <PDB_ID>  (76) 
pdb2b4r

>  <RESIDUE_NAME>  (76) 
GLU   PHE

>  <FRAG_NAME>  (76) 
ACET   MBZ

>  <FRAG_ATOM_NUM>  (76) 
fragi: 7  fragj: 15

>  <atom.prop.CHAIN_ID>  (76) 
A A A A A A A Z Z Z Z Z Z Z Z Z Z Z Z Z Z Z

>  <atom.prop.IS_HEAVY_ATOM>  (76) 
1 0 0 0 1 1 1 1 0 0 0 1 1 0 1 0 1 0 1 0 1 0

>  <DIFUSE_FUNC_ATOM>  (76) 
atom 6   atom 7   

>  <FINAL_SINGLE_POINT_ENERGY>  (76) 
0

>  <NONCOV_INTER_ENERGY_QM>  (76) 
0

>  <FF_Energy>  (76) 
1.68

>  <QM_Energy>  (76) 
-3.51

>  <source>  (76) 
ACET_MBZ_00

>  <Index>  (76) 
2404

$$$$
ACET-pdb2b4r-O-GLU-97:MBZ-pdb2b4r-O-PHE-102
     RDKit          3D

 22 21  0  0  0  0  0  0  0  0999 V2000
    3.4948    4.7805    0.8922 C   0  0  0  0  0  0  0  0  0  0  0  0
    2.6302    5.0052    1.3018 H   0  0  0  0  0  0  0  0  0  0  0  0
    3.5734    5.1260   -0.0253 H   0  0  0  0  0  0  0  0  0  0  0  0
    4.2806    5.2375    1.4936 H   0  0  0  0  0  0  0  0  0  0  0  0
    3.6025    3.2750    0.8312 C   0  0  0  0  0  0  0  0  0  0  0  0
    3.4892    2.6291    1.8938 O   0  0  0  0  0  1  0  0  0  0  0  0
    3.7991    2.7427   -0.2796 O   0  0  0  0  0  0  0  0  0  0  0  0
   -0.0011    2.9146   -0.0003 C   0  0  0  0  0  0  0  0  0  0  0  0
    0.9273    3.2194    0.1408 H   0  0  0  0  0  0  0  0  0  0  0  0
   -0.5974    3.2165    0.7269 H   0  0  0  0  0  0  0  0  0  0  0  0
   -0.3598    3.3548   -0.9307 H   0  0  0  0  0  0  0  0  0  0  0  0
    0.0009    1.4032   -0.0019 C   0  0  0  0  0  0  0  0  0  0  0  0
   -1.1953    0.6906    0.0015 C   0  0  0  0  0  0  0  0  0  0  0  0
   -2.0628    1.1828    0.0040 H   0  0  0  0  0  0  0  0  0  0  0  0
   -1.1989   -0.6945   -0.0000 C   0  0  0  0  0  0  0  0  0  0  0  0
   -2.0770   -1.1907   -0.0014 H   0  0  0  0  0  0  0  0  0  0  0  0
   -0.0005   -1.3925    0.0016 C   0  0  0  0  0  0  0  0  0  0  0  0
   -0.0060   -2.3912    0.0036 H   0  0  0  0  0  0  0  0  0  0  0  0
    1.1989   -0.6983    0.0000 C   0  0  0  0  0  0  0  0  0  0  0  0
    2.0800   -1.1962    0.0012 H   0  0  0  0  0  0  0  0  0  0  0  0
    1.1948    0.6915   -0.0013 C   0  0  0  0  0  0  0  0  0  0  0  0
    2.0651    1.1874   -0.0026 H   0  0  0  0  0  0  0  0  0  0  0  0
  1  5  1  0
  5  6  1  0
  5  7  2  0
  1  2  1  0
  1  3  1  0
  1  4  1  0
  8 12  1  0
 12 13  2  0
 13 15  1  0
 15 17  2  0
 17 19  1  0
 19 21  2  0
 21 12  1  0
  8  9  1  0
  8 10  1  0
  8 11  1  0
 13 14  1  0
 15 16  1  0
 17 18  1  0
 19 20  1  0
 21 22  1  0
M  CHG  1   6  -1
M  END
>  <PDB_ID>  (77) 
pdb2b4r

>  <RESIDUE_NAME>  (77) 
GLU   PHE

>  <FRAG_NAME>  (77) 
ACET   MBZ

>  <FRAG_ATOM_NUM>  (77) 
fragi: 7  fragj: 15

>  <atom.prop.CHAIN_ID>  (77) 
A A A A A A A Z Z Z Z Z Z Z Z Z Z Z Z Z Z Z

>  <atom.prop.IS_HEAVY_ATOM>  (77) 
1 0 0 0 1 1 1 1 0 0 0 1 1 0 1 0 1 0 1 0 1 0

>  <DIFUSE_FUNC_ATOM>  (77) 
atom 6   atom 7   

>  <FINAL_SINGLE_POINT_ENERGY>  (77) 
0

>  <NONCOV_INTER_ENERGY_QM>  (77) 
0

>  <FF_Energy>  (77) 
-1.81

>  <QM_Energy>  (77) 
-8.39

>  <source>  (77) 
ACET_MBZ_00

>  <Index>  (77) 
2416

$$$$
ACET-pdb1aua-A-GLU-77:MBZ-pdb1aua-A-PHE-49
     RDKit          3D

 22 21  0  0  0  0  0  0  0  0999 V2000
    2.1516   -3.5676    1.3984 C   0  0  0  0  0  0  0  0  0  0  0  0
    1.6158   -2.7499    1.3357 H   0  0  0  0  0  0  0  0  0  0  0  0
    3.0279   -3.4159    1.8101 H   0  0  0  0  0  0  0  0  0  0  0  0
    1.6056   -4.2979    1.9957 H   0  0  0  0  0  0  0  0  0  0  0  0
    2.3909   -4.0651   -0.0111 C   0  0  0  0  0  0  0  0  0  0  0  0
    1.4648   -3.9686   -0.8485 O   0  0  0  0  0  1  0  0  0  0  0  0
    3.4996   -4.5665   -0.2757 O   0  0  0  0  0  0  0  0  0  0  0  0
    0.0043    2.9110   -0.0193 C   0  0  0  0  0  0  0  0  0  0  0  0
    0.9359    3.2155    0.1001 H   0  0  0  0  0  0  0  0  0  0  0  0
   -0.5773    3.2257    0.7146 H   0  0  0  0  0  0  0  0  0  0  0  0
   -0.3700    3.3405   -0.9485 H   0  0  0  0  0  0  0  0  0  0  0  0
    0.0008    1.4040   -0.0027 C   0  0  0  0  0  0  0  0  0  0  0  0
   -1.1993    0.6982   -0.0000 C   0  0  0  0  0  0  0  0  0  0  0  0
   -2.0641    1.1870    0.0011 H   0  0  0  0  0  0  0  0  0  0  0  0
   -1.2032   -0.6972   -0.0000 C   0  0  0  0  0  0  0  0  0  0  0  0
   -2.0798   -1.1886   -0.0004 H   0  0  0  0  0  0  0  0  0  0  0  0
   -0.0015   -1.3948    0.0022 C   0  0  0  0  0  0  0  0  0  0  0  0
   -0.0069   -2.3937    0.0054 H   0  0  0  0  0  0  0  0  0  0  0  0
    1.2032   -0.7013    0.0000 C   0  0  0  0  0  0  0  0  0  0  0  0
    2.0819   -1.2001   -0.0003 H   0  0  0  0  0  0  0  0  0  0  0  0
    1.2000    0.6912    0.0005 C   0  0  0  0  0  0  0  0  0  0  0  0
    2.0678    1.1871    0.0023 H   0  0  0  0  0  0  0  0  0  0  0  0
  1  5  1  0
  5  6  1  0
  5  7  2  0
  1  2  1  0
  1  3  1  0
  1  4  1  0
  8 12  1  0
 12 13  2  0
 13 15  1  0
 15 17  2  0
 17 19  1  0
 19 21  2  0
 21 12  1  0
  8  9  1  0
  8 10  1  0
  8 11  1  0
 13 14  1  0
 15 16  1  0
 17 18  1  0
 19 20  1  0
 21 22  1  0
M  CHG  1   6  -1
M  END
>  <PDB_ID>  (78) 
pdb1aua

>  <RESIDUE_NAME>  (78) 
GLU   PHE

>  <FRAG_NAME>  (78) 
ACET   MBZ

>  <FRAG_ATOM_NUM>  (78) 
fragi: 7  fragj: 15

>  <atom.prop.CHAIN_ID>  (78) 
A A A A A A A Z Z Z Z Z Z Z Z Z Z Z Z Z Z Z

>  <atom.prop.IS_HEAVY_ATOM>  (78) 
1 0 0 0 1 1 1 1 0 0 0 1 1 0 1 0 1 0 1 0 1 0

>  <DIFUSE_FUNC_ATOM>  (78) 
atom 6   atom 7   

>  <FINAL_SINGLE_POINT_ENERGY>  (78) 
0

>  <NONCOV_INTER_ENERGY_QM>  (78) 
0

>  <FF_Energy>  (78) 
1.6

>  <QM_Energy>  (78) 
-3.78

>  <source>  (78) 
ACET_MBZ_00

>  <Index>  (78) 
2461

$$$$
ACET-pdb2b6c-A-GLU-67:MBZ-pdb2b6c-A-PHE-26
     RDKit          3D

 22 21  0  0  0  0  0  0  0  0999 V2000
    5.1383    1.7485    1.7508 C   0  0  0  0  0  0  0  0  0  0  0  0
    5.8490    2.0734    1.1471 H   0  0  0  0  0  0  0  0  0  0  0  0
    4.8806    0.8195    1.5392 H   0  0  0  0  0  0  0  0  0  0  0  0
    5.5311    1.7646    2.7674 H   0  0  0  0  0  0  0  0  0  0  0  0
    3.8880    2.6346    1.5022 C   0  0  0  0  0  0  0  0  0  0  0  0
    3.0327    2.8691    2.4124 O   0  0  0  0  0  1  0  0  0  0  0  0
    3.7604    3.1075    0.3627 O   0  0  0  0  0  0  0  0  0  0  0  0
    0.0341    2.9150    0.0456 C   0  0  0  0  0  0  0  0  0  0  0  0
   -0.6791    3.2504   -0.5449 H   0  0  0  0  0  0  0  0  0  0  0  0
    0.9253    3.2182   -0.2425 H   0  0  0  0  0  0  0  0  0  0  0  0
   -0.1446    3.3231    1.0404 H   0  0  0  0  0  0  0  0  0  0  0  0
    0.0107    1.4102    0.0061 C   0  0  0  0  0  0  0  0  0  0  0  0
   -1.1955    0.7182    0.0114 C   0  0  0  0  0  0  0  0  0  0  0  0
   -2.0561    1.1954    0.0213 H   0  0  0  0  0  0  0  0  0  0  0  0
   -1.1961   -0.7013    0.0000 C   0  0  0  0  0  0  0  0  0  0  0  0
   -2.0882   -1.1739    0.0108 H   0  0  0  0  0  0  0  0  0  0  0  0
   -0.0189   -1.3963   -0.0236 C   0  0  0  0  0  0  0  0  0  0  0  0
   -0.0163   -2.3962   -0.0589 H   0  0  0  0  0  0  0  0  0  0  0  0
    1.1961   -0.7059   -0.0000 C   0  0  0  0  0  0  0  0  0  0  0  0
    2.0686   -1.2193    0.0144 H   0  0  0  0  0  0  0  0  0  0  0  0
    1.2037    0.6752    0.0061 C   0  0  0  0  0  0  0  0  0  0  0  0
    2.0766    1.1697    0.0094 H   0  0  0  0  0  0  0  0  0  0  0  0
  1  5  1  0
  5  6  1  0
  5  7  2  0
  1  2  1  0
  1  3  1  0
  1  4  1  0
  8 12  1  0
 12 13  2  0
 13 15  1  0
 15 17  2  0
 17 19  1  0
 19 21  2  0
 21 12  1  0
  8  9  1  0
  8 10  1  0
  8 11  1  0
 13 14  1  0
 15 16  1  0
 17 18  1  0
 19 20  1  0
 21 22  1  0
M  CHG  1   6  -1
M  END
>  <PDB_ID>  (79) 
pdb2b6c

>  <RESIDUE_NAME>  (79) 
GLU   PHE

>  <FRAG_NAME>  (79) 
ACET   MBZ

>  <FRAG_ATOM_NUM>  (79) 
fragi: 7  fragj: 15

>  <atom.prop.CHAIN_ID>  (79) 
A A A A A A A Z Z Z Z Z Z Z Z Z Z Z Z Z Z Z

>  <atom.prop.IS_HEAVY_ATOM>  (79) 
1 0 0 0 1 1 1 1 0 0 0 1 1 0 1 0 1 0 1 0 1 0

>  <DIFUSE_FUNC_ATOM>  (79) 
atom 6   atom 7   

>  <FINAL_SINGLE_POINT_ENERGY>  (79) 
0

>  <NONCOV_INTER_ENERGY_QM>  (79) 
0

>  <FF_Energy>  (79) 
-2.05

>  <QM_Energy>  (79) 
-7.74

>  <source>  (79) 
ACET_MBZ_00

>  <Index>  (79) 
2490

$$$$
ACET-pdb2b6p-A-ASP-220:MBZ-pdb2b6p-A-PHE-146
     RDKit          3D

 22 21  0  0  0  0  0  0  0  0999 V2000
   -6.2430   -0.4185    1.1594 C   0  0  0  0  0  0  0  0  0  0  0  0
   -5.9807   -0.9488    1.9578 H   0  0  0  0  0  0  0  0  0  0  0  0
   -6.9963   -0.8563    0.6826 H   0  0  0  0  0  0  0  0  0  0  0  0
   -6.5833    0.5587    1.5020 H   0  0  0  0  0  0  0  0  0  0  0  0
   -5.0549   -0.3304    0.2201 C   0  0  0  0  0  0  0  0  0  0  0  0
   -5.1058    0.4789   -0.7325 O   0  0  0  0  0  1  0  0  0  0  0  0
   -4.0762   -1.0816    0.4295 O   0  0  0  0  0  0  0  0  0  0  0  0
   -0.0031    2.9076   -0.0285 C   0  0  0  0  0  0  0  0  0  0  0  0
    0.3035    3.2323    0.8535 H   0  0  0  0  0  0  0  0  0  0  0  0
   -0.9236    3.2095   -0.2249 H   0  0  0  0  0  0  0  0  0  0  0  0
    0.6543    3.3336   -0.7863 H   0  0  0  0  0  0  0  0  0  0  0  0
    0.0003    1.4061   -0.0003 C   0  0  0  0  0  0  0  0  0  0  0  0
   -1.1955    0.6965    0.0009 C   0  0  0  0  0  0  0  0  0  0  0  0
   -2.0633    1.1845    0.0005 H   0  0  0  0  0  0  0  0  0  0  0  0
   -1.2010   -0.6988    0.0000 C   0  0  0  0  0  0  0  0  0  0  0  0
   -2.0796   -1.1892    0.0012 H   0  0  0  0  0  0  0  0  0  0  0  0
   -0.0013   -1.3984   -0.0011 C   0  0  0  0  0  0  0  0  0  0  0  0
   -0.0067   -2.3967   -0.0029 H   0  0  0  0  0  0  0  0  0  0  0  0
    1.2010   -0.7028   -0.0000 C   0  0  0  0  0  0  0  0  0  0  0  0
    2.0823   -1.1966    0.0017 H   0  0  0  0  0  0  0  0  0  0  0  0
    1.1965    0.6974    0.0005 C   0  0  0  0  0  0  0  0  0  0  0  0
    2.0658    1.1886    0.0010 H   0  0  0  0  0  0  0  0  0  0  0  0
  1  5  1  0
  5  6  1  0
  5  7  2  0
  1  2  1  0
  1  3  1  0
  1  4  1  0
  8 12  1  0
 12 13  2  0
 13 15  1  0
 15 17  2  0
 17 19  1  0
 19 21  2  0
 21 12  1  0
  8  9  1  0
  8 10  1  0
  8 11  1  0
 13 14  1  0
 15 16  1  0
 17 18  1  0
 19 20  1  0
 21 22  1  0
M  CHG  1   6  -1
M  END
>  <PDB_ID>  (80) 
pdb2b6p

>  <RESIDUE_NAME>  (80) 
ASP   PHE

>  <FRAG_NAME>  (80) 
ACET   MBZ

>  <FRAG_ATOM_NUM>  (80) 
fragi: 7  fragj: 15

>  <atom.prop.CHAIN_ID>  (80) 
A A A A A A A Z Z Z Z Z Z Z Z Z Z Z Z Z Z Z

>  <atom.prop.IS_HEAVY_ATOM>  (80) 
1 0 0 0 1 1 1 1 0 0 0 1 1 0 1 0 1 0 1 0 1 0

>  <DIFUSE_FUNC_ATOM>  (80) 
atom 6   atom 7   

>  <FINAL_SINGLE_POINT_ENERGY>  (80) 
0

>  <NONCOV_INTER_ENERGY_QM>  (80) 
0

>  <FF_Energy>  (80) 
2.8

>  <QM_Energy>  (80) 
-7.03

>  <source>  (80) 
ACET_MBZ_00

>  <Index>  (80) 
2512

$$$$
ACET-pdb1av4-A-GLU-301:MBZ-pdb1av4-A-PHE-297
     RDKit          3D

 22 21  0  0  0  0  0  0  0  0999 V2000
   -2.0054    4.4539   -2.9206 C   0  0  0  0  0  0  0  0  0  0  0  0
   -2.3644    4.3935   -3.8379 H   0  0  0  0  0  0  0  0  0  0  0  0
   -1.0797    4.1133   -2.8700 H   0  0  0  0  0  0  0  0  0  0  0  0
   -2.0030    5.5025   -2.6229 H   0  0  0  0  0  0  0  0  0  0  0  0
   -2.8627    3.5748   -2.0367 C   0  0  0  0  0  0  0  0  0  0  0  0
   -3.0531    3.9040   -0.8457 O   0  0  0  0  0  1  0  0  0  0  0  0
   -3.3254    2.5330   -2.5372 O   0  0  0  0  0  0  0  0  0  0  0  0
   -0.0004    2.9040   -0.0131 C   0  0  0  0  0  0  0  0  0  0  0  0
   -0.7751    3.2061   -0.5494 H   0  0  0  0  0  0  0  0  0  0  0  0
    0.8523    3.2076   -0.4122 H   0  0  0  0  0  0  0  0  0  0  0  0
   -0.0841    3.3539    0.9763 H   0  0  0  0  0  0  0  0  0  0  0  0
    0.0002    1.4030   -0.0007 C   0  0  0  0  0  0  0  0  0  0  0  0
   -1.1923    0.6945    0.0002 C   0  0  0  0  0  0  0  0  0  0  0  0
   -2.0617    1.1829   -0.0005 H   0  0  0  0  0  0  0  0  0  0  0  0
   -1.1997   -0.6991    0.0000 C   0  0  0  0  0  0  0  0  0  0  0  0
   -2.0786   -1.1885    0.0019 H   0  0  0  0  0  0  0  0  0  0  0  0
   -0.0029   -1.3958   -0.0004 C   0  0  0  0  0  0  0  0  0  0  0  0
   -0.0045   -2.3938   -0.0016 H   0  0  0  0  0  0  0  0  0  0  0  0
    1.1997   -0.6975    0.0000 C   0  0  0  0  0  0  0  0  0  0  0  0
    2.0804   -1.1943    0.0012 H   0  0  0  0  0  0  0  0  0  0  0  0
    1.1949    0.6950    0.0009 C   0  0  0  0  0  0  0  0  0  0  0  0
    2.0637    1.1897    0.0018 H   0  0  0  0  0  0  0  0  0  0  0  0
  1  5  1  0
  5  6  1  0
  5  7  2  0
  1  2  1  0
  1  3  1  0
  1  4  1  0
  8 12  1  0
 12 13  2  0
 13 15  1  0
 15 17  2  0
 17 19  1  0
 19 21  2  0
 21 12  1  0
  8  9  1  0
  8 10  1  0
  8 11  1  0
 13 14  1  0
 15 16  1  0
 17 18  1  0
 19 20  1  0
 21 22  1  0
M  CHG  1   6  -1
M  END
>  <PDB_ID>  (81) 
pdb1av4

>  <RESIDUE_NAME>  (81) 
GLU   PHE

>  <FRAG_NAME>  (81) 
ACET   MBZ

>  <FRAG_ATOM_NUM>  (81) 
fragi: 7  fragj: 15

>  <atom.prop.CHAIN_ID>  (81) 
A A A A A A A Z Z Z Z Z Z Z Z Z Z Z Z Z Z Z

>  <atom.prop.IS_HEAVY_ATOM>  (81) 
1 0 0 0 1 1 1 1 0 0 0 1 1 0 1 0 1 0 1 0 1 0

>  <DIFUSE_FUNC_ATOM>  (81) 
atom 6   atom 7   

>  <FINAL_SINGLE_POINT_ENERGY>  (81) 
0

>  <NONCOV_INTER_ENERGY_QM>  (81) 
0

>  <FF_Energy>  (81) 
-1.32

>  <QM_Energy>  (81) 
-7.0

>  <source>  (81) 
ACET_MBZ_00

>  <Index>  (81) 
2626

$$$$
ACET-pdb2b4r-P-GLU-173:MBZ-pdb2b4r-O-PHE-310
     RDKit          3D

 22 21  0  0  0  0  0  0  0  0999 V2000
    0.3738    0.0671   -4.1541 C   0  0  0  0  0  0  0  0  0  0  0  0
    0.2096   -0.0001   -5.1201 H   0  0  0  0  0  0  0  0  0  0  0  0
    0.0764   -0.7312   -3.6658 H   0  0  0  0  0  0  0  0  0  0  0  0
    1.4468    0.1812   -3.9999 H   0  0  0  0  0  0  0  0  0  0  0  0
   -0.4258    1.2498   -3.6313 C   0  0  0  0  0  0  0  0  0  0  0  0
    0.1630    2.3230   -3.3844 O   0  0  0  0  0  1  0  0  0  0  0  0
   -1.6519    1.1025   -3.4620 O   0  0  0  0  0  0  0  0  0  0  0  0
   -0.0004    2.9102   -0.0170 C   0  0  0  0  0  0  0  0  0  0  0  0
   -0.4219    3.2018   -0.8637 H   0  0  0  0  0  0  0  0  0  0  0  0
    0.9397    3.2155    0.0365 H   0  0  0  0  0  0  0  0  0  0  0  0
   -0.5479    3.3727    0.8043 H   0  0  0  0  0  0  0  0  0  0  0  0
   -0.0008    1.4031    0.0058 C   0  0  0  0  0  0  0  0  0  0  0  0
   -1.1955    0.6917   -0.0032 C   0  0  0  0  0  0  0  0  0  0  0  0
   -2.0634    1.1806   -0.0131 H   0  0  0  0  0  0  0  0  0  0  0  0
   -1.2000   -0.7008   -0.0000 C   0  0  0  0  0  0  0  0  0  0  0  0
   -2.0763   -1.1944    0.0006 H   0  0  0  0  0  0  0  0  0  0  0  0
    0.0019   -1.3956    0.0040 C   0  0  0  0  0  0  0  0  0  0  0  0
    0.0012   -2.3932    0.0092 H   0  0  0  0  0  0  0  0  0  0  0  0
    1.2000   -0.6946   -0.0000 C   0  0  0  0  0  0  0  0  0  0  0  0
    2.0832   -1.1911    0.0032 H   0  0  0  0  0  0  0  0  0  0  0  0
    1.1945    0.6962   -0.0066 C   0  0  0  0  0  0  0  0  0  0  0  0
    2.0627    1.1926   -0.0211 H   0  0  0  0  0  0  0  0  0  0  0  0
  1  5  1  0
  5  6  1  0
  5  7  2  0
  1  2  1  0
  1  3  1  0
  1  4  1  0
  8 12  1  0
 12 13  2  0
 13 15  1  0
 15 17  2  0
 17 19  1  0
 19 21  2  0
 21 12  1  0
  8  9  1  0
  8 10  1  0
  8 11  1  0
 13 14  1  0
 15 16  1  0
 17 18  1  0
 19 20  1  0
 21 22  1  0
M  CHG  1   6  -1
M  END
>  <PDB_ID>  (82) 
pdb2b4r

>  <RESIDUE_NAME>  (82) 
GLU   PHE

>  <FRAG_NAME>  (82) 
ACET   MBZ

>  <FRAG_ATOM_NUM>  (82) 
fragi: 7  fragj: 15

>  <atom.prop.CHAIN_ID>  (82) 
A A A A A A A Z Z Z Z Z Z Z Z Z Z Z Z Z Z Z

>  <atom.prop.IS_HEAVY_ATOM>  (82) 
1 0 0 0 1 1 1 1 0 0 0 1 1 0 1 0 1 0 1 0 1 0

>  <DIFUSE_FUNC_ATOM>  (82) 
atom 6   atom 7   

>  <FINAL_SINGLE_POINT_ENERGY>  (82) 
0

>  <NONCOV_INTER_ENERGY_QM>  (82) 
0

>  <FF_Energy>  (82) 
1.01

>  <QM_Energy>  (82) 
-4.74

>  <source>  (82) 
ACET_MBZ_00

>  <Index>  (82) 
2630

$$$$
ACET-pdb1avq-C-GLU-223:MBZ-pdb1avq-C-PHE-219
     RDKit          3D

 22 21  0  0  0  0  0  0  0  0999 V2000
    4.3759    2.9742    2.5843 C   0  0  0  0  0  0  0  0  0  0  0  0
    4.8371    2.8462    3.4526 H   0  0  0  0  0  0  0  0  0  0  0  0
    4.1451    3.9276    2.4436 H   0  0  0  0  0  0  0  0  0  0  0  0
    5.0531    2.6639    1.7886 H   0  0  0  0  0  0  0  0  0  0  0  0
    3.0860    2.1984    2.6361 C   0  0  0  0  0  0  0  0  0  0  0  0
    3.3142    0.9581    2.9781 O   0  0  0  0  0  1  0  0  0  0  0  0
    1.9689    2.7040    2.5328 O   0  0  0  0  0  0  0  0  0  0  0  0
   -0.0708    2.8570   -0.0164 C   0  0  0  0  0  0  0  0  0  0  0  0
   -0.6674    3.1400   -0.7311 H   0  0  0  0  0  0  0  0  0  0  0  0
    0.8332    3.2075   -0.0904 H   0  0  0  0  0  0  0  0  0  0  0  0
   -0.4891    3.2080    0.9269 H   0  0  0  0  0  0  0  0  0  0  0  0
   -0.0124    1.3800    0.0023 C   0  0  0  0  0  0  0  0  0  0  0  0
   -1.2137    0.6789   -0.0248 C   0  0  0  0  0  0  0  0  0  0  0  0
   -2.0765    1.1702   -0.0638 H   0  0  0  0  0  0  0  0  0  0  0  0
   -1.2221   -0.7164   -0.0000 C   0  0  0  0  0  0  0  0  0  0  0  0
   -2.0758   -1.2164    0.0236 H   0  0  0  0  0  0  0  0  0  0  0  0
    0.0084   -1.3770   -0.0074 C   0  0  0  0  0  0  0  0  0  0  0  0
    0.0203   -2.3872   -0.0192 H   0  0  0  0  0  0  0  0  0  0  0  0
    1.2221   -0.6797    0.0000 C   0  0  0  0  0  0  0  0  0  0  0  0
    2.0964   -1.1801   -0.0150 H   0  0  0  0  0  0  0  0  0  0  0  0
    1.2177    0.7141    0.0299 C   0  0  0  0  0  0  0  0  0  0  0  0
    2.0589    1.2195    0.0687 H   0  0  0  0  0  0  0  0  0  0  0  0
  1  5  1  0
  5  6  1  0
  5  7  2  0
  1  2  1  0
  1  3  1  0
  1  4  1  0
  8 12  1  0
 12 13  2  0
 13 15  1  0
 15 17  2  0
 17 19  1  0
 19 21  2  0
 21 12  1  0
  8  9  1  0
  8 10  1  0
  8 11  1  0
 13 14  1  0
 15 16  1  0
 17 18  1  0
 19 20  1  0
 21 22  1  0
M  CHG  1   6  -1
M  END
>  <PDB_ID>  (83) 
pdb1avq

>  <RESIDUE_NAME>  (83) 
GLU   PHE

>  <FRAG_NAME>  (83) 
ACET   MBZ

>  <FRAG_ATOM_NUM>  (83) 
fragi: 7  fragj: 15

>  <atom.prop.CHAIN_ID>  (83) 
A A A A A A A Z Z Z Z Z Z Z Z Z Z Z Z Z Z Z

>  <atom.prop.IS_HEAVY_ATOM>  (83) 
1 0 0 0 1 1 1 1 0 0 0 1 1 0 1 0 1 0 1 0 1 0

>  <DIFUSE_FUNC_ATOM>  (83) 
atom 6   atom 7   

>  <FINAL_SINGLE_POINT_ENERGY>  (83) 
0

>  <NONCOV_INTER_ENERGY_QM>  (83) 
0

>  <FF_Energy>  (83) 
0.54

>  <QM_Energy>  (83) 
-4.62

>  <source>  (83) 
ACET_MBZ_00

>  <Index>  (83) 
2665

$$$$
ACET-pdb1aw7-D-ASP-730:MBZ-pdb1aw7-D-PHE-772
     RDKit          3D

 22 21  0  0  0  0  0  0  0  0999 V2000
   -2.3684    0.9707   -3.6200 C   0  0  0  0  0  0  0  0  0  0  0  0
   -2.4700    0.1918   -3.0016 H   0  0  0  0  0  0  0  0  0  0  0  0
   -1.4262    1.0157   -3.9471 H   0  0  0  0  0  0  0  0  0  0  0  0
   -3.0307    0.8300   -4.4741 H   0  0  0  0  0  0  0  0  0  0  0  0
   -2.6581    2.2377   -2.8350 C   0  0  0  0  0  0  0  0  0  0  0  0
   -3.7324    2.2874   -2.1756 O   0  0  0  0  0  1  0  0  0  0  0  0
   -1.7933    3.1560   -2.7547 O   0  0  0  0  0  0  0  0  0  0  0  0
   -0.0555    2.8940    0.0060 C   0  0  0  0  0  0  0  0  0  0  0  0
   -0.6968    3.1937   -0.6788 H   0  0  0  0  0  0  0  0  0  0  0  0
    0.8558    3.2229   -0.1741 H   0  0  0  0  0  0  0  0  0  0  0  0
   -0.3758    3.2964    0.9671 H   0  0  0  0  0  0  0  0  0  0  0  0
   -0.0253    1.4062   -0.0002 C   0  0  0  0  0  0  0  0  0  0  0  0
   -1.2193    0.6899   -0.0007 C   0  0  0  0  0  0  0  0  0  0  0  0
   -2.0900    1.1641   -0.0025 H   0  0  0  0  0  0  0  0  0  0  0  0
   -1.2137   -0.7227   -0.0000 C   0  0  0  0  0  0  0  0  0  0  0  0
   -2.0600   -1.2303    0.0038 H   0  0  0  0  0  0  0  0  0  0  0  0
    0.0443   -1.4044   -0.0026 C   0  0  0  0  0  0  0  0  0  0  0  0
    0.0424   -2.3986   -0.0070 H   0  0  0  0  0  0  0  0  0  0  0  0
    1.2137   -0.6816    0.0000 C   0  0  0  0  0  0  0  0  0  0  0  0
    2.1161   -1.1617    0.0014 H   0  0  0  0  0  0  0  0  0  0  0  0
    1.2002    0.7125    0.0035 C   0  0  0  0  0  0  0  0  0  0  0  0
    2.0506    1.2215    0.0080 H   0  0  0  0  0  0  0  0  0  0  0  0
  1  5  1  0
  5  6  1  0
  5  7  2  0
  1  2  1  0
  1  3  1  0
  1  4  1  0
  8 12  1  0
 12 13  2  0
 13 15  1  0
 15 17  2  0
 17 19  1  0
 19 21  2  0
 21 12  1  0
  8  9  1  0
  8 10  1  0
  8 11  1  0
 13 14  1  0
 15 16  1  0
 17 18  1  0
 19 20  1  0
 21 22  1  0
M  CHG  1   6  -1
M  END
>  <PDB_ID>  (84) 
pdb1aw7

>  <RESIDUE_NAME>  (84) 
ASP   PHE

>  <FRAG_NAME>  (84) 
ACET   MBZ

>  <FRAG_ATOM_NUM>  (84) 
fragi: 7  fragj: 15

>  <atom.prop.CHAIN_ID>  (84) 
A A A A A A A Z Z Z Z Z Z Z Z Z Z Z Z Z Z Z

>  <atom.prop.IS_HEAVY_ATOM>  (84) 
1 0 0 0 1 1 1 1 0 0 0 1 1 0 1 0 1 0 1 0 1 0

>  <DIFUSE_FUNC_ATOM>  (84) 
atom 6   atom 7   

>  <FINAL_SINGLE_POINT_ENERGY>  (84) 
0

>  <NONCOV_INTER_ENERGY_QM>  (84) 
0

>  <FF_Energy>  (84) 
-1.27

>  <QM_Energy>  (84) 
-7.99

>  <source>  (84) 
ACET_MBZ_00

>  <Index>  (84) 
2692

$$$$
ACET-pdb2b9w-A-ASP-146:MBZ-pdb2b9w-A-PHE-173
     RDKit          3D

 22 21  0  0  0  0  0  0  0  0999 V2000
   -1.5229    5.9864   -2.6725 C   0  0  0  0  0  0  0  0  0  0  0  0
   -0.7556    6.4238   -2.2280 H   0  0  0  0  0  0  0  0  0  0  0  0
   -2.1818    6.6510   -2.9885 H   0  0  0  0  0  0  0  0  0  0  0  0
   -1.1489    5.4383   -3.5372 H   0  0  0  0  0  0  0  0  0  0  0  0
   -2.2140    5.0644   -1.6509 C   0  0  0  0  0  0  0  0  0  0  0  0
   -2.7457    3.9912   -2.0361 O   0  0  0  0  0  1  0  0  0  0  0  0
   -2.1874    5.4220   -0.4686 O   0  0  0  0  0  0  0  0  0  0  0  0
   -0.0587    2.9261    0.0080 C   0  0  0  0  0  0  0  0  0  0  0  0
   -0.8404    3.1961    0.5573 H   0  0  0  0  0  0  0  0  0  0  0  0
   -0.1756    3.2124   -0.9352 H   0  0  0  0  0  0  0  0  0  0  0  0
    0.8272    3.4197    0.4077 H   0  0  0  0  0  0  0  0  0  0  0  0
   -0.0088    1.3996    0.0138 C   0  0  0  0  0  0  0  0  0  0  0  0
   -1.2056    0.6801   -0.0013 C   0  0  0  0  0  0  0  0  0  0  0  0
   -2.0739    1.1693   -0.0144 H   0  0  0  0  0  0  0  0  0  0  0  0
   -1.2101   -0.7127    0.0000 C   0  0  0  0  0  0  0  0  0  0  0  0
   -2.0705   -1.2134    0.0144 H   0  0  0  0  0  0  0  0  0  0  0  0
    0.0145   -1.3876   -0.0178 C   0  0  0  0  0  0  0  0  0  0  0  0
    0.0236   -2.3878   -0.0436 H   0  0  0  0  0  0  0  0  0  0  0  0
    1.2101   -0.6758   -0.0000 C   0  0  0  0  0  0  0  0  0  0  0  0
    2.0949   -1.1786    0.0101 H   0  0  0  0  0  0  0  0  0  0  0  0
    1.1999    0.6963    0.0053 C   0  0  0  0  0  0  0  0  0  0  0  0
    2.0594    1.2087    0.0022 H   0  0  0  0  0  0  0  0  0  0  0  0
  1  5  1  0
  5  6  1  0
  5  7  2  0
  1  2  1  0
  1  3  1  0
  1  4  1  0
  8 12  1  0
 12 13  2  0
 13 15  1  0
 15 17  2  0
 17 19  1  0
 19 21  2  0
 21 12  1  0
  8  9  1  0
  8 10  1  0
  8 11  1  0
 13 14  1  0
 15 16  1  0
 17 18  1  0
 19 20  1  0
 21 22  1  0
M  CHG  1   6  -1
M  END
>  <PDB_ID>  (85) 
pdb2b9w

>  <RESIDUE_NAME>  (85) 
ASP   PHE

>  <FRAG_NAME>  (85) 
ACET   MBZ

>  <FRAG_ATOM_NUM>  (85) 
fragi: 7  fragj: 15

>  <atom.prop.CHAIN_ID>  (85) 
A A A A A A A Z Z Z Z Z Z Z Z Z Z Z Z Z Z Z

>  <atom.prop.IS_HEAVY_ATOM>  (85) 
1 0 0 0 1 1 1 1 0 0 0 1 1 0 1 0 1 0 1 0 1 0

>  <DIFUSE_FUNC_ATOM>  (85) 
atom 6   atom 7   

>  <FINAL_SINGLE_POINT_ENERGY>  (85) 
0

>  <NONCOV_INTER_ENERGY_QM>  (85) 
0

>  <FF_Energy>  (85) 
-1.47

>  <QM_Energy>  (85) 
-6.48

>  <source>  (85) 
ACET_MBZ_00

>  <Index>  (85) 
2701

$$$$
ACET-pdb2bce-A-ASP-232:MBZ-pdb2bce-A-PHE-235
     RDKit          3D

 22 21  0  0  0  0  0  0  0  0999 V2000
    1.5541    5.1779   -3.4500 C   0  0  0  0  0  0  0  0  0  0  0  0
    1.3630    5.3306   -4.4147 H   0  0  0  0  0  0  0  0  0  0  0  0
    2.0637    4.3324   -3.3284 H   0  0  0  0  0  0  0  0  0  0  0  0
    2.1769    5.9999   -3.0971 H   0  0  0  0  0  0  0  0  0  0  0  0
    0.2443    5.0705   -2.7036 C   0  0  0  0  0  0  0  0  0  0  0  0
   -0.1648    6.0510   -2.0392 O   0  0  0  0  0  1  0  0  0  0  0  0
   -0.3788    3.9897   -2.7893 O   0  0  0  0  0  0  0  0  0  0  0  0
    0.0038    2.9073    0.0448 C   0  0  0  0  0  0  0  0  0  0  0  0
   -0.7739    3.2311   -0.4712 H   0  0  0  0  0  0  0  0  0  0  0  0
    0.8537    3.2258   -0.3455 H   0  0  0  0  0  0  0  0  0  0  0  0
   -0.0727    3.3213    1.0503 H   0  0  0  0  0  0  0  0  0  0  0  0
    0.0022    1.4038    0.0012 C   0  0  0  0  0  0  0  0  0  0  0  0
   -1.1974    0.6934   -0.0015 C   0  0  0  0  0  0  0  0  0  0  0  0
   -2.0625    1.1843   -0.0060 H   0  0  0  0  0  0  0  0  0  0  0  0
   -1.2016   -0.6987    0.0000 C   0  0  0  0  0  0  0  0  0  0  0  0
   -2.0785   -1.1923    0.0007 H   0  0  0  0  0  0  0  0  0  0  0  0
   -0.0005   -1.3953    0.0020 C   0  0  0  0  0  0  0  0  0  0  0  0
   -0.0038   -2.3931    0.0044 H   0  0  0  0  0  0  0  0  0  0  0  0
    1.2016   -0.6984   -0.0000 C   0  0  0  0  0  0  0  0  0  0  0  0
    2.0821   -1.1943    0.0011 H   0  0  0  0  0  0  0  0  0  0  0  0
    1.1956    0.6952   -0.0018 C   0  0  0  0  0  0  0  0  0  0  0  0
    2.0663    1.1901   -0.0060 H   0  0  0  0  0  0  0  0  0  0  0  0
  1  5  1  0
  5  6  1  0
  5  7  2  0
  1  2  1  0
  1  3  1  0
  1  4  1  0
  8 12  1  0
 12 13  2  0
 13 15  1  0
 15 17  2  0
 17 19  1  0
 19 21  2  0
 21 12  1  0
  8  9  1  0
  8 10  1  0
  8 11  1  0
 13 14  1  0
 15 16  1  0
 17 18  1  0
 19 20  1  0
 21 22  1  0
M  CHG  1   6  -1
M  END
>  <PDB_ID>  (86) 
pdb2bce

>  <RESIDUE_NAME>  (86) 
ASP   PHE

>  <FRAG_NAME>  (86) 
ACET   MBZ

>  <FRAG_ATOM_NUM>  (86) 
fragi: 7  fragj: 15

>  <atom.prop.CHAIN_ID>  (86) 
A A A A A A A Z Z Z Z Z Z Z Z Z Z Z Z Z Z Z

>  <atom.prop.IS_HEAVY_ATOM>  (86) 
1 0 0 0 1 1 1 1 0 0 0 1 1 0 1 0 1 0 1 0 1 0

>  <DIFUSE_FUNC_ATOM>  (86) 
atom 6   atom 7   

>  <FINAL_SINGLE_POINT_ENERGY>  (86) 
0

>  <NONCOV_INTER_ENERGY_QM>  (86) 
0

>  <FF_Energy>  (86) 
0.29

>  <QM_Energy>  (86) 
-4.86

>  <source>  (86) 
ACET_MBZ_00

>  <Index>  (86) 
2783

$$$$
ACET-pdb2bco-A-ASP-296:MBZ-pdb2bco-A-PHE-273
     RDKit          3D

 22 21  0  0  0  0  0  0  0  0999 V2000
   -4.6853    1.0447    1.0133 C   0  0  0  0  0  0  0  0  0  0  0  0
   -4.2611    0.1748    1.2384 H   0  0  0  0  0  0  0  0  0  0  0  0
   -5.6687    0.9967    1.1420 H   0  0  0  0  0  0  0  0  0  0  0  0
   -4.2926    1.7972    1.6971 H   0  0  0  0  0  0  0  0  0  0  0  0
   -4.3967    1.3679   -0.4385 C   0  0  0  0  0  0  0  0  0  0  0  0
   -4.4853    2.5577   -0.8204 O   0  0  0  0  0  1  0  0  0  0  0  0
   -4.0921    0.4273   -1.2030 O   0  0  0  0  0  0  0  0  0  0  0  0
    0.0003    2.9122   -0.0321 C   0  0  0  0  0  0  0  0  0  0  0  0
   -0.8364    3.2117   -0.4709 H   0  0  0  0  0  0  0  0  0  0  0  0
    0.7951    3.2080   -0.5445 H   0  0  0  0  0  0  0  0  0  0  0  0
    0.0461    3.3863    0.9483 H   0  0  0  0  0  0  0  0  0  0  0  0
   -0.0016    1.4105    0.0004 C   0  0  0  0  0  0  0  0  0  0  0  0
   -1.1991    0.7013    0.0019 C   0  0  0  0  0  0  0  0  0  0  0  0
   -2.0663    1.1878    0.0031 H   0  0  0  0  0  0  0  0  0  0  0  0
   -1.2040   -0.6985    0.0000 C   0  0  0  0  0  0  0  0  0  0  0  0
   -2.0808   -1.1897    0.0015 H   0  0  0  0  0  0  0  0  0  0  0  0
    0.0025   -1.4046   -0.0016 C   0  0  0  0  0  0  0  0  0  0  0  0
   -0.0067   -2.3997   -0.0043 H   0  0  0  0  0  0  0  0  0  0  0  0
    1.2040   -0.7070   -0.0000 C   0  0  0  0  0  0  0  0  0  0  0  0
    2.0867   -1.1969    0.0032 H   0  0  0  0  0  0  0  0  0  0  0  0
    1.1982    0.6982   -0.0006 C   0  0  0  0  0  0  0  0  0  0  0  0
    2.0670    1.1897   -0.0025 H   0  0  0  0  0  0  0  0  0  0  0  0
  1  5  1  0
  5  6  1  0
  5  7  2  0
  1  2  1  0
  1  3  1  0
  1  4  1  0
  8 12  1  0
 12 13  2  0
 13 15  1  0
 15 17  2  0
 17 19  1  0
 19 21  2  0
 21 12  1  0
  8  9  1  0
  8 10  1  0
  8 11  1  0
 13 14  1  0
 15 16  1  0
 17 18  1  0
 19 20  1  0
 21 22  1  0
M  CHG  1   6  -1
M  END
>  <PDB_ID>  (87) 
pdb2bco

>  <RESIDUE_NAME>  (87) 
ASP   PHE

>  <FRAG_NAME>  (87) 
ACET   MBZ

>  <FRAG_ATOM_NUM>  (87) 
fragi: 7  fragj: 15

>  <atom.prop.CHAIN_ID>  (87) 
A A A A A A A Z Z Z Z Z Z Z Z Z Z Z Z Z Z Z

>  <atom.prop.IS_HEAVY_ATOM>  (87) 
1 0 0 0 1 1 1 1 0 0 0 1 1 0 1 0 1 0 1 0 1 0

>  <DIFUSE_FUNC_ATOM>  (87) 
atom 6   atom 7   

>  <FINAL_SINGLE_POINT_ENERGY>  (87) 
0

>  <NONCOV_INTER_ENERGY_QM>  (87) 
0

>  <FF_Energy>  (87) 
0.25

>  <QM_Energy>  (87) 
-6.07

>  <source>  (87) 
ACET_MBZ_00

>  <Index>  (87) 
2792

$$$$
ACET-pdb2bdg-A-GLU-38:MBZ-pdb2bdg-A-PHE-41
     RDKit          3D

 22 21  0  0  0  0  0  0  0  0999 V2000
   -4.2736    4.3105    1.9262 C   0  0  0  0  0  0  0  0  0  0  0  0
   -4.8742    4.1259    2.6848 H   0  0  0  0  0  0  0  0  0  0  0  0
   -4.1171    3.5065    1.3781 H   0  0  0  0  0  0  0  0  0  0  0  0
   -4.7478    5.0628    1.2958 H   0  0  0  0  0  0  0  0  0  0  0  0
   -2.9499    4.7566    2.4808 C   0  0  0  0  0  0  0  0  0  0  0  0
   -2.9207    5.7625    3.2215 O   0  0  0  0  0  1  0  0  0  0  0  0
   -1.9378    4.0944    2.1710 O   0  0  0  0  0  0  0  0  0  0  0  0
    0.0056    2.9165   -0.0199 C   0  0  0  0  0  0  0  0  0  0  0  0
    0.9088    3.2232    0.2335 H   0  0  0  0  0  0  0  0  0  0  0  0
   -0.6783    3.2311    0.6191 H   0  0  0  0  0  0  0  0  0  0  0  0
   -0.2283    3.3495   -0.9925 H   0  0  0  0  0  0  0  0  0  0  0  0
    0.0023    1.4050   -0.0019 C   0  0  0  0  0  0  0  0  0  0  0  0
   -1.1932    0.6963   -0.0007 C   0  0  0  0  0  0  0  0  0  0  0  0
   -2.0614    1.1877   -0.0017 H   0  0  0  0  0  0  0  0  0  0  0  0
   -1.2031   -0.6959   -0.0000 C   0  0  0  0  0  0  0  0  0  0  0  0
   -2.0854   -1.1829    0.0009 H   0  0  0  0  0  0  0  0  0  0  0  0
   -0.0111   -1.3964    0.0009 C   0  0  0  0  0  0  0  0  0  0  0  0
   -0.0127   -2.3944    0.0020 H   0  0  0  0  0  0  0  0  0  0  0  0
    1.2031   -0.7014    0.0000 C   0  0  0  0  0  0  0  0  0  0  0  0
    2.0773   -1.2040    0.0000 H   0  0  0  0  0  0  0  0  0  0  0  0
    1.2020    0.6924    0.0017 C   0  0  0  0  0  0  0  0  0  0  0  0
    2.0694    1.1870    0.0043 H   0  0  0  0  0  0  0  0  0  0  0  0
  1  5  1  0
  5  6  1  0
  5  7  2  0
  1  2  1  0
  1  3  1  0
  1  4  1  0
  8 12  1  0
 12 13  2  0
 13 15  1  0
 15 17  2  0
 17 19  1  0
 19 21  2  0
 21 12  1  0
  8  9  1  0
  8 10  1  0
  8 11  1  0
 13 14  1  0
 15 16  1  0
 17 18  1  0
 19 20  1  0
 21 22  1  0
M  CHG  1   6  -1
M  END
>  <PDB_ID>  (88) 
pdb2bdg

>  <RESIDUE_NAME>  (88) 
GLU   PHE

>  <FRAG_NAME>  (88) 
ACET   MBZ

>  <FRAG_ATOM_NUM>  (88) 
fragi: 7  fragj: 15

>  <atom.prop.CHAIN_ID>  (88) 
A A A A A A A Z Z Z Z Z Z Z Z Z Z Z Z Z Z Z

>  <atom.prop.IS_HEAVY_ATOM>  (88) 
1 0 0 0 1 1 1 1 0 0 0 1 1 0 1 0 1 0 1 0 1 0

>  <DIFUSE_FUNC_ATOM>  (88) 
atom 6   atom 7   

>  <FINAL_SINGLE_POINT_ENERGY>  (88) 
0

>  <NONCOV_INTER_ENERGY_QM>  (88) 
0

>  <FF_Energy>  (88) 
1.06

>  <QM_Energy>  (88) 
-5.71

>  <source>  (88) 
ACET_MBZ_00

>  <Index>  (88) 
2832

$$$$
ACET-pdb1b0p-A-GLU-1164:MBZ-pdb1b0p-A-PHE-1160
     RDKit          3D

 22 21  0  0  0  0  0  0  0  0999 V2000
    3.4510   -0.6908    2.5910 C   0  0  0  0  0  0  0  0  0  0  0  0
    3.4467   -1.6621    2.7397 H   0  0  0  0  0  0  0  0  0  0  0  0
    2.5508   -0.3360    2.4159 H   0  0  0  0  0  0  0  0  0  0  0  0
    3.8515   -0.2044    3.4804 H   0  0  0  0  0  0  0  0  0  0  0  0
    4.2886   -0.4336    1.3245 C   0  0  0  0  0  0  0  0  0  0  0  0
    5.0248    0.5644    1.2500 O   0  0  0  0  0  1  0  0  0  0  0  0
    4.1986   -1.2319    0.3777 O   0  0  0  0  0  0  0  0  0  0  0  0
   -0.0067    2.8601    0.0701 C   0  0  0  0  0  0  0  0  0  0  0  0
   -0.7845    3.1851   -0.4443 H   0  0  0  0  0  0  0  0  0  0  0  0
    0.8425    3.1924   -0.3072 H   0  0  0  0  0  0  0  0  0  0  0  0
   -0.0941    3.2297    1.0918 H   0  0  0  0  0  0  0  0  0  0  0  0
    0.0057    1.3733    0.0008 C   0  0  0  0  0  0  0  0  0  0  0  0
   -1.1858    0.6744   -0.0016 C   0  0  0  0  0  0  0  0  0  0  0  0
   -2.0501    1.1770   -0.0058 H   0  0  0  0  0  0  0  0  0  0  0  0
   -1.1855   -0.6816   -0.0000 C   0  0  0  0  0  0  0  0  0  0  0  0
   -2.0699   -1.1851    0.0028 H   0  0  0  0  0  0  0  0  0  0  0  0
   -0.0097   -1.3611   -0.0008 C   0  0  0  0  0  0  0  0  0  0  0  0
   -0.0061   -2.3697   -0.0025 H   0  0  0  0  0  0  0  0  0  0  0  0
    1.1855   -0.6762    0.0000 C   0  0  0  0  0  0  0  0  0  0  0  0
    2.0644   -1.1968    0.0009 H   0  0  0  0  0  0  0  0  0  0  0  0
    1.1898    0.6713    0.0015 C   0  0  0  0  0  0  0  0  0  0  0  0
    2.0587    1.1801    0.0028 H   0  0  0  0  0  0  0  0  0  0  0  0
  1  5  1  0
  5  6  1  0
  5  7  2  0
  1  2  1  0
  1  3  1  0
  1  4  1  0
  8 12  1  0
 12 13  2  0
 13 15  1  0
 15 17  2  0
 17 19  1  0
 19 21  2  0
 21 12  1  0
  8  9  1  0
  8 10  1  0
  8 11  1  0
 13 14  1  0
 15 16  1  0
 17 18  1  0
 19 20  1  0
 21 22  1  0
M  CHG  1   6  -1
M  END
>  <PDB_ID>  (89) 
pdb1b0p

>  <RESIDUE_NAME>  (89) 
GLU   PHE

>  <FRAG_NAME>  (89) 
ACET   MBZ

>  <FRAG_ATOM_NUM>  (89) 
fragi: 7  fragj: 15

>  <atom.prop.CHAIN_ID>  (89) 
A A A A A A A Z Z Z Z Z Z Z Z Z Z Z Z Z Z Z

>  <atom.prop.IS_HEAVY_ATOM>  (89) 
1 0 0 0 1 1 1 1 0 0 0 1 1 0 1 0 1 0 1 0 1 0

>  <DIFUSE_FUNC_ATOM>  (89) 
atom 6   atom 7   

>  <FINAL_SINGLE_POINT_ENERGY>  (89) 
0

>  <NONCOV_INTER_ENERGY_QM>  (89) 
0

>  <FF_Energy>  (89) 
-0.37

>  <QM_Energy>  (89) 
-6.66

>  <source>  (89) 
ACET_MBZ_00

>  <Index>  (89) 
2977

$$$$
ACET-pdb2bht-A-ASP-284:MBZ-pdb2bht-A-PHE-251
     RDKit          3D

 22 21  0  0  0  0  0  0  0  0999 V2000
    4.2862   -3.5198    1.2607 C   0  0  0  0  0  0  0  0  0  0  0  0
    4.9697   -3.4602    1.9730 H   0  0  0  0  0  0  0  0  0  0  0  0
    4.5369   -4.1882    0.5777 H   0  0  0  0  0  0  0  0  0  0  0  0
    3.3477   -3.8353    1.7166 H   0  0  0  0  0  0  0  0  0  0  0  0
    4.1553   -2.1627    0.5941 C   0  0  0  0  0  0  0  0  0  0  0  0
    3.6467   -1.2250    1.2432 O   0  0  0  0  0  1  0  0  0  0  0  0
    4.5529   -2.0388   -0.5813 O   0  0  0  0  0  0  0  0  0  0  0  0
   -0.0129    2.9126   -0.0149 C   0  0  0  0  0  0  0  0  0  0  0  0
   -0.5167    3.1937   -0.8159 H   0  0  0  0  0  0  0  0  0  0  0  0
    0.9258    3.2162   -0.0517 H   0  0  0  0  0  0  0  0  0  0  0  0
   -0.4820    3.3665    0.8581 H   0  0  0  0  0  0  0  0  0  0  0  0
   -0.0035    1.3934    0.0106 C   0  0  0  0  0  0  0  0  0  0  0  0
   -1.1896    0.6832    0.0078 C   0  0  0  0  0  0  0  0  0  0  0  0
   -2.0619    1.1742    0.0101 H   0  0  0  0  0  0  0  0  0  0  0  0
   -1.1951   -0.6980   -0.0000 C   0  0  0  0  0  0  0  0  0  0  0  0
   -2.0701   -1.1949    0.0230 H   0  0  0  0  0  0  0  0  0  0  0  0
    0.0032   -1.3858   -0.0370 C   0  0  0  0  0  0  0  0  0  0  0  0
    0.0043   -2.3847   -0.0905 H   0  0  0  0  0  0  0  0  0  0  0  0
    1.1951   -0.6869    0.0000 C   0  0  0  0  0  0  0  0  0  0  0  0
    2.0806   -1.1860    0.0157 H   0  0  0  0  0  0  0  0  0  0  0  0
    1.1899    0.6941    0.0185 C   0  0  0  0  0  0  0  0  0  0  0  0
    2.0573    1.1945    0.0369 H   0  0  0  0  0  0  0  0  0  0  0  0
  1  5  1  0
  5  6  1  0
  5  7  2  0
  1  2  1  0
  1  3  1  0
  1  4  1  0
  8 12  1  0
 12 13  2  0
 13 15  1  0
 15 17  2  0
 17 19  1  0
 19 21  2  0
 21 12  1  0
  8  9  1  0
  8 10  1  0
  8 11  1  0
 13 14  1  0
 15 16  1  0
 17 18  1  0
 19 20  1  0
 21 22  1  0
M  CHG  1   6  -1
M  END
>  <PDB_ID>  (90) 
pdb2bht

>  <RESIDUE_NAME>  (90) 
ASP   PHE

>  <FRAG_NAME>  (90) 
ACET   MBZ

>  <FRAG_ATOM_NUM>  (90) 
fragi: 7  fragj: 15

>  <atom.prop.CHAIN_ID>  (90) 
A A A A A A A Z Z Z Z Z Z Z Z Z Z Z Z Z Z Z

>  <atom.prop.IS_HEAVY_ATOM>  (90) 
1 0 0 0 1 1 1 1 0 0 0 1 1 0 1 0 1 0 1 0 1 0

>  <DIFUSE_FUNC_ATOM>  (90) 
atom 6   atom 7   

>  <FINAL_SINGLE_POINT_ENERGY>  (90) 
0

>  <NONCOV_INTER_ENERGY_QM>  (90) 
0

>  <FF_Energy>  (90) 
9.42

>  <QM_Energy>  (90) 
-4.09

>  <source>  (90) 
ACET_MBZ_00

>  <Index>  (90) 
3033

$$$$
ACET-pdb2bht-B-ASP-284:MBZ-pdb2bht-B-PHE-251
     RDKit          3D

 22 21  0  0  0  0  0  0  0  0999 V2000
    3.8277   -3.4088    1.5394 C   0  0  0  0  0  0  0  0  0  0  0  0
    4.3105   -2.9340    2.2637 H   0  0  0  0  0  0  0  0  0  0  0  0
    4.2296   -4.2980    1.3695 H   0  0  0  0  0  0  0  0  0  0  0  0
    2.7977   -3.5598    1.8626 H   0  0  0  0  0  0  0  0  0  0  0  0
    3.9134   -2.5816    0.2712 C   0  0  0  0  0  0  0  0  0  0  0  0
    3.5844   -3.1109   -0.8127 O   0  0  0  0  0  1  0  0  0  0  0  0
    4.2821   -1.3928    0.3626 O   0  0  0  0  0  0  0  0  0  0  0  0
    0.0182    2.9118   -0.0300 C   0  0  0  0  0  0  0  0  0  0  0  0
   -0.4368    3.1941   -0.8774 H   0  0  0  0  0  0  0  0  0  0  0  0
    0.9770    3.1990   -0.0599 H   0  0  0  0  0  0  0  0  0  0  0  0
   -0.4612    3.4359    0.7967 H   0  0  0  0  0  0  0  0  0  0  0  0
    0.0009    1.3974    0.0097 C   0  0  0  0  0  0  0  0  0  0  0  0
   -1.1886    0.6929    0.0095 C   0  0  0  0  0  0  0  0  0  0  0  0
   -2.0577    1.1855    0.0150 H   0  0  0  0  0  0  0  0  0  0  0  0
   -1.1954   -0.6887   -0.0000 C   0  0  0  0  0  0  0  0  0  0  0  0
   -2.0758   -1.1834    0.0131 H   0  0  0  0  0  0  0  0  0  0  0  0
   -0.0027   -1.3889   -0.0258 C   0  0  0  0  0  0  0  0  0  0  0  0
   -0.0102   -2.3871   -0.0638 H   0  0  0  0  0  0  0  0  0  0  0  0
    1.1954   -0.6974    0.0000 C   0  0  0  0  0  0  0  0  0  0  0  0
    2.0768   -1.1982    0.0153 H   0  0  0  0  0  0  0  0  0  0  0  0
    1.1905    0.6847    0.0066 C   0  0  0  0  0  0  0  0  0  0  0  0
    2.0626    1.1833    0.0079 H   0  0  0  0  0  0  0  0  0  0  0  0
  1  5  1  0
  5  6  1  0
  5  7  2  0
  1  2  1  0
  1  3  1  0
  1  4  1  0
  8 12  1  0
 12 13  2  0
 13 15  1  0
 15 17  2  0
 17 19  1  0
 19 21  2  0
 21 12  1  0
  8  9  1  0
  8 10  1  0
  8 11  1  0
 13 14  1  0
 15 16  1  0
 17 18  1  0
 19 20  1  0
 21 22  1  0
M  CHG  1   6  -1
M  END
>  <PDB_ID>  (91) 
pdb2bht

>  <RESIDUE_NAME>  (91) 
ASP   PHE

>  <FRAG_NAME>  (91) 
ACET   MBZ

>  <FRAG_ATOM_NUM>  (91) 
fragi: 7  fragj: 15

>  <atom.prop.CHAIN_ID>  (91) 
A A A A A A A Z Z Z Z Z Z Z Z Z Z Z Z Z Z Z

>  <atom.prop.IS_HEAVY_ATOM>  (91) 
1 0 0 0 1 1 1 1 0 0 0 1 1 0 1 0 1 0 1 0 1 0

>  <DIFUSE_FUNC_ATOM>  (91) 
atom 6   atom 7   

>  <FINAL_SINGLE_POINT_ENERGY>  (91) 
0

>  <NONCOV_INTER_ENERGY_QM>  (91) 
0

>  <FF_Energy>  (91) 
1.51

>  <QM_Energy>  (91) 
-6.2

>  <source>  (91) 
ACET_MBZ_00

>  <Index>  (91) 
3036

$$$$
ACET-pdb2biw-C-ASP-70:MBZ-pdb2biw-C-PHE-113
     RDKit          3D

 22 21  0  0  0  0  0  0  0  0999 V2000
    4.9727    4.2211    0.4214 C   0  0  0  0  0  0  0  0  0  0  0  0
    4.7024    4.8163    1.1701 H   0  0  0  0  0  0  0  0  0  0  0  0
    5.7366    4.6169   -0.0769 H   0  0  0  0  0  0  0  0  0  0  0  0
    5.2986    3.2708    0.8443 H   0  0  0  0  0  0  0  0  0  0  0  0
    3.7922    4.0787   -0.5338 C   0  0  0  0  0  0  0  0  0  0  0  0
    3.5574    2.9765   -1.0513 O   0  0  0  0  0  1  0  0  0  0  0  0
    3.1154    5.0961   -0.7802 O   0  0  0  0  0  0  0  0  0  0  0  0
   -0.0097    2.9045   -0.0928 C   0  0  0  0  0  0  0  0  0  0  0  0
    0.8314    3.2414    0.2878 H   0  0  0  0  0  0  0  0  0  0  0  0
   -0.7985    3.2452    0.3836 H   0  0  0  0  0  0  0  0  0  0  0  0
   -0.0695    3.2554   -1.1231 H   0  0  0  0  0  0  0  0  0  0  0  0
   -0.0080    1.4144   -0.0008 C   0  0  0  0  0  0  0  0  0  0  0  0
   -1.2155    0.7056   -0.0076 C   0  0  0  0  0  0  0  0  0  0  0  0
   -2.0785    1.1942   -0.0191 H   0  0  0  0  0  0  0  0  0  0  0  0
   -1.2279   -0.7030    0.0000 C   0  0  0  0  0  0  0  0  0  0  0  0
   -2.0893   -1.1973   -0.0146 H   0  0  0  0  0  0  0  0  0  0  0  0
    0.0081   -1.4147    0.0306 C   0  0  0  0  0  0  0  0  0  0  0  0
   -0.0008   -2.4022    0.0729 H   0  0  0  0  0  0  0  0  0  0  0  0
    1.2279   -0.7055   -0.0000 C   0  0  0  0  0  0  0  0  0  0  0  0
    2.1025   -1.1981   -0.0042 H   0  0  0  0  0  0  0  0  0  0  0  0
    1.2154    0.7031   -0.0222 C   0  0  0  0  0  0  0  0  0  0  0  0
    2.0714    1.2041   -0.0542 H   0  0  0  0  0  0  0  0  0  0  0  0
  1  5  1  0
  5  6  1  0
  5  7  2  0
  1  2  1  0
  1  3  1  0
  1  4  1  0
  8 12  1  0
 12 13  2  0
 13 15  1  0
 15 17  2  0
 17 19  1  0
 19 21  2  0
 21 12  1  0
  8  9  1  0
  8 10  1  0
  8 11  1  0
 13 14  1  0
 15 16  1  0
 17 18  1  0
 19 20  1  0
 21 22  1  0
M  CHG  1   6  -1
M  END
>  <PDB_ID>  (92) 
pdb2biw

>  <RESIDUE_NAME>  (92) 
ASP   PHE

>  <FRAG_NAME>  (92) 
ACET   MBZ

>  <FRAG_ATOM_NUM>  (92) 
fragi: 7  fragj: 15

>  <atom.prop.CHAIN_ID>  (92) 
A A A A A A A Z Z Z Z Z Z Z Z Z Z Z Z Z Z Z

>  <atom.prop.IS_HEAVY_ATOM>  (92) 
1 0 0 0 1 1 1 1 0 0 0 1 1 0 1 0 1 0 1 0 1 0

>  <DIFUSE_FUNC_ATOM>  (92) 
atom 6   atom 7   

>  <FINAL_SINGLE_POINT_ENERGY>  (92) 
0

>  <NONCOV_INTER_ENERGY_QM>  (92) 
0

>  <FF_Energy>  (92) 
-2.43

>  <QM_Energy>  (92) 
-7.85

>  <source>  (92) 
ACET_MBZ_00

>  <Index>  (92) 
3072

$$$$
ACET-pdb1b3d-A-ASP-181:MBZ-pdb1b3d-A-PHE-157
     RDKit          3D

 22 21  0  0  0  0  0  0  0  0999 V2000
    0.2785    0.7341    3.8733 C   0  0  0  0  0  0  0  0  0  0  0  0
   -0.3283    0.3176    3.2056 H   0  0  0  0  0  0  0  0  0  0  0  0
   -0.0715    0.5996    4.7927 H   0  0  0  0  0  0  0  0  0  0  0  0
    1.2419    0.2286    3.8068 H   0  0  0  0  0  0  0  0  0  0  0  0
    0.3788    2.2108    3.5944 C   0  0  0  0  0  0  0  0  0  0  0  0
    1.4988    2.7398    3.5846 O   0  0  0  0  0  1  0  0  0  0  0  0
   -0.6801    2.8440    3.3573 O   0  0  0  0  0  0  0  0  0  0  0  0
   -0.0176    2.9010    0.0630 C   0  0  0  0  0  0  0  0  0  0  0  0
    0.8832    3.2308   -0.1765 H   0  0  0  0  0  0  0  0  0  0  0  0
   -0.2682    3.1706    0.9799 H   0  0  0  0  0  0  0  0  0  0  0  0
   -0.7316    3.3552   -0.6240 H   0  0  0  0  0  0  0  0  0  0  0  0
   -0.0007    1.4075    0.0024 C   0  0  0  0  0  0  0  0  0  0  0  0
   -1.1982    0.6910   -0.0011 C   0  0  0  0  0  0  0  0  0  0  0  0
   -2.0660    1.1766   -0.0055 H   0  0  0  0  0  0  0  0  0  0  0  0
   -1.1994   -0.7082    0.0000 C   0  0  0  0  0  0  0  0  0  0  0  0
   -2.0766   -1.1984    0.0013 H   0  0  0  0  0  0  0  0  0  0  0  0
   -0.0005   -1.3953    0.0010 C   0  0  0  0  0  0  0  0  0  0  0  0
    0.0005   -2.3971    0.0019 H   0  0  0  0  0  0  0  0  0  0  0  0
    1.1994   -0.6999   -0.0000 C   0  0  0  0  0  0  0  0  0  0  0  0
    2.0823   -1.1928    0.0024 H   0  0  0  0  0  0  0  0  0  0  0  0
    1.1993    0.7049   -0.0023 C   0  0  0  0  0  0  0  0  0  0  0  0
    2.0654    1.1938   -0.0082 H   0  0  0  0  0  0  0  0  0  0  0  0
  1  5  1  0
  5  6  1  0
  5  7  2  0
  1  2  1  0
  1  3  1  0
  1  4  1  0
  8 12  1  0
 12 13  2  0
 13 15  1  0
 15 17  2  0
 17 19  1  0
 19 21  2  0
 21 12  1  0
  8  9  1  0
  8 10  1  0
  8 11  1  0
 13 14  1  0
 15 16  1  0
 17 18  1  0
 19 20  1  0
 21 22  1  0
M  CHG  1   6  -1
M  END
>  <PDB_ID>  (93) 
pdb1b3d

>  <RESIDUE_NAME>  (93) 
ASP   PHE

>  <FRAG_NAME>  (93) 
ACET   MBZ

>  <FRAG_ATOM_NUM>  (93) 
fragi: 7  fragj: 15

>  <atom.prop.CHAIN_ID>  (93) 
A A A A A A A Z Z Z Z Z Z Z Z Z Z Z Z Z Z Z

>  <atom.prop.IS_HEAVY_ATOM>  (93) 
1 0 0 0 1 1 1 1 0 0 0 1 1 0 1 0 1 0 1 0 1 0

>  <DIFUSE_FUNC_ATOM>  (93) 
atom 6   atom 7   

>  <FINAL_SINGLE_POINT_ENERGY>  (93) 
0

>  <NONCOV_INTER_ENERGY_QM>  (93) 
0

>  <FF_Energy>  (93) 
-0.3

>  <QM_Energy>  (93) 
-6.53

>  <source>  (93) 
ACET_MBZ_00

>  <Index>  (93) 
3123

$$$$
ACET-pdb1b3d-B-ASP-181:MBZ-pdb1b3d-B-PHE-157
     RDKit          3D

 22 21  0  0  0  0  0  0  0  0999 V2000
   -0.2696    0.5731    3.7137 C   0  0  0  0  0  0  0  0  0  0  0  0
   -0.7715    0.2201    2.9351 H   0  0  0  0  0  0  0  0  0  0  0  0
   -0.7508    0.3868    4.5593 H   0  0  0  0  0  0  0  0  0  0  0  0
    0.6893    0.0566    3.7543 H   0  0  0  0  0  0  0  0  0  0  0  0
   -0.1224    2.0885    3.5564 C   0  0  0  0  0  0  0  0  0  0  0  0
    0.9802    2.6188    3.7952 O   0  0  0  0  0  1  0  0  0  0  0  0
   -1.1269    2.7572    3.1906 O   0  0  0  0  0  0  0  0  0  0  0  0
   -0.0194    2.8798    0.0207 C   0  0  0  0  0  0  0  0  0  0  0  0
    0.8969    3.2101   -0.1450 H   0  0  0  0  0  0  0  0  0  0  0  0
   -0.3568    3.1750    0.9008 H   0  0  0  0  0  0  0  0  0  0  0  0
   -0.6681    3.3096   -0.7427 H   0  0  0  0  0  0  0  0  0  0  0  0
    0.0028    1.3962   -0.0022 C   0  0  0  0  0  0  0  0  0  0  0  0
   -1.1931    0.6822    0.0005 C   0  0  0  0  0  0  0  0  0  0  0  0
   -2.0598    1.1753    0.0012 H   0  0  0  0  0  0  0  0  0  0  0  0
   -1.1924   -0.6978   -0.0000 C   0  0  0  0  0  0  0  0  0  0  0  0
   -2.0765   -1.1926   -0.0020 H   0  0  0  0  0  0  0  0  0  0  0  0
   -0.0096   -1.3808    0.0038 C   0  0  0  0  0  0  0  0  0  0  0  0
   -0.0082   -2.3879    0.0090 H   0  0  0  0  0  0  0  0  0  0  0  0
    1.1924   -0.6968    0.0000 C   0  0  0  0  0  0  0  0  0  0  0  0
    2.0717   -1.1982    0.0001 H   0  0  0  0  0  0  0  0  0  0  0  0
    1.2000    0.6970   -0.0021 C   0  0  0  0  0  0  0  0  0  0  0  0
    2.0658    1.1868   -0.0039 H   0  0  0  0  0  0  0  0  0  0  0  0
  1  5  1  0
  5  6  1  0
  5  7  2  0
  1  2  1  0
  1  3  1  0
  1  4  1  0
  8 12  1  0
 12 13  2  0
 13 15  1  0
 15 17  2  0
 17 19  1  0
 19 21  2  0
 21 12  1  0
  8  9  1  0
  8 10  1  0
  8 11  1  0
 13 14  1  0
 15 16  1  0
 17 18  1  0
 19 20  1  0
 21 22  1  0
M  CHG  1   6  -1
M  END
>  <PDB_ID>  (94) 
pdb1b3d

>  <RESIDUE_NAME>  (94) 
ASP   PHE

>  <FRAG_NAME>  (94) 
ACET   MBZ

>  <FRAG_ATOM_NUM>  (94) 
fragi: 7  fragj: 15

>  <atom.prop.CHAIN_ID>  (94) 
A A A A A A A Z Z Z Z Z Z Z Z Z Z Z Z Z Z Z

>  <atom.prop.IS_HEAVY_ATOM>  (94) 
1 0 0 0 1 1 1 1 0 0 0 1 1 0 1 0 1 0 1 0 1 0

>  <DIFUSE_FUNC_ATOM>  (94) 
atom 6   atom 7   

>  <FINAL_SINGLE_POINT_ENERGY>  (94) 
0

>  <NONCOV_INTER_ENERGY_QM>  (94) 
0

>  <FF_Energy>  (94) 
-0.26

>  <QM_Energy>  (94) 
-6.48

>  <source>  (94) 
ACET_MBZ_00

>  <Index>  (94) 
3125

$$$$
ACET-pdb1b3d-B-ASP-237:MBZ-pdb1b3d-B-PHE-83
     RDKit          3D

 22 21  0  0  0  0  0  0  0  0999 V2000
    4.7822    4.3947   -1.3027 C   0  0  0  0  0  0  0  0  0  0  0  0
    5.6557    4.4037   -0.8304 H   0  0  0  0  0  0  0  0  0  0  0  0
    4.6187    5.2643   -1.7513 H   0  0  0  0  0  0  0  0  0  0  0  0
    4.8219    3.6211   -2.0697 H   0  0  0  0  0  0  0  0  0  0  0  0
    3.6816    4.1534   -0.2883 C   0  0  0  0  0  0  0  0  0  0  0  0
    3.8045    3.2137    0.5204 O   0  0  0  0  0  1  0  0  0  0  0  0
    2.6975    4.9131   -0.2948 O   0  0  0  0  0  0  0  0  0  0  0  0
    0.0078    2.9108   -0.1178 C   0  0  0  0  0  0  0  0  0  0  0  0
   -0.7202    3.1750   -0.7366 H   0  0  0  0  0  0  0  0  0  0  0  0
    0.8911    3.1881   -0.4721 H   0  0  0  0  0  0  0  0  0  0  0  0
   -0.1498    3.4441    0.8196 H   0  0  0  0  0  0  0  0  0  0  0  0
    0.0011    1.4030   -0.0056 C   0  0  0  0  0  0  0  0  0  0  0  0
   -1.1964    0.6848    0.0012 C   0  0  0  0  0  0  0  0  0  0  0  0
   -2.0637    1.1705    0.0058 H   0  0  0  0  0  0  0  0  0  0  0  0
   -1.1888   -0.7057    0.0000 C   0  0  0  0  0  0  0  0  0  0  0  0
   -2.0690   -1.2005   -0.0010 H   0  0  0  0  0  0  0  0  0  0  0  0
    0.0002   -1.3814    0.0017 C   0  0  0  0  0  0  0  0  0  0  0  0
    0.0017   -2.3905    0.0038 H   0  0  0  0  0  0  0  0  0  0  0  0
    1.1888   -0.6961    0.0000 C   0  0  0  0  0  0  0  0  0  0  0  0
    2.0754   -1.1939   -0.0022 H   0  0  0  0  0  0  0  0  0  0  0  0
    1.1952    0.6954    0.0027 C   0  0  0  0  0  0  0  0  0  0  0  0
    2.0635    1.1857    0.0103 H   0  0  0  0  0  0  0  0  0  0  0  0
  1  5  1  0
  5  6  1  0
  5  7  2  0
  1  2  1  0
  1  3  1  0
  1  4  1  0
  8 12  1  0
 12 13  2  0
 13 15  1  0
 15 17  2  0
 17 19  1  0
 19 21  2  0
 21 12  1  0
  8  9  1  0
  8 10  1  0
  8 11  1  0
 13 14  1  0
 15 16  1  0
 17 18  1  0
 19 20  1  0
 21 22  1  0
M  CHG  1   6  -1
M  END
>  <PDB_ID>  (95) 
pdb1b3d

>  <RESIDUE_NAME>  (95) 
ASP   PHE

>  <FRAG_NAME>  (95) 
ACET   MBZ

>  <FRAG_ATOM_NUM>  (95) 
fragi: 7  fragj: 15

>  <atom.prop.CHAIN_ID>  (95) 
A A A A A A A Z Z Z Z Z Z Z Z Z Z Z Z Z Z Z

>  <atom.prop.IS_HEAVY_ATOM>  (95) 
1 0 0 0 1 1 1 1 0 0 0 1 1 0 1 0 1 0 1 0 1 0

>  <DIFUSE_FUNC_ATOM>  (95) 
atom 6   atom 7   

>  <FINAL_SINGLE_POINT_ENERGY>  (95) 
0

>  <NONCOV_INTER_ENERGY_QM>  (95) 
0

>  <FF_Energy>  (95) 
-2.55

>  <QM_Energy>  (95) 
-8.1

>  <source>  (95) 
ACET_MBZ_00

>  <Index>  (95) 
3162

$$$$
ACET-pdb1b6t-A-ASP-12:MBZ-pdb1b6t-A-PHE-46
     RDKit          3D

 22 21  0  0  0  0  0  0  0  0999 V2000
   -5.3552    3.6769   -1.6147 C   0  0  0  0  0  0  0  0  0  0  0  0
   -5.0839    4.6005   -1.8707 H   0  0  0  0  0  0  0  0  0  0  0  0
   -6.3467    3.6012   -1.6049 H   0  0  0  0  0  0  0  0  0  0  0  0
   -4.9736    2.9929   -2.3727 H   0  0  0  0  0  0  0  0  0  0  0  0
   -4.8279    3.3796   -0.2303 C   0  0  0  0  0  0  0  0  0  0  0  0
   -3.6142    3.1093   -0.0981 O   0  0  0  0  0  1  0  0  0  0  0  0
   -5.6342    3.4195    0.7281 O   0  0  0  0  0  0  0  0  0  0  0  0
    0.0025    2.9073   -0.0138 C   0  0  0  0  0  0  0  0  0  0  0  0
   -0.6935    3.2099   -0.6486 H   0  0  0  0  0  0  0  0  0  0  0  0
    0.9016    3.2098   -0.2977 H   0  0  0  0  0  0  0  0  0  0  0  0
   -0.2101    3.3619    0.9538 H   0  0  0  0  0  0  0  0  0  0  0  0
   -0.0008    1.4046   -0.0003 C   0  0  0  0  0  0  0  0  0  0  0  0
   -1.1991    0.6970    0.0011 C   0  0  0  0  0  0  0  0  0  0  0  0
   -2.0654    1.1849    0.0015 H   0  0  0  0  0  0  0  0  0  0  0  0
   -1.2051   -0.7013   -0.0000 C   0  0  0  0  0  0  0  0  0  0  0  0
   -2.0797   -1.1924    0.0008 H   0  0  0  0  0  0  0  0  0  0  0  0
    0.0013   -1.3979   -0.0012 C   0  0  0  0  0  0  0  0  0  0  0  0
   -0.0017   -2.3957   -0.0032 H   0  0  0  0  0  0  0  0  0  0  0  0
    1.2051   -0.6992   -0.0000 C   0  0  0  0  0  0  0  0  0  0  0  0
    2.0852   -1.1945    0.0016 H   0  0  0  0  0  0  0  0  0  0  0  0
    1.1986    0.6968    0.0004 C   0  0  0  0  0  0  0  0  0  0  0  0
    2.0657    1.1923    0.0003 H   0  0  0  0  0  0  0  0  0  0  0  0
  1  5  1  0
  5  6  1  0
  5  7  2  0
  1  2  1  0
  1  3  1  0
  1  4  1  0
  8 12  1  0
 12 13  2  0
 13 15  1  0
 15 17  2  0
 17 19  1  0
 19 21  2  0
 21 12  1  0
  8  9  1  0
  8 10  1  0
  8 11  1  0
 13 14  1  0
 15 16  1  0
 17 18  1  0
 19 20  1  0
 21 22  1  0
M  CHG  1   6  -1
M  END
>  <PDB_ID>  (96) 
pdb1b6t

>  <RESIDUE_NAME>  (96) 
ASP   PHE

>  <FRAG_NAME>  (96) 
ACET   MBZ

>  <FRAG_ATOM_NUM>  (96) 
fragi: 7  fragj: 15

>  <atom.prop.CHAIN_ID>  (96) 
A A A A A A A Z Z Z Z Z Z Z Z Z Z Z Z Z Z Z

>  <atom.prop.IS_HEAVY_ATOM>  (96) 
1 0 0 0 1 1 1 1 0 0 0 1 1 0 1 0 1 0 1 0 1 0

>  <DIFUSE_FUNC_ATOM>  (96) 
atom 6   atom 7   

>  <FINAL_SINGLE_POINT_ENERGY>  (96) 
0

>  <NONCOV_INTER_ENERGY_QM>  (96) 
0

>  <FF_Energy>  (96) 
-2.08

>  <QM_Energy>  (96) 
-7.27

>  <source>  (96) 
ACET_MBZ_00

>  <Index>  (96) 
3390

$$$$
ACET-pdb1b79-D-GLU-33:MBZ-pdb1b79-D-PHE-59
     RDKit          3D

 22 21  0  0  0  0  0  0  0  0999 V2000
    4.4165    1.4267    1.9894 C   0  0  0  0  0  0  0  0  0  0  0  0
    3.9595    0.9172    2.6980 H   0  0  0  0  0  0  0  0  0  0  0  0
    5.2805    1.7887    2.2973 H   0  0  0  0  0  0  0  0  0  0  0  0
    4.6007    0.7592    1.1477 H   0  0  0  0  0  0  0  0  0  0  0  0
    3.5304    2.6069    1.6355 C   0  0  0  0  0  0  0  0  0  0  0  0
    3.6202    3.1299    0.5034 O   0  0  0  0  0  1  0  0  0  0  0  0
    2.7312    3.0087    2.5050 O   0  0  0  0  0  0  0  0  0  0  0  0
    0.0026    2.9297   -0.0196 C   0  0  0  0  0  0  0  0  0  0  0  0
   -0.7283    3.2243   -0.6136 H   0  0  0  0  0  0  0  0  0  0  0  0
    0.8836    3.2256   -0.3522 H   0  0  0  0  0  0  0  0  0  0  0  0
   -0.1566    3.3872    0.9569 H   0  0  0  0  0  0  0  0  0  0  0  0
    0.0009    1.4134    0.0020 C   0  0  0  0  0  0  0  0  0  0  0  0
   -1.2055    0.6982    0.0021 C   0  0  0  0  0  0  0  0  0  0  0  0
   -2.0691    1.1848    0.0026 H   0  0  0  0  0  0  0  0  0  0  0  0
   -1.2121   -0.7091   -0.0000 C   0  0  0  0  0  0  0  0  0  0  0  0
   -2.0838   -1.1981    0.0031 H   0  0  0  0  0  0  0  0  0  0  0  0
    0.0008   -1.4059   -0.0042 C   0  0  0  0  0  0  0  0  0  0  0  0
    0.0021   -2.4010   -0.0107 H   0  0  0  0  0  0  0  0  0  0  0  0
    1.2121   -0.6983    0.0000 C   0  0  0  0  0  0  0  0  0  0  0  0
    2.0900   -1.1938    0.0040 H   0  0  0  0  0  0  0  0  0  0  0  0
    1.2038    0.7017    0.0001 C   0  0  0  0  0  0  0  0  0  0  0  0
    2.0702    1.1979   -0.0019 H   0  0  0  0  0  0  0  0  0  0  0  0
  1  5  1  0
  5  6  1  0
  5  7  2  0
  1  2  1  0
  1  3  1  0
  1  4  1  0
  8 12  1  0
 12 13  2  0
 13 15  1  0
 15 17  2  0
 17 19  1  0
 19 21  2  0
 21 12  1  0
  8  9  1  0
  8 10  1  0
  8 11  1  0
 13 14  1  0
 15 16  1  0
 17 18  1  0
 19 20  1  0
 21 22  1  0
M  CHG  1   6  -1
M  END
>  <PDB_ID>  (97) 
pdb1b79

>  <RESIDUE_NAME>  (97) 
GLU   PHE

>  <FRAG_NAME>  (97) 
ACET   MBZ

>  <FRAG_ATOM_NUM>  (97) 
fragi: 7  fragj: 15

>  <atom.prop.CHAIN_ID>  (97) 
A A A A A A A Z Z Z Z Z Z Z Z Z Z Z Z Z Z Z

>  <atom.prop.IS_HEAVY_ATOM>  (97) 
1 0 0 0 1 1 1 1 0 0 0 1 1 0 1 0 1 0 1 0 1 0

>  <DIFUSE_FUNC_ATOM>  (97) 
atom 6   atom 7   

>  <FINAL_SINGLE_POINT_ENERGY>  (97) 
0

>  <NONCOV_INTER_ENERGY_QM>  (97) 
0

>  <FF_Energy>  (97) 
-1.58

>  <QM_Energy>  (97) 
-7.93

>  <source>  (97) 
ACET_MBZ_00

>  <Index>  (97) 
3432

$$$$
ACET-pdb1b7y-A-GLU-128:MBZ-pdb1b7y-A-PHE-132
     RDKit          3D

 22 21  0  0  0  0  0  0  0  0999 V2000
    2.8254    4.9072    1.1060 C   0  0  0  0  0  0  0  0  0  0  0  0
    2.0713    5.4819    1.3644 H   0  0  0  0  0  0  0  0  0  0  0  0
    2.7621    4.6079    0.1712 H   0  0  0  0  0  0  0  0  0  0  0  0
    3.7425    5.4865    1.2135 H   0  0  0  0  0  0  0  0  0  0  0  0
    2.7876    3.6707    1.9899 C   0  0  0  0  0  0  0  0  0  0  0  0
    2.4072    3.7887    3.1827 O   0  0  0  0  0  1  0  0  0  0  0  0
    3.1358    2.5777    1.4875 O   0  0  0  0  0  0  0  0  0  0  0  0
   -0.0015    2.8957   -0.0651 C   0  0  0  0  0  0  0  0  0  0  0  0
    0.9334    3.2020   -0.1650 H   0  0  0  0  0  0  0  0  0  0  0  0
   -0.4059    3.2407    0.7682 H   0  0  0  0  0  0  0  0  0  0  0  0
   -0.5727    3.2993   -0.9011 H   0  0  0  0  0  0  0  0  0  0  0  0
   -0.0005    1.3998   -0.0013 C   0  0  0  0  0  0  0  0  0  0  0  0
   -1.2004    0.6928    0.0022 C   0  0  0  0  0  0  0  0  0  0  0  0
   -2.0655    1.1854    0.0047 H   0  0  0  0  0  0  0  0  0  0  0  0
   -1.2072   -0.6967    0.0000 C   0  0  0  0  0  0  0  0  0  0  0  0
   -2.0806   -1.1928    0.0021 H   0  0  0  0  0  0  0  0  0  0  0  0
    0.0010   -1.3951   -0.0029 C   0  0  0  0  0  0  0  0  0  0  0  0
   -0.0018   -2.3918   -0.0079 H   0  0  0  0  0  0  0  0  0  0  0  0
    1.2072   -0.6937   -0.0000 C   0  0  0  0  0  0  0  0  0  0  0  0
    2.0860   -1.1940    0.0022 H   0  0  0  0  0  0  0  0  0  0  0  0
    1.1998    0.6930    0.0020 C   0  0  0  0  0  0  0  0  0  0  0  0
    2.0649    1.1938    0.0051 H   0  0  0  0  0  0  0  0  0  0  0  0
  1  5  1  0
  5  6  1  0
  5  7  2  0
  1  2  1  0
  1  3  1  0
  1  4  1  0
  8 12  1  0
 12 13  2  0
 13 15  1  0
 15 17  2  0
 17 19  1  0
 19 21  2  0
 21 12  1  0
  8  9  1  0
  8 10  1  0
  8 11  1  0
 13 14  1  0
 15 16  1  0
 17 18  1  0
 19 20  1  0
 21 22  1  0
M  CHG  1   6  -1
M  END
>  <PDB_ID>  (98) 
pdb1b7y

>  <RESIDUE_NAME>  (98) 
GLU   PHE

>  <FRAG_NAME>  (98) 
ACET   MBZ

>  <FRAG_ATOM_NUM>  (98) 
fragi: 7  fragj: 15

>  <atom.prop.CHAIN_ID>  (98) 
A A A A A A A Z Z Z Z Z Z Z Z Z Z Z Z Z Z Z

>  <atom.prop.IS_HEAVY_ATOM>  (98) 
1 0 0 0 1 1 1 1 0 0 0 1 1 0 1 0 1 0 1 0 1 0

>  <DIFUSE_FUNC_ATOM>  (98) 
atom 6   atom 7   

>  <FINAL_SINGLE_POINT_ENERGY>  (98) 
0

>  <NONCOV_INTER_ENERGY_QM>  (98) 
0

>  <FF_Energy>  (98) 
-0.11

>  <QM_Energy>  (98) 
-6.45

>  <source>  (98) 
ACET_MBZ_00

>  <Index>  (98) 
3455

$$$$
ACET-pdb1b7y-B-GLU-105:MBZ-pdb1b7y-B-PHE-114
     RDKit          3D

 22 21  0  0  0  0  0  0  0  0999 V2000
   -4.2328    1.3662    0.9515 C   0  0  0  0  0  0  0  0  0  0  0  0
   -4.1303    2.3182    0.7452 H   0  0  0  0  0  0  0  0  0  0  0  0
   -3.3795    0.9209    1.1341 H   0  0  0  0  0  0  0  0  0  0  0  0
   -4.8786    1.2628    1.8235 H   0  0  0  0  0  0  0  0  0  0  0  0
   -4.8336    0.6988   -0.2865 C   0  0  0  0  0  0  0  0  0  0  0  0
   -5.2444   -0.4863   -0.2136 O   0  0  0  0  0  1  0  0  0  0  0  0
   -4.9018    1.3681   -1.3383 O   0  0  0  0  0  0  0  0  0  0  0  0
   -0.0134    2.9026    0.0725 C   0  0  0  0  0  0  0  0  0  0  0  0
   -0.2502    3.2481   -0.8203 H   0  0  0  0  0  0  0  0  0  0  0  0
    0.8830    3.2025    0.3543 H   0  0  0  0  0  0  0  0  0  0  0  0
   -0.7408    3.2839    0.7893 H   0  0  0  0  0  0  0  0  0  0  0  0
    0.0009    1.4050    0.0007 C   0  0  0  0  0  0  0  0  0  0  0  0
   -1.1969    0.6913   -0.0026 C   0  0  0  0  0  0  0  0  0  0  0  0
   -2.0644    1.1827   -0.0081 H   0  0  0  0  0  0  0  0  0  0  0  0
   -1.2010   -0.6987    0.0000 C   0  0  0  0  0  0  0  0  0  0  0  0
   -2.0782   -1.1934    0.0009 H   0  0  0  0  0  0  0  0  0  0  0  0
    0.0003   -1.3965    0.0035 C   0  0  0  0  0  0  0  0  0  0  0  0
   -0.0038   -2.3943    0.0078 H   0  0  0  0  0  0  0  0  0  0  0  0
    1.2010   -0.6998    0.0000 C   0  0  0  0  0  0  0  0  0  0  0  0
    2.0832   -1.1932    0.0007 H   0  0  0  0  0  0  0  0  0  0  0  0
    1.1958    0.6988   -0.0017 C   0  0  0  0  0  0  0  0  0  0  0  0
    2.0654    1.1914   -0.0053 H   0  0  0  0  0  0  0  0  0  0  0  0
  1  5  1  0
  5  6  1  0
  5  7  2  0
  1  2  1  0
  1  3  1  0
  1  4  1  0
  8 12  1  0
 12 13  2  0
 13 15  1  0
 15 17  2  0
 17 19  1  0
 19 21  2  0
 21 12  1  0
  8  9  1  0
  8 10  1  0
  8 11  1  0
 13 14  1  0
 15 16  1  0
 17 18  1  0
 19 20  1  0
 21 22  1  0
M  CHG  1   6  -1
M  END
>  <PDB_ID>  (99) 
pdb1b7y

>  <RESIDUE_NAME>  (99) 
GLU   PHE

>  <FRAG_NAME>  (99) 
ACET   MBZ

>  <FRAG_ATOM_NUM>  (99) 
fragi: 7  fragj: 15

>  <atom.prop.CHAIN_ID>  (99) 
A A A A A A A Z Z Z Z Z Z Z Z Z Z Z Z Z Z Z

>  <atom.prop.IS_HEAVY_ATOM>  (99) 
1 0 0 0 1 1 1 1 0 0 0 1 1 0 1 0 1 0 1 0 1 0

>  <DIFUSE_FUNC_ATOM>  (99) 
atom 6   atom 7   

>  <FINAL_SINGLE_POINT_ENERGY>  (99) 
0

>  <NONCOV_INTER_ENERGY_QM>  (99) 
0

>  <FF_Energy>  (99) 
5.19

>  <QM_Energy>  (99) 
-2.31

>  <source>  (99) 
ACET_MBZ_00

>  <Index>  (99) 
3461

$$$$
ACET-pdb1b7t-Z-GLU-105:MBZ-pdb1b7t-Z-PHE-93
     RDKit          3D

 22 21  0  0  0  0  0  0  0  0999 V2000
    4.6752    2.7615   -2.2646 C   0  0  0  0  0  0  0  0  0  0  0  0
    3.9634    2.2059   -2.6617 H   0  0  0  0  0  0  0  0  0  0  0  0
    5.3846    2.2098   -1.8581 H   0  0  0  0  0  0  0  0  0  0  0  0
    5.1239    3.3520   -3.0634 H   0  0  0  0  0  0  0  0  0  0  0  0
    4.0489    3.5928   -1.1594 C   0  0  0  0  0  0  0  0  0  0  0  0
    4.3593    4.8095   -1.0505 O   0  0  0  0  0  1  0  0  0  0  0  0
    3.2383    3.0121   -0.3986 O   0  0  0  0  0  0  0  0  0  0  0  0
    0.0033    2.9330    0.0247 C   0  0  0  0  0  0  0  0  0  0  0  0
   -0.6905    3.2482   -0.6005 H   0  0  0  0  0  0  0  0  0  0  0  0
    0.9022    3.2395   -0.2402 H   0  0  0  0  0  0  0  0  0  0  0  0
   -0.2156    3.3582    1.0042 H   0  0  0  0  0  0  0  0  0  0  0  0
   -0.0002    1.4174    0.0020 C   0  0  0  0  0  0  0  0  0  0  0  0
   -1.2054    0.7063   -0.0003 C   0  0  0  0  0  0  0  0  0  0  0  0
   -2.0706    1.1916   -0.0030 H   0  0  0  0  0  0  0  0  0  0  0  0
   -1.2170   -0.7073   -0.0000 C   0  0  0  0  0  0  0  0  0  0  0  0
   -2.0896   -1.1911    0.0017 H   0  0  0  0  0  0  0  0  0  0  0  0
   -0.0039   -1.4113   -0.0005 C   0  0  0  0  0  0  0  0  0  0  0  0
   -0.0046   -2.4045   -0.0017 H   0  0  0  0  0  0  0  0  0  0  0  0
    1.2170   -0.7054    0.0000 C   0  0  0  0  0  0  0  0  0  0  0  0
    2.0901   -1.2019    0.0021 H   0  0  0  0  0  0  0  0  0  0  0  0
    1.2095    0.7004   -0.0011 C   0  0  0  0  0  0  0  0  0  0  0  0
    2.0740    1.1958   -0.0045 H   0  0  0  0  0  0  0  0  0  0  0  0
  1  5  1  0
  5  6  1  0
  5  7  2  0
  1  2  1  0
  1  3  1  0
  1  4  1  0
  8 12  1  0
 12 13  2  0
 13 15  1  0
 15 17  2  0
 17 19  1  0
 19 21  2  0
 21 12  1  0
  8  9  1  0
  8 10  1  0
  8 11  1  0
 13 14  1  0
 15 16  1  0
 17 18  1  0
 19 20  1  0
 21 22  1  0
M  CHG  1   6  -1
M  END
>  <PDB_ID>  (100) 
pdb1b7t

>  <RESIDUE_NAME>  (100) 
GLU   PHE

>  <FRAG_NAME>  (100) 
ACET   MBZ

>  <FRAG_ATOM_NUM>  (100) 
fragi: 7  fragj: 15

>  <atom.prop.CHAIN_ID>  (100) 
A A A A A A A Z Z Z Z Z Z Z Z Z Z Z Z Z Z Z

>  <atom.prop.IS_HEAVY_ATOM>  (100) 
1 0 0 0 1 1 1 1 0 0 0 1 1 0 1 0 1 0 1 0 1 0

>  <DIFUSE_FUNC_ATOM>  (100) 
atom 6   atom 7   

>  <FINAL_SINGLE_POINT_ENERGY>  (100) 
0

>  <NONCOV_INTER_ENERGY_QM>  (100) 
0

>  <FF_Energy>  (100) 
4.82

>  <QM_Energy>  (100) 
-8.63

>  <source>  (100) 
ACET_MBZ_00

>  <Index>  (100) 
3475

$$$$
ACET-pdb1b7t-A-GLU-482:MBZ-pdb1b7t-A-PHE-464
     RDKit          3D

 22 21  0  0  0  0  0  0  0  0999 V2000
   -0.7309   -5.9625   -0.5372 C   0  0  0  0  0  0  0  0  0  0  0  0
   -1.5076   -6.5658   -0.4907 H   0  0  0  0  0  0  0  0  0  0  0  0
    0.1167   -6.4398   -0.3808 H   0  0  0  0  0  0  0  0  0  0  0  0
   -0.6979   -5.5321   -1.5380 H   0  0  0  0  0  0  0  0  0  0  0  0
   -0.8861   -4.9278    0.5734 C   0  0  0  0  0  0  0  0  0  0  0  0
    0.0394   -4.1114    0.7618 O   0  0  0  0  0  1  0  0  0  0  0  0
   -1.9309   -4.9315    1.2606 O   0  0  0  0  0  0  0  0  0  0  0  0
    0.0135    2.9186    0.0139 C   0  0  0  0  0  0  0  0  0  0  0  0
    0.9471    3.2153    0.1507 H   0  0  0  0  0  0  0  0  0  0  0  0
   -0.5710    3.2233    0.7512 H   0  0  0  0  0  0  0  0  0  0  0  0
   -0.3483    3.3781   -0.9059 H   0  0  0  0  0  0  0  0  0  0  0  0
   -0.0000    1.4117    0.0000 C   0  0  0  0  0  0  0  0  0  0  0  0
   -1.2027    0.7095    0.0007 C   0  0  0  0  0  0  0  0  0  0  0  0
   -2.0663    1.1972    0.0007 H   0  0  0  0  0  0  0  0  0  0  0  0
   -1.2101   -0.6925    0.0000 C   0  0  0  0  0  0  0  0  0  0  0  0
   -2.0847   -1.1835    0.0010 H   0  0  0  0  0  0  0  0  0  0  0  0
    0.0003   -1.4018    0.0000 C   0  0  0  0  0  0  0  0  0  0  0  0
   -0.0154   -2.3992   -0.0006 H   0  0  0  0  0  0  0  0  0  0  0  0
    1.2101   -0.7137   -0.0000 C   0  0  0  0  0  0  0  0  0  0  0  0
    2.0861   -1.2082    0.0017 H   0  0  0  0  0  0  0  0  0  0  0  0
    1.2025    0.6868   -0.0007 C   0  0  0  0  0  0  0  0  0  0  0  0
    2.0716    1.1826   -0.0025 H   0  0  0  0  0  0  0  0  0  0  0  0
  1  5  1  0
  5  6  1  0
  5  7  2  0
  1  2  1  0
  1  3  1  0
  1  4  1  0
  8 12  1  0
 12 13  2  0
 13 15  1  0
 15 17  2  0
 17 19  1  0
 19 21  2  0
 21 12  1  0
  8  9  1  0
  8 10  1  0
  8 11  1  0
 13 14  1  0
 15 16  1  0
 17 18  1  0
 19 20  1  0
 21 22  1  0
M  CHG  1   6  -1
M  END
>  <PDB_ID>  (101) 
pdb1b7t

>  <RESIDUE_NAME>  (101) 
GLU   PHE

>  <FRAG_NAME>  (101) 
ACET   MBZ

>  <FRAG_ATOM_NUM>  (101) 
fragi: 7  fragj: 15

>  <atom.prop.CHAIN_ID>  (101) 
A A A A A A A Z Z Z Z Z Z Z Z Z Z Z Z Z Z Z

>  <atom.prop.IS_HEAVY_ATOM>  (101) 
1 0 0 0 1 1 1 1 0 0 0 1 1 0 1 0 1 0 1 0 1 0

>  <DIFUSE_FUNC_ATOM>  (101) 
atom 6   atom 7   

>  <FINAL_SINGLE_POINT_ENERGY>  (101) 
0

>  <NONCOV_INTER_ENERGY_QM>  (101) 
0

>  <FF_Energy>  (101) 
16.51

>  <QM_Energy>  (101) 
-4.09

>  <source>  (101) 
ACET_MBZ_00

>  <Index>  (101) 
3477

$$$$
ACET-pdb2bva-A-GLU-512:MBZ-pdb2bva-A-PHE-516
     RDKit          3D

 22 21  0  0  0  0  0  0  0  0999 V2000
    4.0582    1.9643   -1.5984 C   0  0  0  0  0  0  0  0  0  0  0  0
    3.4333    1.2159   -1.4489 H   0  0  0  0  0  0  0  0  0  0  0  0
    4.9754    1.6432   -1.7723 H   0  0  0  0  0  0  0  0  0  0  0  0
    3.7190    2.5236   -2.4703 H   0  0  0  0  0  0  0  0  0  0  0  0
    4.0979    2.7870   -0.3262 C   0  0  0  0  0  0  0  0  0  0  0  0
    4.1713    2.1864    0.7730 O   0  0  0  0  0  1  0  0  0  0  0  0
    4.0543    4.0389   -0.4051 O   0  0  0  0  0  0  0  0  0  0  0  0
    0.0474    2.9008   -0.0445 C   0  0  0  0  0  0  0  0  0  0  0  0
   -0.0344    3.1826   -0.9986 H   0  0  0  0  0  0  0  0  0  0  0  0
    0.9350    3.1837    0.3155 H   0  0  0  0  0  0  0  0  0  0  0  0
   -0.7220    3.4246    0.5229 H   0  0  0  0  0  0  0  0  0  0  0  0
   -0.0020    1.3922   -0.0074 C   0  0  0  0  0  0  0  0  0  0  0  0
   -1.1921    0.6808   -0.0037 C   0  0  0  0  0  0  0  0  0  0  0  0
   -2.0618    1.1763   -0.0047 H   0  0  0  0  0  0  0  0  0  0  0  0
   -1.1994   -0.6968    0.0000 C   0  0  0  0  0  0  0  0  0  0  0  0
   -2.0736   -1.1951    0.0063 H   0  0  0  0  0  0  0  0  0  0  0  0
    0.0004   -1.3811   -0.0031 C   0  0  0  0  0  0  0  0  0  0  0  0
    0.0012   -2.3852   -0.0085 H   0  0  0  0  0  0  0  0  0  0  0  0
    1.1994   -0.6886   -0.0000 C   0  0  0  0  0  0  0  0  0  0  0  0
    2.0806   -1.1891   -0.0062 H   0  0  0  0  0  0  0  0  0  0  0  0
    1.1937    0.6935    0.0142 C   0  0  0  0  0  0  0  0  0  0  0  0
    2.0595    1.1936    0.0398 H   0  0  0  0  0  0  0  0  0  0  0  0
  1  5  1  0
  5  6  1  0
  5  7  2  0
  1  2  1  0
  1  3  1  0
  1  4  1  0
  8 12  1  0
 12 13  2  0
 13 15  1  0
 15 17  2  0
 17 19  1  0
 19 21  2  0
 21 12  1  0
  8  9  1  0
  8 10  1  0
  8 11  1  0
 13 14  1  0
 15 16  1  0
 17 18  1  0
 19 20  1  0
 21 22  1  0
M  CHG  1   6  -1
M  END
>  <PDB_ID>  (102) 
pdb2bva

>  <RESIDUE_NAME>  (102) 
GLU   PHE

>  <FRAG_NAME>  (102) 
ACET   MBZ

>  <FRAG_ATOM_NUM>  (102) 
fragi: 7  fragj: 15

>  <atom.prop.CHAIN_ID>  (102) 
A A A A A A A Z Z Z Z Z Z Z Z Z Z Z Z Z Z Z

>  <atom.prop.IS_HEAVY_ATOM>  (102) 
1 0 0 0 1 1 1 1 0 0 0 1 1 0 1 0 1 0 1 0 1 0

>  <DIFUSE_FUNC_ATOM>  (102) 
atom 6   atom 7   

>  <FINAL_SINGLE_POINT_ENERGY>  (102) 
0

>  <NONCOV_INTER_ENERGY_QM>  (102) 
0

>  <FF_Energy>  (102) 
-1.17

>  <QM_Energy>  (102) 
-6.49

>  <source>  (102) 
ACET_MBZ_00

>  <Index>  (102) 
3582

$$$$
ACET-pdb1b9c-A-ASP-103:MBZ-pdb1b9c-A-PHE-130
     RDKit          3D

 22 21  0  0  0  0  0  0  0  0999 V2000
   -4.7159    0.6953   -2.6099 C   0  0  0  0  0  0  0  0  0  0  0  0
   -5.5470    0.1305   -2.7484 H   0  0  0  0  0  0  0  0  0  0  0  0
   -3.9564    0.0619   -2.3868 H   0  0  0  0  0  0  0  0  0  0  0  0
   -4.4797    1.1754   -3.5594 H   0  0  0  0  0  0  0  0  0  0  0  0
   -4.9521    1.5945   -1.4030 C   0  0  0  0  0  0  0  0  0  0  0  0
   -3.9716    2.0532   -0.8110 O   0  0  0  0  0  1  0  0  0  0  0  0
   -6.1205    1.7936   -1.0537 O   0  0  0  0  0  0  0  0  0  0  0  0
   -0.0064    2.8927    0.0558 C   0  0  0  0  0  0  0  0  0  0  0  0
    0.8829    3.1833    0.4035 H   0  0  0  0  0  0  0  0  0  0  0  0
   -0.7247    3.1630    0.6936 H   0  0  0  0  0  0  0  0  0  0  0  0
   -0.1840    3.4018   -0.8915 H   0  0  0  0  0  0  0  0  0  0  0  0
    0.0024    1.3828    0.0004 C   0  0  0  0  0  0  0  0  0  0  0  0
   -1.2135    0.7020   -0.0028 C   0  0  0  0  0  0  0  0  0  0  0  0
   -2.0633    1.1957   -0.0084 H   0  0  0  0  0  0  0  0  0  0  0  0
   -1.2060   -0.6827    0.0000 C   0  0  0  0  0  0  0  0  0  0  0  0
   -2.0809   -1.1866    0.0005 H   0  0  0  0  0  0  0  0  0  0  0  0
    0.0005   -1.3850    0.0041 C   0  0  0  0  0  0  0  0  0  0  0  0
   -0.0162   -2.3870    0.0092 H   0  0  0  0  0  0  0  0  0  0  0  0
    1.2060   -0.7060    0.0000 C   0  0  0  0  0  0  0  0  0  0  0  0
    2.0830   -1.2075   -0.0004 H   0  0  0  0  0  0  0  0  0  0  0  0
    1.2106    0.6889   -0.0017 C   0  0  0  0  0  0  0  0  0  0  0  0
    2.0694    1.1826   -0.0049 H   0  0  0  0  0  0  0  0  0  0  0  0
  1  5  1  0
  5  6  1  0
  5  7  2  0
  1  2  1  0
  1  3  1  0
  1  4  1  0
  8 12  1  0
 12 13  2  0
 13 15  1  0
 15 17  2  0
 17 19  1  0
 19 21  2  0
 21 12  1  0
  8  9  1  0
  8 10  1  0
  8 11  1  0
 13 14  1  0
 15 16  1  0
 17 18  1  0
 19 20  1  0
 21 22  1  0
M  CHG  1   6  -1
M  END
>  <PDB_ID>  (103) 
pdb1b9c

>  <RESIDUE_NAME>  (103) 
ASP   PHE

>  <FRAG_NAME>  (103) 
ACET   MBZ

>  <FRAG_ATOM_NUM>  (103) 
fragi: 7  fragj: 15

>  <atom.prop.CHAIN_ID>  (103) 
A A A A A A A Z Z Z Z Z Z Z Z Z Z Z Z Z Z Z

>  <atom.prop.IS_HEAVY_ATOM>  (103) 
1 0 0 0 1 1 1 1 0 0 0 1 1 0 1 0 1 0 1 0 1 0

>  <DIFUSE_FUNC_ATOM>  (103) 
atom 6   atom 7   

>  <FINAL_SINGLE_POINT_ENERGY>  (103) 
0

>  <NONCOV_INTER_ENERGY_QM>  (103) 
0

>  <FF_Energy>  (103) 
-1.11

>  <QM_Energy>  (103) 
-6.71

>  <source>  (103) 
ACET_MBZ_00

>  <Index>  (103) 
3629

$$$$
ACET-pdb1bay-B-ASP-152:MBZ-pdb1bay-B-PHE-142
     RDKit          3D

 22 21  0  0  0  0  0  0  0  0999 V2000
   -4.7732    2.9284    2.2213 C   0  0  0  0  0  0  0  0  0  0  0  0
   -4.5851    2.5110    3.1032 H   0  0  0  0  0  0  0  0  0  0  0  0
   -5.1490    2.2577    1.5929 H   0  0  0  0  0  0  0  0  0  0  0  0
   -5.5222    3.7060    2.3708 H   0  0  0  0  0  0  0  0  0  0  0  0
   -3.4739    3.4634    1.6462 C   0  0  0  0  0  0  0  0  0  0  0  0
   -3.4861    3.9565    0.5093 O   0  0  0  0  0  1  0  0  0  0  0  0
   -2.4287    3.3708    2.3166 O   0  0  0  0  0  0  0  0  0  0  0  0
   -0.0096    2.8983   -0.0824 C   0  0  0  0  0  0  0  0  0  0  0  0
    0.8462    3.2271    0.2769 H   0  0  0  0  0  0  0  0  0  0  0  0
   -0.7790    3.2278    0.4366 H   0  0  0  0  0  0  0  0  0  0  0  0
   -0.1100    3.2617   -1.1051 H   0  0  0  0  0  0  0  0  0  0  0  0
   -0.0023    1.4013   -0.0019 C   0  0  0  0  0  0  0  0  0  0  0  0
   -1.1950    0.6919    0.0003 C   0  0  0  0  0  0  0  0  0  0  0  0
   -2.0638    1.1836    0.0009 H   0  0  0  0  0  0  0  0  0  0  0  0
   -1.1998   -0.6940    0.0000 C   0  0  0  0  0  0  0  0  0  0  0  0
   -2.0753   -1.1909    0.0003 H   0  0  0  0  0  0  0  0  0  0  0  0
    0.0034   -1.3930    0.0009 C   0  0  0  0  0  0  0  0  0  0  0  0
   -0.0055   -2.3925    0.0020 H   0  0  0  0  0  0  0  0  0  0  0  0
    1.1998   -0.7003   -0.0000 C   0  0  0  0  0  0  0  0  0  0  0  0
    2.0826   -1.1937    0.0002 H   0  0  0  0  0  0  0  0  0  0  0  0
    1.1939    0.6941    0.0006 C   0  0  0  0  0  0  0  0  0  0  0  0
    2.0621    1.1893    0.0021 H   0  0  0  0  0  0  0  0  0  0  0  0
  1  5  1  0
  5  6  1  0
  5  7  2  0
  1  2  1  0
  1  3  1  0
  1  4  1  0
  8 12  1  0
 12 13  2  0
 13 15  1  0
 15 17  2  0
 17 19  1  0
 19 21  2  0
 21 12  1  0
  8  9  1  0
  8 10  1  0
  8 11  1  0
 13 14  1  0
 15 16  1  0
 17 18  1  0
 19 20  1  0
 21 22  1  0
M  CHG  1   6  -1
M  END
>  <PDB_ID>  (104) 
pdb1bay

>  <RESIDUE_NAME>  (104) 
ASP   PHE

>  <FRAG_NAME>  (104) 
ACET   MBZ

>  <FRAG_ATOM_NUM>  (104) 
fragi: 7  fragj: 15

>  <atom.prop.CHAIN_ID>  (104) 
A A A A A A A Z Z Z Z Z Z Z Z Z Z Z Z Z Z Z

>  <atom.prop.IS_HEAVY_ATOM>  (104) 
1 0 0 0 1 1 1 1 0 0 0 1 1 0 1 0 1 0 1 0 1 0

>  <DIFUSE_FUNC_ATOM>  (104) 
atom 6   atom 7   

>  <FINAL_SINGLE_POINT_ENERGY>  (104) 
0

>  <NONCOV_INTER_ENERGY_QM>  (104) 
0

>  <FF_Energy>  (104) 
-1.67

>  <QM_Energy>  (104) 
-7.96

>  <source>  (104) 
ACET_MBZ_00

>  <Index>  (104) 
3673

$$$$
ACET-pdb1b9c-B-ASP-103:MBZ-pdb1b9c-B-PHE-130
     RDKit          3D

 22 21  0  0  0  0  0  0  0  0999 V2000
   -4.9644    1.1676   -2.4696 C   0  0  0  0  0  0  0  0  0  0  0  0
   -5.9697    1.1728   -2.4034 H   0  0  0  0  0  0  0  0  0  0  0  0
   -4.6385    0.2415   -2.2460 H   0  0  0  0  0  0  0  0  0  0  0  0
   -4.6944    1.3792   -3.5042 H   0  0  0  0  0  0  0  0  0  0  0  0
   -4.4145    2.1306   -1.4318 C   0  0  0  0  0  0  0  0  0  0  0  0
   -3.2411    2.4598   -1.4747 O   0  0  0  0  0  1  0  0  0  0  0  0
   -5.1512    2.5622   -0.5525 O   0  0  0  0  0  0  0  0  0  0  0  0
   -0.0129    2.9108   -0.0638 C   0  0  0  0  0  0  0  0  0  0  0  0
    0.8717    3.2296    0.2357 H   0  0  0  0  0  0  0  0  0  0  0  0
   -0.7345    3.2318    0.5279 H   0  0  0  0  0  0  0  0  0  0  0  0
   -0.1940    3.3161   -1.0593 H   0  0  0  0  0  0  0  0  0  0  0  0
   -0.0027    1.3896   -0.0005 C   0  0  0  0  0  0  0  0  0  0  0  0
   -1.2080    0.6912    0.0021 C   0  0  0  0  0  0  0  0  0  0  0  0
   -2.0677    1.1813    0.0044 H   0  0  0  0  0  0  0  0  0  0  0  0
   -1.2063   -0.6991    0.0000 C   0  0  0  0  0  0  0  0  0  0  0  0
   -2.0783   -1.1984    0.0024 H   0  0  0  0  0  0  0  0  0  0  0  0
    0.0029   -1.3881   -0.0038 C   0  0  0  0  0  0  0  0  0  0  0  0
    0.0024   -2.3889   -0.0100 H   0  0  0  0  0  0  0  0  0  0  0  0
    1.2063   -0.6909   -0.0000 C   0  0  0  0  0  0  0  0  0  0  0  0
    2.0867   -1.1938    0.0027 H   0  0  0  0  0  0  0  0  0  0  0  0
    1.2078    0.6973    0.0022 C   0  0  0  0  0  0  0  0  0  0  0  0
    2.0649    1.1971    0.0051 H   0  0  0  0  0  0  0  0  0  0  0  0
  1  5  1  0
  5  6  1  0
  5  7  2  0
  1  2  1  0
  1  3  1  0
  1  4  1  0
  8 12  1  0
 12 13  2  0
 13 15  1  0
 15 17  2  0
 17 19  1  0
 19 21  2  0
 21 12  1  0
  8  9  1  0
  8 10  1  0
  8 11  1  0
 13 14  1  0
 15 16  1  0
 17 18  1  0
 19 20  1  0
 21 22  1  0
M  CHG  1   6  -1
M  END
>  <PDB_ID>  (105) 
pdb1b9c

>  <RESIDUE_NAME>  (105) 
ASP   PHE

>  <FRAG_NAME>  (105) 
ACET   MBZ

>  <FRAG_ATOM_NUM>  (105) 
fragi: 7  fragj: 15

>  <atom.prop.CHAIN_ID>  (105) 
A A A A A A A Z Z Z Z Z Z Z Z Z Z Z Z Z Z Z

>  <atom.prop.IS_HEAVY_ATOM>  (105) 
1 0 0 0 1 1 1 1 0 0 0 1 1 0 1 0 1 0 1 0 1 0

>  <DIFUSE_FUNC_ATOM>  (105) 
atom 6   atom 7   

>  <FINAL_SINGLE_POINT_ENERGY>  (105) 
0

>  <NONCOV_INTER_ENERGY_QM>  (105) 
0

>  <FF_Energy>  (105) 
-0.69

>  <QM_Energy>  (105) 
-6.67

>  <source>  (105) 
ACET_MBZ_00

>  <Index>  (105) 
3719

$$$$
ACET-pdb1bdf-D-GLU-32:MBZ-pdb1bdf-D-PHE-8
     RDKit          3D

 22 21  0  0  0  0  0  0  0  0999 V2000
   -4.0762    1.5823    1.3788 C   0  0  0  0  0  0  0  0  0  0  0  0
   -4.1765    2.3730    1.9573 H   0  0  0  0  0  0  0  0  0  0  0  0
   -3.1546    1.4853    1.0448 H   0  0  0  0  0  0  0  0  0  0  0  0
   -4.3175    0.6990    1.9701 H   0  0  0  0  0  0  0  0  0  0  0  0
   -4.9841    1.7827    0.1667 C   0  0  0  0  0  0  0  0  0  0  0  0
   -5.9291    0.9996   -0.0257 O   0  0  0  0  0  1  0  0  0  0  0  0
   -4.7566    2.7355   -0.6032 O   0  0  0  0  0  0  0  0  0  0  0  0
    0.0078    2.8934    0.0698 C   0  0  0  0  0  0  0  0  0  0  0  0
    0.8958    3.2128   -0.2329 H   0  0  0  0  0  0  0  0  0  0  0  0
   -0.1651    3.1624    1.0075 H   0  0  0  0  0  0  0  0  0  0  0  0
   -0.7461    3.3729   -0.5545 H   0  0  0  0  0  0  0  0  0  0  0  0
   -0.0020    1.4018    0.0003 C   0  0  0  0  0  0  0  0  0  0  0  0
   -1.1978    0.7042   -0.0010 C   0  0  0  0  0  0  0  0  0  0  0  0
   -2.0634    1.1973   -0.0036 H   0  0  0  0  0  0  0  0  0  0  0  0
   -1.2084   -0.6858    0.0000 C   0  0  0  0  0  0  0  0  0  0  0  0
   -2.0816   -1.1813    0.0002 H   0  0  0  0  0  0  0  0  0  0  0  0
    0.0029   -1.3975    0.0025 C   0  0  0  0  0  0  0  0  0  0  0  0
   -0.0157   -2.3934    0.0056 H   0  0  0  0  0  0  0  0  0  0  0  0
    1.2084   -0.7104    0.0000 C   0  0  0  0  0  0  0  0  0  0  0  0
    2.0854   -1.2024    0.0008 H   0  0  0  0  0  0  0  0  0  0  0  0
    1.1968    0.6877   -0.0019 C   0  0  0  0  0  0  0  0  0  0  0  0
    2.0664    1.1847   -0.0060 H   0  0  0  0  0  0  0  0  0  0  0  0
  1  5  1  0
  5  6  1  0
  5  7  2  0
  1  2  1  0
  1  3  1  0
  1  4  1  0
  8 12  1  0
 12 13  2  0
 13 15  1  0
 15 17  2  0
 17 19  1  0
 19 21  2  0
 21 12  1  0
  8  9  1  0
  8 10  1  0
  8 11  1  0
 13 14  1  0
 15 16  1  0
 17 18  1  0
 19 20  1  0
 21 22  1  0
M  CHG  1   6  -1
M  END
>  <PDB_ID>  (106) 
pdb1bdf

>  <RESIDUE_NAME>  (106) 
GLU   PHE

>  <FRAG_NAME>  (106) 
ACET   MBZ

>  <FRAG_ATOM_NUM>  (106) 
fragi: 7  fragj: 15

>  <atom.prop.CHAIN_ID>  (106) 
A A A A A A A Z Z Z Z Z Z Z Z Z Z Z Z Z Z Z

>  <atom.prop.IS_HEAVY_ATOM>  (106) 
1 0 0 0 1 1 1 1 0 0 0 1 1 0 1 0 1 0 1 0 1 0

>  <DIFUSE_FUNC_ATOM>  (106) 
atom 6   atom 7   

>  <FINAL_SINGLE_POINT_ENERGY>  (106) 
0

>  <NONCOV_INTER_ENERGY_QM>  (106) 
0

>  <FF_Energy>  (106) 
22.18

>  <QM_Energy>  (106) 
0.24

>  <source>  (106) 
ACET_MBZ_00

>  <Index>  (106) 
3814

$$$$
ACET-pdb1be4-A-GLU-138:MBZ-pdb1be4-A-PHE-134
     RDKit          3D

 22 21  0  0  0  0  0  0  0  0999 V2000
   -3.4799    2.9322    0.3692 C   0  0  0  0  0  0  0  0  0  0  0  0
   -2.9935    3.7592    0.5094 H   0  0  0  0  0  0  0  0  0  0  0  0
   -3.0187    2.1357    0.6731 H   0  0  0  0  0  0  0  0  0  0  0  0
   -4.4245    3.0023    0.9088 H   0  0  0  0  0  0  0  0  0  0  0  0
   -3.7670    2.7895   -1.0849 C   0  0  0  0  0  0  0  0  0  0  0  0
   -4.7968    3.4640   -1.4248 O   0  0  0  0  0  1  0  0  0  0  0  0
   -3.1671    2.1015   -1.8473 O   0  0  0  0  0  0  0  0  0  0  0  0
   -0.0630    2.8815   -0.0942 C   0  0  0  0  0  0  0  0  0  0  0  0
    0.7249    3.2747    0.3623 H   0  0  0  0  0  0  0  0  0  0  0  0
   -0.9048    3.1709    0.3446 H   0  0  0  0  0  0  0  0  0  0  0  0
   -0.0788    3.2970   -1.1018 H   0  0  0  0  0  0  0  0  0  0  0  0
    0.0312    1.3889   -0.0159 C   0  0  0  0  0  0  0  0  0  0  0  0
   -1.2119    0.7413   -0.0448 C   0  0  0  0  0  0  0  0  0  0  0  0
   -2.0445    1.2657   -0.0981 H   0  0  0  0  0  0  0  0  0  0  0  0
   -1.2665   -0.6534    0.0000 C   0  0  0  0  0  0  0  0  0  0  0  0
   -2.1143   -1.1344    0.0090 H   0  0  0  0  0  0  0  0  0  0  0  0
   -0.0292   -1.3194    0.0330 C   0  0  0  0  0  0  0  0  0  0  0  0
   -0.0874   -2.3762    0.0905 H   0  0  0  0  0  0  0  0  0  0  0  0
    1.2665   -0.7814    0.0000 C   0  0  0  0  0  0  0  0  0  0  0  0
    2.0621   -1.2806   -0.0343 H   0  0  0  0  0  0  0  0  0  0  0  0
    1.2099    0.6240    0.0276 C   0  0  0  0  0  0  0  0  0  0  0  0
    2.1010    1.1306    0.0829 H   0  0  0  0  0  0  0  0  0  0  0  0
  1  5  1  0
  5  6  1  0
  5  7  2  0
  1  2  1  0
  1  3  1  0
  1  4  1  0
  8 12  1  0
 12 13  2  0
 13 15  1  0
 15 17  2  0
 17 19  1  0
 19 21  2  0
 21 12  1  0
  8  9  1  0
  8 10  1  0
  8 11  1  0
 13 14  1  0
 15 16  1  0
 17 18  1  0
 19 20  1  0
 21 22  1  0
M  CHG  1   6  -1
M  END
>  <PDB_ID>  (107) 
pdb1be4

>  <RESIDUE_NAME>  (107) 
GLU   PHE

>  <FRAG_NAME>  (107) 
ACET   MBZ

>  <FRAG_ATOM_NUM>  (107) 
fragi: 7  fragj: 15

>  <atom.prop.CHAIN_ID>  (107) 
A A A A A A A Z Z Z Z Z Z Z Z Z Z Z Z Z Z Z

>  <atom.prop.IS_HEAVY_ATOM>  (107) 
1 0 0 0 1 1 1 1 0 0 0 1 1 0 1 0 1 0 1 0 1 0

>  <DIFUSE_FUNC_ATOM>  (107) 
atom 6   atom 7   

>  <FINAL_SINGLE_POINT_ENERGY>  (107) 
0

>  <NONCOV_INTER_ENERGY_QM>  (107) 
0

>  <FF_Energy>  (107) 
35.5

>  <QM_Energy>  (107) 
0.9

>  <source>  (107) 
ACET_MBZ_00

>  <Index>  (107) 
3828

$$$$
ACET-pdb1be4-B-GLU-129:MBZ-pdb1be4-B-PHE-8
     RDKit          3D

 22 21  0  0  0  0  0  0  0  0999 V2000
    3.6586    2.6058   -2.6037 C   0  0  0  0  0  0  0  0  0  0  0  0
    4.4219    2.1041   -2.9530 H   0  0  0  0  0  0  0  0  0  0  0  0
    3.6009    3.5150   -2.9575 H   0  0  0  0  0  0  0  0  0  0  0  0
    2.7470    2.0735   -2.8751 H   0  0  0  0  0  0  0  0  0  0  0  0
    3.8105    2.7001   -1.1064 C   0  0  0  0  0  0  0  0  0  0  0  0
    3.0019    3.0215   -0.2386 O   0  0  0  0  0  1  0  0  0  0  0  0
    5.0716    2.6950   -0.8863 O   0  0  0  0  0  0  0  0  0  0  0  0
   -0.0499    2.9430   -0.0807 C   0  0  0  0  0  0  0  0  0  0  0  0
   -0.2766    3.2267   -0.9784 H   0  0  0  0  0  0  0  0  0  0  0  0
    0.7903    3.2878    0.2558 H   0  0  0  0  0  0  0  0  0  0  0  0
   -0.8391    3.2944    0.5841 H   0  0  0  0  0  0  0  0  0  0  0  0
   -0.0031    1.4427   -0.0473 C   0  0  0  0  0  0  0  0  0  0  0  0
   -1.1811    0.6975   -0.0138 C   0  0  0  0  0  0  0  0  0  0  0  0
   -2.0636    1.1724   -0.0001 H   0  0  0  0  0  0  0  0  0  0  0  0
   -1.1759   -0.7047   -0.0000 C   0  0  0  0  0  0  0  0  0  0  0  0
   -2.0763   -1.1908   -0.0071 H   0  0  0  0  0  0  0  0  0  0  0  0
    0.0036   -1.4580    0.0250 C   0  0  0  0  0  0  0  0  0  0  0  0
    0.0052   -2.4136    0.0562 H   0  0  0  0  0  0  0  0  0  0  0  0
    1.1759   -0.6917    0.0000 C   0  0  0  0  0  0  0  0  0  0  0  0
    2.0860   -1.1762   -0.0456 H   0  0  0  0  0  0  0  0  0  0  0  0
    1.1805    0.7142    0.0360 C   0  0  0  0  0  0  0  0  0  0  0  0
    2.0544    1.1945    0.1225 H   0  0  0  0  0  0  0  0  0  0  0  0
  1  5  1  0
  5  6  1  0
  5  7  2  0
  1  2  1  0
  1  3  1  0
  1  4  1  0
  8 12  1  0
 12 13  2  0
 13 15  1  0
 15 17  2  0
 17 19  1  0
 19 21  2  0
 21 12  1  0
  8  9  1  0
  8 10  1  0
  8 11  1  0
 13 14  1  0
 15 16  1  0
 17 18  1  0
 19 20  1  0
 21 22  1  0
M  CHG  1   6  -1
M  END
>  <PDB_ID>  (108) 
pdb1be4

>  <RESIDUE_NAME>  (108) 
GLU   PHE

>  <FRAG_NAME>  (108) 
ACET   MBZ

>  <FRAG_ATOM_NUM>  (108) 
fragi: 7  fragj: 15

>  <atom.prop.CHAIN_ID>  (108) 
A A A A A A A Z Z Z Z Z Z Z Z Z Z Z Z Z Z Z

>  <atom.prop.IS_HEAVY_ATOM>  (108) 
1 0 0 0 1 1 1 1 0 0 0 1 1 0 1 0 1 0 1 0 1 0

>  <DIFUSE_FUNC_ATOM>  (108) 
atom 6   atom 7   

>  <FINAL_SINGLE_POINT_ENERGY>  (108) 
0

>  <NONCOV_INTER_ENERGY_QM>  (108) 
0

>  <FF_Energy>  (108) 
4.07

>  <QM_Energy>  (108) 
-6.35

>  <source>  (108) 
ACET_MBZ_00

>  <Index>  (108) 
3829

$$$$
ACET-pdb2c1x-A-ASP-127:MBZ-pdb2c1x-A-PHE-124
     RDKit          3D

 22 21  0  0  0  0  0  0  0  0999 V2000
   -4.1690    3.0016    2.1783 C   0  0  0  0  0  0  0  0  0  0  0  0
   -3.2047    3.2068    2.1428 H   0  0  0  0  0  0  0  0  0  0  0  0
   -4.4120    2.5459    3.0186 H   0  0  0  0  0  0  0  0  0  0  0  0
   -4.7191    3.9412    2.1285 H   0  0  0  0  0  0  0  0  0  0  0  0
   -4.5177    2.0876    1.0070 C   0  0  0  0  0  0  0  0  0  0  0  0
   -5.4939    1.3538    1.1337 O   0  0  0  0  0  1  0  0  0  0  0  0
   -3.9125    2.2139   -0.0803 O   0  0  0  0  0  0  0  0  0  0  0  0
    0.0061    2.9554   -0.0131 C   0  0  0  0  0  0  0  0  0  0  0  0
    0.9169    3.2467   -0.2517 H   0  0  0  0  0  0  0  0  0  0  0  0
   -0.2501    3.2519    0.8914 H   0  0  0  0  0  0  0  0  0  0  0  0
   -0.6896    3.3993   -0.7252 H   0  0  0  0  0  0  0  0  0  0  0  0
    0.0000    1.4240   -0.0126 C   0  0  0  0  0  0  0  0  0  0  0  0
   -1.1967    0.7064    0.0109 C   0  0  0  0  0  0  0  0  0  0  0  0
   -2.0657    1.1883    0.0349 H   0  0  0  0  0  0  0  0  0  0  0  0
   -1.2016   -0.7019    0.0000 C   0  0  0  0  0  0  0  0  0  0  0  0
   -2.0835   -1.1869   -0.0127 H   0  0  0  0  0  0  0  0  0  0  0  0
   -0.0020   -1.4143    0.0084 C   0  0  0  0  0  0  0  0  0  0  0  0
   -0.0146   -2.4078    0.0199 H   0  0  0  0  0  0  0  0  0  0  0  0
    1.2016   -0.7197    0.0000 C   0  0  0  0  0  0  0  0  0  0  0  0
    2.0840   -1.2017    0.0002 H   0  0  0  0  0  0  0  0  0  0  0  0
    1.1986    0.7055   -0.0068 C   0  0  0  0  0  0  0  0  0  0  0  0
    2.0706    1.1851   -0.0082 H   0  0  0  0  0  0  0  0  0  0  0  0
  1  5  1  0
  5  6  1  0
  5  7  2  0
  1  2  1  0
  1  3  1  0
  1  4  1  0
  8 12  1  0
 12 13  2  0
 13 15  1  0
 15 17  2  0
 17 19  1  0
 19 21  2  0
 21 12  1  0
  8  9  1  0
  8 10  1  0
  8 11  1  0
 13 14  1  0
 15 16  1  0
 17 18  1  0
 19 20  1  0
 21 22  1  0
M  CHG  1   6  -1
M  END
>  <PDB_ID>  (109) 
pdb2c1x

>  <RESIDUE_NAME>  (109) 
ASP   PHE

>  <FRAG_NAME>  (109) 
ACET   MBZ

>  <FRAG_ATOM_NUM>  (109) 
fragi: 7  fragj: 15

>  <atom.prop.CHAIN_ID>  (109) 
A A A A A A A Z Z Z Z Z Z Z Z Z Z Z Z Z Z Z

>  <atom.prop.IS_HEAVY_ATOM>  (109) 
1 0 0 0 1 1 1 1 0 0 0 1 1 0 1 0 1 0 1 0 1 0

>  <DIFUSE_FUNC_ATOM>  (109) 
atom 6   atom 7   

>  <FINAL_SINGLE_POINT_ENERGY>  (109) 
0

>  <NONCOV_INTER_ENERGY_QM>  (109) 
0

>  <FF_Energy>  (109) 
0.63

>  <QM_Energy>  (109) 
-7.02

>  <source>  (109) 
ACET_MBZ_00

>  <Index>  (109) 
3836

$$$$
ACET-pdb1b9c-D-ASP-103:MBZ-pdb1b9c-D-PHE-130
     RDKit          3D

 22 21  0  0  0  0  0  0  0  0999 V2000
   -5.0264    0.9725   -2.2789 C   0  0  0  0  0  0  0  0  0  0  0  0
   -6.0426    0.9831   -2.2620 H   0  0  0  0  0  0  0  0  0  0  0  0
   -4.7381    0.0159   -2.0967 H   0  0  0  0  0  0  0  0  0  0  0  0
   -4.7135    1.2221   -3.2927 H   0  0  0  0  0  0  0  0  0  0  0  0
   -4.5252    1.8450   -1.1254 C   0  0  0  0  0  0  0  0  0  0  0  0
   -3.4156    2.3691   -1.1916 O   0  0  0  0  0  1  0  0  0  0  0  0
   -5.2413    1.9891   -0.1332 O   0  0  0  0  0  0  0  0  0  0  0  0
   -0.0359    2.9061   -0.0698 C   0  0  0  0  0  0  0  0  0  0  0  0
    0.8512    3.2365    0.1790 H   0  0  0  0  0  0  0  0  0  0  0  0
   -0.7442    3.2194    0.5295 H   0  0  0  0  0  0  0  0  0  0  0  0
   -0.2613    3.2552   -1.0774 H   0  0  0  0  0  0  0  0  0  0  0  0
   -0.0041    1.3962   -0.0009 C   0  0  0  0  0  0  0  0  0  0  0  0
   -1.2012    0.6809    0.0031 C   0  0  0  0  0  0  0  0  0  0  0  0
   -2.0675    1.1624    0.0068 H   0  0  0  0  0  0  0  0  0  0  0  0
   -1.1874   -0.7115    0.0000 C   0  0  0  0  0  0  0  0  0  0  0  0
   -2.0711   -1.2073    0.0025 H   0  0  0  0  0  0  0  0  0  0  0  0
   -0.0012   -1.3967   -0.0041 C   0  0  0  0  0  0  0  0  0  0  0  0
    0.0114   -2.3935   -0.0103 H   0  0  0  0  0  0  0  0  0  0  0  0
    1.1874   -0.6832    0.0000 C   0  0  0  0  0  0  0  0  0  0  0  0
    2.0808   -1.1844    0.0028 H   0  0  0  0  0  0  0  0  0  0  0  0
    1.2065    0.7143    0.0020 C   0  0  0  0  0  0  0  0  0  0  0  0
    2.0607    1.2016    0.0045 H   0  0  0  0  0  0  0  0  0  0  0  0
  1  5  1  0
  5  6  1  0
  5  7  2  0
  1  2  1  0
  1  3  1  0
  1  4  1  0
  8 12  1  0
 12 13  2  0
 13 15  1  0
 15 17  2  0
 17 19  1  0
 19 21  2  0
 21 12  1  0
  8  9  1  0
  8 10  1  0
  8 11  1  0
 13 14  1  0
 15 16  1  0
 17 18  1  0
 19 20  1  0
 21 22  1  0
M  CHG  1   6  -1
M  END
>  <PDB_ID>  (110) 
pdb1b9c

>  <RESIDUE_NAME>  (110) 
ASP   PHE

>  <FRAG_NAME>  (110) 
ACET   MBZ

>  <FRAG_ATOM_NUM>  (110) 
fragi: 7  fragj: 15

>  <atom.prop.CHAIN_ID>  (110) 
A A A A A A A Z Z Z Z Z Z Z Z Z Z Z Z Z Z Z

>  <atom.prop.IS_HEAVY_ATOM>  (110) 
1 0 0 0 1 1 1 1 0 0 0 1 1 0 1 0 1 0 1 0 1 0

>  <DIFUSE_FUNC_ATOM>  (110) 
atom 6   atom 7   

>  <FINAL_SINGLE_POINT_ENERGY>  (110) 
0

>  <NONCOV_INTER_ENERGY_QM>  (110) 
0

>  <FF_Energy>  (110) 
0.27

>  <QM_Energy>  (110) 
-6.9

>  <source>  (110) 
ACET_MBZ_00

>  <Index>  (110) 
3950

$$$$
ACET-pdb2c40-B-GLU-197:MBZ-pdb2c40-B-PHE-155
     RDKit          3D

 22 21  0  0  0  0  0  0  0  0999 V2000
   -4.5277    4.4657    2.0240 C   0  0  0  0  0  0  0  0  0  0  0  0
   -3.8694    5.1280    2.3456 H   0  0  0  0  0  0  0  0  0  0  0  0
   -4.7610    3.8157    2.7295 H   0  0  0  0  0  0  0  0  0  0  0  0
   -5.4379    5.0137    1.7803 H   0  0  0  0  0  0  0  0  0  0  0  0
   -3.8869    3.6902    0.8627 C   0  0  0  0  0  0  0  0  0  0  0  0
   -4.3675    3.6457   -0.3227 O   0  0  0  0  0  1  0  0  0  0  0  0
   -2.8438    3.0792    1.1642 O   0  0  0  0  0  0  0  0  0  0  0  0
   -0.0011    2.9295   -0.0114 C   0  0  0  0  0  0  0  0  0  0  0  0
   -0.9010    3.2229   -0.2739 H   0  0  0  0  0  0  0  0  0  0  0  0
    0.6893    3.2259   -0.6449 H   0  0  0  0  0  0  0  0  0  0  0  0
    0.2254    3.3621    0.9631 H   0  0  0  0  0  0  0  0  0  0  0  0
    0.0022    1.3971   -0.0115 C   0  0  0  0  0  0  0  0  0  0  0  0
   -1.1917    0.6696    0.0298 C   0  0  0  0  0  0  0  0  0  0  0  0
   -2.0587    1.1682    0.0811 H   0  0  0  0  0  0  0  0  0  0  0  0
   -1.1928   -0.6981   -0.0000 C   0  0  0  0  0  0  0  0  0  0  0  0
   -2.0730   -1.1976   -0.0206 H   0  0  0  0  0  0  0  0  0  0  0  0
   -0.0077   -1.3775    0.0001 C   0  0  0  0  0  0  0  0  0  0  0  0
    0.0009   -2.3818   -0.0001 H   0  0  0  0  0  0  0  0  0  0  0  0
    1.1928   -0.6819    0.0000 C   0  0  0  0  0  0  0  0  0  0  0  0
    2.0729   -1.1921    0.0153 H   0  0  0  0  0  0  0  0  0  0  0  0
    1.1972    0.6908   -0.0183 C   0  0  0  0  0  0  0  0  0  0  0  0
    2.0629    1.1912   -0.0376 H   0  0  0  0  0  0  0  0  0  0  0  0
  1  5  1  0
  5  6  1  0
  5  7  2  0
  1  2  1  0
  1  3  1  0
  1  4  1  0
  8 12  1  0
 12 13  2  0
 13 15  1  0
 15 17  2  0
 17 19  1  0
 19 21  2  0
 21 12  1  0
  8  9  1  0
  8 10  1  0
  8 11  1  0
 13 14  1  0
 15 16  1  0
 17 18  1  0
 19 20  1  0
 21 22  1  0
M  CHG  1   6  -1
M  END
>  <PDB_ID>  (111) 
pdb2c40

>  <RESIDUE_NAME>  (111) 
GLU   PHE

>  <FRAG_NAME>  (111) 
ACET   MBZ

>  <FRAG_ATOM_NUM>  (111) 
fragi: 7  fragj: 15

>  <atom.prop.CHAIN_ID>  (111) 
A A A A A A A Z Z Z Z Z Z Z Z Z Z Z Z Z Z Z

>  <atom.prop.IS_HEAVY_ATOM>  (111) 
1 0 0 0 1 1 1 1 0 0 0 1 1 0 1 0 1 0 1 0 1 0

>  <DIFUSE_FUNC_ATOM>  (111) 
atom 6   atom 7   

>  <FINAL_SINGLE_POINT_ENERGY>  (111) 
0

>  <NONCOV_INTER_ENERGY_QM>  (111) 
0

>  <FF_Energy>  (111) 
-0.52

>  <QM_Energy>  (111) 
-7.94

>  <source>  (111) 
ACET_MBZ_00

>  <Index>  (111) 
3986

$$$$
ACET-pdb1bh3-A-GLU-163:MBZ-pdb1bh3-A-PHE-115
     RDKit          3D

 22 21  0  0  0  0  0  0  0  0999 V2000
    4.3646    2.0462   -2.5507 C   0  0  0  0  0  0  0  0  0  0  0  0
    5.1068    2.6888   -2.4084 H   0  0  0  0  0  0  0  0  0  0  0  0
    4.3326    1.7509   -3.4972 H   0  0  0  0  0  0  0  0  0  0  0  0
    4.5254    1.1760   -1.9144 H   0  0  0  0  0  0  0  0  0  0  0  0
    3.0717    2.7938   -2.2756 C   0  0  0  0  0  0  0  0  0  0  0  0
    3.0971    3.7213   -1.4324 O   0  0  0  0  0  1  0  0  0  0  0  0
    2.0350    2.4815   -2.9119 O   0  0  0  0  0  0  0  0  0  0  0  0
    0.0101    2.8982   -0.0204 C   0  0  0  0  0  0  0  0  0  0  0  0
    0.8691    3.1995   -0.3737 H   0  0  0  0  0  0  0  0  0  0  0  0
   -0.1677    3.2103    0.8873 H   0  0  0  0  0  0  0  0  0  0  0  0
   -0.7739    3.2903   -0.6683 H   0  0  0  0  0  0  0  0  0  0  0  0
    0.0108    1.3843   -0.0069 C   0  0  0  0  0  0  0  0  0  0  0  0
   -1.1966    0.6987   -0.0048 C   0  0  0  0  0  0  0  0  0  0  0  0
   -2.0548    1.1852   -0.0074 H   0  0  0  0  0  0  0  0  0  0  0  0
   -1.2010   -0.7070    0.0000 C   0  0  0  0  0  0  0  0  0  0  0  0
   -2.0802   -1.1889   -0.0073 H   0  0  0  0  0  0  0  0  0  0  0  0
   -0.0114   -1.3777    0.0162 C   0  0  0  0  0  0  0  0  0  0  0  0
   -0.0000   -2.3874    0.0401 H   0  0  0  0  0  0  0  0  0  0  0  0
    1.2010   -0.6893    0.0000 C   0  0  0  0  0  0  0  0  0  0  0  0
    2.0736   -1.1966   -0.0065 H   0  0  0  0  0  0  0  0  0  0  0  0
    1.1972    0.6910   -0.0045 C   0  0  0  0  0  0  0  0  0  0  0  0
    2.0674    1.1880   -0.0067 H   0  0  0  0  0  0  0  0  0  0  0  0
  1  5  1  0
  5  6  1  0
  5  7  2  0
  1  2  1  0
  1  3  1  0
  1  4  1  0
  8 12  1  0
 12 13  2  0
 13 15  1  0
 15 17  2  0
 17 19  1  0
 19 21  2  0
 21 12  1  0
  8  9  1  0
  8 10  1  0
  8 11  1  0
 13 14  1  0
 15 16  1  0
 17 18  1  0
 19 20  1  0
 21 22  1  0
M  CHG  1   6  -1
M  END
>  <PDB_ID>  (112) 
pdb1bh3

>  <RESIDUE_NAME>  (112) 
GLU   PHE

>  <FRAG_NAME>  (112) 
ACET   MBZ

>  <FRAG_ATOM_NUM>  (112) 
fragi: 7  fragj: 15

>  <atom.prop.CHAIN_ID>  (112) 
A A A A A A A Z Z Z Z Z Z Z Z Z Z Z Z Z Z Z

>  <atom.prop.IS_HEAVY_ATOM>  (112) 
1 0 0 0 1 1 1 1 0 0 0 1 1 0 1 0 1 0 1 0 1 0

>  <DIFUSE_FUNC_ATOM>  (112) 
atom 6   atom 7   

>  <FINAL_SINGLE_POINT_ENERGY>  (112) 
0

>  <NONCOV_INTER_ENERGY_QM>  (112) 
0

>  <FF_Energy>  (112) 
-0.75

>  <QM_Energy>  (112) 
-7.09

>  <source>  (112) 
ACET_MBZ_00

>  <Index>  (112) 
4013

$$$$
ACET-pdb1bi0-A-GLU-83:MBZ-pdb1bi0-A-PHE-128
     RDKit          3D

 22 21  0  0  0  0  0  0  0  0999 V2000
    4.9952   -1.7374   -1.7141 C   0  0  0  0  0  0  0  0  0  0  0  0
    4.5457   -2.5175   -1.3194 H   0  0  0  0  0  0  0  0  0  0  0  0
    5.9744   -1.8054   -1.6587 H   0  0  0  0  0  0  0  0  0  0  0  0
    4.7115   -1.6705   -2.7643 H   0  0  0  0  0  0  0  0  0  0  0  0
    4.5736   -0.5271   -0.9507 C   0  0  0  0  0  0  0  0  0  0  0  0
    4.5981    0.5792   -1.5338 O   0  0  0  0  0  1  0  0  0  0  0  0
    4.2099   -0.6808    0.2314 O   0  0  0  0  0  0  0  0  0  0  0  0
   -0.0143    2.9288   -0.0937 C   0  0  0  0  0  0  0  0  0  0  0  0
    0.9182    3.2372   -0.0683 H   0  0  0  0  0  0  0  0  0  0  0  0
   -0.5418    3.2717    0.6618 H   0  0  0  0  0  0  0  0  0  0  0  0
   -0.4656    3.2990   -1.0142 H   0  0  0  0  0  0  0  0  0  0  0  0
   -0.0038    1.4097   -0.0016 C   0  0  0  0  0  0  0  0  0  0  0  0
   -1.2019    0.6918    0.0001 C   0  0  0  0  0  0  0  0  0  0  0  0
   -2.0699    1.1779    0.0003 H   0  0  0  0  0  0  0  0  0  0  0  0
   -1.2045   -0.7070    0.0000 C   0  0  0  0  0  0  0  0  0  0  0  0
   -2.0747   -1.2026    0.0027 H   0  0  0  0  0  0  0  0  0  0  0  0
    0.0102   -1.4025   -0.0019 C   0  0  0  0  0  0  0  0  0  0  0  0
    0.0092   -2.3976   -0.0052 H   0  0  0  0  0  0  0  0  0  0  0  0
    1.2045   -0.6935   -0.0000 C   0  0  0  0  0  0  0  0  0  0  0  0
    2.0920   -1.1847    0.0000 H   0  0  0  0  0  0  0  0  0  0  0  0
    1.1955    0.7015    0.0035 C   0  0  0  0  0  0  0  0  0  0  0  0
    2.0628    1.1992    0.0092 H   0  0  0  0  0  0  0  0  0  0  0  0
  1  5  1  0
  5  6  1  0
  5  7  2  0
  1  2  1  0
  1  3  1  0
  1  4  1  0
  8 12  1  0
 12 13  2  0
 13 15  1  0
 15 17  2  0
 17 19  1  0
 19 21  2  0
 21 12  1  0
  8  9  1  0
  8 10  1  0
  8 11  1  0
 13 14  1  0
 15 16  1  0
 17 18  1  0
 19 20  1  0
 21 22  1  0
M  CHG  1   6  -1
M  END
>  <PDB_ID>  (113) 
pdb1bi0

>  <RESIDUE_NAME>  (113) 
GLU   PHE

>  <FRAG_NAME>  (113) 
ACET   MBZ

>  <FRAG_ATOM_NUM>  (113) 
fragi: 7  fragj: 15

>  <atom.prop.CHAIN_ID>  (113) 
A A A A A A A Z Z Z Z Z Z Z Z Z Z Z Z Z Z Z

>  <atom.prop.IS_HEAVY_ATOM>  (113) 
1 0 0 0 1 1 1 1 0 0 0 1 1 0 1 0 1 0 1 0 1 0

>  <DIFUSE_FUNC_ATOM>  (113) 
atom 6   atom 7   

>  <FINAL_SINGLE_POINT_ENERGY>  (113) 
0

>  <NONCOV_INTER_ENERGY_QM>  (113) 
0

>  <FF_Energy>  (113) 
-0.51

>  <QM_Energy>  (113) 
-7.17

>  <source>  (113) 
ACET_MBZ_00

>  <Index>  (113) 
4071

$$$$
ACET-pdb2c5u-A-GLU-81:MBZ-pdb2c5u-A-PHE-77
     RDKit          3D

 22 21  0  0  0  0  0  0  0  0999 V2000
    2.9636    3.9224   -3.0620 C   0  0  0  0  0  0  0  0  0  0  0  0
    2.7926    3.1442   -3.6400 H   0  0  0  0  0  0  0  0  0  0  0  0
    3.7947    4.3904   -3.3082 H   0  0  0  0  0  0  0  0  0  0  0  0
    2.1321    4.6185   -3.1712 H   0  0  0  0  0  0  0  0  0  0  0  0
    3.1337    3.4072   -1.6411 C   0  0  0  0  0  0  0  0  0  0  0  0
    3.4572    2.2083   -1.4786 O   0  0  0  0  0  1  0  0  0  0  0  0
    2.9539    4.1942   -0.6910 O   0  0  0  0  0  0  0  0  0  0  0  0
    0.0011    2.9203   -0.0043 C   0  0  0  0  0  0  0  0  0  0  0  0
   -0.7885    3.2223   -0.5161 H   0  0  0  0  0  0  0  0  0  0  0  0
    0.8422    3.2217   -0.4253 H   0  0  0  0  0  0  0  0  0  0  0  0
   -0.0540    3.3650    0.9893 H   0  0  0  0  0  0  0  0  0  0  0  0
    0.0005    1.4092   -0.0005 C   0  0  0  0  0  0  0  0  0  0  0  0
   -1.1998    0.6968    0.0010 C   0  0  0  0  0  0  0  0  0  0  0  0
   -2.0656    1.1827    0.0016 H   0  0  0  0  0  0  0  0  0  0  0  0
   -1.2031   -0.7038    0.0000 C   0  0  0  0  0  0  0  0  0  0  0  0
   -2.0795   -1.1939    0.0018 H   0  0  0  0  0  0  0  0  0  0  0  0
    0.0010   -1.4018   -0.0015 C   0  0  0  0  0  0  0  0  0  0  0  0
   -0.0016   -2.3978   -0.0044 H   0  0  0  0  0  0  0  0  0  0  0  0
    1.2031   -0.7005    0.0000 C   0  0  0  0  0  0  0  0  0  0  0  0
    2.0850   -1.1936    0.0018 H   0  0  0  0  0  0  0  0  0  0  0  0
    1.1983    0.7001    0.0011 C   0  0  0  0  0  0  0  0  0  0  0  0
    2.0668    1.1926    0.0019 H   0  0  0  0  0  0  0  0  0  0  0  0
  1  5  1  0
  5  6  1  0
  5  7  2  0
  1  2  1  0
  1  3  1  0
  1  4  1  0
  8 12  1  0
 12 13  2  0
 13 15  1  0
 15 17  2  0
 17 19  1  0
 19 21  2  0
 21 12  1  0
  8  9  1  0
  8 10  1  0
  8 11  1  0
 13 14  1  0
 15 16  1  0
 17 18  1  0
 19 20  1  0
 21 22  1  0
M  CHG  1   6  -1
M  END
>  <PDB_ID>  (114) 
pdb2c5u

>  <RESIDUE_NAME>  (114) 
GLU   PHE

>  <FRAG_NAME>  (114) 
ACET   MBZ

>  <FRAG_ATOM_NUM>  (114) 
fragi: 7  fragj: 15

>  <atom.prop.CHAIN_ID>  (114) 
A A A A A A A Z Z Z Z Z Z Z Z Z Z Z Z Z Z Z

>  <atom.prop.IS_HEAVY_ATOM>  (114) 
1 0 0 0 1 1 1 1 0 0 0 1 1 0 1 0 1 0 1 0 1 0

>  <DIFUSE_FUNC_ATOM>  (114) 
atom 6   atom 7   

>  <FINAL_SINGLE_POINT_ENERGY>  (114) 
0

>  <NONCOV_INTER_ENERGY_QM>  (114) 
0

>  <FF_Energy>  (114) 
-0.39

>  <QM_Energy>  (114) 
-8.32

>  <source>  (114) 
ACET_MBZ_00

>  <Index>  (114) 
4075

$$$$
ACET-pdb2c5u-B-GLU-81:MBZ-pdb2c5u-B-PHE-77
     RDKit          3D

 22 21  0  0  0  0  0  0  0  0999 V2000
    2.8736    4.0014   -3.0023 C   0  0  0  0  0  0  0  0  0  0  0  0
    2.6576    3.2244   -3.5612 H   0  0  0  0  0  0  0  0  0  0  0  0
    3.7063    4.4428   -3.2763 H   0  0  0  0  0  0  0  0  0  0  0  0
    2.0597    4.7212   -3.0903 H   0  0  0  0  0  0  0  0  0  0  0  0
    3.0605    3.5084   -1.5800 C   0  0  0  0  0  0  0  0  0  0  0  0
    3.5380    2.3662   -1.4053 O   0  0  0  0  0  1  0  0  0  0  0  0
    2.7373    4.2692   -0.6403 O   0  0  0  0  0  0  0  0  0  0  0  0
    0.0052    2.9129    0.0300 C   0  0  0  0  0  0  0  0  0  0  0  0
   -0.7812    3.2308   -0.4754 H   0  0  0  0  0  0  0  0  0  0  0  0
    0.8492    3.2232   -0.3796 H   0  0  0  0  0  0  0  0  0  0  0  0
   -0.0517    3.3337    1.0339 H   0  0  0  0  0  0  0  0  0  0  0  0
    0.0001    1.4064   -0.0003 C   0  0  0  0  0  0  0  0  0  0  0  0
   -1.2000    0.6964    0.0002 C   0  0  0  0  0  0  0  0  0  0  0  0
   -2.0654    1.1856    0.0001 H   0  0  0  0  0  0  0  0  0  0  0  0
   -1.2044   -0.6988    0.0000 C   0  0  0  0  0  0  0  0  0  0  0  0
   -2.0803   -1.1926    0.0009 H   0  0  0  0  0  0  0  0  0  0  0  0
    0.0019   -1.4016    0.0003 C   0  0  0  0  0  0  0  0  0  0  0  0
   -0.0037   -2.3964    0.0007 H   0  0  0  0  0  0  0  0  0  0  0  0
    1.2044   -0.6998    0.0000 C   0  0  0  0  0  0  0  0  0  0  0  0
    2.0865   -1.1937    0.0012 H   0  0  0  0  0  0  0  0  0  0  0  0
    1.1981    0.6975   -0.0002 C   0  0  0  0  0  0  0  0  0  0  0  0
    2.0660    1.1918   -0.0013 H   0  0  0  0  0  0  0  0  0  0  0  0
  1  5  1  0
  5  6  1  0
  5  7  2  0
  1  2  1  0
  1  3  1  0
  1  4  1  0
  8 12  1  0
 12 13  2  0
 13 15  1  0
 15 17  2  0
 17 19  1  0
 19 21  2  0
 21 12  1  0
  8  9  1  0
  8 10  1  0
  8 11  1  0
 13 14  1  0
 15 16  1  0
 17 18  1  0
 19 20  1  0
 21 22  1  0
M  CHG  1   6  -1
M  END
>  <PDB_ID>  (115) 
pdb2c5u

>  <RESIDUE_NAME>  (115) 
GLU   PHE

>  <FRAG_NAME>  (115) 
ACET   MBZ

>  <FRAG_ATOM_NUM>  (115) 
fragi: 7  fragj: 15

>  <atom.prop.CHAIN_ID>  (115) 
A A A A A A A Z Z Z Z Z Z Z Z Z Z Z Z Z Z Z

>  <atom.prop.IS_HEAVY_ATOM>  (115) 
1 0 0 0 1 1 1 1 0 0 0 1 1 0 1 0 1 0 1 0 1 0

>  <DIFUSE_FUNC_ATOM>  (115) 
atom 6   atom 7   

>  <FINAL_SINGLE_POINT_ENERGY>  (115) 
0

>  <NONCOV_INTER_ENERGY_QM>  (115) 
0

>  <FF_Energy>  (115) 
0.7

>  <QM_Energy>  (115) 
-8.06

>  <source>  (115) 
ACET_MBZ_00

>  <Index>  (115) 
4077

$$$$
ACET-pdb2c7y-B-GLU-201:MBZ-pdb2c7y-B-PHE-280
     RDKit          3D

 22 21  0  0  0  0  0  0  0  0999 V2000
   -5.4897    2.9887   -1.1091 C   0  0  0  0  0  0  0  0  0  0  0  0
   -5.7218    3.8142   -1.5765 H   0  0  0  0  0  0  0  0  0  0  0  0
   -6.2111    2.6452   -0.5473 H   0  0  0  0  0  0  0  0  0  0  0  0
   -5.2658    2.2334   -1.8625 H   0  0  0  0  0  0  0  0  0  0  0  0
   -4.2944    3.2723   -0.2178 C   0  0  0  0  0  0  0  0  0  0  0  0
   -3.2267    3.6161   -0.7540 O   0  0  0  0  0  1  0  0  0  0  0  0
   -4.4036    3.1382    1.0150 O   0  0  0  0  0  0  0  0  0  0  0  0
    0.0104    2.8981    0.0083 C   0  0  0  0  0  0  0  0  0  0  0  0
   -0.9159    3.2145    0.1460 H   0  0  0  0  0  0  0  0  0  0  0  0
    0.3727    3.2120   -0.8564 H   0  0  0  0  0  0  0  0  0  0  0  0
    0.6261    3.3279    0.7984 H   0  0  0  0  0  0  0  0  0  0  0  0
   -0.0002    1.4027   -0.0024 C   0  0  0  0  0  0  0  0  0  0  0  0
   -1.2003    0.7082    0.0012 C   0  0  0  0  0  0  0  0  0  0  0  0
   -2.0632    1.1978    0.0032 H   0  0  0  0  0  0  0  0  0  0  0  0
   -1.2070   -0.6880   -0.0000 C   0  0  0  0  0  0  0  0  0  0  0  0
   -2.0823   -1.1813   -0.0025 H   0  0  0  0  0  0  0  0  0  0  0  0
    0.0016   -1.3979    0.0038 C   0  0  0  0  0  0  0  0  0  0  0  0
   -0.0147   -2.3947    0.0087 H   0  0  0  0  0  0  0  0  0  0  0  0
    1.2070   -0.7090   -0.0000 C   0  0  0  0  0  0  0  0  0  0  0  0
    2.0847   -1.2059    0.0009 H   0  0  0  0  0  0  0  0  0  0  0  0
    1.1989    0.6840   -0.0025 C   0  0  0  0  0  0  0  0  0  0  0  0
    2.0678    1.1815   -0.0057 H   0  0  0  0  0  0  0  0  0  0  0  0
  1  5  1  0
  5  6  1  0
  5  7  2  0
  1  2  1  0
  1  3  1  0
  1  4  1  0
  8 12  1  0
 12 13  2  0
 13 15  1  0
 15 17  2  0
 17 19  1  0
 19 21  2  0
 21 12  1  0
  8  9  1  0
  8 10  1  0
  8 11  1  0
 13 14  1  0
 15 16  1  0
 17 18  1  0
 19 20  1  0
 21 22  1  0
M  CHG  1   6  -1
M  END
>  <PDB_ID>  (116) 
pdb2c7y

>  <RESIDUE_NAME>  (116) 
GLU   PHE

>  <FRAG_NAME>  (116) 
ACET   MBZ

>  <FRAG_ATOM_NUM>  (116) 
fragi: 7  fragj: 15

>  <atom.prop.CHAIN_ID>  (116) 
A A A A A A A Z Z Z Z Z Z Z Z Z Z Z Z Z Z Z

>  <atom.prop.IS_HEAVY_ATOM>  (116) 
1 0 0 0 1 1 1 1 0 0 0 1 1 0 1 0 1 0 1 0 1 0

>  <DIFUSE_FUNC_ATOM>  (116) 
atom 6   atom 7   

>  <FINAL_SINGLE_POINT_ENERGY>  (116) 
0

>  <NONCOV_INTER_ENERGY_QM>  (116) 
0

>  <FF_Energy>  (116) 
-2.36

>  <QM_Energy>  (116) 
-8.11

>  <source>  (116) 
ACET_MBZ_00

>  <Index>  (116) 
4152

$$$$
ACET-pdb1bj1-J-GLU-123:MBZ-pdb1bj1-K-PHE-132
     RDKit          3D

 22 21  0  0  0  0  0  0  0  0999 V2000
   -5.9628    0.1893    0.8166 C   0  0  0  0  0  0  0  0  0  0  0  0
   -6.8641   -0.0096    1.1632 H   0  0  0  0  0  0  0  0  0  0  0  0
   -5.9984    0.7477    0.0043 H   0  0  0  0  0  0  0  0  0  0  0  0
   -5.4220    0.7434    1.5838 H   0  0  0  0  0  0  0  0  0  0  0  0
   -5.3189   -1.1497    0.4221 C   0  0  0  0  0  0  0  0  0  0  0  0
   -4.1679   -1.1447   -0.0688 O   0  0  0  0  0  1  0  0  0  0  0  0
   -5.9795   -2.2066    0.5731 O   0  0  0  0  0  0  0  0  0  0  0  0
    0.0069    2.9194    0.0189 C   0  0  0  0  0  0  0  0  0  0  0  0
    0.9451    3.2210   -0.0513 H   0  0  0  0  0  0  0  0  0  0  0  0
   -0.4054    3.2150    0.8668 H   0  0  0  0  0  0  0  0  0  0  0  0
   -0.5516    3.3737   -0.7994 H   0  0  0  0  0  0  0  0  0  0  0  0
    0.0006    1.4116    0.0000 C   0  0  0  0  0  0  0  0  0  0  0  0
   -1.2003    0.7005    0.0005 C   0  0  0  0  0  0  0  0  0  0  0  0
   -2.0659    1.1862    0.0003 H   0  0  0  0  0  0  0  0  0  0  0  0
   -1.2043   -0.7019    0.0000 C   0  0  0  0  0  0  0  0  0  0  0  0
   -2.0822   -1.1909    0.0006 H   0  0  0  0  0  0  0  0  0  0  0  0
   -0.0007   -1.4031    0.0004 C   0  0  0  0  0  0  0  0  0  0  0  0
   -0.0060   -2.3991    0.0004 H   0  0  0  0  0  0  0  0  0  0  0  0
    1.2043   -0.7049   -0.0000 C   0  0  0  0  0  0  0  0  0  0  0  0
    2.0850   -1.1987    0.0022 H   0  0  0  0  0  0  0  0  0  0  0  0
    1.2004    0.6978   -0.0009 C   0  0  0  0  0  0  0  0  0  0  0  0
    2.0686    1.1894   -0.0032 H   0  0  0  0  0  0  0  0  0  0  0  0
  1  5  1  0
  5  6  1  0
  5  7  2  0
  1  2  1  0
  1  3  1  0
  1  4  1  0
  8 12  1  0
 12 13  2  0
 13 15  1  0
 15 17  2  0
 17 19  1  0
 19 21  2  0
 21 12  1  0
  8  9  1  0
  8 10  1  0
  8 11  1  0
 13 14  1  0
 15 16  1  0
 17 18  1  0
 19 20  1  0
 21 22  1  0
M  CHG  1   6  -1
M  END
>  <PDB_ID>  (117) 
pdb1bj1

>  <RESIDUE_NAME>  (117) 
GLU   PHE

>  <FRAG_NAME>  (117) 
ACET   MBZ

>  <FRAG_ATOM_NUM>  (117) 
fragi: 7  fragj: 15

>  <atom.prop.CHAIN_ID>  (117) 
A A A A A A A Z Z Z Z Z Z Z Z Z Z Z Z Z Z Z

>  <atom.prop.IS_HEAVY_ATOM>  (117) 
1 0 0 0 1 1 1 1 0 0 0 1 1 0 1 0 1 0 1 0 1 0

>  <DIFUSE_FUNC_ATOM>  (117) 
atom 6   atom 7   

>  <FINAL_SINGLE_POINT_ENERGY>  (117) 
0

>  <NONCOV_INTER_ENERGY_QM>  (117) 
0

>  <FF_Energy>  (117) 
1.46

>  <QM_Energy>  (117) 
-6.52

>  <source>  (117) 
ACET_MBZ_00

>  <Index>  (117) 
4170

$$$$
ACET-pdb1bk9-A-ASP-99:MBZ-pdb1bk9-A-PHE-5
     RDKit          3D

 22 21  0  0  0  0  0  0  0  0999 V2000
   -3.3001    2.2092   -2.6996 C   0  0  0  0  0  0  0  0  0  0  0  0
   -3.9429    2.8037   -3.1700 H   0  0  0  0  0  0  0  0  0  0  0  0
   -3.4073    2.2925   -1.7154 H   0  0  0  0  0  0  0  0  0  0  0  0
   -3.5345    1.1810   -2.9754 H   0  0  0  0  0  0  0  0  0  0  0  0
   -1.8635    2.6576   -3.0710 C   0  0  0  0  0  0  0  0  0  0  0  0
   -1.0807    1.8730   -3.6036 O   0  0  0  0  0  1  0  0  0  0  0  0
   -1.5033    3.7980   -2.8109 O   0  0  0  0  0  0  0  0  0  0  0  0
    0.0621    2.9399    0.0355 C   0  0  0  0  0  0  0  0  0  0  0  0
   -0.0085    3.2623   -0.9001 H   0  0  0  0  0  0  0  0  0  0  0  0
    0.9340    3.1985    0.4317 H   0  0  0  0  0  0  0  0  0  0  0  0
   -0.7176    3.4385    0.6112 H   0  0  0  0  0  0  0  0  0  0  0  0
    0.0078    1.4026    0.0007 C   0  0  0  0  0  0  0  0  0  0  0  0
   -1.2041    0.6915    0.0006 C   0  0  0  0  0  0  0  0  0  0  0  0
   -2.0613    1.1770   -0.0002 H   0  0  0  0  0  0  0  0  0  0  0  0
   -1.1883   -0.7014    0.0000 C   0  0  0  0  0  0  0  0  0  0  0  0
   -2.0740   -1.1984    0.0015 H   0  0  0  0  0  0  0  0  0  0  0  0
   -0.0005   -1.3962   -0.0007 C   0  0  0  0  0  0  0  0  0  0  0  0
   -0.0002   -2.3936   -0.0018 H   0  0  0  0  0  0  0  0  0  0  0  0
    1.1883   -0.6946   -0.0000 C   0  0  0  0  0  0  0  0  0  0  0  0
    2.0777   -1.1929    0.0024 H   0  0  0  0  0  0  0  0  0  0  0  0
    1.1968    0.6981   -0.0007 C   0  0  0  0  0  0  0  0  0  0  0  0
    2.0673    1.1841   -0.0031 H   0  0  0  0  0  0  0  0  0  0  0  0
  1  5  1  0
  5  6  1  0
  5  7  2  0
  1  2  1  0
  1  3  1  0
  1  4  1  0
  8 12  1  0
 12 13  2  0
 13 15  1  0
 15 17  2  0
 17 19  1  0
 19 21  2  0
 21 12  1  0
  8  9  1  0
  8 10  1  0
  8 11  1  0
 13 14  1  0
 15 16  1  0
 17 18  1  0
 19 20  1  0
 21 22  1  0
M  CHG  1   6  -1
M  END
>  <PDB_ID>  (118) 
pdb1bk9

>  <RESIDUE_NAME>  (118) 
ASP   PHE

>  <FRAG_NAME>  (118) 
ACET   MBZ

>  <FRAG_ATOM_NUM>  (118) 
fragi: 7  fragj: 15

>  <atom.prop.CHAIN_ID>  (118) 
A A A A A A A Z Z Z Z Z Z Z Z Z Z Z Z Z Z Z

>  <atom.prop.IS_HEAVY_ATOM>  (118) 
1 0 0 0 1 1 1 1 0 0 0 1 1 0 1 0 1 0 1 0 1 0

>  <DIFUSE_FUNC_ATOM>  (118) 
atom 6   atom 7   

>  <FINAL_SINGLE_POINT_ENERGY>  (118) 
0

>  <NONCOV_INTER_ENERGY_QM>  (118) 
0

>  <FF_Energy>  (118) 
0.58

>  <QM_Energy>  (118) 
-4.63

>  <source>  (118) 
ACET_MBZ_00

>  <Index>  (118) 
4198

$$$$
ACET-pdb1bkc-I-ASP-268:MBZ-pdb1bkc-I-PHE-272
     RDKit          3D

 22 21  0  0  0  0  0  0  0  0999 V2000
    0.3643    5.0417   -3.2617 C   0  0  0  0  0  0  0  0  0  0  0  0
   -0.1923    5.3117   -4.0455 H   0  0  0  0  0  0  0  0  0  0  0  0
    0.4907    4.0522   -3.2621 H   0  0  0  0  0  0  0  0  0  0  0  0
    1.3433    5.5105   -3.3614 H   0  0  0  0  0  0  0  0  0  0  0  0
   -0.3763    5.4316   -1.9898 C   0  0  0  0  0  0  0  0  0  0  0  0
    0.2136    6.0049   -1.0504 O   0  0  0  0  0  1  0  0  0  0  0  0
   -1.5841    5.1065   -1.9172 O   0  0  0  0  0  0  0  0  0  0  0  0
   -0.0106    2.8976    0.0300 C   0  0  0  0  0  0  0  0  0  0  0  0
   -0.7625    3.1969   -0.5283 H   0  0  0  0  0  0  0  0  0  0  0  0
    0.8560    3.2126   -0.3114 H   0  0  0  0  0  0  0  0  0  0  0  0
   -0.1483    3.3038    1.0320 H   0  0  0  0  0  0  0  0  0  0  0  0
    0.0056    1.3906    0.0161 C   0  0  0  0  0  0  0  0  0  0  0  0
   -1.1815    0.6933   -0.0039 C   0  0  0  0  0  0  0  0  0  0  0  0
   -2.0500    1.1911   -0.0227 H   0  0  0  0  0  0  0  0  0  0  0  0
   -1.1930   -0.6822   -0.0000 C   0  0  0  0  0  0  0  0  0  0  0  0
   -2.0801   -1.1739    0.0122 H   0  0  0  0  0  0  0  0  0  0  0  0
   -0.0084   -1.3945   -0.0106 C   0  0  0  0  0  0  0  0  0  0  0  0
   -0.0144   -2.3855   -0.0258 H   0  0  0  0  0  0  0  0  0  0  0  0
    1.1930   -0.6931   -0.0000 C   0  0  0  0  0  0  0  0  0  0  0  0
    2.0737   -1.1950    0.0108 H   0  0  0  0  0  0  0  0  0  0  0  0
    1.1842    0.6860   -0.0016 C   0  0  0  0  0  0  0  0  0  0  0  0
    2.0604    1.1834   -0.0168 H   0  0  0  0  0  0  0  0  0  0  0  0
  1  5  1  0
  5  6  1  0
  5  7  2  0
  1  2  1  0
  1  3  1  0
  1  4  1  0
  8 12  1  0
 12 13  2  0
 13 15  1  0
 15 17  2  0
 17 19  1  0
 19 21  2  0
 21 12  1  0
  8  9  1  0
  8 10  1  0
  8 11  1  0
 13 14  1  0
 15 16  1  0
 17 18  1  0
 19 20  1  0
 21 22  1  0
M  CHG  1   6  -1
M  END
>  <PDB_ID>  (119) 
pdb1bkc

>  <RESIDUE_NAME>  (119) 
ASP   PHE

>  <FRAG_NAME>  (119) 
ACET   MBZ

>  <FRAG_ATOM_NUM>  (119) 
fragi: 7  fragj: 15

>  <atom.prop.CHAIN_ID>  (119) 
A A A A A A A Z Z Z Z Z Z Z Z Z Z Z Z Z Z Z

>  <atom.prop.IS_HEAVY_ATOM>  (119) 
1 0 0 0 1 1 1 1 0 0 0 1 1 0 1 0 1 0 1 0 1 0

>  <DIFUSE_FUNC_ATOM>  (119) 
atom 6   atom 7   

>  <FINAL_SINGLE_POINT_ENERGY>  (119) 
0

>  <NONCOV_INTER_ENERGY_QM>  (119) 
0

>  <FF_Energy>  (119) 
-0.85

>  <QM_Energy>  (119) 
-6.12

>  <source>  (119) 
ACET_MBZ_00

>  <Index>  (119) 
4212

$$$$
ACET-pdb1bkh-A-GLU-62:MBZ-pdb1bkh-A-PHE-103
     RDKit          3D

 22 21  0  0  0  0  0  0  0  0999 V2000
   -2.7512    2.6489   -3.8093 C   0  0  0  0  0  0  0  0  0  0  0  0
   -3.0595    3.3085   -4.4731 H   0  0  0  0  0  0  0  0  0  0  0  0
   -3.3490    1.8669   -3.7639 H   0  0  0  0  0  0  0  0  0  0  0  0
   -1.7591    2.3057   -4.1030 H   0  0  0  0  0  0  0  0  0  0  0  0
   -2.7758    3.3219   -2.4503 C   0  0  0  0  0  0  0  0  0  0  0  0
   -2.3870    4.5154   -2.3479 O   0  0  0  0  0  1  0  0  0  0  0  0
   -3.2017    2.6629   -1.4810 O   0  0  0  0  0  0  0  0  0  0  0  0
   -0.0029    2.9253   -0.0362 C   0  0  0  0  0  0  0  0  0  0  0  0
   -0.4881    3.2100   -0.8491 H   0  0  0  0  0  0  0  0  0  0  0  0
    0.9364    3.2320   -0.0504 H   0  0  0  0  0  0  0  0  0  0  0  0
   -0.4897    3.3940    0.8191 H   0  0  0  0  0  0  0  0  0  0  0  0
    0.0009    1.4115   -0.0005 C   0  0  0  0  0  0  0  0  0  0  0  0
   -1.1956    0.6870    0.0003 C   0  0  0  0  0  0  0  0  0  0  0  0
   -2.0657    1.1700    0.0003 H   0  0  0  0  0  0  0  0  0  0  0  0
   -1.1976   -0.7163    0.0000 C   0  0  0  0  0  0  0  0  0  0  0  0
   -2.0761   -1.2035    0.0016 H   0  0  0  0  0  0  0  0  0  0  0  0
   -0.0003   -1.4027   -0.0005 C   0  0  0  0  0  0  0  0  0  0  0  0
    0.0110   -2.3988   -0.0016 H   0  0  0  0  0  0  0  0  0  0  0  0
    1.1976   -0.6892   -0.0000 C   0  0  0  0  0  0  0  0  0  0  0  0
    2.0848   -1.1828    0.0014 H   0  0  0  0  0  0  0  0  0  0  0  0
    1.1950    0.7097    0.0007 C   0  0  0  0  0  0  0  0  0  0  0  0
    2.0643    1.2003    0.0010 H   0  0  0  0  0  0  0  0  0  0  0  0
  1  5  1  0
  5  6  1  0
  5  7  2  0
  1  2  1  0
  1  3  1  0
  1  4  1  0
  8 12  1  0
 12 13  2  0
 13 15  1  0
 15 17  2  0
 17 19  1  0
 19 21  2  0
 21 12  1  0
  8  9  1  0
  8 10  1  0
  8 11  1  0
 13 14  1  0
 15 16  1  0
 17 18  1  0
 19 20  1  0
 21 22  1  0
M  CHG  1   6  -1
M  END
>  <PDB_ID>  (120) 
pdb1bkh

>  <RESIDUE_NAME>  (120) 
GLU   PHE

>  <FRAG_NAME>  (120) 
ACET   MBZ

>  <FRAG_ATOM_NUM>  (120) 
fragi: 7  fragj: 15

>  <atom.prop.CHAIN_ID>  (120) 
A A A A A A A Z Z Z Z Z Z Z Z Z Z Z Z Z Z Z

>  <atom.prop.IS_HEAVY_ATOM>  (120) 
1 0 0 0 1 1 1 1 0 0 0 1 1 0 1 0 1 0 1 0 1 0

>  <DIFUSE_FUNC_ATOM>  (120) 
atom 6   atom 7   

>  <FINAL_SINGLE_POINT_ENERGY>  (120) 
0

>  <NONCOV_INTER_ENERGY_QM>  (120) 
0

>  <FF_Energy>  (120) 
13.07

>  <QM_Energy>  (120) 
-8.07

>  <source>  (120) 
ACET_MBZ_00

>  <Index>  (120) 
4231

$$$$
ACET-pdb1bkh-C-GLU-62:MBZ-pdb1bkh-C-PHE-103
     RDKit          3D

 22 21  0  0  0  0  0  0  0  0999 V2000
   -2.3297    3.0411   -3.8583 C   0  0  0  0  0  0  0  0  0  0  0  0
   -2.3007    3.8453   -4.4254 H   0  0  0  0  0  0  0  0  0  0  0  0
   -3.0979    2.4645   -4.0754 H   0  0  0  0  0  0  0  0  0  0  0  0
   -1.4179    2.4711   -4.0369 H   0  0  0  0  0  0  0  0  0  0  0  0
   -2.4943    3.5014   -2.4130 C   0  0  0  0  0  0  0  0  0  0  0  0
   -1.9983    4.5990   -2.0624 O   0  0  0  0  0  1  0  0  0  0  0  0
   -3.1470    2.7861   -1.6130 O   0  0  0  0  0  0  0  0  0  0  0  0
    0.0163    2.9192   -0.0766 C   0  0  0  0  0  0  0  0  0  0  0  0
   -0.5052    3.1873   -0.8739 H   0  0  0  0  0  0  0  0  0  0  0  0
    0.9593    3.2098   -0.1526 H   0  0  0  0  0  0  0  0  0  0  0  0
   -0.4182    3.4183    0.7895 H   0  0  0  0  0  0  0  0  0  0  0  0
    0.0029    1.4079   -0.0023 C   0  0  0  0  0  0  0  0  0  0  0  0
   -1.1906    0.6976    0.0009 C   0  0  0  0  0  0  0  0  0  0  0  0
   -2.0599    1.1854    0.0022 H   0  0  0  0  0  0  0  0  0  0  0  0
   -1.1970   -0.6966    0.0000 C   0  0  0  0  0  0  0  0  0  0  0  0
   -2.0811   -1.1842    0.0003 H   0  0  0  0  0  0  0  0  0  0  0  0
   -0.0071   -1.3993    0.0002 C   0  0  0  0  0  0  0  0  0  0  0  0
   -0.0131   -2.3970   -0.0004 H   0  0  0  0  0  0  0  0  0  0  0  0
    1.1970   -0.7061   -0.0000 C   0  0  0  0  0  0  0  0  0  0  0  0
    2.0768   -1.2004    0.0006 H   0  0  0  0  0  0  0  0  0  0  0  0
    1.1948    0.6966    0.0013 C   0  0  0  0  0  0  0  0  0  0  0  0
    2.0670    1.1846    0.0039 H   0  0  0  0  0  0  0  0  0  0  0  0
  1  5  1  0
  5  6  1  0
  5  7  2  0
  1  2  1  0
  1  3  1  0
  1  4  1  0
  8 12  1  0
 12 13  2  0
 13 15  1  0
 15 17  2  0
 17 19  1  0
 19 21  2  0
 21 12  1  0
  8  9  1  0
  8 10  1  0
  8 11  1  0
 13 14  1  0
 15 16  1  0
 17 18  1  0
 19 20  1  0
 21 22  1  0
M  CHG  1   6  -1
M  END
>  <PDB_ID>  (121) 
pdb1bkh

>  <RESIDUE_NAME>  (121) 
GLU   PHE

>  <FRAG_NAME>  (121) 
ACET   MBZ

>  <FRAG_ATOM_NUM>  (121) 
fragi: 7  fragj: 15

>  <atom.prop.CHAIN_ID>  (121) 
A A A A A A A Z Z Z Z Z Z Z Z Z Z Z Z Z Z Z

>  <atom.prop.IS_HEAVY_ATOM>  (121) 
1 0 0 0 1 1 1 1 0 0 0 1 1 0 1 0 1 0 1 0 1 0

>  <DIFUSE_FUNC_ATOM>  (121) 
atom 6   atom 7   

>  <FINAL_SINGLE_POINT_ENERGY>  (121) 
0

>  <NONCOV_INTER_ENERGY_QM>  (121) 
0

>  <FF_Energy>  (121) 
-0.94

>  <QM_Energy>  (121) 
-8.0

>  <source>  (121) 
ACET_MBZ_00

>  <Index>  (121) 
4239

$$$$
ACET-pdb1blx-A-ASP-102:MBZ-pdb1blx-B-PHE-51
     RDKit          3D

 22 21  0  0  0  0  0  0  0  0999 V2000
    3.0641    5.5039    0.1450 C   0  0  0  0  0  0  0  0  0  0  0  0
    2.8561    5.7880    1.0470 H   0  0  0  0  0  0  0  0  0  0  0  0
    2.3019    5.4318   -0.4462 H   0  0  0  0  0  0  0  0  0  0  0  0
    3.7290    6.2556   -0.2805 H   0  0  0  0  0  0  0  0  0  0  0  0
    3.8190    4.1904    0.1789 C   0  0  0  0  0  0  0  0  0  0  0  0
    4.8229    4.1061    0.8925 O   0  0  0  0  0  1  0  0  0  0  0  0
    3.5284    3.1550   -0.4337 O   0  0  0  0  0  0  0  0  0  0  0  0
   -0.0402    2.9010   -0.0974 C   0  0  0  0  0  0  0  0  0  0  0  0
    0.7961    3.2543    0.2252 H   0  0  0  0  0  0  0  0  0  0  0  0
   -0.8324    3.2239    0.3474 H   0  0  0  0  0  0  0  0  0  0  0  0
   -0.1245    3.2032   -1.1413 H   0  0  0  0  0  0  0  0  0  0  0  0
   -0.0048    1.3919   -0.0145 C   0  0  0  0  0  0  0  0  0  0  0  0
   -1.1956    0.7026    0.0343 C   0  0  0  0  0  0  0  0  0  0  0  0
   -2.0625    1.1787    0.0930 H   0  0  0  0  0  0  0  0  0  0  0  0
   -1.2061   -0.7146    0.0000 C   0  0  0  0  0  0  0  0  0  0  0  0
   -2.0738   -1.1936   -0.0192 H   0  0  0  0  0  0  0  0  0  0  0  0
    0.0011   -1.3707   -0.0030 C   0  0  0  0  0  0  0  0  0  0  0  0
    0.0044   -2.3912   -0.0079 H   0  0  0  0  0  0  0  0  0  0  0  0
    1.2061   -0.7001    0.0000 C   0  0  0  0  0  0  0  0  0  0  0  0
    2.0800   -1.1974    0.0152 H   0  0  0  0  0  0  0  0  0  0  0  0
    1.1993    0.6909   -0.0168 C   0  0  0  0  0  0  0  0  0  0  0  0
    2.0626    1.1905   -0.0313 H   0  0  0  0  0  0  0  0  0  0  0  0
  1  5  1  0
  5  6  1  0
  5  7  2  0
  1  2  1  0
  1  3  1  0
  1  4  1  0
  8 12  1  0
 12 13  2  0
 13 15  1  0
 15 17  2  0
 17 19  1  0
 19 21  2  0
 21 12  1  0
  8  9  1  0
  8 10  1  0
  8 11  1  0
 13 14  1  0
 15 16  1  0
 17 18  1  0
 19 20  1  0
 21 22  1  0
M  CHG  1   6  -1
M  END
>  <PDB_ID>  (122) 
pdb1blx

>  <RESIDUE_NAME>  (122) 
ASP   PHE

>  <FRAG_NAME>  (122) 
ACET   MBZ

>  <FRAG_ATOM_NUM>  (122) 
fragi: 7  fragj: 15

>  <atom.prop.CHAIN_ID>  (122) 
A A A A A A A Z Z Z Z Z Z Z Z Z Z Z Z Z Z Z

>  <atom.prop.IS_HEAVY_ATOM>  (122) 
1 0 0 0 1 1 1 1 0 0 0 1 1 0 1 0 1 0 1 0 1 0

>  <DIFUSE_FUNC_ATOM>  (122) 
atom 6   atom 7   

>  <FINAL_SINGLE_POINT_ENERGY>  (122) 
0

>  <NONCOV_INTER_ENERGY_QM>  (122) 
0

>  <FF_Energy>  (122) 
-2.47

>  <QM_Energy>  (122) 
-7.69

>  <source>  (122) 
ACET_MBZ_00

>  <Index>  (122) 
4303

$$$$
ACET-pdb2c1d-F-GLU-134:MBZ-pdb2c1d-F-PHE-120
     RDKit          3D

 22 21  0  0  0  0  0  0  0  0999 V2000
   -5.0664    2.3240    1.8399 C   0  0  0  0  0  0  0  0  0  0  0  0
   -4.8205    1.4821    1.3902 H   0  0  0  0  0  0  0  0  0  0  0  0
   -5.3880    3.0009    1.1997 H   0  0  0  0  0  0  0  0  0  0  0  0
   -5.8738    2.1090    2.5400 H   0  0  0  0  0  0  0  0  0  0  0  0
   -3.8191    2.8736    2.5028 C   0  0  0  0  0  0  0  0  0  0  0  0
   -3.8719    3.2239    3.6901 O   0  0  0  0  0  1  0  0  0  0  0  0
   -2.7729    2.9573    1.8365 O   0  0  0  0  0  0  0  0  0  0  0  0
   -0.0279    2.9041    0.0203 C   0  0  0  0  0  0  0  0  0  0  0  0
   -0.9714    3.1953    0.0655 H   0  0  0  0  0  0  0  0  0  0  0  0
    0.4076    3.2267   -0.8065 H   0  0  0  0  0  0  0  0  0  0  0  0
    0.4974    3.3450    0.8675 H   0  0  0  0  0  0  0  0  0  0  0  0
   -0.0016    1.4071    0.0082 C   0  0  0  0  0  0  0  0  0  0  0  0
   -1.1872    0.6815    0.0092 C   0  0  0  0  0  0  0  0  0  0  0  0
   -2.0631    1.1728    0.0161 H   0  0  0  0  0  0  0  0  0  0  0  0
   -1.1978   -0.7041    0.0000 C   0  0  0  0  0  0  0  0  0  0  0  0
   -2.0789   -1.1936    0.0075 H   0  0  0  0  0  0  0  0  0  0  0  0
   -0.0074   -1.3993   -0.0170 C   0  0  0  0  0  0  0  0  0  0  0  0
   -0.0060   -2.3973   -0.0416 H   0  0  0  0  0  0  0  0  0  0  0  0
    1.1978   -0.7013   -0.0000 C   0  0  0  0  0  0  0  0  0  0  0  0
    2.0792   -1.1887    0.0142 H   0  0  0  0  0  0  0  0  0  0  0  0
    1.1962    0.7161   -0.0004 C   0  0  0  0  0  0  0  0  0  0  0  0
    2.0625    1.1988   -0.0081 H   0  0  0  0  0  0  0  0  0  0  0  0
  1  5  1  0
  5  6  1  0
  5  7  2  0
  1  2  1  0
  1  3  1  0
  1  4  1  0
  8 12  1  0
 12 13  2  0
 13 15  1  0
 15 17  2  0
 17 19  1  0
 19 21  2  0
 21 12  1  0
  8  9  1  0
  8 10  1  0
  8 11  1  0
 13 14  1  0
 15 16  1  0
 17 18  1  0
 19 20  1  0
 21 22  1  0
M  CHG  1   6  -1
M  END
>  <PDB_ID>  (123) 
pdb2c1d

>  <RESIDUE_NAME>  (123) 
GLU   PHE

>  <FRAG_NAME>  (123) 
ACET   MBZ

>  <FRAG_ATOM_NUM>  (123) 
fragi: 7  fragj: 15

>  <atom.prop.CHAIN_ID>  (123) 
A A A A A A A Z Z Z Z Z Z Z Z Z Z Z Z Z Z Z

>  <atom.prop.IS_HEAVY_ATOM>  (123) 
1 0 0 0 1 1 1 1 0 0 0 1 1 0 1 0 1 0 1 0 1 0

>  <DIFUSE_FUNC_ATOM>  (123) 
atom 6   atom 7   

>  <FINAL_SINGLE_POINT_ENERGY>  (123) 
0

>  <NONCOV_INTER_ENERGY_QM>  (123) 
0

>  <FF_Energy>  (123) 
-0.84

>  <QM_Energy>  (123) 
-6.21

>  <source>  (123) 
ACET_MBZ_00

>  <Index>  (123) 
4399

$$$$
ACET-pdb1boy-A-GLU-208:MBZ-pdb1boy-A-PHE-116
     RDKit          3D

 22 21  0  0  0  0  0  0  0  0999 V2000
    4.2697   -1.7730   -0.3587 C   0  0  0  0  0  0  0  0  0  0  0  0
    3.8211   -1.1168    0.2201 H   0  0  0  0  0  0  0  0  0  0  0  0
    3.6856   -2.5305   -0.5868 H   0  0  0  0  0  0  0  0  0  0  0  0
    4.5761   -1.2759   -1.2791 H   0  0  0  0  0  0  0  0  0  0  0  0
    5.4467   -2.3192    0.3997 C   0  0  0  0  0  0  0  0  0  0  0  0
    6.2656   -3.0498   -0.1974 O   0  0  0  0  0  1  0  0  0  0  0  0
    5.5699   -1.9963    1.5950 O   0  0  0  0  0  0  0  0  0  0  0  0
    0.0008    2.8964    0.0840 C   0  0  0  0  0  0  0  0  0  0  0  0
   -0.6904    3.2450   -0.5299 H   0  0  0  0  0  0  0  0  0  0  0  0
    0.9013    3.2221   -0.1643 H   0  0  0  0  0  0  0  0  0  0  0  0
   -0.2222    3.2815    1.0791 H   0  0  0  0  0  0  0  0  0  0  0  0
   -0.0026    1.4065    0.0020 C   0  0  0  0  0  0  0  0  0  0  0  0
   -1.1997    0.6982   -0.0027 C   0  0  0  0  0  0  0  0  0  0  0  0
   -2.0667    1.1844   -0.0094 H   0  0  0  0  0  0  0  0  0  0  0  0
   -1.2048   -0.7005    0.0000 C   0  0  0  0  0  0  0  0  0  0  0  0
   -2.0775   -1.1937    0.0006 H   0  0  0  0  0  0  0  0  0  0  0  0
    0.0064   -1.4017    0.0036 C   0  0  0  0  0  0  0  0  0  0  0  0
   -0.0002   -2.3972    0.0084 H   0  0  0  0  0  0  0  0  0  0  0  0
    1.2048   -0.7003   -0.0000 C   0  0  0  0  0  0  0  0  0  0  0  0
    2.0890   -1.1915    0.0012 H   0  0  0  0  0  0  0  0  0  0  0  0
    1.1958    0.6979   -0.0029 C   0  0  0  0  0  0  0  0  0  0  0  0
    2.0637    1.1931   -0.0097 H   0  0  0  0  0  0  0  0  0  0  0  0
  1  5  1  0
  5  6  1  0
  5  7  2  0
  1  2  1  0
  1  3  1  0
  1  4  1  0
  8 12  1  0
 12 13  2  0
 13 15  1  0
 15 17  2  0
 17 19  1  0
 19 21  2  0
 21 12  1  0
  8  9  1  0
  8 10  1  0
  8 11  1  0
 13 14  1  0
 15 16  1  0
 17 18  1  0
 19 20  1  0
 21 22  1  0
M  CHG  1   6  -1
M  END
>  <PDB_ID>  (124) 
pdb1boy

>  <RESIDUE_NAME>  (124) 
GLU   PHE

>  <FRAG_NAME>  (124) 
ACET   MBZ

>  <FRAG_ATOM_NUM>  (124) 
fragi: 7  fragj: 15

>  <atom.prop.CHAIN_ID>  (124) 
A A A A A A A Z Z Z Z Z Z Z Z Z Z Z Z Z Z Z

>  <atom.prop.IS_HEAVY_ATOM>  (124) 
1 0 0 0 1 1 1 1 0 0 0 1 1 0 1 0 1 0 1 0 1 0

>  <DIFUSE_FUNC_ATOM>  (124) 
atom 6   atom 7   

>  <FINAL_SINGLE_POINT_ENERGY>  (124) 
0

>  <NONCOV_INTER_ENERGY_QM>  (124) 
0

>  <FF_Energy>  (124) 
8.01

>  <QM_Energy>  (124) 
0.28

>  <source>  (124) 
ACET_MBZ_00

>  <Index>  (124) 
4420

$$$$
ACET-pdb1bqg-A-GLU-60:MBZ-pdb1bqg-A-PHE-350
     RDKit          3D

 22 21  0  0  0  0  0  0  0  0999 V2000
    4.9315    3.9083    0.9937 C   0  0  0  0  0  0  0  0  0  0  0  0
    5.6020    3.8666    0.3093 H   0  0  0  0  0  0  0  0  0  0  0  0
    4.8319    3.1303    1.5462 H   0  0  0  0  0  0  0  0  0  0  0  0
    5.1724    4.7501    1.6429 H   0  0  0  0  0  0  0  0  0  0  0  0
    3.5960    4.2028    0.3386 C   0  0  0  0  0  0  0  0  0  0  0  0
    2.8158    4.9722    0.8217 O   0  0  0  0  0  1  0  0  0  0  0  0
    3.3683    3.6188   -0.8088 O   0  0  0  0  0  0  0  0  0  0  0  0
   -0.0208    2.9045   -0.0178 C   0  0  0  0  0  0  0  0  0  0  0  0
    0.8151    3.2264    0.4241 H   0  0  0  0  0  0  0  0  0  0  0  0
   -0.8157    3.2086    0.5054 H   0  0  0  0  0  0  0  0  0  0  0  0
   -0.0753    3.3902   -0.9921 H   0  0  0  0  0  0  0  0  0  0  0  0
   -0.0038    1.4099   -0.0201 C   0  0  0  0  0  0  0  0  0  0  0  0
   -1.1981    0.6896    0.0108 C   0  0  0  0  0  0  0  0  0  0  0  0
   -2.0689    1.1793    0.0402 H   0  0  0  0  0  0  0  0  0  0  0  0
   -1.2093   -0.7078    0.0000 C   0  0  0  0  0  0  0  0  0  0  0  0
   -2.0787   -1.1991   -0.0148 H   0  0  0  0  0  0  0  0  0  0  0  0
    0.0041   -1.3996    0.0120 C   0  0  0  0  0  0  0  0  0  0  0  0
    0.0058   -2.3966    0.0289 H   0  0  0  0  0  0  0  0  0  0  0  0
    1.2093   -0.6948   -0.0000 C   0  0  0  0  0  0  0  0  0  0  0  0
    2.0898   -1.1877   -0.0048 H   0  0  0  0  0  0  0  0  0  0  0  0
    1.1979    0.7026   -0.0028 C   0  0  0  0  0  0  0  0  0  0  0  0
    2.0642    1.2006    0.0074 H   0  0  0  0  0  0  0  0  0  0  0  0
  1  5  1  0
  5  6  1  0
  5  7  2  0
  1  2  1  0
  1  3  1  0
  1  4  1  0
  8 12  1  0
 12 13  2  0
 13 15  1  0
 15 17  2  0
 17 19  1  0
 19 21  2  0
 21 12  1  0
  8  9  1  0
  8 10  1  0
  8 11  1  0
 13 14  1  0
 15 16  1  0
 17 18  1  0
 19 20  1  0
 21 22  1  0
M  CHG  1   6  -1
M  END
>  <PDB_ID>  (125) 
pdb1bqg

>  <RESIDUE_NAME>  (125) 
GLU   PHE

>  <FRAG_NAME>  (125) 
ACET   MBZ

>  <FRAG_ATOM_NUM>  (125) 
fragi: 7  fragj: 15

>  <atom.prop.CHAIN_ID>  (125) 
A A A A A A A Z Z Z Z Z Z Z Z Z Z Z Z Z Z Z

>  <atom.prop.IS_HEAVY_ATOM>  (125) 
1 0 0 0 1 1 1 1 0 0 0 1 1 0 1 0 1 0 1 0 1 0

>  <DIFUSE_FUNC_ATOM>  (125) 
atom 6   atom 7   

>  <FINAL_SINGLE_POINT_ENERGY>  (125) 
0

>  <NONCOV_INTER_ENERGY_QM>  (125) 
0

>  <FF_Energy>  (125) 
-2.48

>  <QM_Energy>  (125) 
-7.91

>  <source>  (125) 
ACET_MBZ_00

>  <Index>  (125) 
4470

$$$$
ACET-pdb1brm-B-GLU-174:MBZ-pdb1brm-B-PHE-218
     RDKit          3D

 22 21  0  0  0  0  0  0  0  0999 V2000
    5.0410    2.2545   -1.8972 C   0  0  0  0  0  0  0  0  0  0  0  0
    5.1108    2.3106   -0.9189 H   0  0  0  0  0  0  0  0  0  0  0  0
    5.7884    2.7025   -2.3519 H   0  0  0  0  0  0  0  0  0  0  0  0
    5.0504    1.2017   -2.1793 H   0  0  0  0  0  0  0  0  0  0  0  0
    3.7631    2.9606   -2.3085 C   0  0  0  0  0  0  0  0  0  0  0  0
    3.7076    3.4842   -3.4430 O   0  0  0  0  0  1  0  0  0  0  0  0
    2.8139    2.9965   -1.4971 O   0  0  0  0  0  0  0  0  0  0  0  0
   -0.0023    2.9046   -0.0510 C   0  0  0  0  0  0  0  0  0  0  0  0
    0.9282    3.2098   -0.1743 H   0  0  0  0  0  0  0  0  0  0  0  0
   -0.3861    3.2395    0.7949 H   0  0  0  0  0  0  0  0  0  0  0  0
   -0.5967    3.3099   -0.8698 H   0  0  0  0  0  0  0  0  0  0  0  0
    0.0009    1.4028   -0.0006 C   0  0  0  0  0  0  0  0  0  0  0  0
   -1.1990    0.6932    0.0019 C   0  0  0  0  0  0  0  0  0  0  0  0
   -2.0641    1.1864    0.0039 H   0  0  0  0  0  0  0  0  0  0  0  0
   -1.2053   -0.6958   -0.0000 C   0  0  0  0  0  0  0  0  0  0  0  0
   -2.0803   -1.1906    0.0011 H   0  0  0  0  0  0  0  0  0  0  0  0
   -0.0006   -1.3966   -0.0018 C   0  0  0  0  0  0  0  0  0  0  0  0
   -0.0061   -2.3940   -0.0050 H   0  0  0  0  0  0  0  0  0  0  0  0
    1.2053   -0.6994   -0.0000 C   0  0  0  0  0  0  0  0  0  0  0  0
    2.0843   -1.1958    0.0024 H   0  0  0  0  0  0  0  0  0  0  0  0
    1.1988    0.6959    0.0005 C   0  0  0  0  0  0  0  0  0  0  0  0
    2.0667    1.1918    0.0008 H   0  0  0  0  0  0  0  0  0  0  0  0
  1  5  1  0
  5  6  1  0
  5  7  2  0
  1  2  1  0
  1  3  1  0
  1  4  1  0
  8 12  1  0
 12 13  2  0
 13 15  1  0
 15 17  2  0
 17 19  1  0
 19 21  2  0
 21 12  1  0
  8  9  1  0
  8 10  1  0
  8 11  1  0
 13 14  1  0
 15 16  1  0
 17 18  1  0
 19 20  1  0
 21 22  1  0
M  CHG  1   6  -1
M  END
>  <PDB_ID>  (126) 
pdb1brm

>  <RESIDUE_NAME>  (126) 
GLU   PHE

>  <FRAG_NAME>  (126) 
ACET   MBZ

>  <FRAG_ATOM_NUM>  (126) 
fragi: 7  fragj: 15

>  <atom.prop.CHAIN_ID>  (126) 
A A A A A A A Z Z Z Z Z Z Z Z Z Z Z Z Z Z Z

>  <atom.prop.IS_HEAVY_ATOM>  (126) 
1 0 0 0 1 1 1 1 0 0 0 1 1 0 1 0 1 0 1 0 1 0

>  <DIFUSE_FUNC_ATOM>  (126) 
atom 6   atom 7   

>  <FINAL_SINGLE_POINT_ENERGY>  (126) 
0

>  <NONCOV_INTER_ENERGY_QM>  (126) 
0

>  <FF_Energy>  (126) 
-0.16

>  <QM_Energy>  (126) 
-7.08

>  <source>  (126) 
ACET_MBZ_00

>  <Index>  (126) 
4514

$$$$
ACET-pdb1brm-C-GLU-174:MBZ-pdb1brm-C-PHE-218
     RDKit          3D

 22 21  0  0  0  0  0  0  0  0999 V2000
    4.9052    2.0038   -2.0844 C   0  0  0  0  0  0  0  0  0  0  0  0
    4.8931    1.9585   -1.1025 H   0  0  0  0  0  0  0  0  0  0  0  0
    5.6991    2.4744   -2.4245 H   0  0  0  0  0  0  0  0  0  0  0  0
    4.9193    0.9853   -2.4722 H   0  0  0  0  0  0  0  0  0  0  0  0
    3.6854    2.7847   -2.5235 C   0  0  0  0  0  0  0  0  0  0  0  0
    3.7436    3.4406   -3.5844 O   0  0  0  0  0  1  0  0  0  0  0  0
    2.6663    2.7469   -1.8056 O   0  0  0  0  0  0  0  0  0  0  0  0
   -0.0077    2.8978   -0.0467 C   0  0  0  0  0  0  0  0  0  0  0  0
    0.9211    3.2093   -0.1704 H   0  0  0  0  0  0  0  0  0  0  0  0
   -0.3938    3.2320    0.7978 H   0  0  0  0  0  0  0  0  0  0  0  0
   -0.6037    3.3009   -0.8655 H   0  0  0  0  0  0  0  0  0  0  0  0
    0.0006    1.4035   -0.0003 C   0  0  0  0  0  0  0  0  0  0  0  0
   -1.1959    0.6964    0.0009 C   0  0  0  0  0  0  0  0  0  0  0  0
   -2.0629    1.1866    0.0008 H   0  0  0  0  0  0  0  0  0  0  0  0
   -1.2033   -0.6971   -0.0000 C   0  0  0  0  0  0  0  0  0  0  0  0
   -2.0815   -1.1882    0.0024 H   0  0  0  0  0  0  0  0  0  0  0  0
   -0.0025   -1.3991   -0.0017 C   0  0  0  0  0  0  0  0  0  0  0  0
   -0.0081   -2.3957   -0.0045 H   0  0  0  0  0  0  0  0  0  0  0  0
    1.2033   -0.7016    0.0000 C   0  0  0  0  0  0  0  0  0  0  0  0
    2.0827   -1.1967    0.0020 H   0  0  0  0  0  0  0  0  0  0  0  0
    1.1978    0.6979    0.0011 C   0  0  0  0  0  0  0  0  0  0  0  0
    2.0662    1.1904    0.0023 H   0  0  0  0  0  0  0  0  0  0  0  0
  1  5  1  0
  5  6  1  0
  5  7  2  0
  1  2  1  0
  1  3  1  0
  1  4  1  0
  8 12  1  0
 12 13  2  0
 13 15  1  0
 15 17  2  0
 17 19  1  0
 19 21  2  0
 21 12  1  0
  8  9  1  0
  8 10  1  0
  8 11  1  0
 13 14  1  0
 15 16  1  0
 17 18  1  0
 19 20  1  0
 21 22  1  0
M  CHG  1   6  -1
M  END
>  <PDB_ID>  (127) 
pdb1brm

>  <RESIDUE_NAME>  (127) 
GLU   PHE

>  <FRAG_NAME>  (127) 
ACET   MBZ

>  <FRAG_ATOM_NUM>  (127) 
fragi: 7  fragj: 15

>  <atom.prop.CHAIN_ID>  (127) 
A A A A A A A Z Z Z Z Z Z Z Z Z Z Z Z Z Z Z

>  <atom.prop.IS_HEAVY_ATOM>  (127) 
1 0 0 0 1 1 1 1 0 0 0 1 1 0 1 0 1 0 1 0 1 0

>  <DIFUSE_FUNC_ATOM>  (127) 
atom 6   atom 7   

>  <FINAL_SINGLE_POINT_ENERGY>  (127) 
0

>  <NONCOV_INTER_ENERGY_QM>  (127) 
0

>  <FF_Energy>  (127) 
-0.02

>  <QM_Energy>  (127) 
-6.37

>  <source>  (127) 
ACET_MBZ_00

>  <Index>  (127) 
4519

$$$$
ACET-pdb1bro-A-ASP-208:MBZ-pdb1bro-A-PHE-128
     RDKit          3D

 22 21  0  0  0  0  0  0  0  0999 V2000
   -0.9333    0.4104   -3.4994 C   0  0  0  0  0  0  0  0  0  0  0  0
   -0.9430   -0.1996   -2.6978 H   0  0  0  0  0  0  0  0  0  0  0  0
   -1.1296   -0.1419   -4.3187 H   0  0  0  0  0  0  0  0  0  0  0  0
   -1.7354    1.1389   -3.3810 H   0  0  0  0  0  0  0  0  0  0  0  0
    0.4765    0.9824   -3.6408 C   0  0  0  0  0  0  0  0  0  0  0  0
    0.7151    2.1296   -3.1825 O   0  0  0  0  0  1  0  0  0  0  0  0
    1.2765    0.1458   -4.1788 O   0  0  0  0  0  0  0  0  0  0  0  0
    0.0051    2.8995   -0.0230 C   0  0  0  0  0  0  0  0  0  0  0  0
    0.0505    3.1772   -1.0039 H   0  0  0  0  0  0  0  0  0  0  0  0
    0.8815    3.2042    0.4013 H   0  0  0  0  0  0  0  0  0  0  0  0
   -0.7998    3.4688    0.4421 H   0  0  0  0  0  0  0  0  0  0  0  0
   -0.0143    1.4171    0.0166 C   0  0  0  0  0  0  0  0  0  0  0  0
   -1.2027    0.6703   -0.0030 C   0  0  0  0  0  0  0  0  0  0  0  0
   -2.0802    1.1662   -0.0213 H   0  0  0  0  0  0  0  0  0  0  0  0
   -1.2131   -0.7095    0.0000 C   0  0  0  0  0  0  0  0  0  0  0  0
   -2.0783   -1.2118    0.0260 H   0  0  0  0  0  0  0  0  0  0  0  0
    0.0044   -1.4032   -0.0314 C   0  0  0  0  0  0  0  0  0  0  0  0
    0.0087   -2.3963   -0.0759 H   0  0  0  0  0  0  0  0  0  0  0  0
    1.2131   -0.6909    0.0000 C   0  0  0  0  0  0  0  0  0  0  0  0
    2.0943   -1.1858    0.0113 H   0  0  0  0  0  0  0  0  0  0  0  0
    1.2126    0.7163    0.0178 C   0  0  0  0  0  0  0  0  0  0  0  0
    2.0638    1.2137    0.0303 H   0  0  0  0  0  0  0  0  0  0  0  0
  1  5  1  0
  5  6  1  0
  5  7  2  0
  1  2  1  0
  1  3  1  0
  1  4  1  0
  8 12  1  0
 12 13  2  0
 13 15  1  0
 15 17  2  0
 17 19  1  0
 19 21  2  0
 21 12  1  0
  8  9  1  0
  8 10  1  0
  8 11  1  0
 13 14  1  0
 15 16  1  0
 17 18  1  0
 19 20  1  0
 21 22  1  0
M  CHG  1   6  -1
M  END
>  <PDB_ID>  (128) 
pdb1bro

>  <RESIDUE_NAME>  (128) 
ASP   PHE

>  <FRAG_NAME>  (128) 
ACET   MBZ

>  <FRAG_ATOM_NUM>  (128) 
fragi: 7  fragj: 15

>  <atom.prop.CHAIN_ID>  (128) 
A A A A A A A Z Z Z Z Z Z Z Z Z Z Z Z Z Z Z

>  <atom.prop.IS_HEAVY_ATOM>  (128) 
1 0 0 0 1 1 1 1 0 0 0 1 1 0 1 0 1 0 1 0 1 0

>  <DIFUSE_FUNC_ATOM>  (128) 
atom 6   atom 7   

>  <FINAL_SINGLE_POINT_ENERGY>  (128) 
0

>  <NONCOV_INTER_ENERGY_QM>  (128) 
0

>  <FF_Energy>  (128) 
1.14

>  <QM_Energy>  (128) 
-4.21

>  <source>  (128) 
ACET_MBZ_00

>  <Index>  (128) 
4568

$$$$
ACET-pdb1bs0-A-ASP-183:MBZ-pdb1bs0-A-PHE-178
     RDKit          3D

 22 21  0  0  0  0  0  0  0  0999 V2000
   -4.4352    4.1498   -2.5576 C   0  0  0  0  0  0  0  0  0  0  0  0
   -5.1815    3.5048   -2.7058 H   0  0  0  0  0  0  0  0  0  0  0  0
   -4.5345    4.9295   -3.1710 H   0  0  0  0  0  0  0  0  0  0  0  0
   -4.5139    4.5185   -1.5349 H   0  0  0  0  0  0  0  0  0  0  0  0
   -3.1226    3.4554   -2.8565 C   0  0  0  0  0  0  0  0  0  0  0  0
   -2.0714    3.8420   -2.3061 O   0  0  0  0  0  1  0  0  0  0  0  0
   -3.1537    2.4969   -3.6711 O   0  0  0  0  0  0  0  0  0  0  0  0
    0.0994    2.9054    0.0039 C   0  0  0  0  0  0  0  0  0  0  0  0
   -0.6915    3.2422   -0.4060 H   0  0  0  0  0  0  0  0  0  0  0  0
    0.9387    3.1535   -0.3711 H   0  0  0  0  0  0  0  0  0  0  0  0
    0.0928    3.1940    1.0550 H   0  0  0  0  0  0  0  0  0  0  0  0
    0.0160    1.3627   -0.0187 C   0  0  0  0  0  0  0  0  0  0  0  0
   -1.2014    0.7174   -0.0083 C   0  0  0  0  0  0  0  0  0  0  0  0
   -2.0448    1.2213   -0.0075 H   0  0  0  0  0  0  0  0  0  0  0  0
   -1.2120   -0.6647    0.0000 C   0  0  0  0  0  0  0  0  0  0  0  0
   -2.0878   -1.1585   -0.0231 H   0  0  0  0  0  0  0  0  0  0  0  0
   -0.0143   -1.3552    0.0425 C   0  0  0  0  0  0  0  0  0  0  0  0
   -0.0420   -2.3724    0.1071 H   0  0  0  0  0  0  0  0  0  0  0  0
    1.2120   -0.7202    0.0000 C   0  0  0  0  0  0  0  0  0  0  0  0
    2.0663   -1.2290   -0.0169 H   0  0  0  0  0  0  0  0  0  0  0  0
    1.1996    0.6600   -0.0154 C   0  0  0  0  0  0  0  0  0  0  0  0
    2.0733    1.1606   -0.0251 H   0  0  0  0  0  0  0  0  0  0  0  0
  1  5  1  0
  5  6  1  0
  5  7  2  0
  1  2  1  0
  1  3  1  0
  1  4  1  0
  8 12  1  0
 12 13  2  0
 13 15  1  0
 15 17  2  0
 17 19  1  0
 19 21  2  0
 21 12  1  0
  8  9  1  0
  8 10  1  0
  8 11  1  0
 13 14  1  0
 15 16  1  0
 17 18  1  0
 19 20  1  0
 21 22  1  0
M  CHG  1   6  -1
M  END
>  <PDB_ID>  (129) 
pdb1bs0

>  <RESIDUE_NAME>  (129) 
ASP   PHE

>  <FRAG_NAME>  (129) 
ACET   MBZ

>  <FRAG_ATOM_NUM>  (129) 
fragi: 7  fragj: 15

>  <atom.prop.CHAIN_ID>  (129) 
A A A A A A A Z Z Z Z Z Z Z Z Z Z Z Z Z Z Z

>  <atom.prop.IS_HEAVY_ATOM>  (129) 
1 0 0 0 1 1 1 1 0 0 0 1 1 0 1 0 1 0 1 0 1 0

>  <DIFUSE_FUNC_ATOM>  (129) 
atom 6   atom 7   

>  <FINAL_SINGLE_POINT_ENERGY>  (129) 
0

>  <NONCOV_INTER_ENERGY_QM>  (129) 
0

>  <FF_Energy>  (129) 
0.26

>  <QM_Energy>  (129) 
-4.93

>  <source>  (129) 
ACET_MBZ_00

>  <Index>  (129) 
4594

$$$$
ACET-pdb2cjp-A-GLU-35:MBZ-pdb2cjp-A-PHE-301
     RDKit          3D

 22 21  0  0  0  0  0  0  0  0999 V2000
   -5.0783   -1.1612    1.1564 C   0  0  0  0  0  0  0  0  0  0  0  0
   -4.6744   -0.9464    2.0294 H   0  0  0  0  0  0  0  0  0  0  0  0
   -4.7305   -2.0084    0.7907 H   0  0  0  0  0  0  0  0  0  0  0  0
   -6.1523   -1.2746    1.3038 H   0  0  0  0  0  0  0  0  0  0  0  0
   -4.7065   -0.0533    0.1886 C   0  0  0  0  0  0  0  0  0  0  0  0
   -4.0230   -0.3506   -0.8110 O   0  0  0  0  0  1  0  0  0  0  0  0
   -5.0796    1.1101    0.4249 O   0  0  0  0  0  0  0  0  0  0  0  0
    0.0044    2.9094   -0.0097 C   0  0  0  0  0  0  0  0  0  0  0  0
    0.8443    3.2215    0.4014 H   0  0  0  0  0  0  0  0  0  0  0  0
   -0.7869    3.2233    0.4878 H   0  0  0  0  0  0  0  0  0  0  0  0
   -0.0484    3.3287   -1.0144 H   0  0  0  0  0  0  0  0  0  0  0  0
    0.0037    1.4055    0.0084 C   0  0  0  0  0  0  0  0  0  0  0  0
   -1.1941    0.6991   -0.0068 C   0  0  0  0  0  0  0  0  0  0  0  0
   -2.0607    1.1827   -0.0237 H   0  0  0  0  0  0  0  0  0  0  0  0
   -1.1976   -0.7056    0.0000 C   0  0  0  0  0  0  0  0  0  0  0  0
   -2.0809   -1.1882    0.0054 H   0  0  0  0  0  0  0  0  0  0  0  0
   -0.0086   -1.3954    0.0004 C   0  0  0  0  0  0  0  0  0  0  0  0
   -0.0045   -2.3962    0.0005 H   0  0  0  0  0  0  0  0  0  0  0  0
    1.1976   -0.6982   -0.0000 C   0  0  0  0  0  0  0  0  0  0  0  0
    2.0769   -1.1990    0.0027 H   0  0  0  0  0  0  0  0  0  0  0  0
    1.1990    0.6945   -0.0021 C   0  0  0  0  0  0  0  0  0  0  0  0
    2.0684    1.1869   -0.0122 H   0  0  0  0  0  0  0  0  0  0  0  0
  1  5  1  0
  5  6  1  0
  5  7  2  0
  1  2  1  0
  1  3  1  0
  1  4  1  0
  8 12  1  0
 12 13  2  0
 13 15  1  0
 15 17  2  0
 17 19  1  0
 19 21  2  0
 21 12  1  0
  8  9  1  0
  8 10  1  0
  8 11  1  0
 13 14  1  0
 15 16  1  0
 17 18  1  0
 19 20  1  0
 21 22  1  0
M  CHG  1   6  -1
M  END
>  <PDB_ID>  (130) 
pdb2cjp

>  <RESIDUE_NAME>  (130) 
GLU   PHE

>  <FRAG_NAME>  (130) 
ACET   MBZ

>  <FRAG_ATOM_NUM>  (130) 
fragi: 7  fragj: 15

>  <atom.prop.CHAIN_ID>  (130) 
A A A A A A A Z Z Z Z Z Z Z Z Z Z Z Z Z Z Z

>  <atom.prop.IS_HEAVY_ATOM>  (130) 
1 0 0 0 1 1 1 1 0 0 0 1 1 0 1 0 1 0 1 0 1 0

>  <DIFUSE_FUNC_ATOM>  (130) 
atom 6   atom 7   

>  <FINAL_SINGLE_POINT_ENERGY>  (130) 
0

>  <NONCOV_INTER_ENERGY_QM>  (130) 
0

>  <FF_Energy>  (130) 
-0.85

>  <QM_Energy>  (130) 
-6.79

>  <source>  (130) 
ACET_MBZ_00

>  <Index>  (130) 
4709

$$$$
ACET-pdb1bw0-B-GLU-319:MBZ-pdb1bw0-B-PHE-224
     RDKit          3D

 22 21  0  0  0  0  0  0  0  0999 V2000
   -0.5580    1.9699    3.5812 C   0  0  0  0  0  0  0  0  0  0  0  0
   -0.2830    1.9172    4.5289 H   0  0  0  0  0  0  0  0  0  0  0  0
    0.1902    1.7408    2.9768 H   0  0  0  0  0  0  0  0  0  0  0  0
   -1.3584    1.2479    3.4202 H   0  0  0  0  0  0  0  0  0  0  0  0
   -0.9528    3.4024    3.2981 C   0  0  0  0  0  0  0  0  0  0  0  0
   -2.1426    3.7621    3.4429 O   0  0  0  0  0  1  0  0  0  0  0  0
   -0.0732    4.1997    2.9060 O   0  0  0  0  0  0  0  0  0  0  0  0
    0.0285    2.9007   -0.0022 C   0  0  0  0  0  0  0  0  0  0  0  0
    0.8528    3.1939   -0.4766 H   0  0  0  0  0  0  0  0  0  0  0  0
    0.0536    3.1985    0.9476 H   0  0  0  0  0  0  0  0  0  0  0  0
   -0.8207    3.3887   -0.4804 H   0  0  0  0  0  0  0  0  0  0  0  0
   -0.0002    1.3983   -0.0137 C   0  0  0  0  0  0  0  0  0  0  0  0
   -1.1870    0.6833    0.0036 C   0  0  0  0  0  0  0  0  0  0  0  0
   -2.0584    1.1805    0.0178 H   0  0  0  0  0  0  0  0  0  0  0  0
   -1.1964   -0.6911   -0.0000 C   0  0  0  0  0  0  0  0  0  0  0  0
   -2.0740   -1.1879   -0.0028 H   0  0  0  0  0  0  0  0  0  0  0  0
   -0.0019   -1.3813    0.0018 C   0  0  0  0  0  0  0  0  0  0  0  0
   -0.0071   -2.3855    0.0034 H   0  0  0  0  0  0  0  0  0  0  0  0
    1.1964   -0.6955    0.0000 C   0  0  0  0  0  0  0  0  0  0  0  0
    2.0762   -1.1953   -0.0064 H   0  0  0  0  0  0  0  0  0  0  0  0
    1.1892    0.6863    0.0083 C   0  0  0  0  0  0  0  0  0  0  0  0
    2.0609    1.1857    0.0293 H   0  0  0  0  0  0  0  0  0  0  0  0
  1  5  1  0
  5  6  1  0
  5  7  2  0
  1  2  1  0
  1  3  1  0
  1  4  1  0
  8 12  1  0
 12 13  2  0
 13 15  1  0
 15 17  2  0
 17 19  1  0
 19 21  2  0
 21 12  1  0
  8  9  1  0
  8 10  1  0
  8 11  1  0
 13 14  1  0
 15 16  1  0
 17 18  1  0
 19 20  1  0
 21 22  1  0
M  CHG  1   6  -1
M  END
>  <PDB_ID>  (131) 
pdb1bw0

>  <RESIDUE_NAME>  (131) 
GLU   PHE

>  <FRAG_NAME>  (131) 
ACET   MBZ

>  <FRAG_ATOM_NUM>  (131) 
fragi: 7  fragj: 15

>  <atom.prop.CHAIN_ID>  (131) 
A A A A A A A Z Z Z Z Z Z Z Z Z Z Z Z Z Z Z

>  <atom.prop.IS_HEAVY_ATOM>  (131) 
1 0 0 0 1 1 1 1 0 0 0 1 1 0 1 0 1 0 1 0 1 0

>  <DIFUSE_FUNC_ATOM>  (131) 
atom 6   atom 7   

>  <FINAL_SINGLE_POINT_ENERGY>  (131) 
0

>  <NONCOV_INTER_ENERGY_QM>  (131) 
0

>  <FF_Energy>  (131) 
0.72

>  <QM_Energy>  (131) 
-5.69

>  <source>  (131) 
ACET_MBZ_00

>  <Index>  (131) 
4745

$$$$
ACET-pdb1bvu-C-GLU-38:MBZ-pdb1bvu-C-PHE-56
     RDKit          3D

 22 21  0  0  0  0  0  0  0  0999 V2000
   -5.2785    0.5662   -0.8922 C   0  0  0  0  0  0  0  0  0  0  0  0
   -6.2568    0.6380   -0.9331 H   0  0  0  0  0  0  0  0  0  0  0  0
   -4.8680    0.5094   -1.7828 H   0  0  0  0  0  0  0  0  0  0  0  0
   -4.8871    1.4474   -0.3838 H   0  0  0  0  0  0  0  0  0  0  0  0
   -4.9422   -0.6962   -0.1521 C   0  0  0  0  0  0  0  0  0  0  0  0
   -3.9311   -0.6882    0.5673 O   0  0  0  0  0  1  0  0  0  0  0  0
   -5.6427   -1.7136   -0.3339 O   0  0  0  0  0  0  0  0  0  0  0  0
   -0.0092    2.8566    0.1282 C   0  0  0  0  0  0  0  0  0  0  0  0
    0.8601    3.1335    0.5293 H   0  0  0  0  0  0  0  0  0  0  0  0
   -0.7601    3.1028    0.7356 H   0  0  0  0  0  0  0  0  0  0  0  0
   -0.1382    3.4117   -0.8009 H   0  0  0  0  0  0  0  0  0  0  0  0
   -0.0013    1.3822   -0.0251 C   0  0  0  0  0  0  0  0  0  0  0  0
   -1.1920    0.6806   -0.0028 C   0  0  0  0  0  0  0  0  0  0  0  0
   -2.0594    1.1763    0.0103 H   0  0  0  0  0  0  0  0  0  0  0  0
   -1.1962   -0.6935    0.0000 C   0  0  0  0  0  0  0  0  0  0  0  0
   -2.0706   -1.1940   -0.0001 H   0  0  0  0  0  0  0  0  0  0  0  0
    0.0022   -1.3778    0.0046 C   0  0  0  0  0  0  0  0  0  0  0  0
    0.0046   -2.3805    0.0104 H   0  0  0  0  0  0  0  0  0  0  0  0
    1.1962   -0.6808    0.0000 C   0  0  0  0  0  0  0  0  0  0  0  0
    2.0793   -1.1850   -0.0196 H   0  0  0  0  0  0  0  0  0  0  0  0
    1.1911    0.6892    0.0233 C   0  0  0  0  0  0  0  0  0  0  0  0
    2.0549    1.1945    0.0746 H   0  0  0  0  0  0  0  0  0  0  0  0
  1  5  1  0
  5  6  1  0
  5  7  2  0
  1  2  1  0
  1  3  1  0
  1  4  1  0
  8 12  1  0
 12 13  2  0
 13 15  1  0
 15 17  2  0
 17 19  1  0
 19 21  2  0
 21 12  1  0
  8  9  1  0
  8 10  1  0
  8 11  1  0
 13 14  1  0
 15 16  1  0
 17 18  1  0
 19 20  1  0
 21 22  1  0
M  CHG  1   6  -1
M  END
>  <PDB_ID>  (132) 
pdb1bvu

>  <RESIDUE_NAME>  (132) 
GLU   PHE

>  <FRAG_NAME>  (132) 
ACET   MBZ

>  <FRAG_ATOM_NUM>  (132) 
fragi: 7  fragj: 15

>  <atom.prop.CHAIN_ID>  (132) 
A A A A A A A Z Z Z Z Z Z Z Z Z Z Z Z Z Z Z

>  <atom.prop.IS_HEAVY_ATOM>  (132) 
1 0 0 0 1 1 1 1 0 0 0 1 1 0 1 0 1 0 1 0 1 0

>  <DIFUSE_FUNC_ATOM>  (132) 
atom 6   atom 7   

>  <FINAL_SINGLE_POINT_ENERGY>  (132) 
0

>  <NONCOV_INTER_ENERGY_QM>  (132) 
0

>  <FF_Energy>  (132) 
5.88

>  <QM_Energy>  (132) 
-5.43

>  <source>  (132) 
ACET_MBZ_00

>  <Index>  (132) 
4751

$$$$
ACET-pdb1bwp-A-GLU-88:MBZ-pdb1bwp-A-PHE-30
     RDKit          3D

 22 21  0  0  0  0  0  0  0  0999 V2000
    3.3788    5.1283    0.5798 C   0  0  0  0  0  0  0  0  0  0  0  0
    2.4940    5.2844    0.1394 H   0  0  0  0  0  0  0  0  0  0  0  0
    4.1002    5.5611    0.0380 H   0  0  0  0  0  0  0  0  0  0  0  0
    3.3558    5.6122    1.5562 H   0  0  0  0  0  0  0  0  0  0  0  0
    3.6351    3.6375    0.5620 C   0  0  0  0  0  0  0  0  0  0  0  0
    3.5824    2.9758    1.6154 O   0  0  0  0  0  1  0  0  0  0  0  0
    3.9041    3.0743   -0.5355 O   0  0  0  0  0  0  0  0  0  0  0  0
    0.0110    2.9124   -0.0046 C   0  0  0  0  0  0  0  0  0  0  0  0
    0.7985    3.2084   -0.5435 H   0  0  0  0  0  0  0  0  0  0  0  0
    0.1202    3.2115    0.9428 H   0  0  0  0  0  0  0  0  0  0  0  0
   -0.8699    3.4123   -0.4074 H   0  0  0  0  0  0  0  0  0  0  0  0
   -0.0068    1.4018   -0.0100 C   0  0  0  0  0  0  0  0  0  0  0  0
   -1.1878    0.6869    0.0170 C   0  0  0  0  0  0  0  0  0  0  0  0
   -2.0637    1.1713    0.0479 H   0  0  0  0  0  0  0  0  0  0  0  0
   -1.1925   -0.7036   -0.0000 C   0  0  0  0  0  0  0  0  0  0  0  0
   -2.0685   -1.1969   -0.0041 H   0  0  0  0  0  0  0  0  0  0  0  0
    0.0077   -1.3940   -0.0086 C   0  0  0  0  0  0  0  0  0  0  0  0
    0.0087   -2.3920   -0.0215 H   0  0  0  0  0  0  0  0  0  0  0  0
    1.1925   -0.6890   -0.0000 C   0  0  0  0  0  0  0  0  0  0  0  0
    2.0837   -1.1823    0.0067 H   0  0  0  0  0  0  0  0  0  0  0  0
    1.1869    0.6979    0.0016 C   0  0  0  0  0  0  0  0  0  0  0  0
    2.0558    1.1959    0.0107 H   0  0  0  0  0  0  0  0  0  0  0  0
  1  5  1  0
  5  6  1  0
  5  7  2  0
  1  2  1  0
  1  3  1  0
  1  4  1  0
  8 12  1  0
 12 13  2  0
 13 15  1  0
 15 17  2  0
 17 19  1  0
 19 21  2  0
 21 12  1  0
  8  9  1  0
  8 10  1  0
  8 11  1  0
 13 14  1  0
 15 16  1  0
 17 18  1  0
 19 20  1  0
 21 22  1  0
M  CHG  1   6  -1
M  END
>  <PDB_ID>  (133) 
pdb1bwp

>  <RESIDUE_NAME>  (133) 
GLU   PHE

>  <FRAG_NAME>  (133) 
ACET   MBZ

>  <FRAG_ATOM_NUM>  (133) 
fragi: 7  fragj: 15

>  <atom.prop.CHAIN_ID>  (133) 
A A A A A A A Z Z Z Z Z Z Z Z Z Z Z Z Z Z Z

>  <atom.prop.IS_HEAVY_ATOM>  (133) 
1 0 0 0 1 1 1 1 0 0 0 1 1 0 1 0 1 0 1 0 1 0

>  <DIFUSE_FUNC_ATOM>  (133) 
atom 6   atom 7   

>  <FINAL_SINGLE_POINT_ENERGY>  (133) 
0

>  <NONCOV_INTER_ENERGY_QM>  (133) 
0

>  <FF_Energy>  (133) 
-2.18

>  <QM_Energy>  (133) 
-8.39

>  <source>  (133) 
ACET_MBZ_00

>  <Index>  (133) 
4810

$$$$
ACET-pdb1bwv-A-GLU-425:MBZ-pdb1bwv-S-PHE-17
     RDKit          3D

 22 21  0  0  0  0  0  0  0  0999 V2000
   -1.9767    5.2786   -3.6186 C   0  0  0  0  0  0  0  0  0  0  0  0
   -2.8211    5.5935   -4.0285 H   0  0  0  0  0  0  0  0  0  0  0  0
   -1.5498    4.5812   -4.1764 H   0  0  0  0  0  0  0  0  0  0  0  0
   -1.2952    6.1270   -3.5550 H   0  0  0  0  0  0  0  0  0  0  0  0
   -2.3237    4.6468   -2.2854 C   0  0  0  0  0  0  0  0  0  0  0  0
   -2.0492    5.2297   -1.2413 O   0  0  0  0  0  1  0  0  0  0  0  0
   -2.8844    3.5606   -2.2983 O   0  0  0  0  0  0  0  0  0  0  0  0
    0.0208    2.9205   -0.0098 C   0  0  0  0  0  0  0  0  0  0  0  0
   -0.6143    3.2211   -0.6973 H   0  0  0  0  0  0  0  0  0  0  0  0
    0.9415    3.2057   -0.2009 H   0  0  0  0  0  0  0  0  0  0  0  0
   -0.2791    3.3529    0.9448 H   0  0  0  0  0  0  0  0  0  0  0  0
    0.0025    1.3993   -0.0008 C   0  0  0  0  0  0  0  0  0  0  0  0
   -1.2123    0.7037    0.0015 C   0  0  0  0  0  0  0  0  0  0  0  0
   -2.0665    1.1919    0.0028 H   0  0  0  0  0  0  0  0  0  0  0  0
   -1.2069   -0.6941   -0.0000 C   0  0  0  0  0  0  0  0  0  0  0  0
   -2.0846   -1.1900    0.0010 H   0  0  0  0  0  0  0  0  0  0  0  0
   -0.0033   -1.3976   -0.0011 C   0  0  0  0  0  0  0  0  0  0  0  0
   -0.0110   -2.3948   -0.0029 H   0  0  0  0  0  0  0  0  0  0  0  0
    1.2069   -0.7045    0.0000 C   0  0  0  0  0  0  0  0  0  0  0  0
    2.0842   -1.2067    0.0019 H   0  0  0  0  0  0  0  0  0  0  0  0
    1.2131    0.6932    0.0004 C   0  0  0  0  0  0  0  0  0  0  0  0
    2.0736    1.1862    0.0009 H   0  0  0  0  0  0  0  0  0  0  0  0
  1  5  1  0
  5  6  1  0
  5  7  2  0
  1  2  1  0
  1  3  1  0
  1  4  1  0
  8 12  1  0
 12 13  2  0
 13 15  1  0
 15 17  2  0
 17 19  1  0
 19 21  2  0
 21 12  1  0
  8  9  1  0
  8 10  1  0
  8 11  1  0
 13 14  1  0
 15 16  1  0
 17 18  1  0
 19 20  1  0
 21 22  1  0
M  CHG  1   6  -1
M  END
>  <PDB_ID>  (134) 
pdb1bwv

>  <RESIDUE_NAME>  (134) 
GLU   PHE

>  <FRAG_NAME>  (134) 
ACET   MBZ

>  <FRAG_ATOM_NUM>  (134) 
fragi: 7  fragj: 15

>  <atom.prop.CHAIN_ID>  (134) 
A A A A A A A Z Z Z Z Z Z Z Z Z Z Z Z Z Z Z

>  <atom.prop.IS_HEAVY_ATOM>  (134) 
1 0 0 0 1 1 1 1 0 0 0 1 1 0 1 0 1 0 1 0 1 0

>  <DIFUSE_FUNC_ATOM>  (134) 
atom 6   atom 7   

>  <FINAL_SINGLE_POINT_ENERGY>  (134) 
0

>  <NONCOV_INTER_ENERGY_QM>  (134) 
0

>  <FF_Energy>  (134) 
-1.3

>  <QM_Energy>  (134) 
-6.65

>  <source>  (134) 
ACET_MBZ_00

>  <Index>  (134) 
4849

$$$$
ACET-pdb1bxb-A-GLU-372:MBZ-pdb1bxb-D-PHE-301
     RDKit          3D

 22 21  0  0  0  0  0  0  0  0999 V2000
   -2.7250    4.9483   -0.4695 C   0  0  0  0  0  0  0  0  0  0  0  0
   -1.7723    4.7442   -0.6458 H   0  0  0  0  0  0  0  0  0  0  0  0
   -2.9091    4.9650    0.5037 H   0  0  0  0  0  0  0  0  0  0  0  0
   -2.9443    5.9348   -0.8780 H   0  0  0  0  0  0  0  0  0  0  0  0
   -3.5491    3.8044   -1.0634 C   0  0  0  0  0  0  0  0  0  0  0  0
   -3.2724    3.3440   -2.1949 O   0  0  0  0  0  1  0  0  0  0  0  0
   -4.3945    3.2757   -0.3207 O   0  0  0  0  0  0  0  0  0  0  0  0
    0.0000    2.9024    0.0324 C   0  0  0  0  0  0  0  0  0  0  0  0
   -0.7421    3.2226   -0.5413 H   0  0  0  0  0  0  0  0  0  0  0  0
    0.8745    3.2185   -0.3114 H   0  0  0  0  0  0  0  0  0  0  0  0
   -0.1401    3.3261    1.0268 H   0  0  0  0  0  0  0  0  0  0  0  0
    0.0005    1.4085    0.0002 C   0  0  0  0  0  0  0  0  0  0  0  0
   -1.2045    0.6971    0.0055 C   0  0  0  0  0  0  0  0  0  0  0  0
   -2.0676    1.1939    0.0120 H   0  0  0  0  0  0  0  0  0  0  0  0
   -1.2176   -0.6952   -0.0000 C   0  0  0  0  0  0  0  0  0  0  0  0
   -2.0902   -1.1888   -0.0069 H   0  0  0  0  0  0  0  0  0  0  0  0
   -0.0041   -1.4071    0.0060 C   0  0  0  0  0  0  0  0  0  0  0  0
   -0.0127   -2.3997    0.0136 H   0  0  0  0  0  0  0  0  0  0  0  0
    1.2176   -0.7072    0.0000 C   0  0  0  0  0  0  0  0  0  0  0  0
    2.0897   -1.2005    0.0055 H   0  0  0  0  0  0  0  0  0  0  0  0
    1.2080    0.7038   -0.0117 C   0  0  0  0  0  0  0  0  0  0  0  0
    2.0714    1.1962   -0.0292 H   0  0  0  0  0  0  0  0  0  0  0  0
  1  5  1  0
  5  6  1  0
  5  7  2  0
  1  2  1  0
  1  3  1  0
  1  4  1  0
  8 12  1  0
 12 13  2  0
 13 15  1  0
 15 17  2  0
 17 19  1  0
 19 21  2  0
 21 12  1  0
  8  9  1  0
  8 10  1  0
  8 11  1  0
 13 14  1  0
 15 16  1  0
 17 18  1  0
 19 20  1  0
 21 22  1  0
M  CHG  1   6  -1
M  END
>  <PDB_ID>  (135) 
pdb1bxb

>  <RESIDUE_NAME>  (135) 
GLU   PHE

>  <FRAG_NAME>  (135) 
ACET   MBZ

>  <FRAG_ATOM_NUM>  (135) 
fragi: 7  fragj: 15

>  <atom.prop.CHAIN_ID>  (135) 
A A A A A A A Z Z Z Z Z Z Z Z Z Z Z Z Z Z Z

>  <atom.prop.IS_HEAVY_ATOM>  (135) 
1 0 0 0 1 1 1 1 0 0 0 1 1 0 1 0 1 0 1 0 1 0

>  <DIFUSE_FUNC_ATOM>  (135) 
atom 6   atom 7   

>  <FINAL_SINGLE_POINT_ENERGY>  (135) 
0

>  <NONCOV_INTER_ENERGY_QM>  (135) 
0

>  <FF_Energy>  (135) 
0.59

>  <QM_Energy>  (135) 
-4.56

>  <source>  (135) 
ACET_MBZ_00

>  <Index>  (135) 
4902

$$$$
ACET-pdb2cmg-A-GLU-85:MBZ-pdb2cmg-A-PHE-114
     RDKit          3D

 22 21  0  0  0  0  0  0  0  0999 V2000
   -2.8623    1.7161    2.9095 C   0  0  0  0  0  0  0  0  0  0  0  0
   -2.0742    1.3287    2.4725 H   0  0  0  0  0  0  0  0  0  0  0  0
   -3.6856    1.5762    2.3948 H   0  0  0  0  0  0  0  0  0  0  0  0
   -2.9829    1.2271    3.8761 H   0  0  0  0  0  0  0  0  0  0  0  0
   -2.6370    3.2204    3.0249 C   0  0  0  0  0  0  0  0  0  0  0  0
   -3.3144    3.8414    3.8680 O   0  0  0  0  0  1  0  0  0  0  0  0
   -1.8052    3.7817    2.2743 O   0  0  0  0  0  0  0  0  0  0  0  0
    0.0052    2.9001    0.0108 C   0  0  0  0  0  0  0  0  0  0  0  0
    0.9000    3.2074   -0.2816 H   0  0  0  0  0  0  0  0  0  0  0  0
   -0.1919    3.2031    0.9328 H   0  0  0  0  0  0  0  0  0  0  0  0
   -0.7319    3.3564   -0.6499 H   0  0  0  0  0  0  0  0  0  0  0  0
   -0.0004    1.3992    0.0000 C   0  0  0  0  0  0  0  0  0  0  0  0
   -1.1911    0.6969    0.0013 C   0  0  0  0  0  0  0  0  0  0  0  0
   -2.0608    1.1835    0.0021 H   0  0  0  0  0  0  0  0  0  0  0  0
   -1.1965   -0.6973   -0.0000 C   0  0  0  0  0  0  0  0  0  0  0  0
   -2.0746   -1.1882    0.0013 H   0  0  0  0  0  0  0  0  0  0  0  0
    0.0027   -1.3933   -0.0008 C   0  0  0  0  0  0  0  0  0  0  0  0
   -0.0027   -2.3922   -0.0025 H   0  0  0  0  0  0  0  0  0  0  0  0
    1.1965   -0.6976    0.0000 C   0  0  0  0  0  0  0  0  0  0  0  0
    2.0813   -1.1920    0.0030 H   0  0  0  0  0  0  0  0  0  0  0  0
    1.1889    0.6920   -0.0005 C   0  0  0  0  0  0  0  0  0  0  0  0
    2.0615    1.1877   -0.0019 H   0  0  0  0  0  0  0  0  0  0  0  0
  1  5  1  0
  5  6  1  0
  5  7  2  0
  1  2  1  0
  1  3  1  0
  1  4  1  0
  8 12  1  0
 12 13  2  0
 13 15  1  0
 15 17  2  0
 17 19  1  0
 19 21  2  0
 21 12  1  0
  8  9  1  0
  8 10  1  0
  8 11  1  0
 13 14  1  0
 15 16  1  0
 17 18  1  0
 19 20  1  0
 21 22  1  0
M  CHG  1   6  -1
M  END
>  <PDB_ID>  (136) 
pdb2cmg

>  <RESIDUE_NAME>  (136) 
GLU   PHE

>  <FRAG_NAME>  (136) 
ACET   MBZ

>  <FRAG_ATOM_NUM>  (136) 
fragi: 7  fragj: 15

>  <atom.prop.CHAIN_ID>  (136) 
A A A A A A A Z Z Z Z Z Z Z Z Z Z Z Z Z Z Z

>  <atom.prop.IS_HEAVY_ATOM>  (136) 
1 0 0 0 1 1 1 1 0 0 0 1 1 0 1 0 1 0 1 0 1 0

>  <DIFUSE_FUNC_ATOM>  (136) 
atom 6   atom 7   

>  <FINAL_SINGLE_POINT_ENERGY>  (136) 
0

>  <NONCOV_INTER_ENERGY_QM>  (136) 
0

>  <FF_Energy>  (136) 
1.13

>  <QM_Energy>  (136) 
-5.38

>  <source>  (136) 
ACET_MBZ_00

>  <Index>  (136) 
5004

$$$$
ACET-pdb1c0a-A-GLU-249:MBZ-pdb1c0a-A-PHE-267
     RDKit          3D

 22 21  0  0  0  0  0  0  0  0999 V2000
   -0.1116    0.4642   -3.5113 C   0  0  0  0  0  0  0  0  0  0  0  0
   -0.8930   -0.0164   -3.8619 H   0  0  0  0  0  0  0  0  0  0  0  0
    0.2020    0.0959   -2.6563 H   0  0  0  0  0  0  0  0  0  0  0  0
    0.6961    0.3856   -4.2390 H   0  0  0  0  0  0  0  0  0  0  0  0
   -0.5328    1.9011   -3.2627 C   0  0  0  0  0  0  0  0  0  0  0  0
    0.3480    2.7945   -3.2398 O   0  0  0  0  0  1  0  0  0  0  0  0
   -1.7509    2.1281   -3.0791 O   0  0  0  0  0  0  0  0  0  0  0  0
   -0.0171    2.9154    0.0079 C   0  0  0  0  0  0  0  0  0  0  0  0
    0.1823    3.2282   -0.9102 H   0  0  0  0  0  0  0  0  0  0  0  0
    0.6714    3.2251    0.6483 H   0  0  0  0  0  0  0  0  0  0  0  0
   -0.9668    3.3587    0.3073 H   0  0  0  0  0  0  0  0  0  0  0  0
   -0.0021    1.4048    0.0001 C   0  0  0  0  0  0  0  0  0  0  0  0
   -1.2007    0.6956    0.0003 C   0  0  0  0  0  0  0  0  0  0  0  0
   -2.0670    1.1864   -0.0002 H   0  0  0  0  0  0  0  0  0  0  0  0
   -1.2080   -0.6984   -0.0000 C   0  0  0  0  0  0  0  0  0  0  0  0
   -2.0792   -1.1938    0.0011 H   0  0  0  0  0  0  0  0  0  0  0  0
    0.0056   -1.4013   -0.0001 C   0  0  0  0  0  0  0  0  0  0  0  0
    0.0009   -2.3952   -0.0004 H   0  0  0  0  0  0  0  0  0  0  0  0
    1.2080   -0.6964    0.0000 C   0  0  0  0  0  0  0  0  0  0  0  0
    2.0896   -1.1910    0.0023 H   0  0  0  0  0  0  0  0  0  0  0  0
    1.1972    0.6957   -0.0003 C   0  0  0  0  0  0  0  0  0  0  0  0
    2.0647    1.1954   -0.0017 H   0  0  0  0  0  0  0  0  0  0  0  0
  1  5  1  0
  5  6  1  0
  5  7  2  0
  1  2  1  0
  1  3  1  0
  1  4  1  0
  8 12  1  0
 12 13  2  0
 13 15  1  0
 15 17  2  0
 17 19  1  0
 19 21  2  0
 21 12  1  0
  8  9  1  0
  8 10  1  0
  8 11  1  0
 13 14  1  0
 15 16  1  0
 17 18  1  0
 19 20  1  0
 21 22  1  0
M  CHG  1   6  -1
M  END
>  <PDB_ID>  (137) 
pdb1c0a

>  <RESIDUE_NAME>  (137) 
GLU   PHE

>  <FRAG_NAME>  (137) 
ACET   MBZ

>  <FRAG_ATOM_NUM>  (137) 
fragi: 7  fragj: 15

>  <atom.prop.CHAIN_ID>  (137) 
A A A A A A A Z Z Z Z Z Z Z Z Z Z Z Z Z Z Z

>  <atom.prop.IS_HEAVY_ATOM>  (137) 
1 0 0 0 1 1 1 1 0 0 0 1 1 0 1 0 1 0 1 0 1 0

>  <DIFUSE_FUNC_ATOM>  (137) 
atom 6   atom 7   

>  <FINAL_SINGLE_POINT_ENERGY>  (137) 
0

>  <NONCOV_INTER_ENERGY_QM>  (137) 
0

>  <FF_Energy>  (137) 
0.74

>  <QM_Energy>  (137) 
-7.15

>  <source>  (137) 
ACET_MBZ_00

>  <Index>  (137) 
5047

$$$$
ACET-pdb1c0f-A-GLU-259:MBZ-pdb1c0f-A-PHE-223
     RDKit          3D

 22 21  0  0  0  0  0  0  0  0999 V2000
   -0.9470    0.2964   -3.6899 C   0  0  0  0  0  0  0  0  0  0  0  0
   -0.4814   -0.1246   -2.9148 H   0  0  0  0  0  0  0  0  0  0  0  0
   -0.4410    0.1129   -4.5301 H   0  0  0  0  0  0  0  0  0  0  0  0
   -1.9304   -0.1650   -3.7811 H   0  0  0  0  0  0  0  0  0  0  0  0
   -0.9361    1.7870   -3.4713 C   0  0  0  0  0  0  0  0  0  0  0  0
   -1.9543    2.4140   -3.1600 O   0  0  0  0  0  1  0  0  0  0  0  0
    0.1661    2.3323   -3.6413 O   0  0  0  0  0  0  0  0  0  0  0  0
   -0.0012    2.8984    0.0018 C   0  0  0  0  0  0  0  0  0  0  0  0
   -0.5668    3.2070   -0.7436 H   0  0  0  0  0  0  0  0  0  0  0  0
    0.9317    3.2018   -0.0929 H   0  0  0  0  0  0  0  0  0  0  0  0
   -0.4011    3.3161    0.9258 H   0  0  0  0  0  0  0  0  0  0  0  0
   -0.0020    1.3930   -0.0077 C   0  0  0  0  0  0  0  0  0  0  0  0
   -1.1934    0.6806   -0.0046 C   0  0  0  0  0  0  0  0  0  0  0  0
   -2.0622    1.1768   -0.0073 H   0  0  0  0  0  0  0  0  0  0  0  0
   -1.2014   -0.6969   -0.0000 C   0  0  0  0  0  0  0  0  0  0  0  0
   -2.0697   -1.1976    0.0041 H   0  0  0  0  0  0  0  0  0  0  0  0
    0.0062   -1.3757    0.0011 C   0  0  0  0  0  0  0  0  0  0  0  0
    0.0016   -2.3851    0.0022 H   0  0  0  0  0  0  0  0  0  0  0  0
    1.2014   -0.6937    0.0000 C   0  0  0  0  0  0  0  0  0  0  0  0
    2.0823   -1.1876   -0.0070 H   0  0  0  0  0  0  0  0  0  0  0  0
    1.1893    0.6927    0.0112 C   0  0  0  0  0  0  0  0  0  0  0  0
    2.0585    1.1926    0.0320 H   0  0  0  0  0  0  0  0  0  0  0  0
  1  5  1  0
  5  6  1  0
  5  7  2  0
  1  2  1  0
  1  3  1  0
  1  4  1  0
  8 12  1  0
 12 13  2  0
 13 15  1  0
 15 17  2  0
 17 19  1  0
 19 21  2  0
 21 12  1  0
  8  9  1  0
  8 10  1  0
  8 11  1  0
 13 14  1  0
 15 16  1  0
 17 18  1  0
 19 20  1  0
 21 22  1  0
M  CHG  1   6  -1
M  END
>  <PDB_ID>  (138) 
pdb1c0f

>  <RESIDUE_NAME>  (138) 
GLU   PHE

>  <FRAG_NAME>  (138) 
ACET   MBZ

>  <FRAG_ATOM_NUM>  (138) 
fragi: 7  fragj: 15

>  <atom.prop.CHAIN_ID>  (138) 
A A A A A A A Z Z Z Z Z Z Z Z Z Z Z Z Z Z Z

>  <atom.prop.IS_HEAVY_ATOM>  (138) 
1 0 0 0 1 1 1 1 0 0 0 1 1 0 1 0 1 0 1 0 1 0

>  <DIFUSE_FUNC_ATOM>  (138) 
atom 6   atom 7   

>  <FINAL_SINGLE_POINT_ENERGY>  (138) 
0

>  <NONCOV_INTER_ENERGY_QM>  (138) 
0

>  <FF_Energy>  (138) 
-0.32

>  <QM_Energy>  (138) 
-6.01

>  <source>  (138) 
ACET_MBZ_00

>  <Index>  (138) 
5087

$$$$
ACET-pdb2cqs-B-ASP-423:MBZ-pdb2cqs-B-PHE-420
     RDKit          3D

 22 21  0  0  0  0  0  0  0  0999 V2000
    1.8799    6.1493    3.0060 C   0  0  0  0  0  0  0  0  0  0  0  0
    2.1571    6.2314    2.0542 H   0  0  0  0  0  0  0  0  0  0  0  0
    2.6514    6.3281    3.6069 H   0  0  0  0  0  0  0  0  0  0  0  0
    1.1203    6.9064    3.2005 H   0  0  0  0  0  0  0  0  0  0  0  0
    1.3869    4.7343    3.2510 C   0  0  0  0  0  0  0  0  0  0  0  0
    0.5240    4.5275    4.1319 O   0  0  0  0  0  1  0  0  0  0  0  0
    1.8916    3.8197    2.5699 O   0  0  0  0  0  0  0  0  0  0  0  0
   -0.0025    2.9145    0.0279 C   0  0  0  0  0  0  0  0  0  0  0  0
    0.6462    3.2075    0.7132 H   0  0  0  0  0  0  0  0  0  0  0  0
   -0.9184    3.2122    0.2481 H   0  0  0  0  0  0  0  0  0  0  0  0
    0.2810    3.3717   -0.9201 H   0  0  0  0  0  0  0  0  0  0  0  0
    0.0002    1.4072    0.0009 C   0  0  0  0  0  0  0  0  0  0  0  0
   -1.1980    0.6960   -0.0012 C   0  0  0  0  0  0  0  0  0  0  0  0
   -2.0653    1.1858   -0.0045 H   0  0  0  0  0  0  0  0  0  0  0  0
   -1.2035   -0.6982   -0.0000 C   0  0  0  0  0  0  0  0  0  0  0  0
   -2.0806   -1.1902    0.0020 H   0  0  0  0  0  0  0  0  0  0  0  0
   -0.0013   -1.3989    0.0011 C   0  0  0  0  0  0  0  0  0  0  0  0
   -0.0069   -2.3955    0.0023 H   0  0  0  0  0  0  0  0  0  0  0  0
    1.2035   -0.7018    0.0000 C   0  0  0  0  0  0  0  0  0  0  0  0
    2.0836   -1.1978    0.0018 H   0  0  0  0  0  0  0  0  0  0  0  0
    1.1991    0.6957   -0.0009 C   0  0  0  0  0  0  0  0  0  0  0  0
    2.0675    1.1892   -0.0034 H   0  0  0  0  0  0  0  0  0  0  0  0
  1  5  1  0
  5  6  1  0
  5  7  2  0
  1  2  1  0
  1  3  1  0
  1  4  1  0
  8 12  1  0
 12 13  2  0
 13 15  1  0
 15 17  2  0
 17 19  1  0
 19 21  2  0
 21 12  1  0
  8  9  1  0
  8 10  1  0
  8 11  1  0
 13 14  1  0
 15 16  1  0
 17 18  1  0
 19 20  1  0
 21 22  1  0
M  CHG  1   6  -1
M  END
>  <PDB_ID>  (139) 
pdb2cqs

>  <RESIDUE_NAME>  (139) 
ASP   PHE

>  <FRAG_NAME>  (139) 
ACET   MBZ

>  <FRAG_ATOM_NUM>  (139) 
fragi: 7  fragj: 15

>  <atom.prop.CHAIN_ID>  (139) 
A A A A A A A Z Z Z Z Z Z Z Z Z Z Z Z Z Z Z

>  <atom.prop.IS_HEAVY_ATOM>  (139) 
1 0 0 0 1 1 1 1 0 0 0 1 1 0 1 0 1 0 1 0 1 0

>  <DIFUSE_FUNC_ATOM>  (139) 
atom 6   atom 7   

>  <FINAL_SINGLE_POINT_ENERGY>  (139) 
0

>  <NONCOV_INTER_ENERGY_QM>  (139) 
0

>  <FF_Energy>  (139) 
0.31

>  <QM_Energy>  (139) 
-5.21

>  <source>  (139) 
ACET_MBZ_00

>  <Index>  (139) 
5137

$$$$
ACET-pdb2cuk-C-ASP-104:MBZ-pdb2cuk-A-PHE-166
     RDKit          3D

 22 21  0  0  0  0  0  0  0  0999 V2000
   -5.6310    0.4095    0.4515 C   0  0  0  0  0  0  0  0  0  0  0  0
   -6.6103    0.5828    0.4317 H   0  0  0  0  0  0  0  0  0  0  0  0
   -5.3422    0.1643    1.3706 H   0  0  0  0  0  0  0  0  0  0  0  0
   -5.4272   -0.4390   -0.2017 H   0  0  0  0  0  0  0  0  0  0  0  0
   -4.9028    1.6741    0.0300 C   0  0  0  0  0  0  0  0  0  0  0  0
   -3.9859    1.5956   -0.8124 O   0  0  0  0  0  1  0  0  0  0  0  0
   -5.2428    2.7510    0.5620 O   0  0  0  0  0  0  0  0  0  0  0  0
   -0.0000    2.9089    0.0161 C   0  0  0  0  0  0  0  0  0  0  0  0
    0.7615    3.2099    0.5695 H   0  0  0  0  0  0  0  0  0  0  0  0
   -0.8618    3.2098    0.3960 H   0  0  0  0  0  0  0  0  0  0  0  0
    0.1052    3.3621   -0.9697 H   0  0  0  0  0  0  0  0  0  0  0  0
    0.0012    1.4042   -0.0005 C   0  0  0  0  0  0  0  0  0  0  0  0
   -1.1983    0.6924   -0.0013 C   0  0  0  0  0  0  0  0  0  0  0  0
   -2.0645    1.1831   -0.0038 H   0  0  0  0  0  0  0  0  0  0  0  0
   -1.2035   -0.7011    0.0000 C   0  0  0  0  0  0  0  0  0  0  0  0
   -2.0797   -1.1933    0.0006 H   0  0  0  0  0  0  0  0  0  0  0  0
   -0.0004   -1.3967    0.0021 C   0  0  0  0  0  0  0  0  0  0  0  0
   -0.0015   -2.3945    0.0048 H   0  0  0  0  0  0  0  0  0  0  0  0
    1.2035   -0.6972    0.0000 C   0  0  0  0  0  0  0  0  0  0  0  0
    2.0843   -1.1928    0.0006 H   0  0  0  0  0  0  0  0  0  0  0  0
    1.1974    0.6985   -0.0004 C   0  0  0  0  0  0  0  0  0  0  0  0
    2.0662    1.1932   -0.0018 H   0  0  0  0  0  0  0  0  0  0  0  0
  1  5  1  0
  5  6  1  0
  5  7  2  0
  1  2  1  0
  1  3  1  0
  1  4  1  0
  8 12  1  0
 12 13  2  0
 13 15  1  0
 15 17  2  0
 17 19  1  0
 19 21  2  0
 21 12  1  0
  8  9  1  0
  8 10  1  0
  8 11  1  0
 13 14  1  0
 15 16  1  0
 17 18  1  0
 19 20  1  0
 21 22  1  0
M  CHG  1   6  -1
M  END
>  <PDB_ID>  (140) 
pdb2cuk

>  <RESIDUE_NAME>  (140) 
ASP   PHE

>  <FRAG_NAME>  (140) 
ACET   MBZ

>  <FRAG_ATOM_NUM>  (140) 
fragi: 7  fragj: 15

>  <atom.prop.CHAIN_ID>  (140) 
A A A A A A A Z Z Z Z Z Z Z Z Z Z Z Z Z Z Z

>  <atom.prop.IS_HEAVY_ATOM>  (140) 
1 0 0 0 1 1 1 1 0 0 0 1 1 0 1 0 1 0 1 0 1 0

>  <DIFUSE_FUNC_ATOM>  (140) 
atom 6   atom 7   

>  <FINAL_SINGLE_POINT_ENERGY>  (140) 
0

>  <NONCOV_INTER_ENERGY_QM>  (140) 
0

>  <FF_Energy>  (140) 
0.86

>  <QM_Energy>  (140) 
-6.61

>  <source>  (140) 
ACET_MBZ_00

>  <Index>  (140) 
5190

$$$$
ACET-pdb2cuk-A-ASP-104:MBZ-pdb2cuk-C-PHE-166
     RDKit          3D

 22 21  0  0  0  0  0  0  0  0999 V2000
   -5.8925    0.3098    0.3156 C   0  0  0  0  0  0  0  0  0  0  0  0
   -6.8402    0.5076    0.1646 H   0  0  0  0  0  0  0  0  0  0  0  0
   -5.6940    0.0954    1.2501 H   0  0  0  0  0  0  0  0  0  0  0  0
   -5.6176   -0.5466   -0.3001 H   0  0  0  0  0  0  0  0  0  0  0  0
   -5.0671    1.5199   -0.0979 C   0  0  0  0  0  0  0  0  0  0  0  0
   -4.1248    1.3369   -0.8692 O   0  0  0  0  0  1  0  0  0  0  0  0
   -5.3755    2.6231    0.3471 O   0  0  0  0  0  0  0  0  0  0  0  0
    0.0006    2.9107   -0.0240 C   0  0  0  0  0  0  0  0  0  0  0  0
    0.7855    3.2241    0.4870 H   0  0  0  0  0  0  0  0  0  0  0  0
   -0.8447    3.2226    0.3806 H   0  0  0  0  0  0  0  0  0  0  0  0
    0.0657    3.3321   -1.0271 H   0  0  0  0  0  0  0  0  0  0  0  0
    0.0007    1.4064   -0.0007 C   0  0  0  0  0  0  0  0  0  0  0  0
   -1.1991    0.6951    0.0000 C   0  0  0  0  0  0  0  0  0  0  0  0
   -2.0649    1.1836   -0.0006 H   0  0  0  0  0  0  0  0  0  0  0  0
   -1.2039   -0.7017    0.0000 C   0  0  0  0  0  0  0  0  0  0  0  0
   -2.0784   -1.1938    0.0009 H   0  0  0  0  0  0  0  0  0  0  0  0
    0.0027   -1.4000    0.0005 C   0  0  0  0  0  0  0  0  0  0  0  0
   -0.0015   -2.3962    0.0008 H   0  0  0  0  0  0  0  0  0  0  0  0
    1.2039   -0.6994    0.0000 C   0  0  0  0  0  0  0  0  0  0  0  0
    2.0865   -1.1915    0.0009 H   0  0  0  0  0  0  0  0  0  0  0  0
    1.1957    0.6997    0.0002 C   0  0  0  0  0  0  0  0  0  0  0  0
    2.0659    1.1931    0.0004 H   0  0  0  0  0  0  0  0  0  0  0  0
  1  5  1  0
  5  6  1  0
  5  7  2  0
  1  2  1  0
  1  3  1  0
  1  4  1  0
  8 12  1  0
 12 13  2  0
 13 15  1  0
 15 17  2  0
 17 19  1  0
 19 21  2  0
 21 12  1  0
  8  9  1  0
  8 10  1  0
  8 11  1  0
 13 14  1  0
 15 16  1  0
 17 18  1  0
 19 20  1  0
 21 22  1  0
M  CHG  1   6  -1
M  END
>  <PDB_ID>  (141) 
pdb2cuk

>  <RESIDUE_NAME>  (141) 
ASP   PHE

>  <FRAG_NAME>  (141) 
ACET   MBZ

>  <FRAG_ATOM_NUM>  (141) 
fragi: 7  fragj: 15

>  <atom.prop.CHAIN_ID>  (141) 
A A A A A A A Z Z Z Z Z Z Z Z Z Z Z Z Z Z Z

>  <atom.prop.IS_HEAVY_ATOM>  (141) 
1 0 0 0 1 1 1 1 0 0 0 1 1 0 1 0 1 0 1 0 1 0

>  <DIFUSE_FUNC_ATOM>  (141) 
atom 6   atom 7   

>  <FINAL_SINGLE_POINT_ENERGY>  (141) 
0

>  <NONCOV_INTER_ENERGY_QM>  (141) 
0

>  <FF_Energy>  (141) 
-0.99

>  <QM_Energy>  (141) 
-6.64

>  <source>  (141) 
ACET_MBZ_00

>  <Index>  (141) 
5193

$$$$
ACET-pdb2cuk-B-ASP-104:MBZ-pdb2cuk-D-PHE-166
     RDKit          3D

 22 21  0  0  0  0  0  0  0  0999 V2000
   -5.8026    0.4459    0.5008 C   0  0  0  0  0  0  0  0  0  0  0  0
   -6.7784    0.6281    0.4668 H   0  0  0  0  0  0  0  0  0  0  0  0
   -5.5262    0.1966    1.4219 H   0  0  0  0  0  0  0  0  0  0  0  0
   -5.5965   -0.4014   -0.1532 H   0  0  0  0  0  0  0  0  0  0  0  0
   -5.0567    1.7074    0.0914 C   0  0  0  0  0  0  0  0  0  0  0  0
   -4.1362    1.6196   -0.7515 O   0  0  0  0  0  1  0  0  0  0  0  0
   -5.3886    2.7891    0.6328 O   0  0  0  0  0  0  0  0  0  0  0  0
    0.0035    2.9110   -0.0532 C   0  0  0  0  0  0  0  0  0  0  0  0
    0.7900    3.2316    0.4500 H   0  0  0  0  0  0  0  0  0  0  0  0
   -0.8406    3.2318    0.3475 H   0  0  0  0  0  0  0  0  0  0  0  0
    0.0673    3.3137   -1.0641 H   0  0  0  0  0  0  0  0  0  0  0  0
    0.0003    1.4048   -0.0007 C   0  0  0  0  0  0  0  0  0  0  0  0
   -1.1968    0.6964    0.0000 C   0  0  0  0  0  0  0  0  0  0  0  0
   -2.0642    1.1828   -0.0004 H   0  0  0  0  0  0  0  0  0  0  0  0
   -1.2010   -0.7010    0.0000 C   0  0  0  0  0  0  0  0  0  0  0  0
   -2.0771   -1.1922    0.0018 H   0  0  0  0  0  0  0  0  0  0  0  0
    0.0013   -1.3968   -0.0009 C   0  0  0  0  0  0  0  0  0  0  0  0
   -0.0027   -2.3956   -0.0024 H   0  0  0  0  0  0  0  0  0  0  0  0
    1.2010   -0.6998    0.0000 C   0  0  0  0  0  0  0  0  0  0  0  0
    2.0839   -1.1936    0.0011 H   0  0  0  0  0  0  0  0  0  0  0  0
    1.1953    0.6964    0.0015 C   0  0  0  0  0  0  0  0  0  0  0  0
    2.0648    1.1899    0.0030 H   0  0  0  0  0  0  0  0  0  0  0  0
  1  5  1  0
  5  6  1  0
  5  7  2  0
  1  2  1  0
  1  3  1  0
  1  4  1  0
  8 12  1  0
 12 13  2  0
 13 15  1  0
 15 17  2  0
 17 19  1  0
 19 21  2  0
 21 12  1  0
  8  9  1  0
  8 10  1  0
  8 11  1  0
 13 14  1  0
 15 16  1  0
 17 18  1  0
 19 20  1  0
 21 22  1  0
M  CHG  1   6  -1
M  END
>  <PDB_ID>  (142) 
pdb2cuk

>  <RESIDUE_NAME>  (142) 
ASP   PHE

>  <FRAG_NAME>  (142) 
ACET   MBZ

>  <FRAG_ATOM_NUM>  (142) 
fragi: 7  fragj: 15

>  <atom.prop.CHAIN_ID>  (142) 
A A A A A A A Z Z Z Z Z Z Z Z Z Z Z Z Z Z Z

>  <atom.prop.IS_HEAVY_ATOM>  (142) 
1 0 0 0 1 1 1 1 0 0 0 1 1 0 1 0 1 0 1 0 1 0

>  <DIFUSE_FUNC_ATOM>  (142) 
atom 6   atom 7   

>  <FINAL_SINGLE_POINT_ENERGY>  (142) 
0

>  <NONCOV_INTER_ENERGY_QM>  (142) 
0

>  <FF_Energy>  (142) 
-1.15

>  <QM_Energy>  (142) 
-6.7

>  <source>  (142) 
ACET_MBZ_00

>  <Index>  (142) 
5194

$$$$
ACET-pdb1c7s-A-GLU-832:MBZ-pdb1c7s-A-PHE-199
     RDKit          3D

 22 21  0  0  0  0  0  0  0  0999 V2000
    2.7909   -3.5183    1.2464 C   0  0  0  0  0  0  0  0  0  0  0  0
    2.7186   -2.7259    0.6812 H   0  0  0  0  0  0  0  0  0  0  0  0
    3.4601   -4.1574    0.9358 H   0  0  0  0  0  0  0  0  0  0  0  0
    3.0633   -3.1969    2.2517 H   0  0  0  0  0  0  0  0  0  0  0  0
    1.4319   -4.2279    1.2219 C   0  0  0  0  0  0  0  0  0  0  0  0
    0.7017   -4.0754    2.2067 O   0  0  0  0  0  1  0  0  0  0  0  0
    1.1239   -4.8327    0.1647 O   0  0  0  0  0  0  0  0  0  0  0  0
    0.0352    2.8988   -0.0003 C   0  0  0  0  0  0  0  0  0  0  0  0
    0.9242    3.1889    0.2941 H   0  0  0  0  0  0  0  0  0  0  0  0
   -0.6813    3.2116    0.5914 H   0  0  0  0  0  0  0  0  0  0  0  0
   -0.1437    3.2996   -0.9980 H   0  0  0  0  0  0  0  0  0  0  0  0
    0.0155    1.3880    0.0084 C   0  0  0  0  0  0  0  0  0  0  0  0
   -1.1980    0.7064   -0.0069 C   0  0  0  0  0  0  0  0  0  0  0  0
   -2.0490    1.2014   -0.0232 H   0  0  0  0  0  0  0  0  0  0  0  0
   -1.1900   -0.6749    0.0000 C   0  0  0  0  0  0  0  0  0  0  0  0
   -2.0874   -1.1669    0.0127 H   0  0  0  0  0  0  0  0  0  0  0  0
   -0.0222   -1.3844   -0.0078 C   0  0  0  0  0  0  0  0  0  0  0  0
   -0.0348   -2.3857   -0.0193 H   0  0  0  0  0  0  0  0  0  0  0  0
    1.1900   -0.7091    0.0000 C   0  0  0  0  0  0  0  0  0  0  0  0
    2.0616   -1.2228    0.0025 H   0  0  0  0  0  0  0  0  0  0  0  0
    1.2046    0.6741    0.0063 C   0  0  0  0  0  0  0  0  0  0  0  0
    2.0762    1.1632    0.0083 H   0  0  0  0  0  0  0  0  0  0  0  0
  1  5  1  0
  5  6  1  0
  5  7  2  0
  1  2  1  0
  1  3  1  0
  1  4  1  0
  8 12  1  0
 12 13  2  0
 13 15  1  0
 15 17  2  0
 17 19  1  0
 19 21  2  0
 21 12  1  0
  8  9  1  0
  8 10  1  0
  8 11  1  0
 13 14  1  0
 15 16  1  0
 17 18  1  0
 19 20  1  0
 21 22  1  0
M  CHG  1   6  -1
M  END
>  <PDB_ID>  (143) 
pdb1c7s

>  <RESIDUE_NAME>  (143) 
GLU   PHE

>  <FRAG_NAME>  (143) 
ACET   MBZ

>  <FRAG_ATOM_NUM>  (143) 
fragi: 7  fragj: 15

>  <atom.prop.CHAIN_ID>  (143) 
A A A A A A A Z Z Z Z Z Z Z Z Z Z Z Z Z Z Z

>  <atom.prop.IS_HEAVY_ATOM>  (143) 
1 0 0 0 1 1 1 1 0 0 0 1 1 0 1 0 1 0 1 0 1 0

>  <DIFUSE_FUNC_ATOM>  (143) 
atom 6   atom 7   

>  <FINAL_SINGLE_POINT_ENERGY>  (143) 
0

>  <NONCOV_INTER_ENERGY_QM>  (143) 
0

>  <FF_Energy>  (143) 
2.18

>  <QM_Energy>  (143) 
-3.15

>  <source>  (143) 
ACET_MBZ_00

>  <Index>  (143) 
5320

$$$$
ACET-pdb1c9w-A-ASP-230:MBZ-pdb1c9w-A-PHE-291
     RDKit          3D

 22 21  0  0  0  0  0  0  0  0999 V2000
   -3.9104   -3.6049    1.9621 C   0  0  0  0  0  0  0  0  0  0  0  0
   -4.5522   -2.8552    2.0627 H   0  0  0  0  0  0  0  0  0  0  0  0
   -3.2282   -3.5830    2.6806 H   0  0  0  0  0  0  0  0  0  0  0  0
   -4.4646   -4.5396    2.0465 H   0  0  0  0  0  0  0  0  0  0  0  0
   -3.2153   -3.4769    0.6255 C   0  0  0  0  0  0  0  0  0  0  0  0
   -2.1410   -4.0949    0.4412 O   0  0  0  0  0  1  0  0  0  0  0  0
   -3.7614   -2.7747   -0.2513 O   0  0  0  0  0  0  0  0  0  0  0  0
   -0.0072    2.8956    0.0560 C   0  0  0  0  0  0  0  0  0  0  0  0
    0.6420    3.1843    0.7489 H   0  0  0  0  0  0  0  0  0  0  0  0
   -0.9253    3.1918    0.2893 H   0  0  0  0  0  0  0  0  0  0  0  0
    0.2691    3.3857   -0.8776 H   0  0  0  0  0  0  0  0  0  0  0  0
    0.0014    1.4018    0.0004 C   0  0  0  0  0  0  0  0  0  0  0  0
   -1.2013    0.6922   -0.0019 C   0  0  0  0  0  0  0  0  0  0  0  0
   -2.0655    1.1845   -0.0059 H   0  0  0  0  0  0  0  0  0  0  0  0
   -1.2089   -0.7014    0.0000 C   0  0  0  0  0  0  0  0  0  0  0  0
   -2.0812   -1.1955    0.0012 H   0  0  0  0  0  0  0  0  0  0  0  0
    0.0002   -1.3967    0.0022 C   0  0  0  0  0  0  0  0  0  0  0  0
    0.0009   -2.3935    0.0042 H   0  0  0  0  0  0  0  0  0  0  0  0
    1.2089   -0.6931   -0.0000 C   0  0  0  0  0  0  0  0  0  0  0  0
    2.0870   -1.1917    0.0004 H   0  0  0  0  0  0  0  0  0  0  0  0
    1.1997    0.6972   -0.0007 C   0  0  0  0  0  0  0  0  0  0  0  0
    2.0662    1.1967   -0.0025 H   0  0  0  0  0  0  0  0  0  0  0  0
  1  5  1  0
  5  6  1  0
  5  7  2  0
  1  2  1  0
  1  3  1  0
  1  4  1  0
  8 12  1  0
 12 13  2  0
 13 15  1  0
 15 17  2  0
 17 19  1  0
 19 21  2  0
 21 12  1  0
  8  9  1  0
  8 10  1  0
  8 11  1  0
 13 14  1  0
 15 16  1  0
 17 18  1  0
 19 20  1  0
 21 22  1  0
M  CHG  1   6  -1
M  END
>  <PDB_ID>  (144) 
pdb1c9w

>  <RESIDUE_NAME>  (144) 
ASP   PHE

>  <FRAG_NAME>  (144) 
ACET   MBZ

>  <FRAG_ATOM_NUM>  (144) 
fragi: 7  fragj: 15

>  <atom.prop.CHAIN_ID>  (144) 
A A A A A A A Z Z Z Z Z Z Z Z Z Z Z Z Z Z Z

>  <atom.prop.IS_HEAVY_ATOM>  (144) 
1 0 0 0 1 1 1 1 0 0 0 1 1 0 1 0 1 0 1 0 1 0

>  <DIFUSE_FUNC_ATOM>  (144) 
atom 6   atom 7   

>  <FINAL_SINGLE_POINT_ENERGY>  (144) 
0

>  <NONCOV_INTER_ENERGY_QM>  (144) 
0

>  <FF_Energy>  (144) 
-2.46

>  <QM_Energy>  (144) 
-7.6

>  <source>  (144) 
ACET_MBZ_00

>  <Index>  (144) 
5404

$$$$
ACET-pdb1cau-B-GLU-321:MBZ-pdb1cau-B-PHE-352
     RDKit          3D

 22 21  0  0  0  0  0  0  0  0999 V2000
    1.0654   -4.6048    0.0086 C   0  0  0  0  0  0  0  0  0  0  0  0
    1.3486   -4.5656   -0.9304 H   0  0  0  0  0  0  0  0  0  0  0  0
    0.5381   -3.8209    0.2747 H   0  0  0  0  0  0  0  0  0  0  0  0
    0.4414   -5.4896    0.1342 H   0  0  0  0  0  0  0  0  0  0  0  0
    2.2920   -4.6558    0.8653 C   0  0  0  0  0  0  0  0  0  0  0  0
    2.6643   -5.6581    1.4514 O   0  0  0  0  0  1  0  0  0  0  0  0
    2.9043   -3.4948    0.9279 O   0  0  0  0  0  0  0  0  0  0  0  0
   -0.0334    2.9117    0.0834 C   0  0  0  0  0  0  0  0  0  0  0  0
   -0.0581    3.2631   -0.8322 H   0  0  0  0  0  0  0  0  0  0  0  0
    0.7584    3.2092    0.5806 H   0  0  0  0  0  0  0  0  0  0  0  0
   -0.9090    3.2990    0.6044 H   0  0  0  0  0  0  0  0  0  0  0  0
   -0.0092    1.4003    0.0113 C   0  0  0  0  0  0  0  0  0  0  0  0
   -1.1967    0.6741   -0.0192 C   0  0  0  0  0  0  0  0  0  0  0  0
   -2.0709    1.1650   -0.0571 H   0  0  0  0  0  0  0  0  0  0  0  0
   -1.2105   -0.7167    0.0000 C   0  0  0  0  0  0  0  0  0  0  0  0
   -2.0720   -1.2115    0.0176 H   0  0  0  0  0  0  0  0  0  0  0  0
    0.0076   -1.3848   -0.0036 C   0  0  0  0  0  0  0  0  0  0  0  0
    0.0197   -2.3904   -0.0098 H   0  0  0  0  0  0  0  0  0  0  0  0
    1.2105   -0.6810    0.0000 C   0  0  0  0  0  0  0  0  0  0  0  0
    2.0918   -1.1762   -0.0042 H   0  0  0  0  0  0  0  0  0  0  0  0
    1.1983    0.7081    0.0116 C   0  0  0  0  0  0  0  0  0  0  0  0
    2.0581    1.2128    0.0190 H   0  0  0  0  0  0  0  0  0  0  0  0
  1  5  1  0
  5  6  1  0
  5  7  2  0
  1  2  1  0
  1  3  1  0
  1  4  1  0
  8 12  1  0
 12 13  2  0
 13 15  1  0
 15 17  2  0
 17 19  1  0
 19 21  2  0
 21 12  1  0
  8  9  1  0
  8 10  1  0
  8 11  1  0
 13 14  1  0
 15 16  1  0
 17 18  1  0
 19 20  1  0
 21 22  1  0
M  CHG  1   6  -1
M  END
>  <PDB_ID>  (145) 
pdb1cau

>  <RESIDUE_NAME>  (145) 
GLU   PHE

>  <FRAG_NAME>  (145) 
ACET   MBZ

>  <FRAG_ATOM_NUM>  (145) 
fragi: 7  fragj: 15

>  <atom.prop.CHAIN_ID>  (145) 
A A A A A A A Z Z Z Z Z Z Z Z Z Z Z Z Z Z Z

>  <atom.prop.IS_HEAVY_ATOM>  (145) 
1 0 0 0 1 1 1 1 0 0 0 1 1 0 1 0 1 0 1 0 1 0

>  <DIFUSE_FUNC_ATOM>  (145) 
atom 6   atom 7   

>  <FINAL_SINGLE_POINT_ENERGY>  (145) 
0

>  <NONCOV_INTER_ENERGY_QM>  (145) 
0

>  <FF_Energy>  (145) 
19.64

>  <QM_Energy>  (145) 
-1.25

>  <source>  (145) 
ACET_MBZ_00

>  <Index>  (145) 
5454

$$$$
ACET-pdb2cx4-B-GLU-87:MBZ-pdb2cx4-B-PHE-45
     RDKit          3D

 22 21  0  0  0  0  0  0  0  0999 V2000
    3.4442   -3.0970    0.5488 C   0  0  0  0  0  0  0  0  0  0  0  0
    2.9377   -3.8793    0.2407 H   0  0  0  0  0  0  0  0  0  0  0  0
    2.8961   -2.2828    0.5797 H   0  0  0  0  0  0  0  0  0  0  0  0
    3.8185   -3.3016    1.5519 H   0  0  0  0  0  0  0  0  0  0  0  0
    4.5636   -2.8557   -0.4486 C   0  0  0  0  0  0  0  0  0  0  0  0
    5.2625   -3.8335   -0.8068 O   0  0  0  0  0  1  0  0  0  0  0  0
    4.7499   -1.6845   -0.8663 O   0  0  0  0  0  0  0  0  0  0  0  0
   -0.0052    2.9260    0.0074 C   0  0  0  0  0  0  0  0  0  0  0  0
   -0.9405    3.2263   -0.0959 H   0  0  0  0  0  0  0  0  0  0  0  0
    0.5584    3.2342   -0.7430 H   0  0  0  0  0  0  0  0  0  0  0  0
    0.3880    3.3681    0.9230 H   0  0  0  0  0  0  0  0  0  0  0  0
   -0.0005    1.4128    0.0007 C   0  0  0  0  0  0  0  0  0  0  0  0
   -1.1977    0.6990   -0.0013 C   0  0  0  0  0  0  0  0  0  0  0  0
   -2.0667    1.1842   -0.0050 H   0  0  0  0  0  0  0  0  0  0  0  0
   -1.2037   -0.7045   -0.0000 C   0  0  0  0  0  0  0  0  0  0  0  0
   -2.0805   -1.1929    0.0019 H   0  0  0  0  0  0  0  0  0  0  0  0
    0.0011   -1.4064    0.0006 C   0  0  0  0  0  0  0  0  0  0  0  0
   -0.0028   -2.4012    0.0009 H   0  0  0  0  0  0  0  0  0  0  0  0
    1.2037   -0.7039   -0.0000 C   0  0  0  0  0  0  0  0  0  0  0  0
    2.0859   -1.1937    0.0013 H   0  0  0  0  0  0  0  0  0  0  0  0
    1.1971    0.7030   -0.0000 C   0  0  0  0  0  0  0  0  0  0  0  0
    2.0670    1.1927   -0.0018 H   0  0  0  0  0  0  0  0  0  0  0  0
  1  5  1  0
  5  6  1  0
  5  7  2  0
  1  2  1  0
  1  3  1  0
  1  4  1  0
  8 12  1  0
 12 13  2  0
 13 15  1  0
 15 17  2  0
 17 19  1  0
 19 21  2  0
 21 12  1  0
  8  9  1  0
  8 10  1  0
  8 11  1  0
 13 14  1  0
 15 16  1  0
 17 18  1  0
 19 20  1  0
 21 22  1  0
M  CHG  1   6  -1
M  END
>  <PDB_ID>  (146) 
pdb2cx4

>  <RESIDUE_NAME>  (146) 
GLU   PHE

>  <FRAG_NAME>  (146) 
ACET   MBZ

>  <FRAG_ATOM_NUM>  (146) 
fragi: 7  fragj: 15

>  <atom.prop.CHAIN_ID>  (146) 
A A A A A A A Z Z Z Z Z Z Z Z Z Z Z Z Z Z Z

>  <atom.prop.IS_HEAVY_ATOM>  (146) 
1 0 0 0 1 1 1 1 0 0 0 1 1 0 1 0 1 0 1 0 1 0

>  <DIFUSE_FUNC_ATOM>  (146) 
atom 6   atom 7   

>  <FINAL_SINGLE_POINT_ENERGY>  (146) 
0

>  <NONCOV_INTER_ENERGY_QM>  (146) 
0

>  <FF_Energy>  (146) 
37.47

>  <QM_Energy>  (146) 
1.15

>  <source>  (146) 
ACET_MBZ_00

>  <Index>  (146) 
5461

$$$$
ACET-pdb1cc1-L-GLU-383:MBZ-pdb1cc1-L-PHE-364
     RDKit          3D

 22 21  0  0  0  0  0  0  0  0999 V2000
   -2.7810   -3.1682    1.0732 C   0  0  0  0  0  0  0  0  0  0  0  0
   -2.6009   -4.0931    1.3476 H   0  0  0  0  0  0  0  0  0  0  0  0
   -2.1240   -2.5341    1.4322 H   0  0  0  0  0  0  0  0  0  0  0  0
   -2.7446   -3.1214   -0.0152 H   0  0  0  0  0  0  0  0  0  0  0  0
   -4.1424   -2.7814    1.6260 C   0  0  0  0  0  0  0  0  0  0  0  0
   -4.4284   -3.1094    2.7880 O   0  0  0  0  0  1  0  0  0  0  0  0
   -4.9248   -2.1385    0.9017 O   0  0  0  0  0  0  0  0  0  0  0  0
   -0.0032    2.9139    0.1566 C   0  0  0  0  0  0  0  0  0  0  0  0
   -0.7210    3.2772   -0.4107 H   0  0  0  0  0  0  0  0  0  0  0  0
    0.8834    3.2523   -0.1065 H   0  0  0  0  0  0  0  0  0  0  0  0
   -0.1920    3.2361    1.1805 H   0  0  0  0  0  0  0  0  0  0  0  0
    0.0019    1.4163    0.0026 C   0  0  0  0  0  0  0  0  0  0  0  0
   -1.2049    0.7025   -0.0037 C   0  0  0  0  0  0  0  0  0  0  0  0
   -2.0684    1.1901   -0.0122 H   0  0  0  0  0  0  0  0  0  0  0  0
   -1.2129   -0.7053    0.0000 C   0  0  0  0  0  0  0  0  0  0  0  0
   -2.0873   -1.1926    0.0002 H   0  0  0  0  0  0  0  0  0  0  0  0
   -0.0020   -1.4100    0.0049 C   0  0  0  0  0  0  0  0  0  0  0  0
   -0.0061   -2.4032    0.0124 H   0  0  0  0  0  0  0  0  0  0  0  0
    1.2129   -0.7061   -0.0000 C   0  0  0  0  0  0  0  0  0  0  0  0
    2.0888   -1.1986    0.0001 H   0  0  0  0  0  0  0  0  0  0  0  0
    1.2050    0.7026   -0.0038 C   0  0  0  0  0  0  0  0  0  0  0  0
    2.0728    1.1936   -0.0114 H   0  0  0  0  0  0  0  0  0  0  0  0
  1  5  1  0
  5  6  1  0
  5  7  2  0
  1  2  1  0
  1  3  1  0
  1  4  1  0
  8 12  1  0
 12 13  2  0
 13 15  1  0
 15 17  2  0
 17 19  1  0
 19 21  2  0
 21 12  1  0
  8  9  1  0
  8 10  1  0
  8 11  1  0
 13 14  1  0
 15 16  1  0
 17 18  1  0
 19 20  1  0
 21 22  1  0
M  CHG  1   6  -1
M  END
>  <PDB_ID>  (147) 
pdb1cc1

>  <RESIDUE_NAME>  (147) 
GLU   PHE

>  <FRAG_NAME>  (147) 
ACET   MBZ

>  <FRAG_ATOM_NUM>  (147) 
fragi: 7  fragj: 15

>  <atom.prop.CHAIN_ID>  (147) 
A A A A A A A Z Z Z Z Z Z Z Z Z Z Z Z Z Z Z

>  <atom.prop.IS_HEAVY_ATOM>  (147) 
1 0 0 0 1 1 1 1 0 0 0 1 1 0 1 0 1 0 1 0 1 0

>  <DIFUSE_FUNC_ATOM>  (147) 
atom 6   atom 7   

>  <FINAL_SINGLE_POINT_ENERGY>  (147) 
0

>  <NONCOV_INTER_ENERGY_QM>  (147) 
0

>  <FF_Energy>  (147) 
4.41

>  <QM_Energy>  (147) 
-1.16

>  <source>  (147) 
ACET_MBZ_00

>  <Index>  (147) 
5492

$$$$
ACET-pdb2cyc-A-ASP-265:MBZ-pdb2cyc-A-PHE-262
     RDKit          3D

 22 21  0  0  0  0  0  0  0  0999 V2000
   -3.8373    5.0372    1.9612 C   0  0  0  0  0  0  0  0  0  0  0  0
   -3.1107    5.4307    2.5120 H   0  0  0  0  0  0  0  0  0  0  0  0
   -4.6880    5.0124    2.4707 H   0  0  0  0  0  0  0  0  0  0  0  0
   -3.9838    5.6759    1.0902 H   0  0  0  0  0  0  0  0  0  0  0  0
   -3.4488    3.6096    1.5911 C   0  0  0  0  0  0  0  0  0  0  0  0
   -3.5814    3.2394    0.4008 O   0  0  0  0  0  1  0  0  0  0  0  0
   -3.0281    2.8544    2.4981 O   0  0  0  0  0  0  0  0  0  0  0  0
    0.0081    2.9155    0.0339 C   0  0  0  0  0  0  0  0  0  0  0  0
   -0.9222    3.2264   -0.0575 H   0  0  0  0  0  0  0  0  0  0  0  0
    0.5764    3.2315   -0.7055 H   0  0  0  0  0  0  0  0  0  0  0  0
    0.4091    3.3179    0.9641 H   0  0  0  0  0  0  0  0  0  0  0  0
   -0.0015    1.4070    0.0002 C   0  0  0  0  0  0  0  0  0  0  0  0
   -1.1956    0.7024    0.0005 C   0  0  0  0  0  0  0  0  0  0  0  0
   -2.0635    1.1871   -0.0005 H   0  0  0  0  0  0  0  0  0  0  0  0
   -1.1990   -0.6958   -0.0000 C   0  0  0  0  0  0  0  0  0  0  0  0
   -2.0763   -1.1871    0.0014 H   0  0  0  0  0  0  0  0  0  0  0  0
    0.0037   -1.3984   -0.0006 C   0  0  0  0  0  0  0  0  0  0  0  0
   -0.0082   -2.3967   -0.0016 H   0  0  0  0  0  0  0  0  0  0  0  0
    1.1990   -0.7076    0.0000 C   0  0  0  0  0  0  0  0  0  0  0  0
    2.0833   -1.1982    0.0022 H   0  0  0  0  0  0  0  0  0  0  0  0
    1.1934    0.6925   -0.0000 C   0  0  0  0  0  0  0  0  0  0  0  0
    2.0643    1.1844   -0.0015 H   0  0  0  0  0  0  0  0  0  0  0  0
  1  5  1  0
  5  6  1  0
  5  7  2  0
  1  2  1  0
  1  3  1  0
  1  4  1  0
  8 12  1  0
 12 13  2  0
 13 15  1  0
 15 17  2  0
 17 19  1  0
 19 21  2  0
 21 12  1  0
  8  9  1  0
  8 10  1  0
  8 11  1  0
 13 14  1  0
 15 16  1  0
 17 18  1  0
 19 20  1  0
 21 22  1  0
M  CHG  1   6  -1
M  END
>  <PDB_ID>  (148) 
pdb2cyc

>  <RESIDUE_NAME>  (148) 
ASP   PHE

>  <FRAG_NAME>  (148) 
ACET   MBZ

>  <FRAG_ATOM_NUM>  (148) 
fragi: 7  fragj: 15

>  <atom.prop.CHAIN_ID>  (148) 
A A A A A A A Z Z Z Z Z Z Z Z Z Z Z Z Z Z Z

>  <atom.prop.IS_HEAVY_ATOM>  (148) 
1 0 0 0 1 1 1 1 0 0 0 1 1 0 1 0 1 0 1 0 1 0

>  <DIFUSE_FUNC_ATOM>  (148) 
atom 6   atom 7   

>  <FINAL_SINGLE_POINT_ENERGY>  (148) 
0

>  <NONCOV_INTER_ENERGY_QM>  (148) 
0

>  <FF_Energy>  (148) 
-2.16

>  <QM_Energy>  (148) 
-8.18

>  <source>  (148) 
ACET_MBZ_00

>  <Index>  (148) 
5578

$$$$
ACET-pdb1cem-A-ASP-289:MBZ-pdb1cem-A-PHE-293
     RDKit          3D

 22 21  0  0  0  0  0  0  0  0999 V2000
    5.5518    3.6498    0.3020 C   0  0  0  0  0  0  0  0  0  0  0  0
    6.2939    3.0275    0.4993 H   0  0  0  0  0  0  0  0  0  0  0  0
    5.8666    4.5855    0.2616 H   0  0  0  0  0  0  0  0  0  0  0  0
    5.1446    3.3889   -0.6747 H   0  0  0  0  0  0  0  0  0  0  0  0
    4.5054    3.5342    1.4261 C   0  0  0  0  0  0  0  0  0  0  0  0
    3.4912    2.8207    1.2367 O   0  0  0  0  0  1  0  0  0  0  0  0
    4.7042    4.1486    2.4912 O   0  0  0  0  0  0  0  0  0  0  0  0
   -0.0078    2.9245   -0.0606 C   0  0  0  0  0  0  0  0  0  0  0  0
    0.9167    3.2377    0.0710 H   0  0  0  0  0  0  0  0  0  0  0  0
   -0.6122    3.2518    0.6456 H   0  0  0  0  0  0  0  0  0  0  0  0
   -0.3630    3.3154   -1.0141 H   0  0  0  0  0  0  0  0  0  0  0  0
    0.0013    1.4138   -0.0005 C   0  0  0  0  0  0  0  0  0  0  0  0
   -1.2042    0.7037    0.0024 C   0  0  0  0  0  0  0  0  0  0  0  0
   -2.0685    1.1866    0.0048 H   0  0  0  0  0  0  0  0  0  0  0  0
   -1.2105   -0.7104    0.0000 C   0  0  0  0  0  0  0  0  0  0  0  0
   -2.0843   -1.1955    0.0008 H   0  0  0  0  0  0  0  0  0  0  0  0
    0.0010   -1.4084   -0.0014 C   0  0  0  0  0  0  0  0  0  0  0  0
    0.0038   -2.4013   -0.0035 H   0  0  0  0  0  0  0  0  0  0  0  0
    1.2105   -0.6974    0.0000 C   0  0  0  0  0  0  0  0  0  0  0  0
    2.0904   -1.1940    0.0029 H   0  0  0  0  0  0  0  0  0  0  0  0
    1.2018    0.6987   -0.0005 C   0  0  0  0  0  0  0  0  0  0  0  0
    2.0696    1.1965   -0.0015 H   0  0  0  0  0  0  0  0  0  0  0  0
  1  5  1  0
  5  6  1  0
  5  7  2  0
  1  2  1  0
  1  3  1  0
  1  4  1  0
  8 12  1  0
 12 13  2  0
 13 15  1  0
 15 17  2  0
 17 19  1  0
 19 21  2  0
 21 12  1  0
  8  9  1  0
  8 10  1  0
  8 11  1  0
 13 14  1  0
 15 16  1  0
 17 18  1  0
 19 20  1  0
 21 22  1  0
M  CHG  1   6  -1
M  END
>  <PDB_ID>  (149) 
pdb1cem

>  <RESIDUE_NAME>  (149) 
ASP   PHE

>  <FRAG_NAME>  (149) 
ACET   MBZ

>  <FRAG_ATOM_NUM>  (149) 
fragi: 7  fragj: 15

>  <atom.prop.CHAIN_ID>  (149) 
A A A A A A A Z Z Z Z Z Z Z Z Z Z Z Z Z Z Z

>  <atom.prop.IS_HEAVY_ATOM>  (149) 
1 0 0 0 1 1 1 1 0 0 0 1 1 0 1 0 1 0 1 0 1 0

>  <DIFUSE_FUNC_ATOM>  (149) 
atom 6   atom 7   

>  <FINAL_SINGLE_POINT_ENERGY>  (149) 
0

>  <NONCOV_INTER_ENERGY_QM>  (149) 
0

>  <FF_Energy>  (149) 
-1.64

>  <QM_Energy>  (149) 
-6.92

>  <source>  (149) 
ACET_MBZ_00

>  <Index>  (149) 
5627

$$$$
ACET-pdb1cf2-O-ASP-253:MBZ-pdb1cf2-Q-PHE-38
     RDKit          3D

 22 21  0  0  0  0  0  0  0  0999 V2000
   -3.7782    5.7003    1.8524 C   0  0  0  0  0  0  0  0  0  0  0  0
   -4.0125    6.7042    1.9237 H   0  0  0  0  0  0  0  0  0  0  0  0
   -3.7012    5.3842    2.8327 H   0  0  0  0  0  0  0  0  0  0  0  0
   -4.6469    5.2002    1.4243 H   0  0  0  0  0  0  0  0  0  0  0  0
   -2.4225    5.5831    1.2165 C   0  0  0  0  0  0  0  0  0  0  0  0
   -2.2148    6.0569    0.0708 O   0  0  0  0  0  1  0  0  0  0  0  0
   -1.4871    5.0248    1.8557 O   0  0  0  0  0  0  0  0  0  0  0  0
   -0.0263    2.9004    0.0013 C   0  0  0  0  0  0  0  0  0  0  0  0
    0.8638    3.2150    0.3223 H   0  0  0  0  0  0  0  0  0  0  0  0
   -0.7394    3.2054    0.6290 H   0  0  0  0  0  0  0  0  0  0  0  0
   -0.2133    3.3791   -0.9599 H   0  0  0  0  0  0  0  0  0  0  0  0
   -0.0169    1.4032   -0.0013 C   0  0  0  0  0  0  0  0  0  0  0  0
   -1.1945    0.6739    0.0037 C   0  0  0  0  0  0  0  0  0  0  0  0
   -2.0739    1.1579    0.0090 H   0  0  0  0  0  0  0  0  0  0  0  0
   -1.1901   -0.7080   -0.0000 C   0  0  0  0  0  0  0  0  0  0  0  0
   -2.0604   -1.2136   -0.0069 H   0  0  0  0  0  0  0  0  0  0  0  0
    0.0208   -1.3995    0.0079 C   0  0  0  0  0  0  0  0  0  0  0  0
    0.0252   -2.3904    0.0181 H   0  0  0  0  0  0  0  0  0  0  0  0
    1.1901   -0.6750    0.0000 C   0  0  0  0  0  0  0  0  0  0  0  0
    2.0933   -1.1680    0.0032 H   0  0  0  0  0  0  0  0  0  0  0  0
    1.1906    0.7054   -0.0103 C   0  0  0  0  0  0  0  0  0  0  0  0
    2.0497    1.2085   -0.0247 H   0  0  0  0  0  0  0  0  0  0  0  0
  1  5  1  0
  5  6  1  0
  5  7  2  0
  1  2  1  0
  1  3  1  0
  1  4  1  0
  8 12  1  0
 12 13  2  0
 13 15  1  0
 15 17  2  0
 17 19  1  0
 19 21  2  0
 21 12  1  0
  8  9  1  0
  8 10  1  0
  8 11  1  0
 13 14  1  0
 15 16  1  0
 17 18  1  0
 19 20  1  0
 21 22  1  0
M  CHG  1   6  -1
M  END
>  <PDB_ID>  (150) 
pdb1cf2

>  <RESIDUE_NAME>  (150) 
ASP   PHE

>  <FRAG_NAME>  (150) 
ACET   MBZ

>  <FRAG_ATOM_NUM>  (150) 
fragi: 7  fragj: 15

>  <atom.prop.CHAIN_ID>  (150) 
A A A A A A A Z Z Z Z Z Z Z Z Z Z Z Z Z Z Z

>  <atom.prop.IS_HEAVY_ATOM>  (150) 
1 0 0 0 1 1 1 1 0 0 0 1 1 0 1 0 1 0 1 0 1 0

>  <DIFUSE_FUNC_ATOM>  (150) 
atom 6   atom 7   

>  <FINAL_SINGLE_POINT_ENERGY>  (150) 
0

>  <NONCOV_INTER_ENERGY_QM>  (150) 
0

>  <FF_Energy>  (150) 
-0.75

>  <QM_Energy>  (150) 
-5.94

>  <source>  (150) 
ACET_MBZ_00

>  <Index>  (150) 
5693

$$$$
ACET-pdb1cf2-R-ASP-253:MBZ-pdb1cf2-P-PHE-38
     RDKit          3D

 22 21  0  0  0  0  0  0  0  0999 V2000
   -4.0134    5.3387    1.7928 C   0  0  0  0  0  0  0  0  0  0  0  0
   -4.3764    6.2848    1.9396 H   0  0  0  0  0  0  0  0  0  0  0  0
   -3.8539    4.9554    2.7288 H   0  0  0  0  0  0  0  0  0  0  0  0
   -4.8177    4.7563    1.3433 H   0  0  0  0  0  0  0  0  0  0  0  0
   -2.6917    5.4399    1.0871 C   0  0  0  0  0  0  0  0  0  0  0  0
   -2.6168    5.9355   -0.0637 O   0  0  0  0  0  1  0  0  0  0  0  0
   -1.6572    5.0425    1.6896 O   0  0  0  0  0  0  0  0  0  0  0  0
   -0.0438    2.9026   -0.0234 C   0  0  0  0  0  0  0  0  0  0  0  0
    0.8574    3.2379    0.2310 H   0  0  0  0  0  0  0  0  0  0  0  0
   -0.7242    3.2022    0.6367 H   0  0  0  0  0  0  0  0  0  0  0  0
   -0.3004    3.3530   -0.9822 H   0  0  0  0  0  0  0  0  0  0  0  0
   -0.0046    1.3991   -0.0037 C   0  0  0  0  0  0  0  0  0  0  0  0
   -1.1901    0.6765    0.0083 C   0  0  0  0  0  0  0  0  0  0  0  0
   -2.0650    1.1729    0.0225 H   0  0  0  0  0  0  0  0  0  0  0  0
   -1.2038   -0.7025    0.0000 C   0  0  0  0  0  0  0  0  0  0  0  0
   -2.0718   -1.1994   -0.0089 H   0  0  0  0  0  0  0  0  0  0  0  0
    0.0041   -1.3814    0.0059 C   0  0  0  0  0  0  0  0  0  0  0  0
    0.0041   -2.3882    0.0141 H   0  0  0  0  0  0  0  0  0  0  0  0
    1.2038   -0.6923   -0.0000 C   0  0  0  0  0  0  0  0  0  0  0  0
    2.0837   -1.1845    0.0043 H   0  0  0  0  0  0  0  0  0  0  0  0
    1.1906    0.7006   -0.0105 C   0  0  0  0  0  0  0  0  0  0  0  0
    2.0584    1.1987   -0.0242 H   0  0  0  0  0  0  0  0  0  0  0  0
  1  5  1  0
  5  6  1  0
  5  7  2  0
  1  2  1  0
  1  3  1  0
  1  4  1  0
  8 12  1  0
 12 13  2  0
 13 15  1  0
 15 17  2  0
 17 19  1  0
 19 21  2  0
 21 12  1  0
  8  9  1  0
  8 10  1  0
  8 11  1  0
 13 14  1  0
 15 16  1  0
 17 18  1  0
 19 20  1  0
 21 22  1  0
M  CHG  1   6  -1
M  END
>  <PDB_ID>  (151) 
pdb1cf2

>  <RESIDUE_NAME>  (151) 
ASP   PHE

>  <FRAG_NAME>  (151) 
ACET   MBZ

>  <FRAG_ATOM_NUM>  (151) 
fragi: 7  fragj: 15

>  <atom.prop.CHAIN_ID>  (151) 
A A A A A A A Z Z Z Z Z Z Z Z Z Z Z Z Z Z Z

>  <atom.prop.IS_HEAVY_ATOM>  (151) 
1 0 0 0 1 1 1 1 0 0 0 1 1 0 1 0 1 0 1 0 1 0

>  <DIFUSE_FUNC_ATOM>  (151) 
atom 6   atom 7   

>  <FINAL_SINGLE_POINT_ENERGY>  (151) 
0

>  <NONCOV_INTER_ENERGY_QM>  (151) 
0

>  <FF_Energy>  (151) 
-0.82

>  <QM_Energy>  (151) 
-5.88

>  <source>  (151) 
ACET_MBZ_00

>  <Index>  (151) 
5707

$$$$
ACET-pdb1cge-A-ASP-198:MBZ-pdb1cge-A-PHE-174
     RDKit          3D

 22 21  0  0  0  0  0  0  0  0999 V2000
    0.0036    0.6788    3.7423 C   0  0  0  0  0  0  0  0  0  0  0  0
   -0.5061    0.2770    2.9843 H   0  0  0  0  0  0  0  0  0  0  0  0
   -0.4486    0.4675    4.6052 H   0  0  0  0  0  0  0  0  0  0  0  0
    0.9877    0.2106    3.7621 H   0  0  0  0  0  0  0  0  0  0  0  0
    0.0600    2.1664    3.5651 C   0  0  0  0  0  0  0  0  0  0  0  0
    1.1430    2.7535    3.6779 O   0  0  0  0  0  1  0  0  0  0  0  0
   -0.9897    2.7638    3.3057 O   0  0  0  0  0  0  0  0  0  0  0  0
   -0.0106    2.9038    0.0058 C   0  0  0  0  0  0  0  0  0  0  0  0
    0.9181    3.2190   -0.1029 H   0  0  0  0  0  0  0  0  0  0  0  0
   -0.4002    3.2042    0.8616 H   0  0  0  0  0  0  0  0  0  0  0  0
   -0.6056    3.3314   -0.8011 H   0  0  0  0  0  0  0  0  0  0  0  0
    0.0024    1.4038    0.0009 C   0  0  0  0  0  0  0  0  0  0  0  0
   -1.1971    0.6899   -0.0008 C   0  0  0  0  0  0  0  0  0  0  0  0
   -2.0633    1.1825   -0.0042 H   0  0  0  0  0  0  0  0  0  0  0  0
   -1.2052   -0.7026    0.0000 C   0  0  0  0  0  0  0  0  0  0  0  0
   -2.0810   -1.1942    0.0029 H   0  0  0  0  0  0  0  0  0  0  0  0
   -0.0037   -1.3974   -0.0008 C   0  0  0  0  0  0  0  0  0  0  0  0
   -0.0026   -2.3950   -0.0025 H   0  0  0  0  0  0  0  0  0  0  0  0
    1.2052   -0.6968   -0.0000 C   0  0  0  0  0  0  0  0  0  0  0  0
    2.0832   -1.1919    0.0018 H   0  0  0  0  0  0  0  0  0  0  0  0
    1.1983    0.7032    0.0007 C   0  0  0  0  0  0  0  0  0  0  0  0
    2.0662    1.1955    0.0001 H   0  0  0  0  0  0  0  0  0  0  0  0
  1  5  1  0
  5  6  1  0
  5  7  2  0
  1  2  1  0
  1  3  1  0
  1  4  1  0
  8 12  1  0
 12 13  2  0
 13 15  1  0
 15 17  2  0
 17 19  1  0
 19 21  2  0
 21 12  1  0
  8  9  1  0
  8 10  1  0
  8 11  1  0
 13 14  1  0
 15 16  1  0
 17 18  1  0
 19 20  1  0
 21 22  1  0
M  CHG  1   6  -1
M  END
>  <PDB_ID>  (152) 
pdb1cge

>  <RESIDUE_NAME>  (152) 
ASP   PHE

>  <FRAG_NAME>  (152) 
ACET   MBZ

>  <FRAG_ATOM_NUM>  (152) 
fragi: 7  fragj: 15

>  <atom.prop.CHAIN_ID>  (152) 
A A A A A A A Z Z Z Z Z Z Z Z Z Z Z Z Z Z Z

>  <atom.prop.IS_HEAVY_ATOM>  (152) 
1 0 0 0 1 1 1 1 0 0 0 1 1 0 1 0 1 0 1 0 1 0

>  <DIFUSE_FUNC_ATOM>  (152) 
atom 6   atom 7   

>  <FINAL_SINGLE_POINT_ENERGY>  (152) 
0

>  <NONCOV_INTER_ENERGY_QM>  (152) 
0

>  <FF_Energy>  (152) 
-0.49

>  <QM_Energy>  (152) 
-6.29

>  <source>  (152) 
ACET_MBZ_00

>  <Index>  (152) 
5794

$$$$
ACET-pdb1cgt-A-GLU-187:MBZ-pdb1cgt-A-PHE-625
     RDKit          3D

 22 21  0  0  0  0  0  0  0  0999 V2000
   -0.0721    1.4161    3.6719 C   0  0  0  0  0  0  0  0  0  0  0  0
    0.3389    1.4285    4.5816 H   0  0  0  0  0  0  0  0  0  0  0  0
    0.6265    1.2087    2.9896 H   0  0  0  0  0  0  0  0  0  0  0  0
   -0.8124    0.6164    3.6491 H   0  0  0  0  0  0  0  0  0  0  0  0
   -0.5824    2.8115    3.3864 C   0  0  0  0  0  0  0  0  0  0  0  0
   -1.7300    3.0139    2.9907 O   0  0  0  0  0  1  0  0  0  0  0  0
    0.2032    3.7251    3.5288 O   0  0  0  0  0  0  0  0  0  0  0  0
    0.0274    2.9018    0.0427 C   0  0  0  0  0  0  0  0  0  0  0  0
    0.8280    3.1928   -0.4718 H   0  0  0  0  0  0  0  0  0  0  0  0
    0.1157    3.1671    0.9981 H   0  0  0  0  0  0  0  0  0  0  0  0
   -0.8508    3.3949   -0.3740 H   0  0  0  0  0  0  0  0  0  0  0  0
   -0.0041    1.3841    0.0007 C   0  0  0  0  0  0  0  0  0  0  0  0
   -1.1971    0.6767   -0.0009 C   0  0  0  0  0  0  0  0  0  0  0  0
   -2.0645    1.1661   -0.0038 H   0  0  0  0  0  0  0  0  0  0  0  0
   -1.1946   -0.7062    0.0000 C   0  0  0  0  0  0  0  0  0  0  0  0
   -2.0649   -1.2075    0.0016 H   0  0  0  0  0  0  0  0  0  0  0  0
    0.0095   -1.3785    0.0007 C   0  0  0  0  0  0  0  0  0  0  0  0
    0.0135   -2.3861    0.0012 H   0  0  0  0  0  0  0  0  0  0  0  0
    1.1946   -0.6844    0.0000 C   0  0  0  0  0  0  0  0  0  0  0  0
    2.0843   -1.1755    0.0018 H   0  0  0  0  0  0  0  0  0  0  0  0
    1.1916    0.7082   -0.0005 C   0  0  0  0  0  0  0  0  0  0  0  0
    2.0547    1.2021   -0.0025 H   0  0  0  0  0  0  0  0  0  0  0  0
  1  5  1  0
  5  6  1  0
  5  7  2  0
  1  2  1  0
  1  3  1  0
  1  4  1  0
  8 12  1  0
 12 13  2  0
 13 15  1  0
 15 17  2  0
 17 19  1  0
 19 21  2  0
 21 12  1  0
  8  9  1  0
  8 10  1  0
  8 11  1  0
 13 14  1  0
 15 16  1  0
 17 18  1  0
 19 20  1  0
 21 22  1  0
M  CHG  1   6  -1
M  END
>  <PDB_ID>  (153) 
pdb1cgt

>  <RESIDUE_NAME>  (153) 
GLU   PHE

>  <FRAG_NAME>  (153) 
ACET   MBZ

>  <FRAG_ATOM_NUM>  (153) 
fragi: 7  fragj: 15

>  <atom.prop.CHAIN_ID>  (153) 
A A A A A A A Z Z Z Z Z Z Z Z Z Z Z Z Z Z Z

>  <atom.prop.IS_HEAVY_ATOM>  (153) 
1 0 0 0 1 1 1 1 0 0 0 1 1 0 1 0 1 0 1 0 1 0

>  <DIFUSE_FUNC_ATOM>  (153) 
atom 6   atom 7   

>  <FINAL_SINGLE_POINT_ENERGY>  (153) 
0

>  <NONCOV_INTER_ENERGY_QM>  (153) 
0

>  <FF_Energy>  (153) 
-2.27

>  <QM_Energy>  (153) 
-6.1

>  <source>  (153) 
ACET_MBZ_00

>  <Index>  (153) 
5823

$$$$
ACET-pdb1cho-F-ASP-35:MBZ-pdb1cho-F-PHE-39
     RDKit          3D

 22 21  0  0  0  0  0  0  0  0999 V2000
   -4.3842    5.5127   -0.3402 C   0  0  0  0  0  0  0  0  0  0  0  0
   -5.2508    5.4877   -0.8735 H   0  0  0  0  0  0  0  0  0  0  0  0
   -3.7573    6.1451   -0.8310 H   0  0  0  0  0  0  0  0  0  0  0  0
   -4.6101    5.9626    0.6266 H   0  0  0  0  0  0  0  0  0  0  0  0
   -3.7755    4.1304   -0.3566 C   0  0  0  0  0  0  0  0  0  0  0  0
   -3.3776    3.6983   -1.4596 O   0  0  0  0  0  1  0  0  0  0  0  0
   -3.6289    3.4119    0.6466 O   0  0  0  0  0  0  0  0  0  0  0  0
   -0.0465    2.9008    0.0357 C   0  0  0  0  0  0  0  0  0  0  0  0
   -0.8893    3.1932   -0.3540 H   0  0  0  0  0  0  0  0  0  0  0  0
    0.7409    3.2383   -0.4262 H   0  0  0  0  0  0  0  0  0  0  0  0
   -0.0104    3.2651    1.0624 H   0  0  0  0  0  0  0  0  0  0  0  0
   -0.0062    1.3909    0.0024 C   0  0  0  0  0  0  0  0  0  0  0  0
   -1.2033    0.6838   -0.0077 C   0  0  0  0  0  0  0  0  0  0  0  0
   -2.0709    1.1743   -0.0222 H   0  0  0  0  0  0  0  0  0  0  0  0
   -1.2157   -0.7129    0.0000 C   0  0  0  0  0  0  0  0  0  0  0  0
   -2.0763   -1.2087    0.0039 H   0  0  0  0  0  0  0  0  0  0  0  0
    0.0098   -1.3923    0.0044 C   0  0  0  0  0  0  0  0  0  0  0  0
    0.0192   -2.3916    0.0098 H   0  0  0  0  0  0  0  0  0  0  0  0
    1.2157   -0.6806    0.0000 C   0  0  0  0  0  0  0  0  0  0  0  0
    2.0963   -1.1743   -0.0022 H   0  0  0  0  0  0  0  0  0  0  0  0
    1.1997    0.7111    0.0009 C   0  0  0  0  0  0  0  0  0  0  0  0
    2.0585    1.2148   -0.0002 H   0  0  0  0  0  0  0  0  0  0  0  0
  1  5  1  0
  5  6  1  0
  5  7  2  0
  1  2  1  0
  1  3  1  0
  1  4  1  0
  8 12  1  0
 12 13  2  0
 13 15  1  0
 15 17  2  0
 17 19  1  0
 19 21  2  0
 21 12  1  0
  8  9  1  0
  8 10  1  0
  8 11  1  0
 13 14  1  0
 15 16  1  0
 17 18  1  0
 19 20  1  0
 21 22  1  0
M  CHG  1   6  -1
M  END
>  <PDB_ID>  (154) 
pdb1cho

>  <RESIDUE_NAME>  (154) 
ASP   PHE

>  <FRAG_NAME>  (154) 
ACET   MBZ

>  <FRAG_ATOM_NUM>  (154) 
fragi: 7  fragj: 15

>  <atom.prop.CHAIN_ID>  (154) 
A A A A A A A Z Z Z Z Z Z Z Z Z Z Z Z Z Z Z

>  <atom.prop.IS_HEAVY_ATOM>  (154) 
1 0 0 0 1 1 1 1 0 0 0 1 1 0 1 0 1 0 1 0 1 0

>  <DIFUSE_FUNC_ATOM>  (154) 
atom 6   atom 7   

>  <FINAL_SINGLE_POINT_ENERGY>  (154) 
0

>  <NONCOV_INTER_ENERGY_QM>  (154) 
0

>  <FF_Energy>  (154) 
-2.67

>  <QM_Energy>  (154) 
-8.77

>  <source>  (154) 
ACET_MBZ_00

>  <Index>  (154) 
5837

$$$$
ACET-pdb1ciu-A-GLU-188:MBZ-pdb1ciu-A-PHE-623
     RDKit          3D

 22 21  0  0  0  0  0  0  0  0999 V2000
    0.4687    1.7496    3.9105 C   0  0  0  0  0  0  0  0  0  0  0  0
    0.4201    1.8932    4.8803 H   0  0  0  0  0  0  0  0  0  0  0  0
    1.3815    1.5575    3.6039 H   0  0  0  0  0  0  0  0  0  0  0  0
   -0.1625    0.8966    3.6612 H   0  0  0  0  0  0  0  0  0  0  0  0
    0.0151    3.0274    3.2309 C   0  0  0  0  0  0  0  0  0  0  0  0
   -1.1274    3.0686    2.7302 O   0  0  0  0  0  1  0  0  0  0  0  0
    0.8058    3.9889    3.1911 O   0  0  0  0  0  0  0  0  0  0  0  0
   -0.0057    2.8985    0.0101 C   0  0  0  0  0  0  0  0  0  0  0  0
    0.7116    3.2108   -0.5924 H   0  0  0  0  0  0  0  0  0  0  0  0
    0.1448    3.1997    0.9387 H   0  0  0  0  0  0  0  0  0  0  0  0
   -0.9447    3.3323   -0.3337 H   0  0  0  0  0  0  0  0  0  0  0  0
   -0.0002    1.3964    0.0010 C   0  0  0  0  0  0  0  0  0  0  0  0
   -1.1888    0.6877   -0.0013 C   0  0  0  0  0  0  0  0  0  0  0  0
   -2.0592    1.1766   -0.0054 H   0  0  0  0  0  0  0  0  0  0  0  0
   -1.1908   -0.6965    0.0000 C   0  0  0  0  0  0  0  0  0  0  0  0
   -2.0714   -1.1909    0.0024 H   0  0  0  0  0  0  0  0  0  0  0  0
    0.0002   -1.3852   -0.0005 C   0  0  0  0  0  0  0  0  0  0  0  0
   -0.0023   -2.3882   -0.0012 H   0  0  0  0  0  0  0  0  0  0  0  0
    1.1908   -0.6936   -0.0000 C   0  0  0  0  0  0  0  0  0  0  0  0
    2.0760   -1.1914    0.0013 H   0  0  0  0  0  0  0  0  0  0  0  0
    1.1887    0.6912    0.0009 C   0  0  0  0  0  0  0  0  0  0  0  0
    2.0598    1.1866    0.0004 H   0  0  0  0  0  0  0  0  0  0  0  0
  1  5  1  0
  5  6  1  0
  5  7  2  0
  1  2  1  0
  1  3  1  0
  1  4  1  0
  8 12  1  0
 12 13  2  0
 13 15  1  0
 15 17  2  0
 17 19  1  0
 19 21  2  0
 21 12  1  0
  8  9  1  0
  8 10  1  0
  8 11  1  0
 13 14  1  0
 15 16  1  0
 17 18  1  0
 19 20  1  0
 21 22  1  0
M  CHG  1   6  -1
M  END
>  <PDB_ID>  (155) 
pdb1ciu

>  <RESIDUE_NAME>  (155) 
GLU   PHE

>  <FRAG_NAME>  (155) 
ACET   MBZ

>  <FRAG_ATOM_NUM>  (155) 
fragi: 7  fragj: 15

>  <atom.prop.CHAIN_ID>  (155) 
A A A A A A A Z Z Z Z Z Z Z Z Z Z Z Z Z Z Z

>  <atom.prop.IS_HEAVY_ATOM>  (155) 
1 0 0 0 1 1 1 1 0 0 0 1 1 0 1 0 1 0 1 0 1 0

>  <DIFUSE_FUNC_ATOM>  (155) 
atom 6   atom 7   

>  <FINAL_SINGLE_POINT_ENERGY>  (155) 
0

>  <NONCOV_INTER_ENERGY_QM>  (155) 
0

>  <FF_Energy>  (155) 
5.36

>  <QM_Energy>  (155) 
-5.22

>  <source>  (155) 
ACET_MBZ_00

>  <Index>  (155) 
5891

$$$$
ACET-pdb2d1k-A-ASP-24:MBZ-pdb2d1k-A-PHE-21
     RDKit          3D

 22 21  0  0  0  0  0  0  0  0999 V2000
   -3.8640    6.1062   -1.1642 C   0  0  0  0  0  0  0  0  0  0  0  0
   -3.9654    6.0848   -0.1746 H   0  0  0  0  0  0  0  0  0  0  0  0
   -4.7132    5.8308   -1.6024 H   0  0  0  0  0  0  0  0  0  0  0  0
   -3.6398    7.1301   -1.4633 H   0  0  0  0  0  0  0  0  0  0  0  0
   -2.7772    5.1285   -1.5592 C   0  0  0  0  0  0  0  0  0  0  0  0
   -1.8226    5.5344   -2.2653 O   0  0  0  0  0  1  0  0  0  0  0  0
   -2.8832    3.9485   -1.1611 O   0  0  0  0  0  0  0  0  0  0  0  0
    0.0002    2.9172   -0.0036 C   0  0  0  0  0  0  0  0  0  0  0  0
   -0.7867    3.2227   -0.5190 H   0  0  0  0  0  0  0  0  0  0  0  0
    0.8435    3.2222   -0.4190 H   0  0  0  0  0  0  0  0  0  0  0  0
   -0.0605    3.3624    0.9895 H   0  0  0  0  0  0  0  0  0  0  0  0
    0.0000    1.4109   -0.0006 C   0  0  0  0  0  0  0  0  0  0  0  0
   -1.2000    0.6985    0.0001 C   0  0  0  0  0  0  0  0  0  0  0  0
   -2.0668    1.1850   -0.0007 H   0  0  0  0  0  0  0  0  0  0  0  0
   -1.2071   -0.7060    0.0000 C   0  0  0  0  0  0  0  0  0  0  0  0
   -2.0804   -1.1953   -0.0016 H   0  0  0  0  0  0  0  0  0  0  0  0
    0.0042   -1.4065    0.0048 C   0  0  0  0  0  0  0  0  0  0  0  0
    0.0009   -2.4002    0.0113 H   0  0  0  0  0  0  0  0  0  0  0  0
    1.2071   -0.7007   -0.0000 C   0  0  0  0  0  0  0  0  0  0  0  0
    2.0892   -1.1890    0.0014 H   0  0  0  0  0  0  0  0  0  0  0  0
    1.1958    0.7038   -0.0043 C   0  0  0  0  0  0  0  0  0  0  0  0
    2.0664    1.1958   -0.0109 H   0  0  0  0  0  0  0  0  0  0  0  0
  1  5  1  0
  5  6  1  0
  5  7  2  0
  1  2  1  0
  1  3  1  0
  1  4  1  0
  8 12  1  0
 12 13  2  0
 13 15  1  0
 15 17  2  0
 17 19  1  0
 19 21  2  0
 21 12  1  0
  8  9  1  0
  8 10  1  0
  8 11  1  0
 13 14  1  0
 15 16  1  0
 17 18  1  0
 19 20  1  0
 21 22  1  0
M  CHG  1   6  -1
M  END
>  <PDB_ID>  (156) 
pdb2d1k

>  <RESIDUE_NAME>  (156) 
ASP   PHE

>  <FRAG_NAME>  (156) 
ACET   MBZ

>  <FRAG_ATOM_NUM>  (156) 
fragi: 7  fragj: 15

>  <atom.prop.CHAIN_ID>  (156) 
A A A A A A A Z Z Z Z Z Z Z Z Z Z Z Z Z Z Z

>  <atom.prop.IS_HEAVY_ATOM>  (156) 
1 0 0 0 1 1 1 1 0 0 0 1 1 0 1 0 1 0 1 0 1 0

>  <DIFUSE_FUNC_ATOM>  (156) 
atom 6   atom 7   

>  <FINAL_SINGLE_POINT_ENERGY>  (156) 
0

>  <NONCOV_INTER_ENERGY_QM>  (156) 
0

>  <FF_Energy>  (156) 
-1.01

>  <QM_Energy>  (156) 
-7.43

>  <source>  (156) 
ACET_MBZ_00

>  <Index>  (156) 
5894

$$$$
ACET-pdb1cer-B-GLU-94:MBZ-pdb1cer-B-PHE-99
     RDKit          3D

 22 21  0  0  0  0  0  0  0  0999 V2000
    3.3577    5.2306   -0.5065 C   0  0  0  0  0  0  0  0  0  0  0  0
    2.7236    5.2473    0.2566 H   0  0  0  0  0  0  0  0  0  0  0  0
    3.0366    5.8132   -1.2425 H   0  0  0  0  0  0  0  0  0  0  0  0
    4.3215    5.6059   -0.1624 H   0  0  0  0  0  0  0  0  0  0  0  0
    3.4311    3.8556   -1.0112 C   0  0  0  0  0  0  0  0  0  0  0  0
    4.1004    3.0249   -0.3560 O   0  0  0  0  0  1  0  0  0  0  0  0
    2.7985    3.6344   -2.0731 O   0  0  0  0  0  0  0  0  0  0  0  0
   -0.0094    2.9094    0.0312 C   0  0  0  0  0  0  0  0  0  0  0  0
    0.8535    3.2273   -0.3278 H   0  0  0  0  0  0  0  0  0  0  0  0
   -0.1404    3.1938    0.9675 H   0  0  0  0  0  0  0  0  0  0  0  0
   -0.8054    3.3516   -0.5679 H   0  0  0  0  0  0  0  0  0  0  0  0
    0.0035    1.3991    0.0018 C   0  0  0  0  0  0  0  0  0  0  0  0
   -1.1907    0.6770   -0.0027 C   0  0  0  0  0  0  0  0  0  0  0  0
   -2.0613    1.1687   -0.0090 H   0  0  0  0  0  0  0  0  0  0  0  0
   -1.1988   -0.7121   -0.0000 C   0  0  0  0  0  0  0  0  0  0  0  0
   -2.0783   -1.1992    0.0020 H   0  0  0  0  0  0  0  0  0  0  0  0
   -0.0117   -1.3847    0.0018 C   0  0  0  0  0  0  0  0  0  0  0  0
    0.0078   -2.3878    0.0037 H   0  0  0  0  0  0  0  0  0  0  0  0
    1.1988   -0.6788    0.0000 C   0  0  0  0  0  0  0  0  0  0  0  0
    2.0757   -1.1883    0.0004 H   0  0  0  0  0  0  0  0  0  0  0  0
    1.1988    0.6994   -0.0009 C   0  0  0  0  0  0  0  0  0  0  0  0
    2.0650    1.1994   -0.0044 H   0  0  0  0  0  0  0  0  0  0  0  0
  1  5  1  0
  5  6  1  0
  5  7  2  0
  1  2  1  0
  1  3  1  0
  1  4  1  0
  8 12  1  0
 12 13  2  0
 13 15  1  0
 15 17  2  0
 17 19  1  0
 19 21  2  0
 21 12  1  0
  8  9  1  0
  8 10  1  0
  8 11  1  0
 13 14  1  0
 15 16  1  0
 17 18  1  0
 19 20  1  0
 21 22  1  0
M  CHG  1   6  -1
M  END
>  <PDB_ID>  (157) 
pdb1cer

>  <RESIDUE_NAME>  (157) 
GLU   PHE

>  <FRAG_NAME>  (157) 
ACET   MBZ

>  <FRAG_ATOM_NUM>  (157) 
fragi: 7  fragj: 15

>  <atom.prop.CHAIN_ID>  (157) 
A A A A A A A Z Z Z Z Z Z Z Z Z Z Z Z Z Z Z

>  <atom.prop.IS_HEAVY_ATOM>  (157) 
1 0 0 0 1 1 1 1 0 0 0 1 1 0 1 0 1 0 1 0 1 0

>  <DIFUSE_FUNC_ATOM>  (157) 
atom 6   atom 7   

>  <FINAL_SINGLE_POINT_ENERGY>  (157) 
0

>  <NONCOV_INTER_ENERGY_QM>  (157) 
0

>  <FF_Energy>  (157) 
-2.3

>  <QM_Energy>  (157) 
-7.7

>  <source>  (157) 
ACET_MBZ_00

>  <Index>  (157) 
5913

$$$$
ACET-pdb2d2i-A-GLU-97:MBZ-pdb2d2i-A-PHE-102
     RDKit          3D

 22 21  0  0  0  0  0  0  0  0999 V2000
   -3.4022    4.8730   -1.0438 C   0  0  0  0  0  0  0  0  0  0  0  0
   -3.5434    4.6723   -1.9940 H   0  0  0  0  0  0  0  0  0  0  0  0
   -2.4671    5.0951   -0.8416 H   0  0  0  0  0  0  0  0  0  0  0  0
   -4.0284    5.7228   -0.7723 H   0  0  0  0  0  0  0  0  0  0  0  0
   -3.7477    3.6075   -0.2573 C   0  0  0  0  0  0  0  0  0  0  0  0
   -4.0435    3.7316    0.9662 O   0  0  0  0  0  1  0  0  0  0  0  0
   -3.7124    2.5011   -0.8621 O   0  0  0  0  0  0  0  0  0  0  0  0
    0.0088    2.8668    0.1896 C   0  0  0  0  0  0  0  0  0  0  0  0
   -0.9169    3.1976    0.1111 H   0  0  0  0  0  0  0  0  0  0  0  0
    0.5997    3.2681   -0.4906 H   0  0  0  0  0  0  0  0  0  0  0  0
    0.3837    3.1626    1.1695 H   0  0  0  0  0  0  0  0  0  0  0  0
    0.0033    1.3985    0.0035 C   0  0  0  0  0  0  0  0  0  0  0  0
   -1.1920    0.6922   -0.0028 C   0  0  0  0  0  0  0  0  0  0  0  0
   -2.0602    1.1863   -0.0109 H   0  0  0  0  0  0  0  0  0  0  0  0
   -1.2070   -0.6982   -0.0000 C   0  0  0  0  0  0  0  0  0  0  0  0
   -2.0881   -1.1837    0.0008 H   0  0  0  0  0  0  0  0  0  0  0  0
   -0.0159   -1.3919    0.0032 C   0  0  0  0  0  0  0  0  0  0  0  0
   -0.0098   -2.3906    0.0077 H   0  0  0  0  0  0  0  0  0  0  0  0
    1.2070   -0.6934    0.0000 C   0  0  0  0  0  0  0  0  0  0  0  0
    2.0762   -1.2016    0.0020 H   0  0  0  0  0  0  0  0  0  0  0  0
    1.2045    0.6929   -0.0038 C   0  0  0  0  0  0  0  0  0  0  0  0
    2.0693    1.1924   -0.0125 H   0  0  0  0  0  0  0  0  0  0  0  0
  1  5  1  0
  5  6  1  0
  5  7  2  0
  1  2  1  0
  1  3  1  0
  1  4  1  0
  8 12  1  0
 12 13  2  0
 13 15  1  0
 15 17  2  0
 17 19  1  0
 19 21  2  0
 21 12  1  0
  8  9  1  0
  8 10  1  0
  8 11  1  0
 13 14  1  0
 15 16  1  0
 17 18  1  0
 19 20  1  0
 21 22  1  0
M  CHG  1   6  -1
M  END
>  <PDB_ID>  (158) 
pdb2d2i

>  <RESIDUE_NAME>  (158) 
GLU   PHE

>  <FRAG_NAME>  (158) 
ACET   MBZ

>  <FRAG_ATOM_NUM>  (158) 
fragi: 7  fragj: 15

>  <atom.prop.CHAIN_ID>  (158) 
A A A A A A A Z Z Z Z Z Z Z Z Z Z Z Z Z Z Z

>  <atom.prop.IS_HEAVY_ATOM>  (158) 
1 0 0 0 1 1 1 1 0 0 0 1 1 0 1 0 1 0 1 0 1 0

>  <DIFUSE_FUNC_ATOM>  (158) 
atom 6   atom 7   

>  <FINAL_SINGLE_POINT_ENERGY>  (158) 
0

>  <NONCOV_INTER_ENERGY_QM>  (158) 
0

>  <FF_Energy>  (158) 
-1.78

>  <QM_Energy>  (158) 
-7.8

>  <source>  (158) 
ACET_MBZ_00

>  <Index>  (158) 
5938

$$$$
ACET-pdb2d2i-P-GLU-97:MBZ-pdb2d2i-P-PHE-102
     RDKit          3D

 22 21  0  0  0  0  0  0  0  0999 V2000
   -3.4566    5.1192   -0.2266 C   0  0  0  0  0  0  0  0  0  0  0  0
   -2.5770    5.2133   -0.6733 H   0  0  0  0  0  0  0  0  0  0  0  0
   -3.4299    5.4991    0.6888 H   0  0  0  0  0  0  0  0  0  0  0  0
   -4.1944    5.6735   -0.8067 H   0  0  0  0  0  0  0  0  0  0  0  0
   -3.7394    3.6327   -0.0909 C   0  0  0  0  0  0  0  0  0  0  0  0
   -3.8404    2.9308   -1.1147 O   0  0  0  0  0  1  0  0  0  0  0  0
   -3.8469    3.1651    1.0620 O   0  0  0  0  0  0  0  0  0  0  0  0
    0.0131    2.8904    0.1050 C   0  0  0  0  0  0  0  0  0  0  0  0
   -0.9191    3.2118    0.0690 H   0  0  0  0  0  0  0  0  0  0  0  0
    0.5507    3.2470   -0.6414 H   0  0  0  0  0  0  0  0  0  0  0  0
    0.4554    3.2437    1.0365 H   0  0  0  0  0  0  0  0  0  0  0  0
   -0.0019    1.4039    0.0012 C   0  0  0  0  0  0  0  0  0  0  0  0
   -1.1975    0.7066   -0.0021 C   0  0  0  0  0  0  0  0  0  0  0  0
   -2.0639    1.1936   -0.0069 H   0  0  0  0  0  0  0  0  0  0  0  0
   -1.2040   -0.6919   -0.0000 C   0  0  0  0  0  0  0  0  0  0  0  0
   -2.0806   -1.1829    0.0002 H   0  0  0  0  0  0  0  0  0  0  0  0
    0.0019   -1.3995    0.0033 C   0  0  0  0  0  0  0  0  0  0  0  0
   -0.0097   -2.3949    0.0074 H   0  0  0  0  0  0  0  0  0  0  0  0
    1.2040   -0.7049    0.0000 C   0  0  0  0  0  0  0  0  0  0  0  0
    2.0847   -1.2023    0.0009 H   0  0  0  0  0  0  0  0  0  0  0  0
    1.1976    0.6858   -0.0024 C   0  0  0  0  0  0  0  0  0  0  0  0
    2.0663    1.1843   -0.0073 H   0  0  0  0  0  0  0  0  0  0  0  0
  1  5  1  0
  5  6  1  0
  5  7  2  0
  1  2  1  0
  1  3  1  0
  1  4  1  0
  8 12  1  0
 12 13  2  0
 13 15  1  0
 15 17  2  0
 17 19  1  0
 19 21  2  0
 21 12  1  0
  8  9  1  0
  8 10  1  0
  8 11  1  0
 13 14  1  0
 15 16  1  0
 17 18  1  0
 19 20  1  0
 21 22  1  0
M  CHG  1   6  -1
M  END
>  <PDB_ID>  (159) 
pdb2d2i

>  <RESIDUE_NAME>  (159) 
GLU   PHE

>  <FRAG_NAME>  (159) 
ACET   MBZ

>  <FRAG_ATOM_NUM>  (159) 
fragi: 7  fragj: 15

>  <atom.prop.CHAIN_ID>  (159) 
A A A A A A A Z Z Z Z Z Z Z Z Z Z Z Z Z Z Z

>  <atom.prop.IS_HEAVY_ATOM>  (159) 
1 0 0 0 1 1 1 1 0 0 0 1 1 0 1 0 1 0 1 0 1 0

>  <DIFUSE_FUNC_ATOM>  (159) 
atom 6   atom 7   

>  <FINAL_SINGLE_POINT_ENERGY>  (159) 
0

>  <NONCOV_INTER_ENERGY_QM>  (159) 
0

>  <FF_Energy>  (159) 
-2.83

>  <QM_Energy>  (159) 
-7.92

>  <source>  (159) 
ACET_MBZ_00

>  <Index>  (159) 
5951

$$$$
ACET-pdb1cki-B-GLU-55:MBZ-pdb1cki-B-PHE-23
     RDKit          3D

 22 21  0  0  0  0  0  0  0  0999 V2000
   -2.3695   -5.1698    0.2212 C   0  0  0  0  0  0  0  0  0  0  0  0
   -1.9620   -6.0138   -0.0987 H   0  0  0  0  0  0  0  0  0  0  0  0
   -3.2805   -5.3267    0.5759 H   0  0  0  0  0  0  0  0  0  0  0  0
   -1.7544   -4.7957    1.0396 H   0  0  0  0  0  0  0  0  0  0  0  0
   -2.4905   -4.2346   -0.9665 C   0  0  0  0  0  0  0  0  0  0  0  0
   -1.6385   -3.3513   -1.1429 O   0  0  0  0  0  1  0  0  0  0  0  0
   -3.4422   -4.3903   -1.7520 O   0  0  0  0  0  0  0  0  0  0  0  0
    0.0006    2.8788   -0.0736 C   0  0  0  0  0  0  0  0  0  0  0  0
    0.8436    3.2085    0.3192 H   0  0  0  0  0  0  0  0  0  0  0  0
   -0.7866    3.2148    0.4177 H   0  0  0  0  0  0  0  0  0  0  0  0
   -0.0601    3.2573   -1.0940 H   0  0  0  0  0  0  0  0  0  0  0  0
   -0.0011    1.3880   -0.0007 C   0  0  0  0  0  0  0  0  0  0  0  0
   -1.1968    0.6873    0.0000 C   0  0  0  0  0  0  0  0  0  0  0  0
   -2.0608    1.1843   -0.0008 H   0  0  0  0  0  0  0  0  0  0  0  0
   -1.1990   -0.6870   -0.0000 C   0  0  0  0  0  0  0  0  0  0  0  0
   -2.0740   -1.1898    0.0024 H   0  0  0  0  0  0  0  0  0  0  0  0
    0.0020   -1.3782   -0.0022 C   0  0  0  0  0  0  0  0  0  0  0  0
   -0.0050   -2.3812   -0.0060 H   0  0  0  0  0  0  0  0  0  0  0  0
    1.1990   -0.6907    0.0000 C   0  0  0  0  0  0  0  0  0  0  0  0
    2.0789   -1.1970    0.0011 H   0  0  0  0  0  0  0  0  0  0  0  0
    1.1959    0.6806    0.0028 C   0  0  0  0  0  0  0  0  0  0  0  0
    2.0616    1.1862    0.0060 H   0  0  0  0  0  0  0  0  0  0  0  0
  1  5  1  0
  5  6  1  0
  5  7  2  0
  1  2  1  0
  1  3  1  0
  1  4  1  0
  8 12  1  0
 12 13  2  0
 13 15  1  0
 15 17  2  0
 17 19  1  0
 19 21  2  0
 21 12  1  0
  8  9  1  0
  8 10  1  0
  8 11  1  0
 13 14  1  0
 15 16  1  0
 17 18  1  0
 19 20  1  0
 21 22  1  0
M  CHG  1   6  -1
M  END
>  <PDB_ID>  (160) 
pdb1cki

>  <RESIDUE_NAME>  (160) 
GLU   PHE

>  <FRAG_NAME>  (160) 
ACET   MBZ

>  <FRAG_ATOM_NUM>  (160) 
fragi: 7  fragj: 15

>  <atom.prop.CHAIN_ID>  (160) 
A A A A A A A Z Z Z Z Z Z Z Z Z Z Z Z Z Z Z

>  <atom.prop.IS_HEAVY_ATOM>  (160) 
1 0 0 0 1 1 1 1 0 0 0 1 1 0 1 0 1 0 1 0 1 0

>  <DIFUSE_FUNC_ATOM>  (160) 
atom 6   atom 7   

>  <FINAL_SINGLE_POINT_ENERGY>  (160) 
0

>  <NONCOV_INTER_ENERGY_QM>  (160) 
0

>  <FF_Energy>  (160) 
1.97

>  <QM_Energy>  (160) 
-4.18

>  <source>  (160) 
ACET_MBZ_00

>  <Index>  (160) 
5990

$$$$
ACET-pdb2d40-A-GLU-127:MBZ-pdb2d40-A-PHE-213
     RDKit          3D

 22 21  0  0  0  0  0  0  0  0999 V2000
   -1.3766   -3.9311    1.2457 C   0  0  0  0  0  0  0  0  0  0  0  0
   -1.5321   -3.3658    2.0461 H   0  0  0  0  0  0  0  0  0  0  0  0
   -0.6358   -3.5660    0.6967 H   0  0  0  0  0  0  0  0  0  0  0  0
   -1.1285   -4.9444    1.5617 H   0  0  0  0  0  0  0  0  0  0  0  0
   -2.6375   -3.8359    0.3935 C   0  0  0  0  0  0  0  0  0  0  0  0
   -3.6835   -3.7780    1.0028 O   0  0  0  0  0  1  0  0  0  0  0  0
   -2.5139   -3.8721   -0.8624 O   0  0  0  0  0  0  0  0  0  0  0  0
    0.0025    2.8799   -0.0085 C   0  0  0  0  0  0  0  0  0  0  0  0
    0.9335    3.1711    0.1707 H   0  0  0  0  0  0  0  0  0  0  0  0
   -0.6002    3.1545    0.7301 H   0  0  0  0  0  0  0  0  0  0  0  0
   -0.3377    3.3581   -0.9269 H   0  0  0  0  0  0  0  0  0  0  0  0
   -0.0032    1.3845   -0.0673 C   0  0  0  0  0  0  0  0  0  0  0  0
   -1.1559    0.7177   -0.0063 C   0  0  0  0  0  0  0  0  0  0  0  0
   -2.0325    1.1790    0.0330 H   0  0  0  0  0  0  0  0  0  0  0  0
   -1.1178   -0.6580   -0.0000 C   0  0  0  0  0  0  0  0  0  0  0  0
   -2.0081   -1.1686    0.0044 H   0  0  0  0  0  0  0  0  0  0  0  0
    0.0560   -1.3366    0.0016 C   0  0  0  0  0  0  0  0  0  0  0  0
   -0.0452   -2.3866    0.0037 H   0  0  0  0  0  0  0  0  0  0  0  0
    1.1178   -0.7813    0.0000 C   0  0  0  0  0  0  0  0  0  0  0  0
    2.0541   -1.1858   -0.0436 H   0  0  0  0  0  0  0  0  0  0  0  0
    1.1031    0.6737    0.0721 C   0  0  0  0  0  0  0  0  0  0  0  0
    2.0066    1.1065    0.2372 H   0  0  0  0  0  0  0  0  0  0  0  0
  1  5  1  0
  5  6  1  0
  5  7  2  0
  1  2  1  0
  1  3  1  0
  1  4  1  0
  8 12  1  0
 12 13  2  0
 13 15  1  0
 15 17  2  0
 17 19  1  0
 19 21  2  0
 21 12  1  0
  8  9  1  0
  8 10  1  0
  8 11  1  0
 13 14  1  0
 15 16  1  0
 17 18  1  0
 19 20  1  0
 21 22  1  0
M  CHG  1   6  -1
M  END
>  <PDB_ID>  (161) 
pdb2d40

>  <RESIDUE_NAME>  (161) 
GLU   PHE

>  <FRAG_NAME>  (161) 
ACET   MBZ

>  <FRAG_ATOM_NUM>  (161) 
fragi: 7  fragj: 15

>  <atom.prop.CHAIN_ID>  (161) 
A A A A A A A Z Z Z Z Z Z Z Z Z Z Z Z Z Z Z

>  <atom.prop.IS_HEAVY_ATOM>  (161) 
1 0 0 0 1 1 1 1 0 0 0 1 1 0 1 0 1 0 1 0 1 0

>  <DIFUSE_FUNC_ATOM>  (161) 
atom 6   atom 7   

>  <FINAL_SINGLE_POINT_ENERGY>  (161) 
0

>  <NONCOV_INTER_ENERGY_QM>  (161) 
0

>  <FF_Energy>  (161) 
33.12

>  <QM_Energy>  (161) 
0.54

>  <source>  (161) 
ACET_MBZ_00

>  <Index>  (161) 
6026

$$$$
ACET-pdb2d40-B-GLU-127:MBZ-pdb2d40-B-PHE-213
     RDKit          3D

 22 21  0  0  0  0  0  0  0  0999 V2000
   -1.2935   -4.1055    1.0565 C   0  0  0  0  0  0  0  0  0  0  0  0
   -1.7186   -3.6253    1.8225 H   0  0  0  0  0  0  0  0  0  0  0  0
   -0.4913   -3.5960    0.7476 H   0  0  0  0  0  0  0  0  0  0  0  0
   -1.0307   -5.1273    1.3305 H   0  0  0  0  0  0  0  0  0  0  0  0
   -2.3043   -3.9988   -0.0960 C   0  0  0  0  0  0  0  0  0  0  0  0
   -3.4630   -4.0754    0.1719 O   0  0  0  0  0  1  0  0  0  0  0  0
   -1.9633   -3.7302   -1.2800 O   0  0  0  0  0  0  0  0  0  0  0  0
   -0.1135    2.8384    0.1147 C   0  0  0  0  0  0  0  0  0  0  0  0
    0.7338    3.1540    0.5108 H   0  0  0  0  0  0  0  0  0  0  0  0
   -0.8851    3.0459    0.6934 H   0  0  0  0  0  0  0  0  0  0  0  0
   -0.2551    3.3497   -0.8376 H   0  0  0  0  0  0  0  0  0  0  0  0
   -0.0294    1.3421   -0.0229 C   0  0  0  0  0  0  0  0  0  0  0  0
   -1.2018    0.6618    0.0054 C   0  0  0  0  0  0  0  0  0  0  0  0
   -2.0718    1.1873    0.0299 H   0  0  0  0  0  0  0  0  0  0  0  0
   -1.2333   -0.6639   -0.0000 C   0  0  0  0  0  0  0  0  0  0  0  0
   -2.0583   -1.2046    0.0085 H   0  0  0  0  0  0  0  0  0  0  0  0
    0.0433   -1.3474   -0.0180 C   0  0  0  0  0  0  0  0  0  0  0  0
    0.0087   -2.3610   -0.0458 H   0  0  0  0  0  0  0  0  0  0  0  0
    1.2333   -0.6843   -0.0000 C   0  0  0  0  0  0  0  0  0  0  0  0
    2.1109   -1.1657   -0.0100 H   0  0  0  0  0  0  0  0  0  0  0  0
    1.1878    0.6917    0.0355 C   0  0  0  0  0  0  0  0  0  0  0  0
    2.0322    1.2192    0.1025 H   0  0  0  0  0  0  0  0  0  0  0  0
  1  5  1  0
  5  6  1  0
  5  7  2  0
  1  2  1  0
  1  3  1  0
  1  4  1  0
  8 12  1  0
 12 13  2  0
 13 15  1  0
 15 17  2  0
 17 19  1  0
 19 21  2  0
 21 12  1  0
  8  9  1  0
  8 10  1  0
  8 11  1  0
 13 14  1  0
 15 16  1  0
 17 18  1  0
 19 20  1  0
 21 22  1  0
M  CHG  1   6  -1
M  END
>  <PDB_ID>  (162) 
pdb2d40

>  <RESIDUE_NAME>  (162) 
GLU   PHE

>  <FRAG_NAME>  (162) 
ACET   MBZ

>  <FRAG_ATOM_NUM>  (162) 
fragi: 7  fragj: 15

>  <atom.prop.CHAIN_ID>  (162) 
A A A A A A A Z Z Z Z Z Z Z Z Z Z Z Z Z Z Z

>  <atom.prop.IS_HEAVY_ATOM>  (162) 
1 0 0 0 1 1 1 1 0 0 0 1 1 0 1 0 1 0 1 0 1 0

>  <DIFUSE_FUNC_ATOM>  (162) 
atom 6   atom 7   

>  <FINAL_SINGLE_POINT_ENERGY>  (162) 
0

>  <NONCOV_INTER_ENERGY_QM>  (162) 
0

>  <FF_Energy>  (162) 
20.28

>  <QM_Energy>  (162) 
-1.0

>  <source>  (162) 
ACET_MBZ_00

>  <Index>  (162) 
6033

$$$$
ACET-pdb2d40-B-ASP-276:MBZ-pdb2d40-B-PHE-337
     RDKit          3D

 22 21  0  0  0  0  0  0  0  0999 V2000
   -5.8381   -0.6071   -0.6772 C   0  0  0  0  0  0  0  0  0  0  0  0
   -6.5571   -0.8158   -1.3269 H   0  0  0  0  0  0  0  0  0  0  0  0
   -5.3510    0.2142   -0.9421 H   0  0  0  0  0  0  0  0  0  0  0  0
   -6.3041   -0.4232    0.2909 H   0  0  0  0  0  0  0  0  0  0  0  0
   -4.8690   -1.7605   -0.6281 C   0  0  0  0  0  0  0  0  0  0  0  0
   -4.1495   -1.8423    0.4002 O   0  0  0  0  0  1  0  0  0  0  0  0
   -4.8577   -2.7208   -1.4379 O   0  0  0  0  0  0  0  0  0  0  0  0
    0.0233    2.8677   -0.2204 C   0  0  0  0  0  0  0  0  0  0  0  0
   -0.6840    3.1229   -0.8633 H   0  0  0  0  0  0  0  0  0  0  0  0
    0.9151    3.1574   -0.5356 H   0  0  0  0  0  0  0  0  0  0  0  0
   -0.1809    3.3718    0.7242 H   0  0  0  0  0  0  0  0  0  0  0  0
    0.0300    1.3890   -0.0996 C   0  0  0  0  0  0  0  0  0  0  0  0
   -1.1564    0.7145    0.0688 C   0  0  0  0  0  0  0  0  0  0  0  0
   -1.9978    1.2486    0.2483 H   0  0  0  0  0  0  0  0  0  0  0  0
   -1.2309   -0.6347    0.0000 C   0  0  0  0  0  0  0  0  0  0  0  0
   -2.1543   -1.0770   -0.0937 H   0  0  0  0  0  0  0  0  0  0  0  0
   -0.1209   -1.4006    0.0531 C   0  0  0  0  0  0  0  0  0  0  0  0
   -0.1218   -2.3796    0.1245 H   0  0  0  0  0  0  0  0  0  0  0  0
    1.2309   -0.7349    0.0000 C   0  0  0  0  0  0  0  0  0  0  0  0
    2.0261   -1.2887   -0.0147 H   0  0  0  0  0  0  0  0  0  0  0  0
    1.2473    0.6667   -0.0223 C   0  0  0  0  0  0  0  0  0  0  0  0
    2.1034    1.1573    0.0147 H   0  0  0  0  0  0  0  0  0  0  0  0
  1  5  1  0
  5  6  1  0
  5  7  2  0
  1  2  1  0
  1  3  1  0
  1  4  1  0
  8 12  1  0
 12 13  2  0
 13 15  1  0
 15 17  2  0
 17 19  1  0
 19 21  2  0
 21 12  1  0
  8  9  1  0
  8 10  1  0
  8 11  1  0
 13 14  1  0
 15 16  1  0
 17 18  1  0
 19 20  1  0
 21 22  1  0
M  CHG  1   6  -1
M  END
>  <PDB_ID>  (163) 
pdb2d40

>  <RESIDUE_NAME>  (163) 
ASP   PHE

>  <FRAG_NAME>  (163) 
ACET   MBZ

>  <FRAG_ATOM_NUM>  (163) 
fragi: 7  fragj: 15

>  <atom.prop.CHAIN_ID>  (163) 
A A A A A A A Z Z Z Z Z Z Z Z Z Z Z Z Z Z Z

>  <atom.prop.IS_HEAVY_ATOM>  (163) 
1 0 0 0 1 1 1 1 0 0 0 1 1 0 1 0 1 0 1 0 1 0

>  <DIFUSE_FUNC_ATOM>  (163) 
atom 6   atom 7   

>  <FINAL_SINGLE_POINT_ENERGY>  (163) 
0

>  <NONCOV_INTER_ENERGY_QM>  (163) 
0

>  <FF_Energy>  (163) 
-0.93

>  <QM_Energy>  (163) 
-6.03

>  <source>  (163) 
ACET_MBZ_00

>  <Index>  (163) 
6040

$$$$
ACET-pdb2d40-D-ASP-276:MBZ-pdb2d40-D-PHE-337
     RDKit          3D

 22 21  0  0  0  0  0  0  0  0999 V2000
   -5.6830   -0.9327   -1.2054 C   0  0  0  0  0  0  0  0  0  0  0  0
   -6.3550   -1.1280   -1.9263 H   0  0  0  0  0  0  0  0  0  0  0  0
   -5.2294   -0.0616   -1.4143 H   0  0  0  0  0  0  0  0  0  0  0  0
   -6.2105   -0.8318   -0.2569 H   0  0  0  0  0  0  0  0  0  0  0  0
   -4.6240   -2.0345   -1.2405 C   0  0  0  0  0  0  0  0  0  0  0  0
   -3.7145   -2.2179   -0.3630 O   0  0  0  0  0  1  0  0  0  0  0  0
   -4.6071   -2.7763   -2.2221 O   0  0  0  0  0  0  0  0  0  0  0  0
    0.0386    2.8888   -0.0924 C   0  0  0  0  0  0  0  0  0  0  0  0
   -0.5352    3.1337   -0.8566 H   0  0  0  0  0  0  0  0  0  0  0  0
    0.9735    3.1688   -0.2333 H   0  0  0  0  0  0  0  0  0  0  0  0
   -0.3465    3.3545    0.8148 H   0  0  0  0  0  0  0  0  0  0  0  0
    0.0415    1.3683   -0.0121 C   0  0  0  0  0  0  0  0  0  0  0  0
   -1.1680    0.6566   -0.0230 C   0  0  0  0  0  0  0  0  0  0  0  0
   -2.0233    1.1999   -0.0506 H   0  0  0  0  0  0  0  0  0  0  0  0
   -1.2015   -0.6632    0.0000 C   0  0  0  0  0  0  0  0  0  0  0  0
   -2.1163   -1.1440    0.0453 H   0  0  0  0  0  0  0  0  0  0  0  0
   -0.0879   -1.3614   -0.0322 C   0  0  0  0  0  0  0  0  0  0  0  0
   -0.0671   -2.3665   -0.0796 H   0  0  0  0  0  0  0  0  0  0  0  0
    1.2015   -0.6915   -0.0000 C   0  0  0  0  0  0  0  0  0  0  0  0
    2.0306   -1.2312   -0.0251 H   0  0  0  0  0  0  0  0  0  0  0  0
    1.2143    0.6911    0.0673 C   0  0  0  0  0  0  0  0  0  0  0  0
    2.0801    1.1705    0.1724 H   0  0  0  0  0  0  0  0  0  0  0  0
  1  5  1  0
  5  6  1  0
  5  7  2  0
  1  2  1  0
  1  3  1  0
  1  4  1  0
  8 12  1  0
 12 13  2  0
 13 15  1  0
 15 17  2  0
 17 19  1  0
 19 21  2  0
 21 12  1  0
  8  9  1  0
  8 10  1  0
  8 11  1  0
 13 14  1  0
 15 16  1  0
 17 18  1  0
 19 20  1  0
 21 22  1  0
M  CHG  1   6  -1
M  END
>  <PDB_ID>  (164) 
pdb2d40

>  <RESIDUE_NAME>  (164) 
ASP   PHE

>  <FRAG_NAME>  (164) 
ACET   MBZ

>  <FRAG_ATOM_NUM>  (164) 
fragi: 7  fragj: 15

>  <atom.prop.CHAIN_ID>  (164) 
A A A A A A A Z Z Z Z Z Z Z Z Z Z Z Z Z Z Z

>  <atom.prop.IS_HEAVY_ATOM>  (164) 
1 0 0 0 1 1 1 1 0 0 0 1 1 0 1 0 1 0 1 0 1 0

>  <DIFUSE_FUNC_ATOM>  (164) 
atom 6   atom 7   

>  <FINAL_SINGLE_POINT_ENERGY>  (164) 
0

>  <NONCOV_INTER_ENERGY_QM>  (164) 
0

>  <FF_Energy>  (164) 
6.73

>  <QM_Energy>  (164) 
-5.97

>  <source>  (164) 
ACET_MBZ_00

>  <Index>  (164) 
6042

$$$$
ACET-pdb2d4c-C-GLU-49:MBZ-pdb2d4c-D-PHE-100
     RDKit          3D

 22 21  0  0  0  0  0  0  0  0999 V2000
   -3.7455   -2.7588   -0.7696 C   0  0  0  0  0  0  0  0  0  0  0  0
   -3.1890   -2.2821   -0.1106 H   0  0  0  0  0  0  0  0  0  0  0  0
   -4.5333   -2.2292   -1.0351 H   0  0  0  0  0  0  0  0  0  0  0  0
   -3.1405   -2.9371   -1.6586 H   0  0  0  0  0  0  0  0  0  0  0  0
   -4.2494   -4.0304   -0.1102 C   0  0  0  0  0  0  0  0  0  0  0  0
   -4.7940   -4.9095   -0.8163 O   0  0  0  0  0  1  0  0  0  0  0  0
   -4.1128   -4.1410    1.1281 O   0  0  0  0  0  0  0  0  0  0  0  0
    0.0052    2.9246    0.0130 C   0  0  0  0  0  0  0  0  0  0  0  0
   -0.9052    3.2318   -0.2045 H   0  0  0  0  0  0  0  0  0  0  0  0
    0.6650    3.2288   -0.6527 H   0  0  0  0  0  0  0  0  0  0  0  0
    0.2815    3.3487    0.9784 H   0  0  0  0  0  0  0  0  0  0  0  0
   -0.0011    1.4092   -0.0002 C   0  0  0  0  0  0  0  0  0  0  0  0
   -1.1982    0.7011    0.0005 C   0  0  0  0  0  0  0  0  0  0  0  0
   -2.0658    1.1881   -0.0001 H   0  0  0  0  0  0  0  0  0  0  0  0
   -1.2050   -0.6973   -0.0000 C   0  0  0  0  0  0  0  0  0  0  0  0
   -2.0803   -1.1884    0.0014 H   0  0  0  0  0  0  0  0  0  0  0  0
    0.0023   -1.4021   -0.0003 C   0  0  0  0  0  0  0  0  0  0  0  0
   -0.0067   -2.3975   -0.0015 H   0  0  0  0  0  0  0  0  0  0  0  0
    1.2050   -0.7044    0.0000 C   0  0  0  0  0  0  0  0  0  0  0  0
    2.0857   -1.1974    0.0019 H   0  0  0  0  0  0  0  0  0  0  0  0
    1.1970    0.6935   -0.0000 C   0  0  0  0  0  0  0  0  0  0  0  0
    2.0664    1.1886   -0.0007 H   0  0  0  0  0  0  0  0  0  0  0  0
  1  5  1  0
  5  6  1  0
  5  7  2  0
  1  2  1  0
  1  3  1  0
  1  4  1  0
  8 12  1  0
 12 13  2  0
 13 15  1  0
 15 17  2  0
 17 19  1  0
 19 21  2  0
 21 12  1  0
  8  9  1  0
  8 10  1  0
  8 11  1  0
 13 14  1  0
 15 16  1  0
 17 18  1  0
 19 20  1  0
 21 22  1  0
M  CHG  1   6  -1
M  END
>  <PDB_ID>  (165) 
pdb2d4c

>  <RESIDUE_NAME>  (165) 
GLU   PHE

>  <FRAG_NAME>  (165) 
ACET   MBZ

>  <FRAG_ATOM_NUM>  (165) 
fragi: 7  fragj: 15

>  <atom.prop.CHAIN_ID>  (165) 
A A A A A A A Z Z Z Z Z Z Z Z Z Z Z Z Z Z Z

>  <atom.prop.IS_HEAVY_ATOM>  (165) 
1 0 0 0 1 1 1 1 0 0 0 1 1 0 1 0 1 0 1 0 1 0

>  <DIFUSE_FUNC_ATOM>  (165) 
atom 6   atom 7   

>  <FINAL_SINGLE_POINT_ENERGY>  (165) 
0

>  <NONCOV_INTER_ENERGY_QM>  (165) 
0

>  <FF_Energy>  (165) 
18.85

>  <QM_Energy>  (165) 
1.39

>  <source>  (165) 
ACET_MBZ_00

>  <Index>  (165) 
6050

$$$$
ACET-pdb2d4e-C-ASP-113:MBZ-pdb2d4e-C-PHE-203
     RDKit          3D

 22 21  0  0  0  0  0  0  0  0999 V2000
   -4.5220    2.4037    1.4261 C   0  0  0  0  0  0  0  0  0  0  0  0
   -4.1723    2.5854    0.5126 H   0  0  0  0  0  0  0  0  0  0  0  0
   -4.7027    3.2588    1.9009 H   0  0  0  0  0  0  0  0  0  0  0  0
   -5.4679    1.8722    1.3217 H   0  0  0  0  0  0  0  0  0  0  0  0
   -3.4681    1.6253    2.2059 C   0  0  0  0  0  0  0  0  0  0  0  0
   -3.6761    0.4303    2.4969 O   0  0  0  0  0  1  0  0  0  0  0  0
   -2.4069    2.2207    2.5124 O   0  0  0  0  0  0  0  0  0  0  0  0
    0.0086    2.8932    0.0772 C   0  0  0  0  0  0  0  0  0  0  0  0
   -0.8893    3.1946    0.3532 H   0  0  0  0  0  0  0  0  0  0  0  0
    0.2548    3.2469   -0.8109 H   0  0  0  0  0  0  0  0  0  0  0  0
    0.7266    3.2805    0.8001 H   0  0  0  0  0  0  0  0  0  0  0  0
    0.0001    1.4005    0.0014 C   0  0  0  0  0  0  0  0  0  0  0  0
   -1.1968    0.6968   -0.0014 C   0  0  0  0  0  0  0  0  0  0  0  0
   -2.0633    1.1850   -0.0062 H   0  0  0  0  0  0  0  0  0  0  0  0
   -1.2010   -0.6975   -0.0000 C   0  0  0  0  0  0  0  0  0  0  0  0
   -2.0782   -1.1889    0.0001 H   0  0  0  0  0  0  0  0  0  0  0  0
   -0.0004   -1.3925    0.0025 C   0  0  0  0  0  0  0  0  0  0  0  0
   -0.0047   -2.3928    0.0054 H   0  0  0  0  0  0  0  0  0  0  0  0
    1.2010   -0.6985    0.0000 C   0  0  0  0  0  0  0  0  0  0  0  0
    2.0815   -1.1968    0.0018 H   0  0  0  0  0  0  0  0  0  0  0  0
    1.1970    0.6912   -0.0025 C   0  0  0  0  0  0  0  0  0  0  0  0
    2.0651    1.1881   -0.0078 H   0  0  0  0  0  0  0  0  0  0  0  0
  1  5  1  0
  5  6  1  0
  5  7  2  0
  1  2  1  0
  1  3  1  0
  1  4  1  0
  8 12  1  0
 12 13  2  0
 13 15  1  0
 15 17  2  0
 17 19  1  0
 19 21  2  0
 21 12  1  0
  8  9  1  0
  8 10  1  0
  8 11  1  0
 13 14  1  0
 15 16  1  0
 17 18  1  0
 19 20  1  0
 21 22  1  0
M  CHG  1   6  -1
M  END
>  <PDB_ID>  (166) 
pdb2d4e

>  <RESIDUE_NAME>  (166) 
ASP   PHE

>  <FRAG_NAME>  (166) 
ACET   MBZ

>  <FRAG_ATOM_NUM>  (166) 
fragi: 7  fragj: 15

>  <atom.prop.CHAIN_ID>  (166) 
A A A A A A A Z Z Z Z Z Z Z Z Z Z Z Z Z Z Z

>  <atom.prop.IS_HEAVY_ATOM>  (166) 
1 0 0 0 1 1 1 1 0 0 0 1 1 0 1 0 1 0 1 0 1 0

>  <DIFUSE_FUNC_ATOM>  (166) 
atom 6   atom 7   

>  <FINAL_SINGLE_POINT_ENERGY>  (166) 
0

>  <NONCOV_INTER_ENERGY_QM>  (166) 
0

>  <FF_Energy>  (166) 
0.57

>  <QM_Energy>  (166) 
-4.98

>  <source>  (166) 
ACET_MBZ_00

>  <Index>  (166) 
6076

$$$$
ACET-pdb1cer-C-GLU-94:MBZ-pdb1cer-C-PHE-99
     RDKit          3D

 22 21  0  0  0  0  0  0  0  0999 V2000
    3.9469    4.1762    0.0895 C   0  0  0  0  0  0  0  0  0  0  0  0
    3.1752    4.4780    0.6374 H   0  0  0  0  0  0  0  0  0  0  0  0
    3.8900    4.5539   -0.8279 H   0  0  0  0  0  0  0  0  0  0  0  0
    4.8634    4.5367    0.5564 H   0  0  0  0  0  0  0  0  0  0  0  0
    3.8535    2.6801   -0.0342 C   0  0  0  0  0  0  0  0  0  0  0  0
    3.9840    2.0013    0.9998 O   0  0  0  0  0  1  0  0  0  0  0  0
    3.6061    2.2058   -1.1784 O   0  0  0  0  0  0  0  0  0  0  0  0
    0.0022    2.8676   -0.0707 C   0  0  0  0  0  0  0  0  0  0  0  0
    0.9398    3.1857   -0.0413 H   0  0  0  0  0  0  0  0  0  0  0  0
   -0.5176    3.2233    0.6943 H   0  0  0  0  0  0  0  0  0  0  0  0
   -0.4491    3.2522   -0.9853 H   0  0  0  0  0  0  0  0  0  0  0  0
   -0.0001    1.4005   -0.0006 C   0  0  0  0  0  0  0  0  0  0  0  0
   -1.1898    0.7065    0.0026 C   0  0  0  0  0  0  0  0  0  0  0  0
   -2.0584    1.1913    0.0055 H   0  0  0  0  0  0  0  0  0  0  0  0
   -1.1942   -0.6898   -0.0000 C   0  0  0  0  0  0  0  0  0  0  0  0
   -2.0763   -1.1792    0.0026 H   0  0  0  0  0  0  0  0  0  0  0  0
    0.0021   -1.4023   -0.0044 C   0  0  0  0  0  0  0  0  0  0  0  0
   -0.0131   -2.3965   -0.0113 H   0  0  0  0  0  0  0  0  0  0  0  0
    1.1942   -0.7098    0.0000 C   0  0  0  0  0  0  0  0  0  0  0  0
    2.0806   -1.1966    0.0030 H   0  0  0  0  0  0  0  0  0  0  0  0
    1.1878    0.6949    0.0024 C   0  0  0  0  0  0  0  0  0  0  0  0
    2.0618    1.1818    0.0056 H   0  0  0  0  0  0  0  0  0  0  0  0
  1  5  1  0
  5  6  1  0
  5  7  2  0
  1  2  1  0
  1  3  1  0
  1  4  1  0
  8 12  1  0
 12 13  2  0
 13 15  1  0
 15 17  2  0
 17 19  1  0
 19 21  2  0
 21 12  1  0
  8  9  1  0
  8 10  1  0
  8 11  1  0
 13 14  1  0
 15 16  1  0
 17 18  1  0
 19 20  1  0
 21 22  1  0
M  CHG  1   6  -1
M  END
>  <PDB_ID>  (167) 
pdb1cer

>  <RESIDUE_NAME>  (167) 
GLU   PHE

>  <FRAG_NAME>  (167) 
ACET   MBZ

>  <FRAG_ATOM_NUM>  (167) 
fragi: 7  fragj: 15

>  <atom.prop.CHAIN_ID>  (167) 
A A A A A A A Z Z Z Z Z Z Z Z Z Z Z Z Z Z Z

>  <atom.prop.IS_HEAVY_ATOM>  (167) 
1 0 0 0 1 1 1 1 0 0 0 1 1 0 1 0 1 0 1 0 1 0

>  <DIFUSE_FUNC_ATOM>  (167) 
atom 6   atom 7   

>  <FINAL_SINGLE_POINT_ENERGY>  (167) 
0

>  <NONCOV_INTER_ENERGY_QM>  (167) 
0

>  <FF_Energy>  (167) 
3.05

>  <QM_Energy>  (167) 
-7.33

>  <source>  (167) 
ACET_MBZ_00

>  <Index>  (167) 
6078

$$$$
ACET-pdb2d4v-B-GLU-204:MBZ-pdb2d4v-A-PHE-190
     RDKit          3D

 22 21  0  0  0  0  0  0  0  0999 V2000
   -1.2354    1.6491    4.2030 C   0  0  0  0  0  0  0  0  0  0  0  0
   -1.6735    1.1939    4.9549 H   0  0  0  0  0  0  0  0  0  0  0  0
   -0.8400    2.5093    4.4659 H   0  0  0  0  0  0  0  0  0  0  0  0
   -0.4463    1.0042    3.8163 H   0  0  0  0  0  0  0  0  0  0  0  0
   -2.3012    1.9392    3.1643 C   0  0  0  0  0  0  0  0  0  0  0  0
   -3.0967    1.0031    2.8857 O   0  0  0  0  0  1  0  0  0  0  0  0
   -2.3399    3.0695    2.6400 O   0  0  0  0  0  0  0  0  0  0  0  0
    0.0124    2.9168    0.0179 C   0  0  0  0  0  0  0  0  0  0  0  0
    0.9544    3.2097    0.1041 H   0  0  0  0  0  0  0  0  0  0  0  0
   -0.5239    3.2115    0.7973 H   0  0  0  0  0  0  0  0  0  0  0  0
   -0.4050    3.3858   -0.8731 H   0  0  0  0  0  0  0  0  0  0  0  0
   -0.0006    1.4062   -0.0051 C   0  0  0  0  0  0  0  0  0  0  0  0
   -1.2115    0.6926   -0.0071 C   0  0  0  0  0  0  0  0  0  0  0  0
   -2.0710    1.1822   -0.0147 H   0  0  0  0  0  0  0  0  0  0  0  0
   -1.2083   -0.7020    0.0000 C   0  0  0  0  0  0  0  0  0  0  0  0
   -2.0757   -1.2037    0.0049 H   0  0  0  0  0  0  0  0  0  0  0  0
    0.0105   -1.3973    0.0021 C   0  0  0  0  0  0  0  0  0  0  0  0
    0.0058   -2.3939    0.0047 H   0  0  0  0  0  0  0  0  0  0  0  0
    1.2083   -0.6941   -0.0000 C   0  0  0  0  0  0  0  0  0  0  0  0
    2.0924   -1.1908   -0.0069 H   0  0  0  0  0  0  0  0  0  0  0  0
    1.2016    0.6947    0.0100 C   0  0  0  0  0  0  0  0  0  0  0  0
    2.0668    1.1947    0.0273 H   0  0  0  0  0  0  0  0  0  0  0  0
  1  5  1  0
  5  6  1  0
  5  7  2  0
  1  2  1  0
  1  3  1  0
  1  4  1  0
  8 12  1  0
 12 13  2  0
 13 15  1  0
 15 17  2  0
 17 19  1  0
 19 21  2  0
 21 12  1  0
  8  9  1  0
  8 10  1  0
  8 11  1  0
 13 14  1  0
 15 16  1  0
 17 18  1  0
 19 20  1  0
 21 22  1  0
M  CHG  1   6  -1
M  END
>  <PDB_ID>  (168) 
pdb2d4v

>  <RESIDUE_NAME>  (168) 
GLU   PHE

>  <FRAG_NAME>  (168) 
ACET   MBZ

>  <FRAG_ATOM_NUM>  (168) 
fragi: 7  fragj: 15

>  <atom.prop.CHAIN_ID>  (168) 
A A A A A A A Z Z Z Z Z Z Z Z Z Z Z Z Z Z Z

>  <atom.prop.IS_HEAVY_ATOM>  (168) 
1 0 0 0 1 1 1 1 0 0 0 1 1 0 1 0 1 0 1 0 1 0

>  <DIFUSE_FUNC_ATOM>  (168) 
atom 6   atom 7   

>  <FINAL_SINGLE_POINT_ENERGY>  (168) 
0

>  <NONCOV_INTER_ENERGY_QM>  (168) 
0

>  <FF_Energy>  (168) 
-1.32

>  <QM_Energy>  (168) 
-6.54

>  <source>  (168) 
ACET_MBZ_00

>  <Index>  (168) 
6139

$$$$
ACET-pdb2d4v-D-GLU-204:MBZ-pdb2d4v-C-PHE-190
     RDKit          3D

 22 21  0  0  0  0  0  0  0  0999 V2000
   -1.5863    1.3879    4.1262 C   0  0  0  0  0  0  0  0  0  0  0  0
   -1.9825    0.7011    4.6986 H   0  0  0  0  0  0  0  0  0  0  0  0
   -1.3747    2.2133    4.6066 H   0  0  0  0  0  0  0  0  0  0  0  0
   -0.6667    0.9906    3.6966 H   0  0  0  0  0  0  0  0  0  0  0  0
   -2.5940    1.7279    3.0501 C   0  0  0  0  0  0  0  0  0  0  0  0
   -3.2593    0.7838    2.5740 O   0  0  0  0  0  1  0  0  0  0  0  0
   -2.6678    2.9161    2.6548 O   0  0  0  0  0  0  0  0  0  0  0  0
   -0.0096    2.9064    0.0053 C   0  0  0  0  0  0  0  0  0  0  0  0
    0.9205    3.2148    0.1184 H   0  0  0  0  0  0  0  0  0  0  0  0
   -0.5879    3.2107    0.7441 H   0  0  0  0  0  0  0  0  0  0  0  0
   -0.3929    3.3475   -0.9149 H   0  0  0  0  0  0  0  0  0  0  0  0
   -0.0079    1.4015   -0.0021 C   0  0  0  0  0  0  0  0  0  0  0  0
   -1.2018    0.6944   -0.0035 C   0  0  0  0  0  0  0  0  0  0  0  0
   -2.0697    1.1788   -0.0085 H   0  0  0  0  0  0  0  0  0  0  0  0
   -1.2033   -0.7032    0.0000 C   0  0  0  0  0  0  0  0  0  0  0  0
   -2.0685   -1.2023   -0.0050 H   0  0  0  0  0  0  0  0  0  0  0  0
    0.0182   -1.3934    0.0117 C   0  0  0  0  0  0  0  0  0  0  0  0
    0.0105   -2.3933    0.0278 H   0  0  0  0  0  0  0  0  0  0  0  0
    1.2033   -0.6951   -0.0000 C   0  0  0  0  0  0  0  0  0  0  0  0
    2.0928   -1.1834   -0.0026 H   0  0  0  0  0  0  0  0  0  0  0  0
    1.1915    0.6959   -0.0061 C   0  0  0  0  0  0  0  0  0  0  0  0
    2.0582    1.1964   -0.0142 H   0  0  0  0  0  0  0  0  0  0  0  0
  1  5  1  0
  5  6  1  0
  5  7  2  0
  1  2  1  0
  1  3  1  0
  1  4  1  0
  8 12  1  0
 12 13  2  0
 13 15  1  0
 15 17  2  0
 17 19  1  0
 19 21  2  0
 21 12  1  0
  8  9  1  0
  8 10  1  0
  8 11  1  0
 13 14  1  0
 15 16  1  0
 17 18  1  0
 19 20  1  0
 21 22  1  0
M  CHG  1   6  -1
M  END
>  <PDB_ID>  (169) 
pdb2d4v

>  <RESIDUE_NAME>  (169) 
GLU   PHE

>  <FRAG_NAME>  (169) 
ACET   MBZ

>  <FRAG_ATOM_NUM>  (169) 
fragi: 7  fragj: 15

>  <atom.prop.CHAIN_ID>  (169) 
A A A A A A A Z Z Z Z Z Z Z Z Z Z Z Z Z Z Z

>  <atom.prop.IS_HEAVY_ATOM>  (169) 
1 0 0 0 1 1 1 1 0 0 0 1 1 0 1 0 1 0 1 0 1 0

>  <DIFUSE_FUNC_ATOM>  (169) 
atom 6   atom 7   

>  <FINAL_SINGLE_POINT_ENERGY>  (169) 
0

>  <NONCOV_INTER_ENERGY_QM>  (169) 
0

>  <FF_Energy>  (169) 
-1.57

>  <QM_Energy>  (169) 
-6.6

>  <source>  (169) 
ACET_MBZ_00

>  <Index>  (169) 
6149

$$$$
ACET-pdb1cm8-A-GLU-289:MBZ-pdb1cm8-A-PHE-273
     RDKit          3D

 22 21  0  0  0  0  0  0  0  0999 V2000
    1.0188    0.9940   -4.2376 C   0  0  0  0  0  0  0  0  0  0  0  0
    0.9044    1.1159   -5.2050 H   0  0  0  0  0  0  0  0  0  0  0  0
    0.7083    0.1152   -3.9302 H   0  0  0  0  0  0  0  0  0  0  0  0
    2.0805    1.0820   -4.0067 H   0  0  0  0  0  0  0  0  0  0  0  0
    0.1632    2.0526   -3.5372 C   0  0  0  0  0  0  0  0  0  0  0  0
    0.5027    3.2602   -3.6117 O   0  0  0  0  0  1  0  0  0  0  0  0
   -0.8625    1.6812   -2.9239 O   0  0  0  0  0  0  0  0  0  0  0  0
   -0.0051    2.9063   -0.0351 C   0  0  0  0  0  0  0  0  0  0  0  0
    0.1404    3.1898   -0.9699 H   0  0  0  0  0  0  0  0  0  0  0  0
    0.7176    3.2268    0.5574 H   0  0  0  0  0  0  0  0  0  0  0  0
   -0.9405    3.3483    0.3081 H   0  0  0  0  0  0  0  0  0  0  0  0
   -0.0008    1.4017   -0.0011 C   0  0  0  0  0  0  0  0  0  0  0  0
   -1.1943    0.6879    0.0021 C   0  0  0  0  0  0  0  0  0  0  0  0
   -2.0633    1.1781    0.0052 H   0  0  0  0  0  0  0  0  0  0  0  0
   -1.1982   -0.6998    0.0000 C   0  0  0  0  0  0  0  0  0  0  0  0
   -2.0741   -1.1946    0.0023 H   0  0  0  0  0  0  0  0  0  0  0  0
    0.0023   -1.3927   -0.0032 C   0  0  0  0  0  0  0  0  0  0  0  0
    0.0001   -2.3919   -0.0085 H   0  0  0  0  0  0  0  0  0  0  0  0
    1.1982   -0.6948    0.0000 C   0  0  0  0  0  0  0  0  0  0  0  0
    2.0827   -1.1894    0.0019 H   0  0  0  0  0  0  0  0  0  0  0  0
    1.1929    0.6977    0.0022 C   0  0  0  0  0  0  0  0  0  0  0  0
    2.0625    1.1930    0.0053 H   0  0  0  0  0  0  0  0  0  0  0  0
  1  5  1  0
  5  6  1  0
  5  7  2  0
  1  2  1  0
  1  3  1  0
  1  4  1  0
  8 12  1  0
 12 13  2  0
 13 15  1  0
 15 17  2  0
 17 19  1  0
 19 21  2  0
 21 12  1  0
  8  9  1  0
  8 10  1  0
  8 11  1  0
 13 14  1  0
 15 16  1  0
 17 18  1  0
 19 20  1  0
 21 22  1  0
M  CHG  1   6  -1
M  END
>  <PDB_ID>  (170) 
pdb1cm8

>  <RESIDUE_NAME>  (170) 
GLU   PHE

>  <FRAG_NAME>  (170) 
ACET   MBZ

>  <FRAG_ATOM_NUM>  (170) 
fragi: 7  fragj: 15

>  <atom.prop.CHAIN_ID>  (170) 
A A A A A A A Z Z Z Z Z Z Z Z Z Z Z Z Z Z Z

>  <atom.prop.IS_HEAVY_ATOM>  (170) 
1 0 0 0 1 1 1 1 0 0 0 1 1 0 1 0 1 0 1 0 1 0

>  <DIFUSE_FUNC_ATOM>  (170) 
atom 6   atom 7   

>  <FINAL_SINGLE_POINT_ENERGY>  (170) 
0

>  <NONCOV_INTER_ENERGY_QM>  (170) 
0

>  <FF_Energy>  (170) 
-0.21

>  <QM_Energy>  (170) 
-4.83

>  <source>  (170) 
ACET_MBZ_00

>  <Index>  (170) 
6163

$$$$
ACET-pdb1cm8-B-GLU-1289:MBZ-pdb1cm8-B-PHE-1273
     RDKit          3D

 22 21  0  0  0  0  0  0  0  0999 V2000
    1.0500    1.0117   -4.2358 C   0  0  0  0  0  0  0  0  0  0  0  0
    0.9346    1.1368   -5.2038 H   0  0  0  0  0  0  0  0  0  0  0  0
    0.7300    0.1329   -3.9326 H   0  0  0  0  0  0  0  0  0  0  0  0
    2.1112    1.0948   -4.0008 H   0  0  0  0  0  0  0  0  0  0  0  0
    0.1952    2.0711   -3.5356 C   0  0  0  0  0  0  0  0  0  0  0  0
    0.5289    3.2780   -3.6064 O   0  0  0  0  0  1  0  0  0  0  0  0
   -0.8327    1.6959   -2.9282 O   0  0  0  0  0  0  0  0  0  0  0  0
   -0.0015    2.9174   -0.0241 C   0  0  0  0  0  0  0  0  0  0  0  0
    0.1519    3.2053   -0.9557 H   0  0  0  0  0  0  0  0  0  0  0  0
    0.7182    3.2301    0.5759 H   0  0  0  0  0  0  0  0  0  0  0  0
   -0.9374    3.3613    0.3151 H   0  0  0  0  0  0  0  0  0  0  0  0
   -0.0004    1.4058   -0.0002 C   0  0  0  0  0  0  0  0  0  0  0  0
   -1.1956    0.6878    0.0012 C   0  0  0  0  0  0  0  0  0  0  0  0
   -2.0641    1.1784    0.0022 H   0  0  0  0  0  0  0  0  0  0  0  0
   -1.1982   -0.6993    0.0000 C   0  0  0  0  0  0  0  0  0  0  0  0
   -2.0763   -1.1950    0.0019 H   0  0  0  0  0  0  0  0  0  0  0  0
   -0.0000   -1.3959   -0.0018 C   0  0  0  0  0  0  0  0  0  0  0  0
   -0.0031   -2.3938   -0.0049 H   0  0  0  0  0  0  0  0  0  0  0  0
    1.1982   -0.6978   -0.0000 C   0  0  0  0  0  0  0  0  0  0  0  0
    2.0819   -1.1929    0.0018 H   0  0  0  0  0  0  0  0  0  0  0  0
    1.1960    0.6994    0.0008 C   0  0  0  0  0  0  0  0  0  0  0  0
    2.0642    1.1915    0.0014 H   0  0  0  0  0  0  0  0  0  0  0  0
  1  5  1  0
  5  6  1  0
  5  7  2  0
  1  2  1  0
  1  3  1  0
  1  4  1  0
  8 12  1  0
 12 13  2  0
 13 15  1  0
 15 17  2  0
 17 19  1  0
 19 21  2  0
 21 12  1  0
  8  9  1  0
  8 10  1  0
  8 11  1  0
 13 14  1  0
 15 16  1  0
 17 18  1  0
 19 20  1  0
 21 22  1  0
M  CHG  1   6  -1
M  END
>  <PDB_ID>  (171) 
pdb1cm8

>  <RESIDUE_NAME>  (171) 
GLU   PHE

>  <FRAG_NAME>  (171) 
ACET   MBZ

>  <FRAG_ATOM_NUM>  (171) 
fragi: 7  fragj: 15

>  <atom.prop.CHAIN_ID>  (171) 
A A A A A A A Z Z Z Z Z Z Z Z Z Z Z Z Z Z Z

>  <atom.prop.IS_HEAVY_ATOM>  (171) 
1 0 0 0 1 1 1 1 0 0 0 1 1 0 1 0 1 0 1 0 1 0

>  <DIFUSE_FUNC_ATOM>  (171) 
atom 6   atom 7   

>  <FINAL_SINGLE_POINT_ENERGY>  (171) 
0

>  <NONCOV_INTER_ENERGY_QM>  (171) 
0

>  <FF_Energy>  (171) 
2.68

>  <QM_Energy>  (171) 
-4.77

>  <source>  (171) 
ACET_MBZ_00

>  <Index>  (171) 
6166

$$$$
ACET-pdb1cm5-A-GLU-40:MBZ-pdb1cm5-A-PHE-386
     RDKit          3D

 22 21  0  0  0  0  0  0  0  0999 V2000
   -0.7744    1.0637   -3.0498 C   0  0  0  0  0  0  0  0  0  0  0  0
   -0.7490    0.8019   -2.0961 H   0  0  0  0  0  0  0  0  0  0  0  0
   -0.0765    1.7355   -3.2542 H   0  0  0  0  0  0  0  0  0  0  0  0
   -0.5851    0.1762   -3.6537 H   0  0  0  0  0  0  0  0  0  0  0  0
   -2.1203    1.7179   -3.3051 C   0  0  0  0  0  0  0  0  0  0  0  0
   -2.1286    2.8895   -3.7278 O   0  0  0  0  0  1  0  0  0  0  0  0
   -3.1668    1.0869   -3.0442 O   0  0  0  0  0  0  0  0  0  0  0  0
   -0.0023    2.9167   -0.0205 C   0  0  0  0  0  0  0  0  0  0  0  0
   -0.3641    3.2079   -0.8912 H   0  0  0  0  0  0  0  0  0  0  0  0
    0.9271    3.2211    0.1084 H   0  0  0  0  0  0  0  0  0  0  0  0
   -0.6148    3.3584    0.7656 H   0  0  0  0  0  0  0  0  0  0  0  0
   -0.0015    1.4083   -0.0014 C   0  0  0  0  0  0  0  0  0  0  0  0
   -1.2004    0.6998    0.0009 C   0  0  0  0  0  0  0  0  0  0  0  0
   -2.0664    1.1867    0.0020 H   0  0  0  0  0  0  0  0  0  0  0  0
   -1.2050   -0.6987    0.0000 C   0  0  0  0  0  0  0  0  0  0  0  0
   -2.0796   -1.1913    0.0017 H   0  0  0  0  0  0  0  0  0  0  0  0
    0.0040   -1.4003   -0.0010 C   0  0  0  0  0  0  0  0  0  0  0  0
   -0.0036   -2.3968   -0.0025 H   0  0  0  0  0  0  0  0  0  0  0  0
    1.2050   -0.7025   -0.0000 C   0  0  0  0  0  0  0  0  0  0  0  0
    2.0863   -1.1969    0.0011 H   0  0  0  0  0  0  0  0  0  0  0  0
    1.1980    0.6934    0.0015 C   0  0  0  0  0  0  0  0  0  0  0  0
    2.0671    1.1897    0.0037 H   0  0  0  0  0  0  0  0  0  0  0  0
  1  5  1  0
  5  6  1  0
  5  7  2  0
  1  2  1  0
  1  3  1  0
  1  4  1  0
  8 12  1  0
 12 13  2  0
 13 15  1  0
 15 17  2  0
 17 19  1  0
 19 21  2  0
 21 12  1  0
  8  9  1  0
  8 10  1  0
  8 11  1  0
 13 14  1  0
 15 16  1  0
 17 18  1  0
 19 20  1  0
 21 22  1  0
M  CHG  1   6  -1
M  END
>  <PDB_ID>  (172) 
pdb1cm5

>  <RESIDUE_NAME>  (172) 
GLU   PHE

>  <FRAG_NAME>  (172) 
ACET   MBZ

>  <FRAG_ATOM_NUM>  (172) 
fragi: 7  fragj: 15

>  <atom.prop.CHAIN_ID>  (172) 
A A A A A A A Z Z Z Z Z Z Z Z Z Z Z Z Z Z Z

>  <atom.prop.IS_HEAVY_ATOM>  (172) 
1 0 0 0 1 1 1 1 0 0 0 1 1 0 1 0 1 0 1 0 1 0

>  <DIFUSE_FUNC_ATOM>  (172) 
atom 6   atom 7   

>  <FINAL_SINGLE_POINT_ENERGY>  (172) 
0

>  <NONCOV_INTER_ENERGY_QM>  (172) 
0

>  <FF_Energy>  (172) 
10.29

>  <QM_Energy>  (172) 
-0.04

>  <source>  (172) 
ACET_MBZ_00

>  <Index>  (172) 
6169

$$$$
ACET-pdb1cm5-B-GLU-40:MBZ-pdb1cm5-B-PHE-386
     RDKit          3D

 22 21  0  0  0  0  0  0  0  0999 V2000
   -0.7506    1.0336   -3.0493 C   0  0  0  0  0  0  0  0  0  0  0  0
   -0.7329    0.7790   -2.0948 H   0  0  0  0  0  0  0  0  0  0  0  0
   -0.0542    1.7023   -3.2570 H   0  0  0  0  0  0  0  0  0  0  0  0
   -0.5587    0.1414   -3.6452 H   0  0  0  0  0  0  0  0  0  0  0  0
   -2.1007    1.6850   -3.3203 C   0  0  0  0  0  0  0  0  0  0  0  0
   -2.1083    2.8560   -3.7492 O   0  0  0  0  0  1  0  0  0  0  0  0
   -3.1476    1.0468   -3.0700 O   0  0  0  0  0  0  0  0  0  0  0  0
   -0.0059    2.9102   -0.0294 C   0  0  0  0  0  0  0  0  0  0  0  0
   -0.3630    3.1951   -0.9045 H   0  0  0  0  0  0  0  0  0  0  0  0
    0.9227    3.2188    0.1015 H   0  0  0  0  0  0  0  0  0  0  0  0
   -0.6239    3.3557    0.7502 H   0  0  0  0  0  0  0  0  0  0  0  0
   -0.0012    1.4062   -0.0005 C   0  0  0  0  0  0  0  0  0  0  0  0
   -1.1980    0.6956    0.0025 C   0  0  0  0  0  0  0  0  0  0  0  0
   -2.0664    1.1831    0.0051 H   0  0  0  0  0  0  0  0  0  0  0  0
   -1.2039   -0.7014   -0.0000 C   0  0  0  0  0  0  0  0  0  0  0  0
   -2.0786   -1.1939    0.0016 H   0  0  0  0  0  0  0  0  0  0  0  0
    0.0029   -1.4012   -0.0021 C   0  0  0  0  0  0  0  0  0  0  0  0
   -0.0003   -2.3967   -0.0056 H   0  0  0  0  0  0  0  0  0  0  0  0
    1.2039   -0.6988    0.0000 C   0  0  0  0  0  0  0  0  0  0  0  0
    2.0870   -1.1914    0.0029 H   0  0  0  0  0  0  0  0  0  0  0  0
    1.1963    0.6997    0.0001 C   0  0  0  0  0  0  0  0  0  0  0  0
    2.0643    1.1939   -0.0001 H   0  0  0  0  0  0  0  0  0  0  0  0
  1  5  1  0
  5  6  1  0
  5  7  2  0
  1  2  1  0
  1  3  1  0
  1  4  1  0
  8 12  1  0
 12 13  2  0
 13 15  1  0
 15 17  2  0
 17 19  1  0
 19 21  2  0
 21 12  1  0
  8  9  1  0
  8 10  1  0
  8 11  1  0
 13 14  1  0
 15 16  1  0
 17 18  1  0
 19 20  1  0
 21 22  1  0
M  CHG  1   6  -1
M  END
>  <PDB_ID>  (173) 
pdb1cm5

>  <RESIDUE_NAME>  (173) 
GLU   PHE

>  <FRAG_NAME>  (173) 
ACET   MBZ

>  <FRAG_ATOM_NUM>  (173) 
fragi: 7  fragj: 15

>  <atom.prop.CHAIN_ID>  (173) 
A A A A A A A Z Z Z Z Z Z Z Z Z Z Z Z Z Z Z

>  <atom.prop.IS_HEAVY_ATOM>  (173) 
1 0 0 0 1 1 1 1 0 0 0 1 1 0 1 0 1 0 1 0 1 0

>  <DIFUSE_FUNC_ATOM>  (173) 
atom 6   atom 7   

>  <FINAL_SINGLE_POINT_ENERGY>  (173) 
0

>  <NONCOV_INTER_ENERGY_QM>  (173) 
0

>  <FF_Energy>  (173) 
10.25

>  <QM_Energy>  (173) 
-0.03

>  <source>  (173) 
ACET_MBZ_00

>  <Index>  (173) 
6174

$$$$
ACET-pdb1cnz-A-GLU-274:MBZ-pdb1cnz-A-PHE-105
     RDKit          3D

 22 21  0  0  0  0  0  0  0  0999 V2000
    3.3952   -2.1216   -1.8409 C   0  0  0  0  0  0  0  0  0  0  0  0
    2.5815   -2.6569   -1.9633 H   0  0  0  0  0  0  0  0  0  0  0  0
    3.2520   -1.3514   -1.2481 H   0  0  0  0  0  0  0  0  0  0  0  0
    4.1416   -2.7628   -1.3720 H   0  0  0  0  0  0  0  0  0  0  0  0
    3.8009   -1.5668   -3.2324 C   0  0  0  0  0  0  0  0  0  0  0  0
    5.0267   -1.5961   -3.5250 O   0  0  0  0  0  1  0  0  0  0  0  0
    2.9132   -1.0817   -4.0228 O   0  0  0  0  0  0  0  0  0  0  0  0
   -0.0031    2.8974    0.0435 C   0  0  0  0  0  0  0  0  0  0  0  0
   -0.8358    3.2194   -0.3836 H   0  0  0  0  0  0  0  0  0  0  0  0
    0.7965    3.2232   -0.4385 H   0  0  0  0  0  0  0  0  0  0  0  0
    0.0296    3.3112    1.0513 H   0  0  0  0  0  0  0  0  0  0  0  0
   -0.0005    1.4008    0.0002 C   0  0  0  0  0  0  0  0  0  0  0  0
   -1.1983    0.6980   -0.0007 C   0  0  0  0  0  0  0  0  0  0  0  0
   -2.0641    1.1837   -0.0035 H   0  0  0  0  0  0  0  0  0  0  0  0
   -1.2011   -0.7001    0.0000 C   0  0  0  0  0  0  0  0  0  0  0  0
   -2.0763   -1.1921   -0.0031 H   0  0  0  0  0  0  0  0  0  0  0  0
    0.0031   -1.3940    0.0068 C   0  0  0  0  0  0  0  0  0  0  0  0
   -0.0012   -2.3939    0.0165 H   0  0  0  0  0  0  0  0  0  0  0  0
    1.2011   -0.6985   -0.0000 C   0  0  0  0  0  0  0  0  0  0  0  0
    2.0842   -1.1940    0.0007 H   0  0  0  0  0  0  0  0  0  0  0  0
    1.1958    0.6939   -0.0063 C   0  0  0  0  0  0  0  0  0  0  0  0
    2.0643    1.1901   -0.0163 H   0  0  0  0  0  0  0  0  0  0  0  0
  1  5  1  0
  5  6  1  0
  5  7  2  0
  1  2  1  0
  1  3  1  0
  1  4  1  0
  8 12  1  0
 12 13  2  0
 13 15  1  0
 15 17  2  0
 17 19  1  0
 19 21  2  0
 21 12  1  0
  8  9  1  0
  8 10  1  0
  8 11  1  0
 13 14  1  0
 15 16  1  0
 17 18  1  0
 19 20  1  0
 21 22  1  0
M  CHG  1   6  -1
M  END
>  <PDB_ID>  (174) 
pdb1cnz

>  <RESIDUE_NAME>  (174) 
GLU   PHE

>  <FRAG_NAME>  (174) 
ACET   MBZ

>  <FRAG_ATOM_NUM>  (174) 
fragi: 7  fragj: 15

>  <atom.prop.CHAIN_ID>  (174) 
A A A A A A A Z Z Z Z Z Z Z Z Z Z Z Z Z Z Z

>  <atom.prop.IS_HEAVY_ATOM>  (174) 
1 0 0 0 1 1 1 1 0 0 0 1 1 0 1 0 1 0 1 0 1 0

>  <DIFUSE_FUNC_ATOM>  (174) 
atom 6   atom 7   

>  <FINAL_SINGLE_POINT_ENERGY>  (174) 
0

>  <NONCOV_INTER_ENERGY_QM>  (174) 
0

>  <FF_Energy>  (174) 
8.33

>  <QM_Energy>  (174) 
2.37

>  <source>  (174) 
ACET_MBZ_00

>  <Index>  (174) 
6218

$$$$
ACET-pdb2db3-A-ASP-381:MBZ-pdb2db3-A-PHE-358
     RDKit          3D

 22 21  0  0  0  0  0  0  0  0999 V2000
   -4.3010   -2.9379    0.3087 C   0  0  0  0  0  0  0  0  0  0  0  0
   -5.2251   -2.8147    0.6502 H   0  0  0  0  0  0  0  0  0  0  0  0
   -3.6365   -2.6313    0.9773 H   0  0  0  0  0  0  0  0  0  0  0  0
   -4.1428   -4.0024    0.1356 H   0  0  0  0  0  0  0  0  0  0  0  0
   -4.1361   -2.1065   -0.9582 C   0  0  0  0  0  0  0  0  0  0  0  0
   -4.2177   -2.6814   -2.0680 O   0  0  0  0  0  1  0  0  0  0  0  0
   -3.9418   -0.8754   -0.8466 O   0  0  0  0  0  0  0  0  0  0  0  0
   -0.0003    2.9180    0.0339 C   0  0  0  0  0  0  0  0  0  0  0  0
   -0.9361    3.2238   -0.0583 H   0  0  0  0  0  0  0  0  0  0  0  0
    0.5596    3.2399   -0.7135 H   0  0  0  0  0  0  0  0  0  0  0  0
    0.3994    3.3400    0.9559 H   0  0  0  0  0  0  0  0  0  0  0  0
    0.0011    1.4100   -0.0001 C   0  0  0  0  0  0  0  0  0  0  0  0
   -1.1993    0.7002   -0.0007 C   0  0  0  0  0  0  0  0  0  0  0  0
   -2.0647    1.1868   -0.0027 H   0  0  0  0  0  0  0  0  0  0  0  0
   -1.2041   -0.7002    0.0000 C   0  0  0  0  0  0  0  0  0  0  0  0
   -2.0823   -1.1898    0.0001 H   0  0  0  0  0  0  0  0  0  0  0  0
   -0.0011   -1.4028    0.0017 C   0  0  0  0  0  0  0  0  0  0  0  0
   -0.0063   -2.3983    0.0032 H   0  0  0  0  0  0  0  0  0  0  0  0
    1.2041   -0.7028   -0.0000 C   0  0  0  0  0  0  0  0  0  0  0  0
    2.0846   -1.1983    0.0009 H   0  0  0  0  0  0  0  0  0  0  0  0
    1.1993    0.6955   -0.0010 C   0  0  0  0  0  0  0  0  0  0  0  0
    2.0687    1.1891   -0.0036 H   0  0  0  0  0  0  0  0  0  0  0  0
  1  5  1  0
  5  6  1  0
  5  7  2  0
  1  2  1  0
  1  3  1  0
  1  4  1  0
  8 12  1  0
 12 13  2  0
 13 15  1  0
 15 17  2  0
 17 19  1  0
 19 21  2  0
 21 12  1  0
  8  9  1  0
  8 10  1  0
  8 11  1  0
 13 14  1  0
 15 16  1  0
 17 18  1  0
 19 20  1  0
 21 22  1  0
M  CHG  1   6  -1
M  END
>  <PDB_ID>  (175) 
pdb2db3

>  <RESIDUE_NAME>  (175) 
ASP   PHE

>  <FRAG_NAME>  (175) 
ACET   MBZ

>  <FRAG_ATOM_NUM>  (175) 
fragi: 7  fragj: 15

>  <atom.prop.CHAIN_ID>  (175) 
A A A A A A A Z Z Z Z Z Z Z Z Z Z Z Z Z Z Z

>  <atom.prop.IS_HEAVY_ATOM>  (175) 
1 0 0 0 1 1 1 1 0 0 0 1 1 0 1 0 1 0 1 0 1 0

>  <DIFUSE_FUNC_ATOM>  (175) 
atom 6   atom 7   

>  <FINAL_SINGLE_POINT_ENERGY>  (175) 
0

>  <NONCOV_INTER_ENERGY_QM>  (175) 
0

>  <FF_Energy>  (175) 
5.11

>  <QM_Energy>  (175) 
-4.04

>  <source>  (175) 
ACET_MBZ_00

>  <Index>  (175) 
6329

$$$$
ACET-pdb2dc1-B-GLU-1152:MBZ-pdb2dc1-B-PHE-1146
     RDKit          3D

 22 21  0  0  0  0  0  0  0  0999 V2000
    0.5065   -4.7511   -0.4355 C   0  0  0  0  0  0  0  0  0  0  0  0
   -0.2545   -5.3635   -0.3522 H   0  0  0  0  0  0  0  0  0  0  0  0
    0.3102   -3.8549   -0.0896 H   0  0  0  0  0  0  0  0  0  0  0  0
    1.3457   -5.1638    0.1245 H   0  0  0  0  0  0  0  0  0  0  0  0
    0.8141   -4.6064   -1.9232 C   0  0  0  0  0  0  0  0  0  0  0  0
    1.6758   -3.7700   -2.2782 O   0  0  0  0  0  1  0  0  0  0  0  0
    0.2019   -5.3334   -2.7363 O   0  0  0  0  0  0  0  0  0  0  0  0
    0.0060    2.9053   -0.0077 C   0  0  0  0  0  0  0  0  0  0  0  0
    0.8872    3.2121    0.3224 H   0  0  0  0  0  0  0  0  0  0  0  0
   -0.7254    3.2171    0.5829 H   0  0  0  0  0  0  0  0  0  0  0  0
   -0.1513    3.3483   -0.9912 H   0  0  0  0  0  0  0  0  0  0  0  0
    0.0020    1.4021    0.0002 C   0  0  0  0  0  0  0  0  0  0  0  0
   -1.1976    0.6891    0.0011 C   0  0  0  0  0  0  0  0  0  0  0  0
   -2.0629    1.1798    0.0016 H   0  0  0  0  0  0  0  0  0  0  0  0
   -1.2013   -0.7022   -0.0000 C   0  0  0  0  0  0  0  0  0  0  0  0
   -2.0774   -1.1954    0.0017 H   0  0  0  0  0  0  0  0  0  0  0  0
   -0.0007   -1.3927   -0.0019 C   0  0  0  0  0  0  0  0  0  0  0  0
    0.0015   -2.3922   -0.0049 H   0  0  0  0  0  0  0  0  0  0  0  0
    1.2013   -0.6922    0.0000 C   0  0  0  0  0  0  0  0  0  0  0  0
    2.0825   -1.1913    0.0022 H   0  0  0  0  0  0  0  0  0  0  0  0
    1.1962    0.6960    0.0006 C   0  0  0  0  0  0  0  0  0  0  0  0
    2.0650    1.1927    0.0004 H   0  0  0  0  0  0  0  0  0  0  0  0
  1  5  1  0
  5  6  1  0
  5  7  2  0
  1  2  1  0
  1  3  1  0
  1  4  1  0
  8 12  1  0
 12 13  2  0
 13 15  1  0
 15 17  2  0
 17 19  1  0
 19 21  2  0
 21 12  1  0
  8  9  1  0
  8 10  1  0
  8 11  1  0
 13 14  1  0
 15 16  1  0
 17 18  1  0
 19 20  1  0
 21 22  1  0
M  CHG  1   6  -1
M  END
>  <PDB_ID>  (176) 
pdb2dc1

>  <RESIDUE_NAME>  (176) 
GLU   PHE

>  <FRAG_NAME>  (176) 
ACET   MBZ

>  <FRAG_ATOM_NUM>  (176) 
fragi: 7  fragj: 15

>  <atom.prop.CHAIN_ID>  (176) 
A A A A A A A Z Z Z Z Z Z Z Z Z Z Z Z Z Z Z

>  <atom.prop.IS_HEAVY_ATOM>  (176) 
1 0 0 0 1 1 1 1 0 0 0 1 1 0 1 0 1 0 1 0 1 0

>  <DIFUSE_FUNC_ATOM>  (176) 
atom 6   atom 7   

>  <FINAL_SINGLE_POINT_ENERGY>  (176) 
0

>  <NONCOV_INTER_ENERGY_QM>  (176) 
0

>  <FF_Energy>  (176) 
31.1

>  <QM_Energy>  (176) 
1.71

>  <source>  (176) 
ACET_MBZ_00

>  <Index>  (176) 
6387

$$$$
ACET-pdb1cf9-A-ASP-446:MBZ-pdb1cf9-C-PHE-383
     RDKit          3D

 22 21  0  0  0  0  0  0  0  0999 V2000
    0.2998    0.5010   -3.6689 C   0  0  0  0  0  0  0  0  0  0  0  0
    0.0502    0.3370   -4.6337 H   0  0  0  0  0  0  0  0  0  0  0  0
   -0.1783   -0.1859   -3.1042 H   0  0  0  0  0  0  0  0  0  0  0  0
    1.3694    0.3146   -3.5727 H   0  0  0  0  0  0  0  0  0  0  0  0
   -0.1707    1.8686   -3.2725 C   0  0  0  0  0  0  0  0  0  0  0  0
    0.6569    2.7672   -2.9087 O   0  0  0  0  0  1  0  0  0  0  0  0
   -1.3735    2.1928   -3.4344 O   0  0  0  0  0  0  0  0  0  0  0  0
    0.0364    2.9114    0.1210 C   0  0  0  0  0  0  0  0  0  0  0  0
   -0.7427    3.2615   -0.3616 H   0  0  0  0  0  0  0  0  0  0  0  0
    0.8855    3.2419   -0.2425 H   0  0  0  0  0  0  0  0  0  0  0  0
   -0.0348    3.2609    1.1510 H   0  0  0  0  0  0  0  0  0  0  0  0
    0.0270    1.4030    0.0099 C   0  0  0  0  0  0  0  0  0  0  0  0
   -1.1821    0.7085    0.0546 C   0  0  0  0  0  0  0  0  0  0  0  0
   -2.0350    1.2158    0.1250 H   0  0  0  0  0  0  0  0  0  0  0  0
   -1.1935   -0.6582    0.0000 C   0  0  0  0  0  0  0  0  0  0  0  0
   -2.1007   -1.1450   -0.0006 H   0  0  0  0  0  0  0  0  0  0  0  0
   -0.0356   -1.4134   -0.0525 C   0  0  0  0  0  0  0  0  0  0  0  0
   -0.0519   -2.3856   -0.1226 H   0  0  0  0  0  0  0  0  0  0  0  0
    1.1935   -0.7106   -0.0000 C   0  0  0  0  0  0  0  0  0  0  0  0
    2.0580   -1.2245    0.0474 H   0  0  0  0  0  0  0  0  0  0  0  0
    1.1907    0.6706   -0.0120 C   0  0  0  0  0  0  0  0  0  0  0  0
    2.0798    1.1592   -0.0392 H   0  0  0  0  0  0  0  0  0  0  0  0
  1  5  1  0
  5  6  1  0
  5  7  2  0
  1  2  1  0
  1  3  1  0
  1  4  1  0
  8 12  1  0
 12 13  2  0
 13 15  1  0
 15 17  2  0
 17 19  1  0
 19 21  2  0
 21 12  1  0
  8  9  1  0
  8 10  1  0
  8 11  1  0
 13 14  1  0
 15 16  1  0
 17 18  1  0
 19 20  1  0
 21 22  1  0
M  CHG  1   6  -1
M  END
>  <PDB_ID>  (177) 
pdb1cf9

>  <RESIDUE_NAME>  (177) 
ASP   PHE

>  <FRAG_NAME>  (177) 
ACET   MBZ

>  <FRAG_ATOM_NUM>  (177) 
fragi: 7  fragj: 15

>  <atom.prop.CHAIN_ID>  (177) 
A A A A A A A Z Z Z Z Z Z Z Z Z Z Z Z Z Z Z

>  <atom.prop.IS_HEAVY_ATOM>  (177) 
1 0 0 0 1 1 1 1 0 0 0 1 1 0 1 0 1 0 1 0 1 0

>  <DIFUSE_FUNC_ATOM>  (177) 
atom 6   atom 7   

>  <FINAL_SINGLE_POINT_ENERGY>  (177) 
0

>  <NONCOV_INTER_ENERGY_QM>  (177) 
0

>  <FF_Energy>  (177) 
1.11

>  <QM_Energy>  (177) 
-6.0

>  <source>  (177) 
ACET_MBZ_00

>  <Index>  (177) 
6544

$$$$
ACET-pdb1cxv-B-ASP-481:MBZ-pdb1cxv-B-PHE-457
     RDKit          3D

 22 21  0  0  0  0  0  0  0  0999 V2000
   -0.6446    0.8068    3.6323 C   0  0  0  0  0  0  0  0  0  0  0  0
   -1.1897    0.5174    2.8545 H   0  0  0  0  0  0  0  0  0  0  0  0
   -1.1354    0.6479    4.4807 H   0  0  0  0  0  0  0  0  0  0  0  0
    0.2626    0.2029    3.6501 H   0  0  0  0  0  0  0  0  0  0  0  0
   -0.3524    2.2828    3.5039 C   0  0  0  0  0  0  0  0  0  0  0  0
    0.7837    2.6938    3.8148 O   0  0  0  0  0  1  0  0  0  0  0  0
   -1.2599    3.0360    3.0960 O   0  0  0  0  0  0  0  0  0  0  0  0
   -0.0104    2.9172   -0.0073 C   0  0  0  0  0  0  0  0  0  0  0  0
    0.9231    3.2265   -0.0782 H   0  0  0  0  0  0  0  0  0  0  0  0
   -0.4355    3.2212    0.8293 H   0  0  0  0  0  0  0  0  0  0  0  0
   -0.5691    3.3415   -0.8414 H   0  0  0  0  0  0  0  0  0  0  0  0
   -0.0005    1.4073   -0.0002 C   0  0  0  0  0  0  0  0  0  0  0  0
   -1.1955    0.6942   -0.0009 C   0  0  0  0  0  0  0  0  0  0  0  0
   -2.0646    1.1795   -0.0036 H   0  0  0  0  0  0  0  0  0  0  0  0
   -1.1998   -0.7050    0.0000 C   0  0  0  0  0  0  0  0  0  0  0  0
   -2.0771   -1.1947    0.0014 H   0  0  0  0  0  0  0  0  0  0  0  0
    0.0022   -1.3999    0.0008 C   0  0  0  0  0  0  0  0  0  0  0  0
    0.0013   -2.3969    0.0018 H   0  0  0  0  0  0  0  0  0  0  0  0
    1.1998   -0.6980    0.0000 C   0  0  0  0  0  0  0  0  0  0  0  0
    2.0847   -1.1895    0.0001 H   0  0  0  0  0  0  0  0  0  0  0  0
    1.1939    0.7014    0.0003 C   0  0  0  0  0  0  0  0  0  0  0  0
    2.0634    1.1933    0.0006 H   0  0  0  0  0  0  0  0  0  0  0  0
  1  5  1  0
  5  6  1  0
  5  7  2  0
  1  2  1  0
  1  3  1  0
  1  4  1  0
  8 12  1  0
 12 13  2  0
 13 15  1  0
 15 17  2  0
 17 19  1  0
 19 21  2  0
 21 12  1  0
  8  9  1  0
  8 10  1  0
  8 11  1  0
 13 14  1  0
 15 16  1  0
 17 18  1  0
 19 20  1  0
 21 22  1  0
M  CHG  1   6  -1
M  END
>  <PDB_ID>  (178) 
pdb1cxv

>  <RESIDUE_NAME>  (178) 
ASP   PHE

>  <FRAG_NAME>  (178) 
ACET   MBZ

>  <FRAG_ATOM_NUM>  (178) 
fragi: 7  fragj: 15

>  <atom.prop.CHAIN_ID>  (178) 
A A A A A A A Z Z Z Z Z Z Z Z Z Z Z Z Z Z Z

>  <atom.prop.IS_HEAVY_ATOM>  (178) 
1 0 0 0 1 1 1 1 0 0 0 1 1 0 1 0 1 0 1 0 1 0

>  <DIFUSE_FUNC_ATOM>  (178) 
atom 6   atom 7   

>  <FINAL_SINGLE_POINT_ENERGY>  (178) 
0

>  <NONCOV_INTER_ENERGY_QM>  (178) 
0

>  <FF_Energy>  (178) 
-0.2

>  <QM_Energy>  (178) 
-6.16

>  <source>  (178) 
ACET_MBZ_00

>  <Index>  (178) 
6691

$$$$
ACET-pdb1cyg-A-GLU-183:MBZ-pdb1cyg-A-PHE-619
     RDKit          3D

 22 21  0  0  0  0  0  0  0  0999 V2000
   -1.5445    1.7030    3.2237 C   0  0  0  0  0  0  0  0  0  0  0  0
   -1.3164    1.8372    4.1829 H   0  0  0  0  0  0  0  0  0  0  0  0
   -0.7318    1.4475    2.7093 H   0  0  0  0  0  0  0  0  0  0  0  0
   -2.2460    0.8707    3.1673 H   0  0  0  0  0  0  0  0  0  0  0  0
   -2.0513    2.9922    2.6808 C   0  0  0  0  0  0  0  0  0  0  0  0
   -3.0126    2.8373    1.8680 O   0  0  0  0  0  1  0  0  0  0  0  0
   -1.6098    4.0983    2.9617 O   0  0  0  0  0  0  0  0  0  0  0  0
   -0.0087    2.9134    0.0308 C   0  0  0  0  0  0  0  0  0  0  0  0
    0.9018    3.2287   -0.1259 H   0  0  0  0  0  0  0  0  0  0  0  0
   -0.3820    3.2085    0.8836 H   0  0  0  0  0  0  0  0  0  0  0  0
   -0.6390    3.3135   -0.7633 H   0  0  0  0  0  0  0  0  0  0  0  0
    0.0050    1.4003    0.0176 C   0  0  0  0  0  0  0  0  0  0  0  0
   -1.2004    0.6985   -0.0314 C   0  0  0  0  0  0  0  0  0  0  0  0
   -2.0609    1.1972   -0.0906 H   0  0  0  0  0  0  0  0  0  0  0  0
   -1.2247   -0.6976    0.0000 C   0  0  0  0  0  0  0  0  0  0  0  0
   -2.0956   -1.1829    0.0292 H   0  0  0  0  0  0  0  0  0  0  0  0
   -0.0118   -1.4032   -0.0082 C   0  0  0  0  0  0  0  0  0  0  0  0
   -0.0105   -2.3959   -0.0199 H   0  0  0  0  0  0  0  0  0  0  0  0
    1.2247   -0.6981   -0.0000 C   0  0  0  0  0  0  0  0  0  0  0  0
    2.0876   -1.1992   -0.0086 H   0  0  0  0  0  0  0  0  0  0  0  0
    1.2073    0.6999    0.0220 C   0  0  0  0  0  0  0  0  0  0  0  0
    2.0720    1.2001    0.0405 H   0  0  0  0  0  0  0  0  0  0  0  0
  1  5  1  0
  5  6  1  0
  5  7  2  0
  1  2  1  0
  1  3  1  0
  1  4  1  0
  8 12  1  0
 12 13  2  0
 13 15  1  0
 15 17  2  0
 17 19  1  0
 19 21  2  0
 21 12  1  0
  8  9  1  0
  8 10  1  0
  8 11  1  0
 13 14  1  0
 15 16  1  0
 17 18  1  0
 19 20  1  0
 21 22  1  0
M  CHG  1   6  -1
M  END
>  <PDB_ID>  (179) 
pdb1cyg

>  <RESIDUE_NAME>  (179) 
GLU   PHE

>  <FRAG_NAME>  (179) 
ACET   MBZ

>  <FRAG_ATOM_NUM>  (179) 
fragi: 7  fragj: 15

>  <atom.prop.CHAIN_ID>  (179) 
A A A A A A A Z Z Z Z Z Z Z Z Z Z Z Z Z Z Z

>  <atom.prop.IS_HEAVY_ATOM>  (179) 
1 0 0 0 1 1 1 1 0 0 0 1 1 0 1 0 1 0 1 0 1 0

>  <DIFUSE_FUNC_ATOM>  (179) 
atom 6   atom 7   

>  <FINAL_SINGLE_POINT_ENERGY>  (179) 
0

>  <NONCOV_INTER_ENERGY_QM>  (179) 
0

>  <FF_Energy>  (179) 
-0.63

>  <QM_Energy>  (179) 
-7.42

>  <source>  (179) 
ACET_MBZ_00

>  <Index>  (179) 
6733

$$$$
ACET-pdb2dkk-A-ASP-69:MBZ-pdb2dkk-A-PHE-72
     RDKit          3D

 22 21  0  0  0  0  0  0  0  0999 V2000
   -4.4969    1.1340   -0.7150 C   0  0  0  0  0  0  0  0  0  0  0  0
   -4.6691    0.5663   -1.5102 H   0  0  0  0  0  0  0  0  0  0  0  0
   -3.5404    1.3917   -0.6692 H   0  0  0  0  0  0  0  0  0  0  0  0
   -5.0894    2.0436   -0.8133 H   0  0  0  0  0  0  0  0  0  0  0  0
   -4.8444    0.3304    0.5387 C   0  0  0  0  0  0  0  0  0  0  0  0
   -5.1942    0.9414    1.5723 O   0  0  0  0  0  1  0  0  0  0  0  0
   -4.7476   -0.9163    0.4878 O   0  0  0  0  0  0  0  0  0  0  0  0
    0.0036    2.9073    0.0313 C   0  0  0  0  0  0  0  0  0  0  0  0
   -0.7544    3.2262   -0.5172 H   0  0  0  0  0  0  0  0  0  0  0  0
    0.8680    3.2202   -0.3322 H   0  0  0  0  0  0  0  0  0  0  0  0
   -0.1084    3.3262    1.0314 H   0  0  0  0  0  0  0  0  0  0  0  0
    0.0009    1.4049   -0.0006 C   0  0  0  0  0  0  0  0  0  0  0  0
   -1.1983    0.6942   -0.0006 C   0  0  0  0  0  0  0  0  0  0  0  0
   -2.0643    1.1837   -0.0023 H   0  0  0  0  0  0  0  0  0  0  0  0
   -1.2038   -0.7001    0.0000 C   0  0  0  0  0  0  0  0  0  0  0  0
   -2.0794   -1.1921    0.0009 H   0  0  0  0  0  0  0  0  0  0  0  0
    0.0002   -1.3980    0.0014 C   0  0  0  0  0  0  0  0  0  0  0  0
   -0.0027   -2.3948    0.0027 H   0  0  0  0  0  0  0  0  0  0  0  0
    1.2038   -0.6986    0.0000 C   0  0  0  0  0  0  0  0  0  0  0  0
    2.0844   -1.1934    0.0008 H   0  0  0  0  0  0  0  0  0  0  0  0
    1.1971    0.6976   -0.0003 C   0  0  0  0  0  0  0  0  0  0  0  0
    2.0660    1.1923   -0.0012 H   0  0  0  0  0  0  0  0  0  0  0  0
  1  5  1  0
  5  6  1  0
  5  7  2  0
  1  2  1  0
  1  3  1  0
  1  4  1  0
  8 12  1  0
 12 13  2  0
 13 15  1  0
 15 17  2  0
 17 19  1  0
 19 21  2  0
 21 12  1  0
  8  9  1  0
  8 10  1  0
  8 11  1  0
 13 14  1  0
 15 16  1  0
 17 18  1  0
 19 20  1  0
 21 22  1  0
M  CHG  1   6  -1
M  END
>  <PDB_ID>  (180) 
pdb2dkk

>  <RESIDUE_NAME>  (180) 
ASP   PHE

>  <FRAG_NAME>  (180) 
ACET   MBZ

>  <FRAG_ATOM_NUM>  (180) 
fragi: 7  fragj: 15

>  <atom.prop.CHAIN_ID>  (180) 
A A A A A A A Z Z Z Z Z Z Z Z Z Z Z Z Z Z Z

>  <atom.prop.IS_HEAVY_ATOM>  (180) 
1 0 0 0 1 1 1 1 0 0 0 1 1 0 1 0 1 0 1 0 1 0

>  <DIFUSE_FUNC_ATOM>  (180) 
atom 6   atom 7   

>  <FINAL_SINGLE_POINT_ENERGY>  (180) 
0

>  <NONCOV_INTER_ENERGY_QM>  (180) 
0

>  <FF_Energy>  (180) 
9.14

>  <QM_Energy>  (180) 
-2.58

>  <source>  (180) 
ACET_MBZ_00

>  <Index>  (180) 
6788

$$$$
ACET-pdb2dg0-A-GLU-119:MBZ-pdb2dg0-A-PHE-59
     RDKit          3D

 22 21  0  0  0  0  0  0  0  0999 V2000
   -0.9273   -4.4235    1.0634 C   0  0  0  0  0  0  0  0  0  0  0  0
   -1.8261   -4.4250    0.6682 H   0  0  0  0  0  0  0  0  0  0  0  0
   -0.5074   -3.5353    1.0335 H   0  0  0  0  0  0  0  0  0  0  0  0
   -0.9958   -4.7501    2.1011 H   0  0  0  0  0  0  0  0  0  0  0  0
   -0.0705   -5.3549    0.2401 C   0  0  0  0  0  0  0  0  0  0  0  0
    1.0126   -5.7521    0.7266 O   0  0  0  0  0  1  0  0  0  0  0  0
   -0.4797   -5.6832   -0.8940 O   0  0  0  0  0  0  0  0  0  0  0  0
   -0.0048    2.9028   -0.0026 C   0  0  0  0  0  0  0  0  0  0  0  0
    0.8553    3.2137    0.3772 H   0  0  0  0  0  0  0  0  0  0  0  0
   -0.7682    3.2098    0.5479 H   0  0  0  0  0  0  0  0  0  0  0  0
   -0.1106    3.3449   -0.9933 H   0  0  0  0  0  0  0  0  0  0  0  0
   -0.0010    1.4057    0.0002 C   0  0  0  0  0  0  0  0  0  0  0  0
   -1.1979    0.6980   -0.0003 C   0  0  0  0  0  0  0  0  0  0  0  0
   -2.0648    1.1883   -0.0026 H   0  0  0  0  0  0  0  0  0  0  0  0
   -1.2053   -0.6956    0.0000 C   0  0  0  0  0  0  0  0  0  0  0  0
   -2.0816   -1.1888    0.0013 H   0  0  0  0  0  0  0  0  0  0  0  0
   -0.0002   -1.4007    0.0001 C   0  0  0  0  0  0  0  0  0  0  0  0
   -0.0081   -2.3960   -0.0007 H   0  0  0  0  0  0  0  0  0  0  0  0
    1.2053   -0.7029    0.0000 C   0  0  0  0  0  0  0  0  0  0  0  0
    2.0846   -1.1978    0.0019 H   0  0  0  0  0  0  0  0  0  0  0  0
    1.1990    0.6954   -0.0001 C   0  0  0  0  0  0  0  0  0  0  0  0
    2.0665    1.1904   -0.0007 H   0  0  0  0  0  0  0  0  0  0  0  0
  1  5  1  0
  5  6  1  0
  5  7  2  0
  1  2  1  0
  1  3  1  0
  1  4  1  0
  8 12  1  0
 12 13  2  0
 13 15  1  0
 15 17  2  0
 17 19  1  0
 19 21  2  0
 21 12  1  0
  8  9  1  0
  8 10  1  0
  8 11  1  0
 13 14  1  0
 15 16  1  0
 17 18  1  0
 19 20  1  0
 21 22  1  0
M  CHG  1   6  -1
M  END
>  <PDB_ID>  (181) 
pdb2dg0

>  <RESIDUE_NAME>  (181) 
GLU   PHE

>  <FRAG_NAME>  (181) 
ACET   MBZ

>  <FRAG_ATOM_NUM>  (181) 
fragi: 7  fragj: 15

>  <atom.prop.CHAIN_ID>  (181) 
A A A A A A A Z Z Z Z Z Z Z Z Z Z Z Z Z Z Z

>  <atom.prop.IS_HEAVY_ATOM>  (181) 
1 0 0 0 1 1 1 1 0 0 0 1 1 0 1 0 1 0 1 0 1 0

>  <DIFUSE_FUNC_ATOM>  (181) 
atom 6   atom 7   

>  <FINAL_SINGLE_POINT_ENERGY>  (181) 
0

>  <NONCOV_INTER_ENERGY_QM>  (181) 
0

>  <FF_Energy>  (181) 
12.29

>  <QM_Energy>  (181) 
0.57

>  <source>  (181) 
ACET_MBZ_00

>  <Index>  (181) 
6800

$$$$
ACET-pdb1d0j-A-ASP-488:MBZ-pdb1d0j-A-PHE-361
     RDKit          3D

 22 21  0  0  0  0  0  0  0  0999 V2000
    2.8476    6.4678   -1.3017 C   0  0  0  0  0  0  0  0  0  0  0  0
    3.8236    6.4549   -1.1349 H   0  0  0  0  0  0  0  0  0  0  0  0
    2.5479    7.3646   -1.5929 H   0  0  0  0  0  0  0  0  0  0  0  0
    2.6323    5.7621   -2.1039 H   0  0  0  0  0  0  0  0  0  0  0  0
    2.1269    6.1111    0.0004 C   0  0  0  0  0  0  0  0  0  0  0  0
    2.2745    4.9572    0.4660 O   0  0  0  0  0  1  0  0  0  0  0  0
    1.4195    6.9740    0.5666 O   0  0  0  0  0  0  0  0  0  0  0  0
   -0.0020    2.9082    0.0212 C   0  0  0  0  0  0  0  0  0  0  0  0
   -0.4822    3.2260   -0.7811 H   0  0  0  0  0  0  0  0  0  0  0  0
    0.9363    3.2180    0.0281 H   0  0  0  0  0  0  0  0  0  0  0  0
   -0.4980    3.3304    0.8952 H   0  0  0  0  0  0  0  0  0  0  0  0
    0.0022    1.4073   -0.0006 C   0  0  0  0  0  0  0  0  0  0  0  0
   -1.2023    0.6941   -0.0004 C   0  0  0  0  0  0  0  0  0  0  0  0
   -2.0669    1.1854   -0.0020 H   0  0  0  0  0  0  0  0  0  0  0  0
   -1.2100   -0.7032   -0.0000 C   0  0  0  0  0  0  0  0  0  0  0  0
   -2.0845   -1.1939    0.0011 H   0  0  0  0  0  0  0  0  0  0  0  0
   -0.0036   -1.3997    0.0012 C   0  0  0  0  0  0  0  0  0  0  0  0
   -0.0025   -2.3967    0.0022 H   0  0  0  0  0  0  0  0  0  0  0  0
    1.2100   -0.6969    0.0000 C   0  0  0  0  0  0  0  0  0  0  0  0
    2.0861   -1.1961    0.0007 H   0  0  0  0  0  0  0  0  0  0  0  0
    1.2037    0.6984   -0.0003 C   0  0  0  0  0  0  0  0  0  0  0  0
    2.0694    1.1953   -0.0013 H   0  0  0  0  0  0  0  0  0  0  0  0
  1  5  1  0
  5  6  1  0
  5  7  2  0
  1  2  1  0
  1  3  1  0
  1  4  1  0
  8 12  1  0
 12 13  2  0
 13 15  1  0
 15 17  2  0
 17 19  1  0
 19 21  2  0
 21 12  1  0
  8  9  1  0
  8 10  1  0
  8 11  1  0
 13 14  1  0
 15 16  1  0
 17 18  1  0
 19 20  1  0
 21 22  1  0
M  CHG  1   6  -1
M  END
>  <PDB_ID>  (182) 
pdb1d0j

>  <RESIDUE_NAME>  (182) 
ASP   PHE

>  <FRAG_NAME>  (182) 
ACET   MBZ

>  <FRAG_ATOM_NUM>  (182) 
fragi: 7  fragj: 15

>  <atom.prop.CHAIN_ID>  (182) 
A A A A A A A Z Z Z Z Z Z Z Z Z Z Z Z Z Z Z

>  <atom.prop.IS_HEAVY_ATOM>  (182) 
1 0 0 0 1 1 1 1 0 0 0 1 1 0 1 0 1 0 1 0 1 0

>  <DIFUSE_FUNC_ATOM>  (182) 
atom 6   atom 7   

>  <FINAL_SINGLE_POINT_ENERGY>  (182) 
0

>  <NONCOV_INTER_ENERGY_QM>  (182) 
0

>  <FF_Energy>  (182) 
-0.2

>  <QM_Energy>  (182) 
-5.61

>  <source>  (182) 
ACET_MBZ_00

>  <Index>  (182) 
6948

$$$$
ACET-pdb1d1j-B-GLU-18:MBZ-pdb1d1j-B-PHE-39
     RDKit          3D

 22 21  0  0  0  0  0  0  0  0999 V2000
    1.3645    1.0366   -4.7226 C   0  0  0  0  0  0  0  0  0  0  0  0
    1.7932    1.8990   -4.8943 H   0  0  0  0  0  0  0  0  0  0  0  0
    1.3022    0.4728   -5.5196 H   0  0  0  0  0  0  0  0  0  0  0  0
    1.9370    0.5069   -3.9612 H   0  0  0  0  0  0  0  0  0  0  0  0
   -0.0498    1.3164   -4.2515 C   0  0  0  0  0  0  0  0  0  0  0  0
   -0.1835    1.9042   -3.1601 O   0  0  0  0  0  1  0  0  0  0  0  0
   -1.0237    0.9579   -4.9548 O   0  0  0  0  0  0  0  0  0  0  0  0
    0.0157    2.9102   -0.0062 C   0  0  0  0  0  0  0  0  0  0  0  0
    0.4997    3.2079   -0.8168 H   0  0  0  0  0  0  0  0  0  0  0  0
    0.4771    3.2131    0.8157 H   0  0  0  0  0  0  0  0  0  0  0  0
   -0.9718    3.3714   -0.0212 H   0  0  0  0  0  0  0  0  0  0  0  0
   -0.0003    1.4029   -0.0014 C   0  0  0  0  0  0  0  0  0  0  0  0
   -1.2007    0.6962   -0.0002 C   0  0  0  0  0  0  0  0  0  0  0  0
   -2.0649    1.1885   -0.0005 H   0  0  0  0  0  0  0  0  0  0  0  0
   -1.2037   -0.6913    0.0000 C   0  0  0  0  0  0  0  0  0  0  0  0
   -2.0789   -1.1889    0.0005 H   0  0  0  0  0  0  0  0  0  0  0  0
    0.0027   -1.3939    0.0010 C   0  0  0  0  0  0  0  0  0  0  0  0
   -0.0084   -2.3921    0.0022 H   0  0  0  0  0  0  0  0  0  0  0  0
    1.2037   -0.7028   -0.0000 C   0  0  0  0  0  0  0  0  0  0  0  0
    2.0843   -1.1989    0.0007 H   0  0  0  0  0  0  0  0  0  0  0  0
    1.1983    0.6890    0.0006 C   0  0  0  0  0  0  0  0  0  0  0  0
    2.0660    1.1858    0.0019 H   0  0  0  0  0  0  0  0  0  0  0  0
  1  5  1  0
  5  6  1  0
  5  7  2  0
  1  2  1  0
  1  3  1  0
  1  4  1  0
  8 12  1  0
 12 13  2  0
 13 15  1  0
 15 17  2  0
 17 19  1  0
 19 21  2  0
 21 12  1  0
  8  9  1  0
  8 10  1  0
  8 11  1  0
 13 14  1  0
 15 16  1  0
 17 18  1  0
 19 20  1  0
 21 22  1  0
M  CHG  1   6  -1
M  END
>  <PDB_ID>  (183) 
pdb1d1j

>  <RESIDUE_NAME>  (183) 
GLU   PHE

>  <FRAG_NAME>  (183) 
ACET   MBZ

>  <FRAG_ATOM_NUM>  (183) 
fragi: 7  fragj: 15

>  <atom.prop.CHAIN_ID>  (183) 
A A A A A A A Z Z Z Z Z Z Z Z Z Z Z Z Z Z Z

>  <atom.prop.IS_HEAVY_ATOM>  (183) 
1 0 0 0 1 1 1 1 0 0 0 1 1 0 1 0 1 0 1 0 1 0

>  <DIFUSE_FUNC_ATOM>  (183) 
atom 6   atom 7   

>  <FINAL_SINGLE_POINT_ENERGY>  (183) 
0

>  <NONCOV_INTER_ENERGY_QM>  (183) 
0

>  <FF_Energy>  (183) 
2.85

>  <QM_Energy>  (183) 
-2.33

>  <source>  (183) 
ACET_MBZ_00

>  <Index>  (183) 
7012

$$$$
ACET-pdb1d1j-C-GLU-18:MBZ-pdb1d1j-C-PHE-39
     RDKit          3D

 22 21  0  0  0  0  0  0  0  0999 V2000
    1.9841    1.5732   -4.6461 C   0  0  0  0  0  0  0  0  0  0  0  0
    2.4796    2.3913   -4.4355 H   0  0  0  0  0  0  0  0  0  0  0  0
    1.9665    1.3751   -5.6055 H   0  0  0  0  0  0  0  0  0  0  0  0
    2.4266    0.7337   -4.1097 H   0  0  0  0  0  0  0  0  0  0  0  0
    0.5634    1.7831   -4.2056 C   0  0  0  0  0  0  0  0  0  0  0  0
    0.3873    2.3560   -3.1120 O   0  0  0  0  0  1  0  0  0  0  0  0
   -0.3634    1.3621   -4.9346 O   0  0  0  0  0  0  0  0  0  0  0  0
    0.0055    2.9205   -0.0043 C   0  0  0  0  0  0  0  0  0  0  0  0
    0.5958    3.2218   -0.7359 H   0  0  0  0  0  0  0  0  0  0  0  0
    0.3354    3.2243    0.8760 H   0  0  0  0  0  0  0  0  0  0  0  0
   -0.9761    3.3667   -0.1635 H   0  0  0  0  0  0  0  0  0  0  0  0
   -0.0006    1.4100   -0.0030 C   0  0  0  0  0  0  0  0  0  0  0  0
   -1.2022    0.6956   -0.0010 C   0  0  0  0  0  0  0  0  0  0  0  0
   -2.0672    1.1847   -0.0019 H   0  0  0  0  0  0  0  0  0  0  0  0
   -1.2050   -0.6998   -0.0000 C   0  0  0  0  0  0  0  0  0  0  0  0
   -2.0787   -1.1950   -0.0015 H   0  0  0  0  0  0  0  0  0  0  0  0
    0.0048   -1.4024    0.0054 C   0  0  0  0  0  0  0  0  0  0  0  0
   -0.0032   -2.3983    0.0128 H   0  0  0  0  0  0  0  0  0  0  0  0
    1.2050   -0.7027    0.0000 C   0  0  0  0  0  0  0  0  0  0  0  0
    2.0877   -1.1938   -0.0015 H   0  0  0  0  0  0  0  0  0  0  0  0
    1.1980    0.6992   -0.0014 C   0  0  0  0  0  0  0  0  0  0  0  0
    2.0664    1.1922   -0.0018 H   0  0  0  0  0  0  0  0  0  0  0  0
  1  5  1  0
  5  6  1  0
  5  7  2  0
  1  2  1  0
  1  3  1  0
  1  4  1  0
  8 12  1  0
 12 13  2  0
 13 15  1  0
 15 17  2  0
 17 19  1  0
 19 21  2  0
 21 12  1  0
  8  9  1  0
  8 10  1  0
  8 11  1  0
 13 14  1  0
 15 16  1  0
 17 18  1  0
 19 20  1  0
 21 22  1  0
M  CHG  1   6  -1
M  END
>  <PDB_ID>  (184) 
pdb1d1j

>  <RESIDUE_NAME>  (184) 
GLU   PHE

>  <FRAG_NAME>  (184) 
ACET   MBZ

>  <FRAG_ATOM_NUM>  (184) 
fragi: 7  fragj: 15

>  <atom.prop.CHAIN_ID>  (184) 
A A A A A A A Z Z Z Z Z Z Z Z Z Z Z Z Z Z Z

>  <atom.prop.IS_HEAVY_ATOM>  (184) 
1 0 0 0 1 1 1 1 0 0 0 1 1 0 1 0 1 0 1 0 1 0

>  <DIFUSE_FUNC_ATOM>  (184) 
atom 6   atom 7   

>  <FINAL_SINGLE_POINT_ENERGY>  (184) 
0

>  <NONCOV_INTER_ENERGY_QM>  (184) 
0

>  <FF_Energy>  (184) 
2.55

>  <QM_Energy>  (184) 
-3.07

>  <source>  (184) 
ACET_MBZ_00

>  <Index>  (184) 
7015

$$$$
ACET-pdb1d2e-C-ASP-426:MBZ-pdb1d2e-C-PHE-374
     RDKit          3D

 22 21  0  0  0  0  0  0  0  0999 V2000
    0.9726   -5.0053   -0.1482 C   0  0  0  0  0  0  0  0  0  0  0  0
    1.4871   -4.1562   -0.1099 H   0  0  0  0  0  0  0  0  0  0  0  0
    1.3444   -5.6049   -0.8475 H   0  0  0  0  0  0  0  0  0  0  0  0
    1.0804   -5.5056    0.8142 H   0  0  0  0  0  0  0  0  0  0  0  0
   -0.4645   -4.6936   -0.4801 C   0  0  0  0  0  0  0  0  0  0  0  0
   -1.1857   -4.2003    0.4157 O   0  0  0  0  0  1  0  0  0  0  0  0
   -0.8623   -4.9263   -1.6401 O   0  0  0  0  0  0  0  0  0  0  0  0
    0.0008    2.9059    0.0168 C   0  0  0  0  0  0  0  0  0  0  0  0
   -0.3553    3.2219   -0.8493 H   0  0  0  0  0  0  0  0  0  0  0  0
    0.9308    3.2090    0.1560 H   0  0  0  0  0  0  0  0  0  0  0  0
   -0.6124    3.3383    0.8073 H   0  0  0  0  0  0  0  0  0  0  0  0
   -0.0015    1.4031    0.0005 C   0  0  0  0  0  0  0  0  0  0  0  0
   -1.1978    0.6922   -0.0007 C   0  0  0  0  0  0  0  0  0  0  0  0
   -2.0656    1.1810   -0.0035 H   0  0  0  0  0  0  0  0  0  0  0  0
   -1.2009   -0.7004    0.0000 C   0  0  0  0  0  0  0  0  0  0  0  0
   -2.0761   -1.1944    0.0010 H   0  0  0  0  0  0  0  0  0  0  0  0
    0.0021   -1.3946    0.0007 C   0  0  0  0  0  0  0  0  0  0  0  0
   -0.0005   -2.3934    0.0016 H   0  0  0  0  0  0  0  0  0  0  0  0
    1.2009   -0.6963    0.0000 C   0  0  0  0  0  0  0  0  0  0  0  0
    2.0835   -1.1931    0.0010 H   0  0  0  0  0  0  0  0  0  0  0  0
    1.1972    0.6961   -0.0005 C   0  0  0  0  0  0  0  0  0  0  0  0
    2.0641    1.1919   -0.0029 H   0  0  0  0  0  0  0  0  0  0  0  0
  1  5  1  0
  5  6  1  0
  5  7  2  0
  1  2  1  0
  1  3  1  0
  1  4  1  0
  8 12  1  0
 12 13  2  0
 13 15  1  0
 15 17  2  0
 17 19  1  0
 19 21  2  0
 21 12  1  0
  8  9  1  0
  8 10  1  0
  8 11  1  0
 13 14  1  0
 15 16  1  0
 17 18  1  0
 19 20  1  0
 21 22  1  0
M  CHG  1   6  -1
M  END
>  <PDB_ID>  (185) 
pdb1d2e

>  <RESIDUE_NAME>  (185) 
ASP   PHE

>  <FRAG_NAME>  (185) 
ACET   MBZ

>  <FRAG_ATOM_NUM>  (185) 
fragi: 7  fragj: 15

>  <atom.prop.CHAIN_ID>  (185) 
A A A A A A A Z Z Z Z Z Z Z Z Z Z Z Z Z Z Z

>  <atom.prop.IS_HEAVY_ATOM>  (185) 
1 0 0 0 1 1 1 1 0 0 0 1 1 0 1 0 1 0 1 0 1 0

>  <DIFUSE_FUNC_ATOM>  (185) 
atom 6   atom 7   

>  <FINAL_SINGLE_POINT_ENERGY>  (185) 
0

>  <NONCOV_INTER_ENERGY_QM>  (185) 
0

>  <FF_Energy>  (185) 
1.58

>  <QM_Energy>  (185) 
-4.74

>  <source>  (185) 
ACET_MBZ_00

>  <Index>  (185) 
7062

$$$$
ACET-pdb1d3b-F-GLU-62:MBZ-pdb1d3b-F-PHE-48
     RDKit          3D

 22 21  0  0  0  0  0  0  0  0999 V2000
    4.9648    3.3767   -0.1959 C   0  0  0  0  0  0  0  0  0  0  0  0
    4.8172    3.0367    0.7069 H   0  0  0  0  0  0  0  0  0  0  0  0
    4.3168    4.0547   -0.4660 H   0  0  0  0  0  0  0  0  0  0  0  0
    5.9613    3.8166   -0.2373 H   0  0  0  0  0  0  0  0  0  0  0  0
    4.8357    2.2062   -1.1582 C   0  0  0  0  0  0  0  0  0  0  0  0
    5.6005    2.1578   -2.1465 O   0  0  0  0  0  1  0  0  0  0  0  0
    3.9958    1.3032   -0.9648 O   0  0  0  0  0  0  0  0  0  0  0  0
   -0.0228    2.9166   -0.0006 C   0  0  0  0  0  0  0  0  0  0  0  0
   -0.8067    3.2131   -0.5063 H   0  0  0  0  0  0  0  0  0  0  0  0
    0.8220    3.2254   -0.3874 H   0  0  0  0  0  0  0  0  0  0  0  0
   -0.0995    3.3251    1.0070 H   0  0  0  0  0  0  0  0  0  0  0  0
   -0.0110    1.3991   -0.0020 C   0  0  0  0  0  0  0  0  0  0  0  0
   -1.1931    0.6814   -0.0002 C   0  0  0  0  0  0  0  0  0  0  0  0
   -2.0693    1.1627   -0.0002 H   0  0  0  0  0  0  0  0  0  0  0  0
   -1.1944   -0.7131   -0.0000 C   0  0  0  0  0  0  0  0  0  0  0  0
   -2.0634   -1.2096    0.0053 H   0  0  0  0  0  0  0  0  0  0  0  0
    0.0157   -1.3913   -0.0045 C   0  0  0  0  0  0  0  0  0  0  0  0
    0.0204   -2.3923   -0.0120 H   0  0  0  0  0  0  0  0  0  0  0  0
    1.1944   -0.6842    0.0000 C   0  0  0  0  0  0  0  0  0  0  0  0
    2.0899   -1.1727   -0.0004 H   0  0  0  0  0  0  0  0  0  0  0  0
    1.1884    0.7080    0.0067 C   0  0  0  0  0  0  0  0  0  0  0  0
    2.0524    1.2046    0.0170 H   0  0  0  0  0  0  0  0  0  0  0  0
  1  5  1  0
  5  6  1  0
  5  7  2  0
  1  2  1  0
  1  3  1  0
  1  4  1  0
  8 12  1  0
 12 13  2  0
 13 15  1  0
 15 17  2  0
 17 19  1  0
 19 21  2  0
 21 12  1  0
  8  9  1  0
  8 10  1  0
  8 11  1  0
 13 14  1  0
 15 16  1  0
 17 18  1  0
 19 20  1  0
 21 22  1  0
M  CHG  1   6  -1
M  END
>  <PDB_ID>  (186) 
pdb1d3b

>  <RESIDUE_NAME>  (186) 
GLU   PHE

>  <FRAG_NAME>  (186) 
ACET   MBZ

>  <FRAG_ATOM_NUM>  (186) 
fragi: 7  fragj: 15

>  <atom.prop.CHAIN_ID>  (186) 
A A A A A A A Z Z Z Z Z Z Z Z Z Z Z Z Z Z Z

>  <atom.prop.IS_HEAVY_ATOM>  (186) 
1 0 0 0 1 1 1 1 0 0 0 1 1 0 1 0 1 0 1 0 1 0

>  <DIFUSE_FUNC_ATOM>  (186) 
atom 6   atom 7   

>  <FINAL_SINGLE_POINT_ENERGY>  (186) 
0

>  <NONCOV_INTER_ENERGY_QM>  (186) 
0

>  <FF_Energy>  (186) 
-2.11

>  <QM_Energy>  (186) 
-6.15

>  <source>  (186) 
ACET_MBZ_00

>  <Index>  (186) 
7131

$$$$
ACET-pdb2dr1-A-GLU-156:MBZ-pdb2dr1-A-PHE-106
     RDKit          3D

 22 21  0  0  0  0  0  0  0  0999 V2000
    5.4004    4.0359   -1.2427 C   0  0  0  0  0  0  0  0  0  0  0  0
    5.5785    4.7100   -1.9356 H   0  0  0  0  0  0  0  0  0  0  0  0
    5.8583    3.1849   -1.4264 H   0  0  0  0  0  0  0  0  0  0  0  0
    5.7673    4.4218   -0.2917 H   0  0  0  0  0  0  0  0  0  0  0  0
    3.9035    3.7615   -1.2424 C   0  0  0  0  0  0  0  0  0  0  0  0
    3.1051    4.7218   -1.2104 O   0  0  0  0  0  1  0  0  0  0  0  0
    3.5218    2.5741   -1.2727 O   0  0  0  0  0  0  0  0  0  0  0  0
   -0.0161    2.9051   -0.1097 C   0  0  0  0  0  0  0  0  0  0  0  0
    0.9007    3.2294    0.0334 H   0  0  0  0  0  0  0  0  0  0  0  0
   -0.6447    3.2513    0.5611 H   0  0  0  0  0  0  0  0  0  0  0  0
   -0.3469    3.2446   -1.0912 H   0  0  0  0  0  0  0  0  0  0  0  0
   -0.0005    1.4043   -0.0016 C   0  0  0  0  0  0  0  0  0  0  0  0
   -1.1962    0.6930    0.0018 C   0  0  0  0  0  0  0  0  0  0  0  0
   -2.0643    1.1818    0.0041 H   0  0  0  0  0  0  0  0  0  0  0  0
   -1.2020   -0.7018   -0.0000 C   0  0  0  0  0  0  0  0  0  0  0  0
   -2.0796   -1.1926    0.0015 H   0  0  0  0  0  0  0  0  0  0  0  0
   -0.0018   -1.3970   -0.0027 C   0  0  0  0  0  0  0  0  0  0  0  0
   -0.0017   -2.3946   -0.0074 H   0  0  0  0  0  0  0  0  0  0  0  0
    1.2020   -0.6967    0.0000 C   0  0  0  0  0  0  0  0  0  0  0  0
    2.0834   -1.1942    0.0014 H   0  0  0  0  0  0  0  0  0  0  0  0
    1.1985    0.6983    0.0025 C   0  0  0  0  0  0  0  0  0  0  0  0
    2.0657    1.1932    0.0065 H   0  0  0  0  0  0  0  0  0  0  0  0
  1  5  1  0
  5  6  1  0
  5  7  2  0
  1  2  1  0
  1  3  1  0
  1  4  1  0
  8 12  1  0
 12 13  2  0
 13 15  1  0
 15 17  2  0
 17 19  1  0
 19 21  2  0
 21 12  1  0
  8  9  1  0
  8 10  1  0
  8 11  1  0
 13 14  1  0
 15 16  1  0
 17 18  1  0
 19 20  1  0
 21 22  1  0
M  CHG  1   6  -1
M  END
>  <PDB_ID>  (187) 
pdb2dr1

>  <RESIDUE_NAME>  (187) 
GLU   PHE

>  <FRAG_NAME>  (187) 
ACET   MBZ

>  <FRAG_ATOM_NUM>  (187) 
fragi: 7  fragj: 15

>  <atom.prop.CHAIN_ID>  (187) 
A A A A A A A Z Z Z Z Z Z Z Z Z Z Z Z Z Z Z

>  <atom.prop.IS_HEAVY_ATOM>  (187) 
1 0 0 0 1 1 1 1 0 0 0 1 1 0 1 0 1 0 1 0 1 0

>  <DIFUSE_FUNC_ATOM>  (187) 
atom 6   atom 7   

>  <FINAL_SINGLE_POINT_ENERGY>  (187) 
0

>  <NONCOV_INTER_ENERGY_QM>  (187) 
0

>  <FF_Energy>  (187) 
-1.92

>  <QM_Energy>  (187) 
-8.15

>  <source>  (187) 
ACET_MBZ_00

>  <Index>  (187) 
7136

$$$$
ACET-pdb2dr3-C-GLU-81:MBZ-pdb2dr3-C-PHE-86
     RDKit          3D

 22 21  0  0  0  0  0  0  0  0999 V2000
    3.9376    2.7230    0.6855 C   0  0  0  0  0  0  0  0  0  0  0  0
    3.7348    3.0882    1.5755 H   0  0  0  0  0  0  0  0  0  0  0  0
    3.1461    2.3273    0.2569 H   0  0  0  0  0  0  0  0  0  0  0  0
    4.2977    3.5372    0.0568 H   0  0  0  0  0  0  0  0  0  0  0  0
    4.9621    1.6179    0.8645 C   0  0  0  0  0  0  0  0  0  0  0  0
    5.4426    1.0881   -0.1598 O   0  0  0  0  0  1  0  0  0  0  0  0
    5.2804    1.2814    2.0283 O   0  0  0  0  0  0  0  0  0  0  0  0
    0.0019    2.9047    0.0323 C   0  0  0  0  0  0  0  0  0  0  0  0
   -0.6927    3.2252   -0.5938 H   0  0  0  0  0  0  0  0  0  0  0  0
    0.9010    3.2165   -0.2381 H   0  0  0  0  0  0  0  0  0  0  0  0
   -0.2151    3.3254    1.0142 H   0  0  0  0  0  0  0  0  0  0  0  0
    0.0003    1.4032    0.0001 C   0  0  0  0  0  0  0  0  0  0  0  0
   -1.1979    0.6945    0.0001 C   0  0  0  0  0  0  0  0  0  0  0  0
   -2.0646    1.1859   -0.0013 H   0  0  0  0  0  0  0  0  0  0  0  0
   -1.2045   -0.6967    0.0000 C   0  0  0  0  0  0  0  0  0  0  0  0
   -2.0806   -1.1902    0.0006 H   0  0  0  0  0  0  0  0  0  0  0  0
   -0.0016   -1.3953    0.0011 C   0  0  0  0  0  0  0  0  0  0  0  0
   -0.0067   -2.3932    0.0025 H   0  0  0  0  0  0  0  0  0  0  0  0
    1.2045   -0.7006    0.0000 C   0  0  0  0  0  0  0  0  0  0  0  0
    2.0827   -1.1977    0.0016 H   0  0  0  0  0  0  0  0  0  0  0  0
    1.1992    0.6950   -0.0012 C   0  0  0  0  0  0  0  0  0  0  0  0
    2.0667    1.1898   -0.0035 H   0  0  0  0  0  0  0  0  0  0  0  0
  1  5  1  0
  5  6  1  0
  5  7  2  0
  1  2  1  0
  1  3  1  0
  1  4  1  0
  8 12  1  0
 12 13  2  0
 13 15  1  0
 15 17  2  0
 17 19  1  0
 19 21  2  0
 21 12  1  0
  8  9  1  0
  8 10  1  0
  8 11  1  0
 13 14  1  0
 15 16  1  0
 17 18  1  0
 19 20  1  0
 21 22  1  0
M  CHG  1   6  -1
M  END
>  <PDB_ID>  (188) 
pdb2dr3

>  <RESIDUE_NAME>  (188) 
GLU   PHE

>  <FRAG_NAME>  (188) 
ACET   MBZ

>  <FRAG_ATOM_NUM>  (188) 
fragi: 7  fragj: 15

>  <atom.prop.CHAIN_ID>  (188) 
A A A A A A A Z Z Z Z Z Z Z Z Z Z Z Z Z Z Z

>  <atom.prop.IS_HEAVY_ATOM>  (188) 
1 0 0 0 1 1 1 1 0 0 0 1 1 0 1 0 1 0 1 0 1 0

>  <DIFUSE_FUNC_ATOM>  (188) 
atom 6   atom 7   

>  <FINAL_SINGLE_POINT_ENERGY>  (188) 
0

>  <NONCOV_INTER_ENERGY_QM>  (188) 
0

>  <FF_Energy>  (188) 
13.95

>  <QM_Energy>  (188) 
-0.61

>  <source>  (188) 
ACET_MBZ_00

>  <Index>  (188) 
7145

$$$$
ACET-pdb2drh-A-GLU-317:MBZ-pdb2drh-A-PHE-13
     RDKit          3D

 22 21  0  0  0  0  0  0  0  0999 V2000
    5.3752    3.0138   -1.6083 C   0  0  0  0  0  0  0  0  0  0  0  0
    5.6468    3.6663   -2.2889 H   0  0  0  0  0  0  0  0  0  0  0  0
    5.8139    2.1438   -1.7260 H   0  0  0  0  0  0  0  0  0  0  0  0
    5.6271    3.4068   -0.6233 H   0  0  0  0  0  0  0  0  0  0  0  0
    3.8802    2.7905   -1.7683 C   0  0  0  0  0  0  0  0  0  0  0  0
    3.0931    3.6934   -1.4135 O   0  0  0  0  0  1  0  0  0  0  0  0
    3.4945    1.7151   -2.2554 O   0  0  0  0  0  0  0  0  0  0  0  0
   -0.0015    2.9057   -0.0001 C   0  0  0  0  0  0  0  0  0  0  0  0
    0.9376    3.2132    0.0295 H   0  0  0  0  0  0  0  0  0  0  0  0
   -0.5052    3.2113    0.7942 H   0  0  0  0  0  0  0  0  0  0  0  0
   -0.4689    3.3455   -0.8811 H   0  0  0  0  0  0  0  0  0  0  0  0
   -0.0001    1.4036    0.0002 C   0  0  0  0  0  0  0  0  0  0  0  0
   -1.1957    0.6965    0.0008 C   0  0  0  0  0  0  0  0  0  0  0  0
   -2.0630    1.1826    0.0005 H   0  0  0  0  0  0  0  0  0  0  0  0
   -1.2005   -0.7016   -0.0000 C   0  0  0  0  0  0  0  0  0  0  0  0
   -2.0768   -1.1920    0.0019 H   0  0  0  0  0  0  0  0  0  0  0  0
    0.0016   -1.3974   -0.0011 C   0  0  0  0  0  0  0  0  0  0  0  0
    0.0005   -2.3950   -0.0030 H   0  0  0  0  0  0  0  0  0  0  0  0
    1.2005   -0.6963   -0.0000 C   0  0  0  0  0  0  0  0  0  0  0  0
    2.0832   -1.1921    0.0018 H   0  0  0  0  0  0  0  0  0  0  0  0
    1.1942    0.6953    0.0000 C   0  0  0  0  0  0  0  0  0  0  0  0
    2.0639    1.1910   -0.0007 H   0  0  0  0  0  0  0  0  0  0  0  0
  1  5  1  0
  5  6  1  0
  5  7  2  0
  1  2  1  0
  1  3  1  0
  1  4  1  0
  8 12  1  0
 12 13  2  0
 13 15  1  0
 15 17  2  0
 17 19  1  0
 19 21  2  0
 21 12  1  0
  8  9  1  0
  8 10  1  0
  8 11  1  0
 13 14  1  0
 15 16  1  0
 17 18  1  0
 19 20  1  0
 21 22  1  0
M  CHG  1   6  -1
M  END
>  <PDB_ID>  (189) 
pdb2drh

>  <RESIDUE_NAME>  (189) 
GLU   PHE

>  <FRAG_NAME>  (189) 
ACET   MBZ

>  <FRAG_ATOM_NUM>  (189) 
fragi: 7  fragj: 15

>  <atom.prop.CHAIN_ID>  (189) 
A A A A A A A Z Z Z Z Z Z Z Z Z Z Z Z Z Z Z

>  <atom.prop.IS_HEAVY_ATOM>  (189) 
1 0 0 0 1 1 1 1 0 0 0 1 1 0 1 0 1 0 1 0 1 0

>  <DIFUSE_FUNC_ATOM>  (189) 
atom 6   atom 7   

>  <FINAL_SINGLE_POINT_ENERGY>  (189) 
0

>  <NONCOV_INTER_ENERGY_QM>  (189) 
0

>  <FF_Energy>  (189) 
-2.81

>  <QM_Energy>  (189) 
-6.86

>  <source>  (189) 
ACET_MBZ_00

>  <Index>  (189) 
7154

$$$$
ACET-pdb2drh-B-GLU-317:MBZ-pdb2drh-B-PHE-13
     RDKit          3D

 22 21  0  0  0  0  0  0  0  0999 V2000
    5.2007    3.0747   -2.0012 C   0  0  0  0  0  0  0  0  0  0  0  0
    5.4108    3.7234   -2.7054 H   0  0  0  0  0  0  0  0  0  0  0  0
    5.6065    2.1968   -2.1606 H   0  0  0  0  0  0  0  0  0  0  0  0
    5.5647    3.4618   -1.0495 H   0  0  0  0  0  0  0  0  0  0  0  0
    3.6942    2.8834   -1.9945 C   0  0  0  0  0  0  0  0  0  0  0  0
    2.9762    3.7748   -1.4827 O   0  0  0  0  0  1  0  0  0  0  0  0
    3.2309    1.8461   -2.5065 O   0  0  0  0  0  0  0  0  0  0  0  0
   -0.0025    2.9091    0.0104 C   0  0  0  0  0  0  0  0  0  0  0  0
    0.9360    3.2177   -0.0112 H   0  0  0  0  0  0  0  0  0  0  0  0
   -0.4630    3.2092    0.8312 H   0  0  0  0  0  0  0  0  0  0  0  0
   -0.5187    3.3510   -0.8418 H   0  0  0  0  0  0  0  0  0  0  0  0
    0.0004    1.4069    0.0003 C   0  0  0  0  0  0  0  0  0  0  0  0
   -1.1985    0.6980    0.0001 C   0  0  0  0  0  0  0  0  0  0  0  0
   -2.0646    1.1839   -0.0013 H   0  0  0  0  0  0  0  0  0  0  0  0
   -1.2032   -0.7028   -0.0000 C   0  0  0  0  0  0  0  0  0  0  0  0
   -2.0803   -1.1920    0.0017 H   0  0  0  0  0  0  0  0  0  0  0  0
    0.0000   -1.3997   -0.0007 C   0  0  0  0  0  0  0  0  0  0  0  0
   -0.0015   -2.3969   -0.0022 H   0  0  0  0  0  0  0  0  0  0  0  0
    1.2032   -0.6987    0.0000 C   0  0  0  0  0  0  0  0  0  0  0  0
    2.0844   -1.1945    0.0019 H   0  0  0  0  0  0  0  0  0  0  0  0
    1.1981    0.6963    0.0002 C   0  0  0  0  0  0  0  0  0  0  0  0
    2.0661    1.1912   -0.0003 H   0  0  0  0  0  0  0  0  0  0  0  0
  1  5  1  0
  5  6  1  0
  5  7  2  0
  1  2  1  0
  1  3  1  0
  1  4  1  0
  8 12  1  0
 12 13  2  0
 13 15  1  0
 15 17  2  0
 17 19  1  0
 19 21  2  0
 21 12  1  0
  8  9  1  0
  8 10  1  0
  8 11  1  0
 13 14  1  0
 15 16  1  0
 17 18  1  0
 19 20  1  0
 21 22  1  0
M  CHG  1   6  -1
M  END
>  <PDB_ID>  (190) 
pdb2drh

>  <RESIDUE_NAME>  (190) 
GLU   PHE

>  <FRAG_NAME>  (190) 
ACET   MBZ

>  <FRAG_ATOM_NUM>  (190) 
fragi: 7  fragj: 15

>  <atom.prop.CHAIN_ID>  (190) 
A A A A A A A Z Z Z Z Z Z Z Z Z Z Z Z Z Z Z

>  <atom.prop.IS_HEAVY_ATOM>  (190) 
1 0 0 0 1 1 1 1 0 0 0 1 1 0 1 0 1 0 1 0 1 0

>  <DIFUSE_FUNC_ATOM>  (190) 
atom 6   atom 7   

>  <FINAL_SINGLE_POINT_ENERGY>  (190) 
0

>  <NONCOV_INTER_ENERGY_QM>  (190) 
0

>  <FF_Energy>  (190) 
-1.24

>  <QM_Energy>  (190) 
-6.58

>  <source>  (190) 
ACET_MBZ_00

>  <Index>  (190) 
7156

$$$$
ACET-pdb2drh-C-GLU-317:MBZ-pdb2drh-C-PHE-13
     RDKit          3D

 22 21  0  0  0  0  0  0  0  0999 V2000
    5.5224    2.9869   -0.7629 C   0  0  0  0  0  0  0  0  0  0  0  0
    5.9815    3.4479   -1.4959 H   0  0  0  0  0  0  0  0  0  0  0  0
    5.8997    2.1019   -0.5752 H   0  0  0  0  0  0  0  0  0  0  0  0
    5.6135    3.5975    0.1353 H   0  0  0  0  0  0  0  0  0  0  0  0
    4.0703    2.7858   -1.1851 C   0  0  0  0  0  0  0  0  0  0  0  0
    3.2632    3.7276   -1.0193 O   0  0  0  0  0  1  0  0  0  0  0  0
    3.7392    1.6952   -1.6935 O   0  0  0  0  0  0  0  0  0  0  0  0
   -0.0077    2.9045   -0.0551 C   0  0  0  0  0  0  0  0  0  0  0  0
    0.9131    3.2226    0.1026 H   0  0  0  0  0  0  0  0  0  0  0  0
   -0.6307    3.2345    0.6360 H   0  0  0  0  0  0  0  0  0  0  0  0
   -0.3369    3.3020   -1.0151 H   0  0  0  0  0  0  0  0  0  0  0  0
   -0.0003    1.4045   -0.0012 C   0  0  0  0  0  0  0  0  0  0  0  0
   -1.1979    0.6913    0.0017 C   0  0  0  0  0  0  0  0  0  0  0  0
   -2.0646    1.1810    0.0040 H   0  0  0  0  0  0  0  0  0  0  0  0
   -1.2019   -0.7005    0.0000 C   0  0  0  0  0  0  0  0  0  0  0  0
   -2.0776   -1.1950    0.0010 H   0  0  0  0  0  0  0  0  0  0  0  0
    0.0020   -1.3969   -0.0018 C   0  0  0  0  0  0  0  0  0  0  0  0
   -0.0012   -2.3946   -0.0047 H   0  0  0  0  0  0  0  0  0  0  0  0
    1.2019   -0.6969   -0.0000 C   0  0  0  0  0  0  0  0  0  0  0  0
    2.0849   -1.1915    0.0011 H   0  0  0  0  0  0  0  0  0  0  0  0
    1.1962    0.6985    0.0013 C   0  0  0  0  0  0  0  0  0  0  0  0
    2.0643    1.1934    0.0032 H   0  0  0  0  0  0  0  0  0  0  0  0
  1  5  1  0
  5  6  1  0
  5  7  2  0
  1  2  1  0
  1  3  1  0
  1  4  1  0
  8 12  1  0
 12 13  2  0
 13 15  1  0
 15 17  2  0
 17 19  1  0
 19 21  2  0
 21 12  1  0
  8  9  1  0
  8 10  1  0
  8 11  1  0
 13 14  1  0
 15 16  1  0
 17 18  1  0
 19 20  1  0
 21 22  1  0
M  CHG  1   6  -1
M  END
>  <PDB_ID>  (191) 
pdb2drh

>  <RESIDUE_NAME>  (191) 
GLU   PHE

>  <FRAG_NAME>  (191) 
ACET   MBZ

>  <FRAG_ATOM_NUM>  (191) 
fragi: 7  fragj: 15

>  <atom.prop.CHAIN_ID>  (191) 
A A A A A A A Z Z Z Z Z Z Z Z Z Z Z Z Z Z Z

>  <atom.prop.IS_HEAVY_ATOM>  (191) 
1 0 0 0 1 1 1 1 0 0 0 1 1 0 1 0 1 0 1 0 1 0

>  <DIFUSE_FUNC_ATOM>  (191) 
atom 6   atom 7   

>  <FINAL_SINGLE_POINT_ENERGY>  (191) 
0

>  <NONCOV_INTER_ENERGY_QM>  (191) 
0

>  <FF_Energy>  (191) 
-1.75

>  <QM_Energy>  (191) 
-7.71

>  <source>  (191) 
ACET_MBZ_00

>  <Index>  (191) 
7157

$$$$
ACET-pdb2drh-D-GLU-317:MBZ-pdb2drh-D-PHE-13
     RDKit          3D

 22 21  0  0  0  0  0  0  0  0999 V2000
    5.3988    3.0668   -1.2644 C   0  0  0  0  0  0  0  0  0  0  0  0
    5.7709    3.4900   -2.0696 H   0  0  0  0  0  0  0  0  0  0  0  0
    5.7899    2.1820   -1.0923 H   0  0  0  0  0  0  0  0  0  0  0  0
    5.5976    3.7107   -0.4077 H   0  0  0  0  0  0  0  0  0  0  0  0
    3.9127    2.8661   -1.5033 C   0  0  0  0  0  0  0  0  0  0  0  0
    3.1111    3.7579   -1.1381 O   0  0  0  0  0  1  0  0  0  0  0  0
    3.5513    1.8213   -2.0788 O   0  0  0  0  0  0  0  0  0  0  0  0
   -0.0029    2.9050   -0.0015 C   0  0  0  0  0  0  0  0  0  0  0  0
    0.9350    3.2135    0.0515 H   0  0  0  0  0  0  0  0  0  0  0  0
   -0.5269    3.2108    0.7788 H   0  0  0  0  0  0  0  0  0  0  0  0
   -0.4484    3.3424   -0.8949 H   0  0  0  0  0  0  0  0  0  0  0  0
    0.0002    1.4039    0.0000 C   0  0  0  0  0  0  0  0  0  0  0  0
   -1.1970    0.6940   -0.0006 C   0  0  0  0  0  0  0  0  0  0  0  0
   -2.0640    1.1839   -0.0025 H   0  0  0  0  0  0  0  0  0  0  0  0
   -1.2028   -0.6991   -0.0000 C   0  0  0  0  0  0  0  0  0  0  0  0
   -2.0786   -1.1917    0.0015 H   0  0  0  0  0  0  0  0  0  0  0  0
   -0.0007   -1.3954    0.0007 C   0  0  0  0  0  0  0  0  0  0  0  0
   -0.0045   -2.3946    0.0015 H   0  0  0  0  0  0  0  0  0  0  0  0
    1.2028   -0.6996   -0.0000 C   0  0  0  0  0  0  0  0  0  0  0  0
    2.0828   -1.1959    0.0012 H   0  0  0  0  0  0  0  0  0  0  0  0
    1.1976    0.6962   -0.0002 C   0  0  0  0  0  0  0  0  0  0  0  0
    2.0653    1.1910   -0.0010 H   0  0  0  0  0  0  0  0  0  0  0  0
  1  5  1  0
  5  6  1  0
  5  7  2  0
  1  2  1  0
  1  3  1  0
  1  4  1  0
  8 12  1  0
 12 13  2  0
 13 15  1  0
 15 17  2  0
 17 19  1  0
 19 21  2  0
 21 12  1  0
  8  9  1  0
  8 10  1  0
  8 11  1  0
 13 14  1  0
 15 16  1  0
 17 18  1  0
 19 20  1  0
 21 22  1  0
M  CHG  1   6  -1
M  END
>  <PDB_ID>  (192) 
pdb2drh

>  <RESIDUE_NAME>  (192) 
GLU   PHE

>  <FRAG_NAME>  (192) 
ACET   MBZ

>  <FRAG_ATOM_NUM>  (192) 
fragi: 7  fragj: 15

>  <atom.prop.CHAIN_ID>  (192) 
A A A A A A A Z Z Z Z Z Z Z Z Z Z Z Z Z Z Z

>  <atom.prop.IS_HEAVY_ATOM>  (192) 
1 0 0 0 1 1 1 1 0 0 0 1 1 0 1 0 1 0 1 0 1 0

>  <DIFUSE_FUNC_ATOM>  (192) 
atom 6   atom 7   

>  <FINAL_SINGLE_POINT_ENERGY>  (192) 
0

>  <NONCOV_INTER_ENERGY_QM>  (192) 
0

>  <FF_Energy>  (192) 
-1.67

>  <QM_Energy>  (192) 
-7.37

>  <source>  (192) 
ACET_MBZ_00

>  <Index>  (192) 
7159

$$$$
ACET-pdb2drv-B-GLU-159:MBZ-pdb2drv-B-PHE-164
     RDKit          3D

 22 21  0  0  0  0  0  0  0  0999 V2000
    2.3491   -3.4504   -1.4421 C   0  0  0  0  0  0  0  0  0  0  0  0
    3.1385   -3.4935   -2.0266 H   0  0  0  0  0  0  0  0  0  0  0  0
    2.1260   -2.5279   -1.1847 H   0  0  0  0  0  0  0  0  0  0  0  0
    1.5006   -3.8729   -1.9802 H   0  0  0  0  0  0  0  0  0  0  0  0
    2.6733   -4.2129   -0.1759 C   0  0  0  0  0  0  0  0  0  0  0  0
    1.7288   -4.6406    0.5245 O   0  0  0  0  0  1  0  0  0  0  0  0
    3.8753   -4.3752    0.1274 O   0  0  0  0  0  0  0  0  0  0  0  0
    0.0136    2.9102    0.0467 C   0  0  0  0  0  0  0  0  0  0  0  0
    0.8682    3.2196   -0.3472 H   0  0  0  0  0  0  0  0  0  0  0  0
   -0.0603    3.1875    0.9954 H   0  0  0  0  0  0  0  0  0  0  0  0
   -0.7975    3.3884   -0.5025 H   0  0  0  0  0  0  0  0  0  0  0  0
   -0.0007    1.4039    0.0002 C   0  0  0  0  0  0  0  0  0  0  0  0
   -1.1961    0.6955   -0.0005 C   0  0  0  0  0  0  0  0  0  0  0  0
   -2.0638    1.1846   -0.0030 H   0  0  0  0  0  0  0  0  0  0  0  0
   -1.2030   -0.6984   -0.0000 C   0  0  0  0  0  0  0  0  0  0  0  0
   -2.0792   -1.1909    0.0009 H   0  0  0  0  0  0  0  0  0  0  0  0
    0.0011   -1.3982    0.0010 C   0  0  0  0  0  0  0  0  0  0  0  0
   -0.0024   -2.3941    0.0019 H   0  0  0  0  0  0  0  0  0  0  0  0
    1.2030   -0.6971    0.0000 C   0  0  0  0  0  0  0  0  0  0  0  0
    2.0847   -1.1934    0.0014 H   0  0  0  0  0  0  0  0  0  0  0  0
    1.1956    0.6942   -0.0006 C   0  0  0  0  0  0  0  0  0  0  0  0
    2.0649    1.1918   -0.0025 H   0  0  0  0  0  0  0  0  0  0  0  0
  1  5  1  0
  5  6  1  0
  5  7  2  0
  1  2  1  0
  1  3  1  0
  1  4  1  0
  8 12  1  0
 12 13  2  0
 13 15  1  0
 15 17  2  0
 17 19  1  0
 19 21  2  0
 21 12  1  0
  8  9  1  0
  8 10  1  0
  8 11  1  0
 13 14  1  0
 15 16  1  0
 17 18  1  0
 19 20  1  0
 21 22  1  0
M  CHG  1   6  -1
M  END
>  <PDB_ID>  (193) 
pdb2drv

>  <RESIDUE_NAME>  (193) 
GLU   PHE

>  <FRAG_NAME>  (193) 
ACET   MBZ

>  <FRAG_ATOM_NUM>  (193) 
fragi: 7  fragj: 15

>  <atom.prop.CHAIN_ID>  (193) 
A A A A A A A Z Z Z Z Z Z Z Z Z Z Z Z Z Z Z

>  <atom.prop.IS_HEAVY_ATOM>  (193) 
1 0 0 0 1 1 1 1 0 0 0 1 1 0 1 0 1 0 1 0 1 0

>  <DIFUSE_FUNC_ATOM>  (193) 
atom 6   atom 7   

>  <FINAL_SINGLE_POINT_ENERGY>  (193) 
0

>  <NONCOV_INTER_ENERGY_QM>  (193) 
0

>  <FF_Energy>  (193) 
3.26

>  <QM_Energy>  (193) 
-2.24

>  <source>  (193) 
ACET_MBZ_00

>  <Index>  (193) 
7175

$$$$
ACET-pdb2dry-B-GLU-260:MBZ-pdb2dry-B-PHE-133
     RDKit          3D

 22 21  0  0  0  0  0  0  0  0999 V2000
    2.6241    5.2012    2.8583 C   0  0  0  0  0  0  0  0  0  0  0  0
    3.4262    5.6222    3.2411 H   0  0  0  0  0  0  0  0  0  0  0  0
    1.7992    5.5043    3.2993 H   0  0  0  0  0  0  0  0  0  0  0  0
    2.5678    5.4678    1.8029 H   0  0  0  0  0  0  0  0  0  0  0  0
    2.7398    3.7076    3.0803 C   0  0  0  0  0  0  0  0  0  0  0  0
    1.9762    2.9468    2.4526 O   0  0  0  0  0  1  0  0  0  0  0  0
    3.5906    3.2931    3.8953 O   0  0  0  0  0  0  0  0  0  0  0  0
   -0.0030    2.9015   -0.0786 C   0  0  0  0  0  0  0  0  0  0  0  0
    0.9007    3.2211    0.1532 H   0  0  0  0  0  0  0  0  0  0  0  0
   -0.6827    3.2394    0.5504 H   0  0  0  0  0  0  0  0  0  0  0  0
   -0.2487    3.2763   -1.0722 H   0  0  0  0  0  0  0  0  0  0  0  0
   -0.0006    1.4027   -0.0011 C   0  0  0  0  0  0  0  0  0  0  0  0
   -1.1984    0.6936    0.0004 C   0  0  0  0  0  0  0  0  0  0  0  0
   -2.0648    1.1848    0.0003 H   0  0  0  0  0  0  0  0  0  0  0  0
   -1.2046   -0.6981    0.0000 C   0  0  0  0  0  0  0  0  0  0  0  0
   -2.0792   -1.1921    0.0013 H   0  0  0  0  0  0  0  0  0  0  0  0
    0.0005   -1.3962   -0.0007 C   0  0  0  0  0  0  0  0  0  0  0  0
   -0.0033   -2.3934   -0.0021 H   0  0  0  0  0  0  0  0  0  0  0  0
    1.2046   -0.6969    0.0000 C   0  0  0  0  0  0  0  0  0  0  0  0
    2.0846   -1.1943    0.0012 H   0  0  0  0  0  0  0  0  0  0  0  0
    1.1985    0.6951    0.0015 C   0  0  0  0  0  0  0  0  0  0  0  0
    2.0655    1.1923    0.0033 H   0  0  0  0  0  0  0  0  0  0  0  0
  1  5  1  0
  5  6  1  0
  5  7  2  0
  1  2  1  0
  1  3  1  0
  1  4  1  0
  8 12  1  0
 12 13  2  0
 13 15  1  0
 15 17  2  0
 17 19  1  0
 19 21  2  0
 21 12  1  0
  8  9  1  0
  8 10  1  0
  8 11  1  0
 13 14  1  0
 15 16  1  0
 17 18  1  0
 19 20  1  0
 21 22  1  0
M  CHG  1   6  -1
M  END
>  <PDB_ID>  (194) 
pdb2dry

>  <RESIDUE_NAME>  (194) 
GLU   PHE

>  <FRAG_NAME>  (194) 
ACET   MBZ

>  <FRAG_ATOM_NUM>  (194) 
fragi: 7  fragj: 15

>  <atom.prop.CHAIN_ID>  (194) 
A A A A A A A Z Z Z Z Z Z Z Z Z Z Z Z Z Z Z

>  <atom.prop.IS_HEAVY_ATOM>  (194) 
1 0 0 0 1 1 1 1 0 0 0 1 1 0 1 0 1 0 1 0 1 0

>  <DIFUSE_FUNC_ATOM>  (194) 
atom 6   atom 7   

>  <FINAL_SINGLE_POINT_ENERGY>  (194) 
0

>  <NONCOV_INTER_ENERGY_QM>  (194) 
0

>  <FF_Energy>  (194) 
0.55

>  <QM_Energy>  (194) 
-4.67

>  <source>  (194) 
ACET_MBZ_00

>  <Index>  (194) 
7178

$$$$
ACET-pdb2dg0-C-GLU-119:MBZ-pdb2dg0-C-PHE-59
     RDKit          3D

 22 21  0  0  0  0  0  0  0  0999 V2000
   -0.9245   -4.4325    1.0350 C   0  0  0  0  0  0  0  0  0  0  0  0
   -1.8262   -4.4575    0.6509 H   0  0  0  0  0  0  0  0  0  0  0  0
   -0.5192   -3.5402    0.9908 H   0  0  0  0  0  0  0  0  0  0  0  0
   -0.9790   -4.7434    2.0784 H   0  0  0  0  0  0  0  0  0  0  0  0
   -0.0587   -5.3645    0.2250 C   0  0  0  0  0  0  0  0  0  0  0  0
    1.0285   -5.7474    0.7156 O   0  0  0  0  0  1  0  0  0  0  0  0
   -0.4638   -5.7120   -0.9034 O   0  0  0  0  0  0  0  0  0  0  0  0
   -0.0004    2.9040   -0.0092 C   0  0  0  0  0  0  0  0  0  0  0  0
    0.8672    3.2152    0.3526 H   0  0  0  0  0  0  0  0  0  0  0  0
   -0.7533    3.2152    0.5528 H   0  0  0  0  0  0  0  0  0  0  0  0
   -0.1225    3.3450   -0.9986 H   0  0  0  0  0  0  0  0  0  0  0  0
    0.0004    1.4025   -0.0002 C   0  0  0  0  0  0  0  0  0  0  0  0
   -1.1969    0.6930   -0.0002 C   0  0  0  0  0  0  0  0  0  0  0  0
   -2.0643    1.1821   -0.0020 H   0  0  0  0  0  0  0  0  0  0  0  0
   -1.2018   -0.7010    0.0000 C   0  0  0  0  0  0  0  0  0  0  0  0
   -2.0782   -1.1928    0.0025 H   0  0  0  0  0  0  0  0  0  0  0  0
   -0.0010   -1.3949   -0.0006 C   0  0  0  0  0  0  0  0  0  0  0  0
   -0.0010   -2.3930   -0.0019 H   0  0  0  0  0  0  0  0  0  0  0  0
    1.2018   -0.6947   -0.0000 C   0  0  0  0  0  0  0  0  0  0  0  0
    2.0827   -1.1935    0.0018 H   0  0  0  0  0  0  0  0  0  0  0  0
    1.1974    0.6951    0.0009 C   0  0  0  0  0  0  0  0  0  0  0  0
    2.0647    1.1923    0.0020 H   0  0  0  0  0  0  0  0  0  0  0  0
  1  5  1  0
  5  6  1  0
  5  7  2  0
  1  2  1  0
  1  3  1  0
  1  4  1  0
  8 12  1  0
 12 13  2  0
 13 15  1  0
 15 17  2  0
 17 19  1  0
 19 21  2  0
 21 12  1  0
  8  9  1  0
  8 10  1  0
  8 11  1  0
 13 14  1  0
 15 16  1  0
 17 18  1  0
 19 20  1  0
 21 22  1  0
M  CHG  1   6  -1
M  END
>  <PDB_ID>  (195) 
pdb2dg0

>  <RESIDUE_NAME>  (195) 
GLU   PHE

>  <FRAG_NAME>  (195) 
ACET   MBZ

>  <FRAG_ATOM_NUM>  (195) 
fragi: 7  fragj: 15

>  <atom.prop.CHAIN_ID>  (195) 
A A A A A A A Z Z Z Z Z Z Z Z Z Z Z Z Z Z Z

>  <atom.prop.IS_HEAVY_ATOM>  (195) 
1 0 0 0 1 1 1 1 0 0 0 1 1 0 1 0 1 0 1 0 1 0

>  <DIFUSE_FUNC_ATOM>  (195) 
atom 6   atom 7   

>  <FINAL_SINGLE_POINT_ENERGY>  (195) 
0

>  <NONCOV_INTER_ENERGY_QM>  (195) 
0

>  <FF_Energy>  (195) 
13.71

>  <QM_Energy>  (195) 
0.76

>  <source>  (195) 
ACET_MBZ_00

>  <Index>  (195) 
7179

$$$$
ACET-pdb2dsz-A-ASP-337:MBZ-pdb2dsz-A-PHE-342
     RDKit          3D

 22 21  0  0  0  0  0  0  0  0999 V2000
   -4.1097    4.2488   -2.6379 C   0  0  0  0  0  0  0  0  0  0  0  0
   -3.3058    4.6168   -3.0881 H   0  0  0  0  0  0  0  0  0  0  0  0
   -4.8103    4.9440   -2.5455 H   0  0  0  0  0  0  0  0  0  0  0  0
   -4.5087    3.4486   -3.2612 H   0  0  0  0  0  0  0  0  0  0  0  0
   -3.7139    3.7651   -1.2513 C   0  0  0  0  0  0  0  0  0  0  0  0
   -3.7950    2.5506   -0.9938 O   0  0  0  0  0  1  0  0  0  0  0  0
   -3.3170    4.5882   -0.4099 O   0  0  0  0  0  0  0  0  0  0  0  0
    0.0126    2.8993   -0.0681 C   0  0  0  0  0  0  0  0  0  0  0  0
   -0.7037    3.1861   -0.6915 H   0  0  0  0  0  0  0  0  0  0  0  0
    0.9027    3.1859   -0.4000 H   0  0  0  0  0  0  0  0  0  0  0  0
   -0.1607    3.3974    0.8857 H   0  0  0  0  0  0  0  0  0  0  0  0
    0.0007    1.4018   -0.0028 C   0  0  0  0  0  0  0  0  0  0  0  0
   -1.1976    0.6956    0.0023 C   0  0  0  0  0  0  0  0  0  0  0  0
   -2.0629    1.1854    0.0063 H   0  0  0  0  0  0  0  0  0  0  0  0
   -1.2019   -0.6979    0.0000 C   0  0  0  0  0  0  0  0  0  0  0  0
   -2.0781   -1.1904    0.0003 H   0  0  0  0  0  0  0  0  0  0  0  0
    0.0005   -1.3943   -0.0006 C   0  0  0  0  0  0  0  0  0  0  0  0
   -0.0033   -2.3925   -0.0019 H   0  0  0  0  0  0  0  0  0  0  0  0
    1.2019   -0.6971   -0.0000 C   0  0  0  0  0  0  0  0  0  0  0  0
    2.0824   -1.1949    0.0014 H   0  0  0  0  0  0  0  0  0  0  0  0
    1.1964    0.6920    0.0011 C   0  0  0  0  0  0  0  0  0  0  0  0
    2.0654    1.1889    0.0045 H   0  0  0  0  0  0  0  0  0  0  0  0
  1  5  1  0
  5  6  1  0
  5  7  2  0
  1  2  1  0
  1  3  1  0
  1  4  1  0
  8 12  1  0
 12 13  2  0
 13 15  1  0
 15 17  2  0
 17 19  1  0
 19 21  2  0
 21 12  1  0
  8  9  1  0
  8 10  1  0
  8 11  1  0
 13 14  1  0
 15 16  1  0
 17 18  1  0
 19 20  1  0
 21 22  1  0
M  CHG  1   6  -1
M  END
>  <PDB_ID>  (196) 
pdb2dsz

>  <RESIDUE_NAME>  (196) 
ASP   PHE

>  <FRAG_NAME>  (196) 
ACET   MBZ

>  <FRAG_ATOM_NUM>  (196) 
fragi: 7  fragj: 15

>  <atom.prop.CHAIN_ID>  (196) 
A A A A A A A Z Z Z Z Z Z Z Z Z Z Z Z Z Z Z

>  <atom.prop.IS_HEAVY_ATOM>  (196) 
1 0 0 0 1 1 1 1 0 0 0 1 1 0 1 0 1 0 1 0 1 0

>  <DIFUSE_FUNC_ATOM>  (196) 
atom 6   atom 7   

>  <FINAL_SINGLE_POINT_ENERGY>  (196) 
0

>  <NONCOV_INTER_ENERGY_QM>  (196) 
0

>  <FF_Energy>  (196) 
-2.54

>  <QM_Energy>  (196) 
-8.26

>  <source>  (196) 
ACET_MBZ_00

>  <Index>  (196) 
7347

$$$$
ACET-pdb2dvt-B-ASP-231:MBZ-pdb2dvt-B-PHE-249
     RDKit          3D

 22 21  0  0  0  0  0  0  0  0999 V2000
   -5.0539    4.2203   -0.3044 C   0  0  0  0  0  0  0  0  0  0  0  0
   -5.0620    5.0108   -0.9103 H   0  0  0  0  0  0  0  0  0  0  0  0
   -5.7261    4.3390    0.4212 H   0  0  0  0  0  0  0  0  0  0  0  0
   -5.3450    3.3486   -0.8905 H   0  0  0  0  0  0  0  0  0  0  0  0
   -3.6785    4.0957    0.3182 C   0  0  0  0  0  0  0  0  0  0  0  0
   -2.9449    5.1046    0.2838 O   0  0  0  0  0  1  0  0  0  0  0  0
   -3.3403    3.0215    0.8614 O   0  0  0  0  0  0  0  0  0  0  0  0
    0.0014    2.9056   -0.0197 C   0  0  0  0  0  0  0  0  0  0  0  0
   -0.8924    3.2114   -0.3114 H   0  0  0  0  0  0  0  0  0  0  0  0
    0.7053    3.2041   -0.6467 H   0  0  0  0  0  0  0  0  0  0  0  0
    0.2067    3.3594    0.9499 H   0  0  0  0  0  0  0  0  0  0  0  0
   -0.0007    1.4044   -0.0010 C   0  0  0  0  0  0  0  0  0  0  0  0
   -1.1978    0.6987    0.0024 C   0  0  0  0  0  0  0  0  0  0  0  0
   -2.0644    1.1898    0.0055 H   0  0  0  0  0  0  0  0  0  0  0  0
   -1.2059   -0.6935   -0.0000 C   0  0  0  0  0  0  0  0  0  0  0  0
   -2.0827   -1.1860    0.0007 H   0  0  0  0  0  0  0  0  0  0  0  0
   -0.0018   -1.3981   -0.0014 C   0  0  0  0  0  0  0  0  0  0  0  0
   -0.0114   -2.3946   -0.0037 H   0  0  0  0  0  0  0  0  0  0  0  0
    1.2059   -0.7047   -0.0000 C   0  0  0  0  0  0  0  0  0  0  0  0
    2.0838   -1.2007    0.0020 H   0  0  0  0  0  0  0  0  0  0  0  0
    1.2004    0.6932    0.0000 C   0  0  0  0  0  0  0  0  0  0  0  0
    2.0667    1.1883   -0.0000 H   0  0  0  0  0  0  0  0  0  0  0  0
  1  5  1  0
  5  6  1  0
  5  7  2  0
  1  2  1  0
  1  3  1  0
  1  4  1  0
  8 12  1  0
 12 13  2  0
 13 15  1  0
 15 17  2  0
 17 19  1  0
 19 21  2  0
 21 12  1  0
  8  9  1  0
  8 10  1  0
  8 11  1  0
 13 14  1  0
 15 16  1  0
 17 18  1  0
 19 20  1  0
 21 22  1  0
M  CHG  1   6  -1
M  END
>  <PDB_ID>  (197) 
pdb2dvt

>  <RESIDUE_NAME>  (197) 
ASP   PHE

>  <FRAG_NAME>  (197) 
ACET   MBZ

>  <FRAG_ATOM_NUM>  (197) 
fragi: 7  fragj: 15

>  <atom.prop.CHAIN_ID>  (197) 
A A A A A A A Z Z Z Z Z Z Z Z Z Z Z Z Z Z Z

>  <atom.prop.IS_HEAVY_ATOM>  (197) 
1 0 0 0 1 1 1 1 0 0 0 1 1 0 1 0 1 0 1 0 1 0

>  <DIFUSE_FUNC_ATOM>  (197) 
atom 6   atom 7   

>  <FINAL_SINGLE_POINT_ENERGY>  (197) 
0

>  <NONCOV_INTER_ENERGY_QM>  (197) 
0

>  <FF_Energy>  (197) 
-2.07

>  <QM_Energy>  (197) 
-8.57

>  <source>  (197) 
ACET_MBZ_00

>  <Index>  (197) 
7423

$$$$
ACET-pdb2dvt-C-ASP-231:MBZ-pdb2dvt-C-PHE-249
     RDKit          3D

 22 21  0  0  0  0  0  0  0  0999 V2000
   -5.1098    4.2672   -0.2962 C   0  0  0  0  0  0  0  0  0  0  0  0
   -5.1170    5.1025   -0.8383 H   0  0  0  0  0  0  0  0  0  0  0  0
   -5.7750    4.3325    0.4421 H   0  0  0  0  0  0  0  0  0  0  0  0
   -5.4094    3.4445   -0.9455 H   0  0  0  0  0  0  0  0  0  0  0  0
   -3.7325    4.0841    0.3002 C   0  0  0  0  0  0  0  0  0  0  0  0
   -2.9681    5.0718    0.3204 O   0  0  0  0  0  1  0  0  0  0  0  0
   -3.4195    2.9685    0.7664 O   0  0  0  0  0  0  0  0  0  0  0  0
    0.0092    2.9033    0.0235 C   0  0  0  0  0  0  0  0  0  0  0  0
   -0.8745    3.2205   -0.2850 H   0  0  0  0  0  0  0  0  0  0  0  0
    0.7328    3.2154   -0.5725 H   0  0  0  0  0  0  0  0  0  0  0  0
    0.1871    3.3272    1.0118 H   0  0  0  0  0  0  0  0  0  0  0  0
    0.0008    1.4019    0.0004 C   0  0  0  0  0  0  0  0  0  0  0  0
   -1.1968    0.6958    0.0002 C   0  0  0  0  0  0  0  0  0  0  0  0
   -2.0632    1.1853   -0.0009 H   0  0  0  0  0  0  0  0  0  0  0  0
   -1.2023   -0.6969   -0.0000 C   0  0  0  0  0  0  0  0  0  0  0  0
   -2.0790   -1.1893    0.0014 H   0  0  0  0  0  0  0  0  0  0  0  0
   -0.0008   -1.3937    0.0004 C   0  0  0  0  0  0  0  0  0  0  0  0
   -0.0064   -2.3935    0.0006 H   0  0  0  0  0  0  0  0  0  0  0  0
    1.2023   -0.7000    0.0000 C   0  0  0  0  0  0  0  0  0  0  0  0
    2.0824   -1.1972    0.0019 H   0  0  0  0  0  0  0  0  0  0  0  0
    1.1968    0.6929   -0.0010 C   0  0  0  0  0  0  0  0  0  0  0  0
    2.0658    1.1883   -0.0030 H   0  0  0  0  0  0  0  0  0  0  0  0
  1  5  1  0
  5  6  1  0
  5  7  2  0
  1  2  1  0
  1  3  1  0
  1  4  1  0
  8 12  1  0
 12 13  2  0
 13 15  1  0
 15 17  2  0
 17 19  1  0
 19 21  2  0
 21 12  1  0
  8  9  1  0
  8 10  1  0
  8 11  1  0
 13 14  1  0
 15 16  1  0
 17 18  1  0
 19 20  1  0
 21 22  1  0
M  CHG  1   6  -1
M  END
>  <PDB_ID>  (198) 
pdb2dvt

>  <RESIDUE_NAME>  (198) 
ASP   PHE

>  <FRAG_NAME>  (198) 
ACET   MBZ

>  <FRAG_ATOM_NUM>  (198) 
fragi: 7  fragj: 15

>  <atom.prop.CHAIN_ID>  (198) 
A A A A A A A Z Z Z Z Z Z Z Z Z Z Z Z Z Z Z

>  <atom.prop.IS_HEAVY_ATOM>  (198) 
1 0 0 0 1 1 1 1 0 0 0 1 1 0 1 0 1 0 1 0 1 0

>  <DIFUSE_FUNC_ATOM>  (198) 
atom 6   atom 7   

>  <FINAL_SINGLE_POINT_ENERGY>  (198) 
0

>  <NONCOV_INTER_ENERGY_QM>  (198) 
0

>  <FF_Energy>  (198) 
-2.09

>  <QM_Energy>  (198) 
-8.65

>  <source>  (198) 
ACET_MBZ_00

>  <Index>  (198) 
7424

$$$$
ACET-pdb2dvz-A-GLU-1055:MBZ-pdb2dvz-B-PHE-27
     RDKit          3D

 22 21  0  0  0  0  0  0  0  0999 V2000
   -0.3752    0.5646    3.6930 C   0  0  0  0  0  0  0  0  0  0  0  0
   -0.8347    0.1496    2.9228 H   0  0  0  0  0  0  0  0  0  0  0  0
   -0.8846    0.4329    4.5303 H   0  0  0  0  0  0  0  0  0  0  0  0
    0.5841    0.0607    3.8104 H   0  0  0  0  0  0  0  0  0  0  0  0
   -0.2665    2.0390    3.4367 C   0  0  0  0  0  0  0  0  0  0  0  0
    0.8855    2.5160    3.3616 O   0  0  0  0  0  1  0  0  0  0  0  0
   -1.3339    2.7323    3.2786 O   0  0  0  0  0  0  0  0  0  0  0  0
   -0.0179    2.8783   -0.0391 C   0  0  0  0  0  0  0  0  0  0  0  0
    0.8719    3.2178    0.2267 H   0  0  0  0  0  0  0  0  0  0  0  0
   -0.7254    3.2059    0.5678 H   0  0  0  0  0  0  0  0  0  0  0  0
   -0.2332    3.2749   -1.0314 H   0  0  0  0  0  0  0  0  0  0  0  0
    0.0021    1.4039    0.0031 C   0  0  0  0  0  0  0  0  0  0  0  0
   -1.2060    0.6782    0.0017 C   0  0  0  0  0  0  0  0  0  0  0  0
   -2.0686    1.1813    0.0006 H   0  0  0  0  0  0  0  0  0  0  0  0
   -1.2135   -0.6985   -0.0000 C   0  0  0  0  0  0  0  0  0  0  0  0
   -2.0866   -1.2000   -0.0031 H   0  0  0  0  0  0  0  0  0  0  0  0
   -0.0074   -1.3989    0.0047 C   0  0  0  0  0  0  0  0  0  0  0  0
   -0.0063   -2.3935    0.0111 H   0  0  0  0  0  0  0  0  0  0  0  0
    1.2135   -0.6949    0.0000 C   0  0  0  0  0  0  0  0  0  0  0  0
    2.0871   -1.1945    0.0049 H   0  0  0  0  0  0  0  0  0  0  0  0
    1.2114    0.7102   -0.0095 C   0  0  0  0  0  0  0  0  0  0  0  0
    2.0717    1.2028   -0.0259 H   0  0  0  0  0  0  0  0  0  0  0  0
  1  5  1  0
  5  6  1  0
  5  7  2  0
  1  2  1  0
  1  3  1  0
  1  4  1  0
  8 12  1  0
 12 13  2  0
 13 15  1  0
 15 17  2  0
 17 19  1  0
 19 21  2  0
 21 12  1  0
  8  9  1  0
  8 10  1  0
  8 11  1  0
 13 14  1  0
 15 16  1  0
 17 18  1  0
 19 20  1  0
 21 22  1  0
M  CHG  1   6  -1
M  END
>  <PDB_ID>  (199) 
pdb2dvz

>  <RESIDUE_NAME>  (199) 
GLU   PHE

>  <FRAG_NAME>  (199) 
ACET   MBZ

>  <FRAG_ATOM_NUM>  (199) 
fragi: 7  fragj: 15

>  <atom.prop.CHAIN_ID>  (199) 
A A A A A A A Z Z Z Z Z Z Z Z Z Z Z Z Z Z Z

>  <atom.prop.IS_HEAVY_ATOM>  (199) 
1 0 0 0 1 1 1 1 0 0 0 1 1 0 1 0 1 0 1 0 1 0

>  <DIFUSE_FUNC_ATOM>  (199) 
atom 6   atom 7   

>  <FINAL_SINGLE_POINT_ENERGY>  (199) 
0

>  <NONCOV_INTER_ENERGY_QM>  (199) 
0

>  <FF_Energy>  (199) 
-0.15

>  <QM_Energy>  (199) 
-6.18

>  <source>  (199) 
ACET_MBZ_00

>  <Index>  (199) 
7426

$$$$
ACET-pdb1d9e-A-ASP-1271:MBZ-pdb1d9e-A-PHE-1019
     RDKit          3D

 22 21  0  0  0  0  0  0  0  0999 V2000
   -3.7607    1.9847    2.4495 C   0  0  0  0  0  0  0  0  0  0  0  0
   -2.9130    1.6755    2.8602 H   0  0  0  0  0  0  0  0  0  0  0  0
   -4.1506    1.2804    1.8718 H   0  0  0  0  0  0  0  0  0  0  0  0
   -4.4675    2.1907    3.2534 H   0  0  0  0  0  0  0  0  0  0  0  0
   -3.4771    3.2122    1.6036 C   0  0  0  0  0  0  0  0  0  0  0  0
   -2.9939    4.2349    2.1460 O   0  0  0  0  0  1  0  0  0  0  0  0
   -3.7451    3.1641    0.3923 O   0  0  0  0  0  0  0  0  0  0  0  0
   -0.0045    2.9078    0.0106 C   0  0  0  0  0  0  0  0  0  0  0  0
    0.8831    3.2176    0.3164 H   0  0  0  0  0  0  0  0  0  0  0  0
   -0.7208    3.2117    0.6211 H   0  0  0  0  0  0  0  0  0  0  0  0
   -0.1913    3.3570   -0.9648 H   0  0  0  0  0  0  0  0  0  0  0  0
   -0.0013    1.4075    0.0018 C   0  0  0  0  0  0  0  0  0  0  0  0
   -1.2000    0.6881   -0.0015 C   0  0  0  0  0  0  0  0  0  0  0  0
   -2.0678    1.1790   -0.0057 H   0  0  0  0  0  0  0  0  0  0  0  0
   -1.2069   -0.7049   -0.0000 C   0  0  0  0  0  0  0  0  0  0  0  0
   -2.0822   -1.1967    0.0012 H   0  0  0  0  0  0  0  0  0  0  0  0
   -0.0037   -1.4017    0.0018 C   0  0  0  0  0  0  0  0  0  0  0  0
   -0.0013   -2.3974    0.0043 H   0  0  0  0  0  0  0  0  0  0  0  0
    1.2069   -0.6961    0.0000 C   0  0  0  0  0  0  0  0  0  0  0  0
    2.0861   -1.1927    0.0021 H   0  0  0  0  0  0  0  0  0  0  0  0
    1.2049    0.7071   -0.0021 C   0  0  0  0  0  0  0  0  0  0  0  0
    2.0675    1.1993   -0.0075 H   0  0  0  0  0  0  0  0  0  0  0  0
  1  5  1  0
  5  6  1  0
  5  7  2  0
  1  2  1  0
  1  3  1  0
  1  4  1  0
  8 12  1  0
 12 13  2  0
 13 15  1  0
 15 17  2  0
 17 19  1  0
 19 21  2  0
 21 12  1  0
  8  9  1  0
  8 10  1  0
  8 11  1  0
 13 14  1  0
 15 16  1  0
 17 18  1  0
 19 20  1  0
 21 22  1  0
M  CHG  1   6  -1
M  END
>  <PDB_ID>  (200) 
pdb1d9e

>  <RESIDUE_NAME>  (200) 
ASP   PHE

>  <FRAG_NAME>  (200) 
ACET   MBZ

>  <FRAG_ATOM_NUM>  (200) 
fragi: 7  fragj: 15

>  <atom.prop.CHAIN_ID>  (200) 
A A A A A A A Z Z Z Z Z Z Z Z Z Z Z Z Z Z Z

>  <atom.prop.IS_HEAVY_ATOM>  (200) 
1 0 0 0 1 1 1 1 0 0 0 1 1 0 1 0 1 0 1 0 1 0

>  <DIFUSE_FUNC_ATOM>  (200) 
atom 6   atom 7   

>  <FINAL_SINGLE_POINT_ENERGY>  (200) 
0

>  <NONCOV_INTER_ENERGY_QM>  (200) 
0

>  <FF_Energy>  (200) 
-2.9

>  <QM_Energy>  (200) 
-7.96

>  <source>  (200) 
ACET_MBZ_00

>  <Index>  (200) 
7482

$$$$
ACET-pdb1d9e-B-ASP-2271:MBZ-pdb1d9e-B-PHE-2019
     RDKit          3D

 22 21  0  0  0  0  0  0  0  0999 V2000
   -4.0572    1.9440    1.9039 C   0  0  0  0  0  0  0  0  0  0  0  0
   -3.2894    1.5556    2.3953 H   0  0  0  0  0  0  0  0  0  0  0  0
   -4.4190    1.3002    1.2445 H   0  0  0  0  0  0  0  0  0  0  0  0
   -4.8428    2.1679    2.6255 H   0  0  0  0  0  0  0  0  0  0  0  0
   -3.5815    3.1878    1.1614 C   0  0  0  0  0  0  0  0  0  0  0  0
   -3.0530    4.1175    1.8050 O   0  0  0  0  0  1  0  0  0  0  0  0
   -3.7355    3.2405   -0.0698 O   0  0  0  0  0  0  0  0  0  0  0  0
    0.0118    2.9097    0.0557 C   0  0  0  0  0  0  0  0  0  0  0  0
    0.8582    3.1935    0.4836 H   0  0  0  0  0  0  0  0  0  0  0  0
   -0.7715    3.2061    0.5857 H   0  0  0  0  0  0  0  0  0  0  0  0
   -0.0456    3.3891   -0.9215 H   0  0  0  0  0  0  0  0  0  0  0  0
   -0.0028    1.4146    0.0010 C   0  0  0  0  0  0  0  0  0  0  0  0
   -1.2128    0.7186   -0.0036 C   0  0  0  0  0  0  0  0  0  0  0  0
   -2.0722    1.2026   -0.0103 H   0  0  0  0  0  0  0  0  0  0  0  0
   -1.2183   -0.6943    0.0000 C   0  0  0  0  0  0  0  0  0  0  0  0
   -2.0904   -1.1849    0.0023 H   0  0  0  0  0  0  0  0  0  0  0  0
    0.0031   -1.4156    0.0029 C   0  0  0  0  0  0  0  0  0  0  0  0
   -0.0130   -2.4046    0.0060 H   0  0  0  0  0  0  0  0  0  0  0  0
    1.2183   -0.7145   -0.0000 C   0  0  0  0  0  0  0  0  0  0  0  0
    2.0938   -1.2098   -0.0002 H   0  0  0  0  0  0  0  0  0  0  0  0
    1.2125    0.6912   -0.0003 C   0  0  0  0  0  0  0  0  0  0  0  0
    2.0750    1.1880   -0.0024 H   0  0  0  0  0  0  0  0  0  0  0  0
  1  5  1  0
  5  6  1  0
  5  7  2  0
  1  2  1  0
  1  3  1  0
  1  4  1  0
  8 12  1  0
 12 13  2  0
 13 15  1  0
 15 17  2  0
 17 19  1  0
 19 21  2  0
 21 12  1  0
  8  9  1  0
  8 10  1  0
  8 11  1  0
 13 14  1  0
 15 16  1  0
 17 18  1  0
 19 20  1  0
 21 22  1  0
M  CHG  1   6  -1
M  END
>  <PDB_ID>  (201) 
pdb1d9e

>  <RESIDUE_NAME>  (201) 
ASP   PHE

>  <FRAG_NAME>  (201) 
ACET   MBZ

>  <FRAG_ATOM_NUM>  (201) 
fragi: 7  fragj: 15

>  <atom.prop.CHAIN_ID>  (201) 
A A A A A A A Z Z Z Z Z Z Z Z Z Z Z Z Z Z Z

>  <atom.prop.IS_HEAVY_ATOM>  (201) 
1 0 0 0 1 1 1 1 0 0 0 1 1 0 1 0 1 0 1 0 1 0

>  <DIFUSE_FUNC_ATOM>  (201) 
atom 6   atom 7   

>  <FINAL_SINGLE_POINT_ENERGY>  (201) 
0

>  <NONCOV_INTER_ENERGY_QM>  (201) 
0

>  <FF_Energy>  (201) 
-2.56

>  <QM_Energy>  (201) 
-8.27

>  <source>  (201) 
ACET_MBZ_00

>  <Index>  (201) 
7485

$$$$
ACET-pdb1d8w-B-ASP-52:MBZ-pdb1d8w-B-PHE-336
     RDKit          3D

 22 21  0  0  0  0  0  0  0  0999 V2000
   -0.6108   -4.4057   -1.7205 C   0  0  0  0  0  0  0  0  0  0  0  0
   -0.7876   -5.2374   -2.2053 H   0  0  0  0  0  0  0  0  0  0  0  0
    0.3377   -4.1681   -1.7021 H   0  0  0  0  0  0  0  0  0  0  0  0
   -1.1562   -3.6007   -2.2130 H   0  0  0  0  0  0  0  0  0  0  0  0
   -1.1163   -4.5399   -0.3063 C   0  0  0  0  0  0  0  0  0  0  0  0
   -1.8823   -3.7779    0.2469 O   0  0  0  0  0  1  0  0  0  0  0  0
   -0.7297   -5.6152    0.2477 O   0  0  0  0  0  0  0  0  0  0  0  0
   -0.0540    2.9230    0.0616 C   0  0  0  0  0  0  0  0  0  0  0  0
   -0.5187    3.2489   -0.7111 H   0  0  0  0  0  0  0  0  0  0  0  0
    0.8354    3.2536    0.2022 H   0  0  0  0  0  0  0  0  0  0  0  0
   -0.6442    3.1999    0.9352 H   0  0  0  0  0  0  0  0  0  0  0  0
   -0.0040    1.4064   -0.0047 C   0  0  0  0  0  0  0  0  0  0  0  0
   -1.2003    0.6821   -0.0074 C   0  0  0  0  0  0  0  0  0  0  0  0
   -2.0704    1.1763   -0.0159 H   0  0  0  0  0  0  0  0  0  0  0  0
   -1.2140   -0.7100   -0.0000 C   0  0  0  0  0  0  0  0  0  0  0  0
   -2.0791   -1.2039    0.0121 H   0  0  0  0  0  0  0  0  0  0  0  0
    0.0028   -1.3908   -0.0076 C   0  0  0  0  0  0  0  0  0  0  0  0
    0.0054   -2.3946   -0.0192 H   0  0  0  0  0  0  0  0  0  0  0  0
    1.2140   -0.6952    0.0000 C   0  0  0  0  0  0  0  0  0  0  0  0
    2.0902   -1.1870   -0.0067 H   0  0  0  0  0  0  0  0  0  0  0  0
    1.2015    0.7074    0.0197 C   0  0  0  0  0  0  0  0  0  0  0  0
    2.0645    1.2039    0.0502 H   0  0  0  0  0  0  0  0  0  0  0  0
  1  5  1  0
  5  6  1  0
  5  7  2  0
  1  2  1  0
  1  3  1  0
  1  4  1  0
  8 12  1  0
 12 13  2  0
 13 15  1  0
 15 17  2  0
 17 19  1  0
 19 21  2  0
 21 12  1  0
  8  9  1  0
  8 10  1  0
  8 11  1  0
 13 14  1  0
 15 16  1  0
 17 18  1  0
 19 20  1  0
 21 22  1  0
M  CHG  1   6  -1
M  END
>  <PDB_ID>  (202) 
pdb1d8w

>  <RESIDUE_NAME>  (202) 
ASP   PHE

>  <FRAG_NAME>  (202) 
ACET   MBZ

>  <FRAG_ATOM_NUM>  (202) 
fragi: 7  fragj: 15

>  <atom.prop.CHAIN_ID>  (202) 
A A A A A A A Z Z Z Z Z Z Z Z Z Z Z Z Z Z Z

>  <atom.prop.IS_HEAVY_ATOM>  (202) 
1 0 0 0 1 1 1 1 0 0 0 1 1 0 1 0 1 0 1 0 1 0

>  <DIFUSE_FUNC_ATOM>  (202) 
atom 6   atom 7   

>  <FINAL_SINGLE_POINT_ENERGY>  (202) 
0

>  <NONCOV_INTER_ENERGY_QM>  (202) 
0

>  <FF_Energy>  (202) 
-0.01

>  <QM_Energy>  (202) 
-4.96

>  <source>  (202) 
ACET_MBZ_00

>  <Index>  (202) 
7495

$$$$
ACET-pdb1d8w-C-ASP-52:MBZ-pdb1d8w-C-PHE-336
     RDKit          3D

 22 21  0  0  0  0  0  0  0  0999 V2000
   -0.2454   -4.3655   -1.4701 C   0  0  0  0  0  0  0  0  0  0  0  0
   -0.2058   -5.1771   -2.0075 H   0  0  0  0  0  0  0  0  0  0  0  0
    0.6278   -3.9868   -1.2638 H   0  0  0  0  0  0  0  0  0  0  0  0
   -0.8001   -3.6209   -2.0411 H   0  0  0  0  0  0  0  0  0  0  0  0
   -1.0051   -4.6097   -0.2273 C   0  0  0  0  0  0  0  0  0  0  0  0
   -1.9758   -3.9323    0.1458 O   0  0  0  0  0  1  0  0  0  0  0  0
   -0.5399   -5.6083    0.4654 O   0  0  0  0  0  0  0  0  0  0  0  0
   -0.0289    2.9096    0.0431 C   0  0  0  0  0  0  0  0  0  0  0  0
   -0.4038    3.2416   -0.7717 H   0  0  0  0  0  0  0  0  0  0  0  0
    0.8361    3.2365    0.2914 H   0  0  0  0  0  0  0  0  0  0  0  0
   -0.7156    3.1807    0.8450 H   0  0  0  0  0  0  0  0  0  0  0  0
    0.0080    1.4072   -0.0081 C   0  0  0  0  0  0  0  0  0  0  0  0
   -1.2000    0.7129    0.0108 C   0  0  0  0  0  0  0  0  0  0  0  0
   -2.0588    1.2084    0.0301 H   0  0  0  0  0  0  0  0  0  0  0  0
   -1.2133   -0.6827    0.0000 C   0  0  0  0  0  0  0  0  0  0  0  0
   -2.0912   -1.1708    0.0014 H   0  0  0  0  0  0  0  0  0  0  0  0
   -0.0096   -1.3938   -0.0110 C   0  0  0  0  0  0  0  0  0  0  0  0
   -0.0298   -2.3947   -0.0273 H   0  0  0  0  0  0  0  0  0  0  0  0
    1.2133   -0.7214    0.0000 C   0  0  0  0  0  0  0  0  0  0  0  0
    2.0782   -1.2197    0.0031 H   0  0  0  0  0  0  0  0  0  0  0  0
    1.2016    0.6778    0.0083 C   0  0  0  0  0  0  0  0  0  0  0  0
    2.0761    1.1723    0.0260 H   0  0  0  0  0  0  0  0  0  0  0  0
  1  5  1  0
  5  6  1  0
  5  7  2  0
  1  2  1  0
  1  3  1  0
  1  4  1  0
  8 12  1  0
 12 13  2  0
 13 15  1  0
 15 17  2  0
 17 19  1  0
 19 21  2  0
 21 12  1  0
  8  9  1  0
  8 10  1  0
  8 11  1  0
 13 14  1  0
 15 16  1  0
 17 18  1  0
 19 20  1  0
 21 22  1  0
M  CHG  1   6  -1
M  END
>  <PDB_ID>  (203) 
pdb1d8w

>  <RESIDUE_NAME>  (203) 
ASP   PHE

>  <FRAG_NAME>  (203) 
ACET   MBZ

>  <FRAG_ATOM_NUM>  (203) 
fragi: 7  fragj: 15

>  <atom.prop.CHAIN_ID>  (203) 
A A A A A A A Z Z Z Z Z Z Z Z Z Z Z Z Z Z Z

>  <atom.prop.IS_HEAVY_ATOM>  (203) 
1 0 0 0 1 1 1 1 0 0 0 1 1 0 1 0 1 0 1 0 1 0

>  <DIFUSE_FUNC_ATOM>  (203) 
atom 6   atom 7   

>  <FINAL_SINGLE_POINT_ENERGY>  (203) 
0

>  <NONCOV_INTER_ENERGY_QM>  (203) 
0

>  <FF_Energy>  (203) 
1.15

>  <QM_Energy>  (203) 
-4.29

>  <source>  (203) 
ACET_MBZ_00

>  <Index>  (203) 
7508

$$$$
ACET-pdb2dtd-B-GLU-230:MBZ-pdb2dtd-B-PHE-2
     RDKit          3D

 22 21  0  0  0  0  0  0  0  0999 V2000
    4.3744    0.8797   -0.9521 C   0  0  0  0  0  0  0  0  0  0  0  0
    4.3037    1.8179   -1.2390 H   0  0  0  0  0  0  0  0  0  0  0  0
    3.5323    0.5446   -0.5694 H   0  0  0  0  0  0  0  0  0  0  0  0
    4.6191    0.2738   -1.8245 H   0  0  0  0  0  0  0  0  0  0  0  0
    5.4315    0.8115    0.1362 C   0  0  0  0  0  0  0  0  0  0  0  0
    5.1198    1.2067    1.2819 O   0  0  0  0  0  1  0  0  0  0  0  0
    6.5683    0.3658   -0.1474 O   0  0  0  0  0  0  0  0  0  0  0  0
   -0.0006    2.9050    0.0592 C   0  0  0  0  0  0  0  0  0  0  0  0
   -0.8353    3.2273   -0.3579 H   0  0  0  0  0  0  0  0  0  0  0  0
    0.7957    3.2320   -0.4254 H   0  0  0  0  0  0  0  0  0  0  0  0
    0.0403    3.3031    1.0731 H   0  0  0  0  0  0  0  0  0  0  0  0
    0.0010    1.4029    0.0002 C   0  0  0  0  0  0  0  0  0  0  0  0
   -1.1934    0.6976   -0.0010 C   0  0  0  0  0  0  0  0  0  0  0  0
   -2.0614    1.1875   -0.0038 H   0  0  0  0  0  0  0  0  0  0  0  0
   -1.2024   -0.6952   -0.0000 C   0  0  0  0  0  0  0  0  0  0  0  0
   -2.0815   -1.1848    0.0006 H   0  0  0  0  0  0  0  0  0  0  0  0
   -0.0034   -1.3989    0.0018 C   0  0  0  0  0  0  0  0  0  0  0  0
   -0.0092   -2.3946    0.0041 H   0  0  0  0  0  0  0  0  0  0  0  0
    1.2024   -0.7013   -0.0000 C   0  0  0  0  0  0  0  0  0  0  0  0
    2.0817   -1.1965    0.0008 H   0  0  0  0  0  0  0  0  0  0  0  0
    1.1958    0.6949   -0.0010 C   0  0  0  0  0  0  0  0  0  0  0  0
    2.0655    1.1886   -0.0031 H   0  0  0  0  0  0  0  0  0  0  0  0
  1  5  1  0
  5  6  1  0
  5  7  2  0
  1  2  1  0
  1  3  1  0
  1  4  1  0
  8 12  1  0
 12 13  2  0
 13 15  1  0
 15 17  2  0
 17 19  1  0
 19 21  2  0
 21 12  1  0
  8  9  1  0
  8 10  1  0
  8 11  1  0
 13 14  1  0
 15 16  1  0
 17 18  1  0
 19 20  1  0
 21 22  1  0
M  CHG  1   6  -1
M  END
>  <PDB_ID>  (204) 
pdb2dtd

>  <RESIDUE_NAME>  (204) 
GLU   PHE

>  <FRAG_NAME>  (204) 
ACET   MBZ

>  <FRAG_ATOM_NUM>  (204) 
fragi: 7  fragj: 15

>  <atom.prop.CHAIN_ID>  (204) 
A A A A A A A Z Z Z Z Z Z Z Z Z Z Z Z Z Z Z

>  <atom.prop.IS_HEAVY_ATOM>  (204) 
1 0 0 0 1 1 1 1 0 0 0 1 1 0 1 0 1 0 1 0 1 0

>  <DIFUSE_FUNC_ATOM>  (204) 
atom 6   atom 7   

>  <FINAL_SINGLE_POINT_ENERGY>  (204) 
0

>  <NONCOV_INTER_ENERGY_QM>  (204) 
0

>  <FF_Energy>  (204) 
7.31

>  <QM_Energy>  (204) 
-0.44

>  <source>  (204) 
ACET_MBZ_00

>  <Index>  (204) 
7513

$$$$
ACET-pdb1dbr-A-GLU-71:MBZ-pdb1dbr-A-PHE-109
     RDKit          3D

 22 21  0  0  0  0  0  0  0  0999 V2000
    4.1227   -2.2968    0.6488 C   0  0  0  0  0  0  0  0  0  0  0  0
    3.3524   -1.8597    0.2173 H   0  0  0  0  0  0  0  0  0  0  0  0
    4.2237   -3.2332    0.3595 H   0  0  0  0  0  0  0  0  0  0  0  0
    5.0287   -1.7467    0.3946 H   0  0  0  0  0  0  0  0  0  0  0  0
    3.8734   -2.3031    2.1206 C   0  0  0  0  0  0  0  0  0  0  0  0
    4.3961   -3.1983    2.8204 O   0  0  0  0  0  1  0  0  0  0  0  0
    3.1631   -1.3854    2.5729 O   0  0  0  0  0  0  0  0  0  0  0  0
   -0.0108    2.8231   -0.0253 C   0  0  0  0  0  0  0  0  0  0  0  0
    0.9103    3.1583    0.0992 H   0  0  0  0  0  0  0  0  0  0  0  0
   -0.6152    3.1582    0.6816 H   0  0  0  0  0  0  0  0  0  0  0  0
   -0.3751    3.2051   -0.9790 H   0  0  0  0  0  0  0  0  0  0  0  0
    0.0011    1.3742    0.0052 C   0  0  0  0  0  0  0  0  0  0  0  0
   -1.1915    0.6930   -0.0156 C   0  0  0  0  0  0  0  0  0  0  0  0
   -2.0555    1.1793   -0.0427 H   0  0  0  0  0  0  0  0  0  0  0  0
   -1.1967   -0.7023   -0.0000 C   0  0  0  0  0  0  0  0  0  0  0  0
   -2.0777   -1.1882    0.0061 H   0  0  0  0  0  0  0  0  0  0  0  0
   -0.0089   -1.3787    0.0082 C   0  0  0  0  0  0  0  0  0  0  0  0
    0.0104   -2.3791    0.0194 H   0  0  0  0  0  0  0  0  0  0  0  0
    1.1967   -0.6684    0.0000 C   0  0  0  0  0  0  0  0  0  0  0  0
    2.0746   -1.1913   -0.0060 H   0  0  0  0  0  0  0  0  0  0  0  0
    1.1994    0.6821    0.0022 C   0  0  0  0  0  0  0  0  0  0  0  0
    2.0596    1.1952    0.0012 H   0  0  0  0  0  0  0  0  0  0  0  0
  1  5  1  0
  5  6  1  0
  5  7  2  0
  1  2  1  0
  1  3  1  0
  1  4  1  0
  8 12  1  0
 12 13  2  0
 13 15  1  0
 15 17  2  0
 17 19  1  0
 19 21  2  0
 21 12  1  0
  8  9  1  0
  8 10  1  0
  8 11  1  0
 13 14  1  0
 15 16  1  0
 17 18  1  0
 19 20  1  0
 21 22  1  0
M  CHG  1   6  -1
M  END
>  <PDB_ID>  (205) 
pdb1dbr

>  <RESIDUE_NAME>  (205) 
GLU   PHE

>  <FRAG_NAME>  (205) 
ACET   MBZ

>  <FRAG_ATOM_NUM>  (205) 
fragi: 7  fragj: 15

>  <atom.prop.CHAIN_ID>  (205) 
A A A A A A A Z Z Z Z Z Z Z Z Z Z Z Z Z Z Z

>  <atom.prop.IS_HEAVY_ATOM>  (205) 
1 0 0 0 1 1 1 1 0 0 0 1 1 0 1 0 1 0 1 0 1 0

>  <DIFUSE_FUNC_ATOM>  (205) 
atom 6   atom 7   

>  <FINAL_SINGLE_POINT_ENERGY>  (205) 
0

>  <NONCOV_INTER_ENERGY_QM>  (205) 
0

>  <FF_Energy>  (205) 
43.67

>  <QM_Energy>  (205) 
2.76

>  <source>  (205) 
ACET_MBZ_00

>  <Index>  (205) 
7553

$$$$
ACET-pdb2dym-A-ASP-20:MBZ-pdb2dym-A-PHE-23
     RDKit          3D

 22 21  0  0  0  0  0  0  0  0999 V2000
   -4.1464   -0.3258    1.2637 C   0  0  0  0  0  0  0  0  0  0  0  0
   -4.4844   -1.1806    0.8859 H   0  0  0  0  0  0  0  0  0  0  0  0
   -3.1733   -0.2290    1.0847 H   0  0  0  0  0  0  0  0  0  0  0  0
   -4.6627    0.4901    0.7577 H   0  0  0  0  0  0  0  0  0  0  0  0
   -4.3682   -0.3360    2.7706 C   0  0  0  0  0  0  0  0  0  0  0  0
   -4.1546   -1.4048    3.3898 O   0  0  0  0  0  1  0  0  0  0  0  0
   -4.7410    0.7136    3.3372 O   0  0  0  0  0  0  0  0  0  0  0  0
    0.0027    2.9144   -0.0154 C   0  0  0  0  0  0  0  0  0  0  0  0
   -0.8593    3.2155   -0.3939 H   0  0  0  0  0  0  0  0  0  0  0  0
    0.7632    3.2103   -0.5733 H   0  0  0  0  0  0  0  0  0  0  0  0
    0.1132    3.3743    0.9667 H   0  0  0  0  0  0  0  0  0  0  0  0
    0.0005    1.4065    0.0065 C   0  0  0  0  0  0  0  0  0  0  0  0
   -1.1964    0.6966    0.0005 C   0  0  0  0  0  0  0  0  0  0  0  0
   -2.0635    1.1852   -0.0048 H   0  0  0  0  0  0  0  0  0  0  0  0
   -1.2018   -0.6994   -0.0000 C   0  0  0  0  0  0  0  0  0  0  0  0
   -2.0796   -1.1899    0.0064 H   0  0  0  0  0  0  0  0  0  0  0  0
   -0.0015   -1.3984   -0.0073 C   0  0  0  0  0  0  0  0  0  0  0  0
   -0.0059   -2.3956   -0.0183 H   0  0  0  0  0  0  0  0  0  0  0  0
    1.2018   -0.7008   -0.0000 C   0  0  0  0  0  0  0  0  0  0  0  0
    2.0822   -1.1973    0.0066 H   0  0  0  0  0  0  0  0  0  0  0  0
    1.1974    0.6954    0.0002 C   0  0  0  0  0  0  0  0  0  0  0  0
    2.0659    1.1897   -0.0049 H   0  0  0  0  0  0  0  0  0  0  0  0
  1  5  1  0
  5  6  1  0
  5  7  2  0
  1  2  1  0
  1  3  1  0
  1  4  1  0
  8 12  1  0
 12 13  2  0
 13 15  1  0
 15 17  2  0
 17 19  1  0
 19 21  2  0
 21 12  1  0
  8  9  1  0
  8 10  1  0
  8 11  1  0
 13 14  1  0
 15 16  1  0
 17 18  1  0
 19 20  1  0
 21 22  1  0
M  CHG  1   6  -1
M  END
>  <PDB_ID>  (206) 
pdb2dym

>  <RESIDUE_NAME>  (206) 
ASP   PHE

>  <FRAG_NAME>  (206) 
ACET   MBZ

>  <FRAG_ATOM_NUM>  (206) 
fragi: 7  fragj: 15

>  <atom.prop.CHAIN_ID>  (206) 
A A A A A A A Z Z Z Z Z Z Z Z Z Z Z Z Z Z Z

>  <atom.prop.IS_HEAVY_ATOM>  (206) 
1 0 0 0 1 1 1 1 0 0 0 1 1 0 1 0 1 0 1 0 1 0

>  <DIFUSE_FUNC_ATOM>  (206) 
atom 6   atom 7   

>  <FINAL_SINGLE_POINT_ENERGY>  (206) 
0

>  <NONCOV_INTER_ENERGY_QM>  (206) 
0

>  <FF_Energy>  (206) 
7.67

>  <QM_Energy>  (206) 
1.56

>  <source>  (206) 
ACET_MBZ_00

>  <Index>  (206) 
7578

$$$$
ACET-pdb2dym-A-GLU-42:MBZ-pdb2dym-A-PHE-273
     RDKit          3D

 22 21  0  0  0  0  0  0  0  0999 V2000
    3.0304    4.1014   -3.0764 C   0  0  0  0  0  0  0  0  0  0  0  0
    3.7785    4.0019   -3.7063 H   0  0  0  0  0  0  0  0  0  0  0  0
    2.5838    4.9729   -3.1659 H   0  0  0  0  0  0  0  0  0  0  0  0
    2.3024    3.3159   -3.2788 H   0  0  0  0  0  0  0  0  0  0  0  0
    3.6171    4.0373   -1.6618 C   0  0  0  0  0  0  0  0  0  0  0  0
    4.2932    5.0144   -1.2579 O   0  0  0  0  0  1  0  0  0  0  0  0
    3.4084    3.0174   -0.9580 O   0  0  0  0  0  0  0  0  0  0  0  0
   -0.0142    2.9180   -0.0084 C   0  0  0  0  0  0  0  0  0  0  0  0
   -0.9289    3.2156   -0.2384 H   0  0  0  0  0  0  0  0  0  0  0  0
    0.6430    3.2272   -0.6801 H   0  0  0  0  0  0  0  0  0  0  0  0
    0.2512    3.3720    0.9464 H   0  0  0  0  0  0  0  0  0  0  0  0
   -0.0018    1.4118   -0.0018 C   0  0  0  0  0  0  0  0  0  0  0  0
   -1.2030    0.6958    0.0008 C   0  0  0  0  0  0  0  0  0  0  0  0
   -2.0700    1.1799    0.0020 H   0  0  0  0  0  0  0  0  0  0  0  0
   -1.2063   -0.7090   -0.0000 C   0  0  0  0  0  0  0  0  0  0  0  0
   -2.0789   -1.1996    0.0000 H   0  0  0  0  0  0  0  0  0  0  0  0
    0.0041   -1.4036    0.0012 C   0  0  0  0  0  0  0  0  0  0  0  0
    0.0035   -2.4001    0.0026 H   0  0  0  0  0  0  0  0  0  0  0  0
    1.2063   -0.6990    0.0000 C   0  0  0  0  0  0  0  0  0  0  0  0
    2.0892   -1.1907    0.0007 H   0  0  0  0  0  0  0  0  0  0  0  0
    1.2007    0.7040   -0.0002 C   0  0  0  0  0  0  0  0  0  0  0  0
    2.0672    1.1967   -0.0000 H   0  0  0  0  0  0  0  0  0  0  0  0
  1  5  1  0
  5  6  1  0
  5  7  2  0
  1  2  1  0
  1  3  1  0
  1  4  1  0
  8 12  1  0
 12 13  2  0
 13 15  1  0
 15 17  2  0
 17 19  1  0
 19 21  2  0
 21 12  1  0
  8  9  1  0
  8 10  1  0
  8 11  1  0
 13 14  1  0
 15 16  1  0
 17 18  1  0
 19 20  1  0
 21 22  1  0
M  CHG  1   6  -1
M  END
>  <PDB_ID>  (207) 
pdb2dym

>  <RESIDUE_NAME>  (207) 
GLU   PHE

>  <FRAG_NAME>  (207) 
ACET   MBZ

>  <FRAG_ATOM_NUM>  (207) 
fragi: 7  fragj: 15

>  <atom.prop.CHAIN_ID>  (207) 
A A A A A A A Z Z Z Z Z Z Z Z Z Z Z Z Z Z Z

>  <atom.prop.IS_HEAVY_ATOM>  (207) 
1 0 0 0 1 1 1 1 0 0 0 1 1 0 1 0 1 0 1 0 1 0

>  <DIFUSE_FUNC_ATOM>  (207) 
atom 6   atom 7   

>  <FINAL_SINGLE_POINT_ENERGY>  (207) 
0

>  <NONCOV_INTER_ENERGY_QM>  (207) 
0

>  <FF_Energy>  (207) 
-2.22

>  <QM_Energy>  (207) 
-7.49

>  <source>  (207) 
ACET_MBZ_00

>  <Index>  (207) 
7580

$$$$
ACET-pdb2dyp-B-GLU-69:MBZ-pdb2dyp-B-PHE-22
     RDKit          3D

 22 21  0  0  0  0  0  0  0  0999 V2000
   -2.9253   -1.7129   -2.4798 C   0  0  0  0  0  0  0  0  0  0  0  0
   -2.4335   -1.3257   -1.7205 H   0  0  0  0  0  0  0  0  0  0  0  0
   -3.8727   -1.8725   -2.2641 H   0  0  0  0  0  0  0  0  0  0  0  0
   -2.8694   -1.0212   -3.3204 H   0  0  0  0  0  0  0  0  0  0  0  0
   -2.2942   -3.0859   -2.7692 C   0  0  0  0  0  0  0  0  0  0  0  0
   -2.3126   -3.9510   -1.8596 O   0  0  0  0  0  1  0  0  0  0  0  0
   -1.7728   -3.3060   -3.8898 O   0  0  0  0  0  0  0  0  0  0  0  0
   -0.0017    2.8990    0.0059 C   0  0  0  0  0  0  0  0  0  0  0  0
    0.8703    3.2069    0.3600 H   0  0  0  0  0  0  0  0  0  0  0  0
   -0.7477    3.2052    0.5806 H   0  0  0  0  0  0  0  0  0  0  0  0
   -0.1366    3.3434   -0.9802 H   0  0  0  0  0  0  0  0  0  0  0  0
   -0.0013    1.4034    0.0011 C   0  0  0  0  0  0  0  0  0  0  0  0
   -1.1998    0.6957   -0.0014 C   0  0  0  0  0  0  0  0  0  0  0  0
   -2.0656    1.1857   -0.0050 H   0  0  0  0  0  0  0  0  0  0  0  0
   -1.2057   -0.6975   -0.0000 C   0  0  0  0  0  0  0  0  0  0  0  0
   -2.0795   -1.1913    0.0025 H   0  0  0  0  0  0  0  0  0  0  0  0
    0.0017   -1.3966    0.0001 C   0  0  0  0  0  0  0  0  0  0  0  0
   -0.0029   -2.3934   -0.0006 H   0  0  0  0  0  0  0  0  0  0  0  0
    1.2057   -0.6981    0.0000 C   0  0  0  0  0  0  0  0  0  0  0  0
    2.0856   -1.1958    0.0015 H   0  0  0  0  0  0  0  0  0  0  0  0
    1.1994    0.6931    0.0003 C   0  0  0  0  0  0  0  0  0  0  0  0
    2.0660    1.1913   -0.0003 H   0  0  0  0  0  0  0  0  0  0  0  0
  1  5  1  0
  5  6  1  0
  5  7  2  0
  1  2  1  0
  1  3  1  0
  1  4  1  0
  8 12  1  0
 12 13  2  0
 13 15  1  0
 15 17  2  0
 17 19  1  0
 19 21  2  0
 21 12  1  0
  8  9  1  0
  8 10  1  0
  8 11  1  0
 13 14  1  0
 15 16  1  0
 17 18  1  0
 19 20  1  0
 21 22  1  0
M  CHG  1   6  -1
M  END
>  <PDB_ID>  (208) 
pdb2dyp

>  <RESIDUE_NAME>  (208) 
GLU   PHE

>  <FRAG_NAME>  (208) 
ACET   MBZ

>  <FRAG_ATOM_NUM>  (208) 
fragi: 7  fragj: 15

>  <atom.prop.CHAIN_ID>  (208) 
A A A A A A A Z Z Z Z Z Z Z Z Z Z Z Z Z Z Z

>  <atom.prop.IS_HEAVY_ATOM>  (208) 
1 0 0 0 1 1 1 1 0 0 0 1 1 0 1 0 1 0 1 0 1 0

>  <DIFUSE_FUNC_ATOM>  (208) 
atom 6   atom 7   

>  <FINAL_SINGLE_POINT_ENERGY>  (208) 
0

>  <NONCOV_INTER_ENERGY_QM>  (208) 
0

>  <FF_Energy>  (208) 
7.92

>  <QM_Energy>  (208) 
0.5

>  <source>  (208) 
ACET_MBZ_00

>  <Index>  (208) 
7589

$$$$
ACET-pdb1dbv-O-ASP-104:MBZ-pdb1dbv-O-PHE-99
     RDKit          3D

 22 21  0  0  0  0  0  0  0  0999 V2000
   -3.6508    3.1763    0.4720 C   0  0  0  0  0  0  0  0  0  0  0  0
   -3.0523    3.9072    0.1606 H   0  0  0  0  0  0  0  0  0  0  0  0
   -3.1344    2.3359    0.5924 H   0  0  0  0  0  0  0  0  0  0  0  0
   -4.0540    3.4643    1.4428 H   0  0  0  0  0  0  0  0  0  0  0  0
   -4.7245    2.9427   -0.5816 C   0  0  0  0  0  0  0  0  0  0  0  0
   -5.8653    2.5799   -0.2202 O   0  0  0  0  0  1  0  0  0  0  0  0
   -4.4104    3.1068   -1.7864 O   0  0  0  0  0  0  0  0  0  0  0  0
   -0.0010    2.9062   -0.0854 C   0  0  0  0  0  0  0  0  0  0  0  0
    0.8939    3.2284    0.1781 H   0  0  0  0  0  0  0  0  0  0  0  0
   -0.7031    3.2441    0.5208 H   0  0  0  0  0  0  0  0  0  0  0  0
   -0.2121    3.2830   -1.0861 H   0  0  0  0  0  0  0  0  0  0  0  0
    0.0024    1.4057   -0.0012 C   0  0  0  0  0  0  0  0  0  0  0  0
   -1.1903    0.6941    0.0014 C   0  0  0  0  0  0  0  0  0  0  0  0
   -2.0597    1.1865    0.0033 H   0  0  0  0  0  0  0  0  0  0  0  0
   -1.2009   -0.6953    0.0000 C   0  0  0  0  0  0  0  0  0  0  0  0
   -2.0834   -1.1833    0.0037 H   0  0  0  0  0  0  0  0  0  0  0  0
   -0.0091   -1.3999   -0.0046 C   0  0  0  0  0  0  0  0  0  0  0  0
   -0.0140   -2.3956   -0.0115 H   0  0  0  0  0  0  0  0  0  0  0  0
    1.2009   -0.7048   -0.0000 C   0  0  0  0  0  0  0  0  0  0  0  0
    2.0787   -1.1992    0.0019 H   0  0  0  0  0  0  0  0  0  0  0  0
    1.1970    0.7001    0.0044 C   0  0  0  0  0  0  0  0  0  0  0  0
    2.0667    1.1888    0.0112 H   0  0  0  0  0  0  0  0  0  0  0  0
  1  5  1  0
  5  6  1  0
  5  7  2  0
  1  2  1  0
  1  3  1  0
  1  4  1  0
  8 12  1  0
 12 13  2  0
 13 15  1  0
 15 17  2  0
 17 19  1  0
 19 21  2  0
 21 12  1  0
  8  9  1  0
  8 10  1  0
  8 11  1  0
 13 14  1  0
 15 16  1  0
 17 18  1  0
 19 20  1  0
 21 22  1  0
M  CHG  1   6  -1
M  END
>  <PDB_ID>  (209) 
pdb1dbv

>  <RESIDUE_NAME>  (209) 
ASP   PHE

>  <FRAG_NAME>  (209) 
ACET   MBZ

>  <FRAG_ATOM_NUM>  (209) 
fragi: 7  fragj: 15

>  <atom.prop.CHAIN_ID>  (209) 
A A A A A A A Z Z Z Z Z Z Z Z Z Z Z Z Z Z Z

>  <atom.prop.IS_HEAVY_ATOM>  (209) 
1 0 0 0 1 1 1 1 0 0 0 1 1 0 1 0 1 0 1 0 1 0

>  <DIFUSE_FUNC_ATOM>  (209) 
atom 6   atom 7   

>  <FINAL_SINGLE_POINT_ENERGY>  (209) 
0

>  <NONCOV_INTER_ENERGY_QM>  (209) 
0

>  <FF_Energy>  (209) 
6.46

>  <QM_Energy>  (209) 
-1.37

>  <source>  (209) 
ACET_MBZ_00

>  <Index>  (209) 
7658

$$$$
ACET-pdb1dco-A-GLU-58:MBZ-pdb1dco-B-PHE-43
     RDKit          3D

 22 21  0  0  0  0  0  0  0  0999 V2000
    4.2703    1.5586   -0.5505 C   0  0  0  0  0  0  0  0  0  0  0  0
    3.4206    1.1280   -0.8303 H   0  0  0  0  0  0  0  0  0  0  0  0
    4.3944    1.4839    0.4312 H   0  0  0  0  0  0  0  0  0  0  0  0
    5.0853    1.0139   -1.0271 H   0  0  0  0  0  0  0  0  0  0  0  0
    4.1759    3.0347   -0.8939 C   0  0  0  0  0  0  0  0  0  0  0  0
    3.6272    3.4837   -1.9033 O   0  0  0  0  0  1  0  0  0  0  0  0
    4.7450    3.7828    0.0216 O   0  0  0  0  0  0  0  0  0  0  0  0
    0.0096    2.9101    0.0395 C   0  0  0  0  0  0  0  0  0  0  0  0
   -0.5037    3.2322   -0.7441 H   0  0  0  0  0  0  0  0  0  0  0  0
    0.9525    3.2084   -0.0059 H   0  0  0  0  0  0  0  0  0  0  0  0
   -0.4365    3.3433    0.9347 H   0  0  0  0  0  0  0  0  0  0  0  0
   -0.0013    1.4058    0.0127 C   0  0  0  0  0  0  0  0  0  0  0  0
   -1.2015    0.6920   -0.0199 C   0  0  0  0  0  0  0  0  0  0  0  0
   -2.0671    1.1845   -0.0593 H   0  0  0  0  0  0  0  0  0  0  0  0
   -1.2152   -0.7050   -0.0000 C   0  0  0  0  0  0  0  0  0  0  0  0
   -2.0800   -1.1979    0.0022 H   0  0  0  0  0  0  0  0  0  0  0  0
    0.0040   -1.3886    0.0189 C   0  0  0  0  0  0  0  0  0  0  0  0
    0.0018   -2.3927    0.0456 H   0  0  0  0  0  0  0  0  0  0  0  0
    1.2152   -0.6982   -0.0000 C   0  0  0  0  0  0  0  0  0  0  0  0
    2.0890   -1.1936   -0.0033 H   0  0  0  0  0  0  0  0  0  0  0  0
    1.1988    0.6939   -0.0116 C   0  0  0  0  0  0  0  0  0  0  0  0
    2.0662    1.1963   -0.0392 H   0  0  0  0  0  0  0  0  0  0  0  0
  1  5  1  0
  5  6  1  0
  5  7  2  0
  1  2  1  0
  1  3  1  0
  1  4  1  0
  8 12  1  0
 12 13  2  0
 13 15  1  0
 15 17  2  0
 17 19  1  0
 19 21  2  0
 21 12  1  0
  8  9  1  0
  8 10  1  0
  8 11  1  0
 13 14  1  0
 15 16  1  0
 17 18  1  0
 19 20  1  0
 21 22  1  0
M  CHG  1   6  -1
M  END
>  <PDB_ID>  (210) 
pdb1dco

>  <RESIDUE_NAME>  (210) 
GLU   PHE

>  <FRAG_NAME>  (210) 
ACET   MBZ

>  <FRAG_ATOM_NUM>  (210) 
fragi: 7  fragj: 15

>  <atom.prop.CHAIN_ID>  (210) 
A A A A A A A Z Z Z Z Z Z Z Z Z Z Z Z Z Z Z

>  <atom.prop.IS_HEAVY_ATOM>  (210) 
1 0 0 0 1 1 1 1 0 0 0 1 1 0 1 0 1 0 1 0 1 0

>  <DIFUSE_FUNC_ATOM>  (210) 
atom 6   atom 7   

>  <FINAL_SINGLE_POINT_ENERGY>  (210) 
0

>  <NONCOV_INTER_ENERGY_QM>  (210) 
0

>  <FF_Energy>  (210) 
-1.18

>  <QM_Energy>  (210) 
-0.22

>  <source>  (210) 
ACET_MBZ_00

>  <Index>  (210) 
7675

$$$$
ACET-pdb1dco-G-GLU-58:MBZ-pdb1dco-H-PHE-43
     RDKit          3D

 22 21  0  0  0  0  0  0  0  0999 V2000
    4.7617    1.3873   -0.3339 C   0  0  0  0  0  0  0  0  0  0  0  0
    4.0389    0.8512   -0.7340 H   0  0  0  0  0  0  0  0  0  0  0  0
    4.9280    1.1396    0.6044 H   0  0  0  0  0  0  0  0  0  0  0  0
    5.6734    1.1914   -0.8981 H   0  0  0  0  0  0  0  0  0  0  0  0
    4.3426    2.8335   -0.3664 C   0  0  0  0  0  0  0  0  0  0  0  0
    5.0047    3.7209    0.1468 O   0  0  0  0  0  1  0  0  0  0  0  0
    3.1858    3.0326   -0.9747 O   0  0  0  0  0  0  0  0  0  0  0  0
   -0.0075    2.8816    0.0479 C   0  0  0  0  0  0  0  0  0  0  0  0
   -0.5976    3.2157   -0.6581 H   0  0  0  0  0  0  0  0  0  0  0  0
    0.9124    3.2077   -0.0351 H   0  0  0  0  0  0  0  0  0  0  0  0
   -0.4008    3.2251    1.0047 H   0  0  0  0  0  0  0  0  0  0  0  0
    0.0085    1.3999   -0.0104 C   0  0  0  0  0  0  0  0  0  0  0  0
   -1.1968    0.7133    0.0117 C   0  0  0  0  0  0  0  0  0  0  0  0
   -2.0549    1.2085    0.0345 H   0  0  0  0  0  0  0  0  0  0  0  0
   -1.2099   -0.6802   -0.0000 C   0  0  0  0  0  0  0  0  0  0  0  0
   -2.0908   -1.1672    0.0017 H   0  0  0  0  0  0  0  0  0  0  0  0
   -0.0128   -1.3908   -0.0120 C   0  0  0  0  0  0  0  0  0  0  0  0
   -0.0318   -2.3925   -0.0301 H   0  0  0  0  0  0  0  0  0  0  0  0
    1.2099   -0.7187    0.0000 C   0  0  0  0  0  0  0  0  0  0  0  0
    2.0748   -1.2197    0.0025 H   0  0  0  0  0  0  0  0  0  0  0  0
    1.2012    0.6766    0.0107 C   0  0  0  0  0  0  0  0  0  0  0  0
    2.0750    1.1713    0.0331 H   0  0  0  0  0  0  0  0  0  0  0  0
  1  5  1  0
  5  6  1  0
  5  7  2  0
  1  2  1  0
  1  3  1  0
  1  4  1  0
  8 12  1  0
 12 13  2  0
 13 15  1  0
 15 17  2  0
 17 19  1  0
 19 21  2  0
 21 12  1  0
  8  9  1  0
  8 10  1  0
  8 11  1  0
 13 14  1  0
 15 16  1  0
 17 18  1  0
 19 20  1  0
 21 22  1  0
M  CHG  1   6  -1
M  END
>  <PDB_ID>  (211) 
pdb1dco

>  <RESIDUE_NAME>  (211) 
GLU   PHE

>  <FRAG_NAME>  (211) 
ACET   MBZ

>  <FRAG_ATOM_NUM>  (211) 
fragi: 7  fragj: 15

>  <atom.prop.CHAIN_ID>  (211) 
A A A A A A A Z Z Z Z Z Z Z Z Z Z Z Z Z Z Z

>  <atom.prop.IS_HEAVY_ATOM>  (211) 
1 0 0 0 1 1 1 1 0 0 0 1 1 0 1 0 1 0 1 0 1 0

>  <DIFUSE_FUNC_ATOM>  (211) 
atom 6   atom 7   

>  <FINAL_SINGLE_POINT_ENERGY>  (211) 
0

>  <NONCOV_INTER_ENERGY_QM>  (211) 
0

>  <FF_Energy>  (211) 
-0.88

>  <QM_Energy>  (211) 
-7.7

>  <source>  (211) 
ACET_MBZ_00

>  <Index>  (211) 
7680

$$$$
ACET-pdb1dd6-A-ASP-142:MBZ-pdb1dd6-A-PHE-78
     RDKit          3D

 22 21  0  0  0  0  0  0  0  0999 V2000
   -5.1438    3.1566    2.4505 C   0  0  0  0  0  0  0  0  0  0  0  0
   -5.1640    4.1370    2.5043 H   0  0  0  0  0  0  0  0  0  0  0  0
   -4.7356    2.7462    3.2428 H   0  0  0  0  0  0  0  0  0  0  0  0
   -6.1744    2.8071    2.3897 H   0  0  0  0  0  0  0  0  0  0  0  0
   -4.3394    2.7439    1.2055 C   0  0  0  0  0  0  0  0  0  0  0  0
   -4.5916    1.6311    0.6684 O   0  0  0  0  0  1  0  0  0  0  0  0
   -3.4328    3.4969    0.7565 O   0  0  0  0  0  0  0  0  0  0  0  0
    0.0012    2.9415    0.0128 C   0  0  0  0  0  0  0  0  0  0  0  0
    0.9171    3.2347    0.2460 H   0  0  0  0  0  0  0  0  0  0  0  0
   -0.6537    3.2389    0.6920 H   0  0  0  0  0  0  0  0  0  0  0  0
   -0.2672    3.4078   -0.9352 H   0  0  0  0  0  0  0  0  0  0  0  0
   -0.0067    1.4191   -0.0006 C   0  0  0  0  0  0  0  0  0  0  0  0
   -1.2112    0.6877   -0.0014 C   0  0  0  0  0  0  0  0  0  0  0  0
   -2.0792    1.1809   -0.0041 H   0  0  0  0  0  0  0  0  0  0  0  0
   -1.2219   -0.7106    0.0000 C   0  0  0  0  0  0  0  0  0  0  0  0
   -2.0814   -1.2108    0.0014 H   0  0  0  0  0  0  0  0  0  0  0  0
    0.0138   -1.4132    0.0013 C   0  0  0  0  0  0  0  0  0  0  0  0
    0.0082   -2.4050    0.0030 H   0  0  0  0  0  0  0  0  0  0  0  0
    1.2219   -0.7027   -0.0000 C   0  0  0  0  0  0  0  0  0  0  0  0
    2.1033   -1.1817   -0.0002 H   0  0  0  0  0  0  0  0  0  0  0  0
    1.2041    0.7198    0.0008 C   0  0  0  0  0  0  0  0  0  0  0  0
    2.0665    1.2109    0.0019 H   0  0  0  0  0  0  0  0  0  0  0  0
  1  5  1  0
  5  6  1  0
  5  7  2  0
  1  2  1  0
  1  3  1  0
  1  4  1  0
  8 12  1  0
 12 13  2  0
 13 15  1  0
 15 17  2  0
 17 19  1  0
 19 21  2  0
 21 12  1  0
  8  9  1  0
  8 10  1  0
  8 11  1  0
 13 14  1  0
 15 16  1  0
 17 18  1  0
 19 20  1  0
 21 22  1  0
M  CHG  1   6  -1
M  END
>  <PDB_ID>  (212) 
pdb1dd6

>  <RESIDUE_NAME>  (212) 
ASP   PHE

>  <FRAG_NAME>  (212) 
ACET   MBZ

>  <FRAG_ATOM_NUM>  (212) 
fragi: 7  fragj: 15

>  <atom.prop.CHAIN_ID>  (212) 
A A A A A A A Z Z Z Z Z Z Z Z Z Z Z Z Z Z Z

>  <atom.prop.IS_HEAVY_ATOM>  (212) 
1 0 0 0 1 1 1 1 0 0 0 1 1 0 1 0 1 0 1 0 1 0

>  <DIFUSE_FUNC_ATOM>  (212) 
atom 6   atom 7   

>  <FINAL_SINGLE_POINT_ENERGY>  (212) 
0

>  <NONCOV_INTER_ENERGY_QM>  (212) 
0

>  <FF_Energy>  (212) 
-3.04

>  <QM_Energy>  (212) 
-9.09

>  <source>  (212) 
ACET_MBZ_00

>  <Index>  (212) 
7695

$$$$
ACET-pdb2e28-A-ASP-178:MBZ-pdb2e28-A-PHE-36
     RDKit          3D

 22 21  0  0  0  0  0  0  0  0999 V2000
    3.7594    1.3293   -2.3128 C   0  0  0  0  0  0  0  0  0  0  0  0
    4.0340    1.9684   -3.0213 H   0  0  0  0  0  0  0  0  0  0  0  0
    2.7992    1.0975   -2.4026 H   0  0  0  0  0  0  0  0  0  0  0  0
    4.3435    0.4168   -2.4326 H   0  0  0  0  0  0  0  0  0  0  0  0
    3.9742    1.9901   -0.9548 C   0  0  0  0  0  0  0  0  0  0  0  0
    3.5161    3.1397   -0.7824 O   0  0  0  0  0  1  0  0  0  0  0  0
    4.5876    1.3604   -0.0605 O   0  0  0  0  0  0  0  0  0  0  0  0
   -0.0045    2.9055    0.0452 C   0  0  0  0  0  0  0  0  0  0  0  0
   -0.3752    3.2356   -0.8080 H   0  0  0  0  0  0  0  0  0  0  0  0
    0.9246    3.2101    0.1814 H   0  0  0  0  0  0  0  0  0  0  0  0
   -0.6116    3.3132    0.8534 H   0  0  0  0  0  0  0  0  0  0  0  0
   -0.0000    1.4020    0.0011 C   0  0  0  0  0  0  0  0  0  0  0  0
   -1.1965    0.6900   -0.0015 C   0  0  0  0  0  0  0  0  0  0  0  0
   -2.0636    1.1818   -0.0058 H   0  0  0  0  0  0  0  0  0  0  0  0
   -1.2031   -0.6985   -0.0000 C   0  0  0  0  0  0  0  0  0  0  0  0
   -2.0798   -1.1921    0.0018 H   0  0  0  0  0  0  0  0  0  0  0  0
   -0.0021   -1.3948    0.0011 C   0  0  0  0  0  0  0  0  0  0  0  0
   -0.0034   -2.3922    0.0022 H   0  0  0  0  0  0  0  0  0  0  0  0
    1.2031   -0.6949   -0.0000 C   0  0  0  0  0  0  0  0  0  0  0  0
    2.0829   -1.1944    0.0010 H   0  0  0  0  0  0  0  0  0  0  0  0
    1.1986    0.6962   -0.0007 C   0  0  0  0  0  0  0  0  0  0  0  0
    2.0652    1.1933   -0.0035 H   0  0  0  0  0  0  0  0  0  0  0  0
  1  5  1  0
  5  6  1  0
  5  7  2  0
  1  2  1  0
  1  3  1  0
  1  4  1  0
  8 12  1  0
 12 13  2  0
 13 15  1  0
 15 17  2  0
 17 19  1  0
 19 21  2  0
 21 12  1  0
  8  9  1  0
  8 10  1  0
  8 11  1  0
 13 14  1  0
 15 16  1  0
 17 18  1  0
 19 20  1  0
 21 22  1  0
M  CHG  1   6  -1
M  END
>  <PDB_ID>  (213) 
pdb2e28

>  <RESIDUE_NAME>  (213) 
ASP   PHE

>  <FRAG_NAME>  (213) 
ACET   MBZ

>  <FRAG_ATOM_NUM>  (213) 
fragi: 7  fragj: 15

>  <atom.prop.CHAIN_ID>  (213) 
A A A A A A A Z Z Z Z Z Z Z Z Z Z Z Z Z Z Z

>  <atom.prop.IS_HEAVY_ATOM>  (213) 
1 0 0 0 1 1 1 1 0 0 0 1 1 0 1 0 1 0 1 0 1 0

>  <DIFUSE_FUNC_ATOM>  (213) 
atom 6   atom 7   

>  <FINAL_SINGLE_POINT_ENERGY>  (213) 
0

>  <NONCOV_INTER_ENERGY_QM>  (213) 
0

>  <FF_Energy>  (213) 
1.28

>  <QM_Energy>  (213) 
-7.72

>  <source>  (213) 
ACET_MBZ_00

>  <Index>  (213) 
7704

$$$$
ACET-pdb2e28-A-ASP-573:MBZ-pdb2e28-A-PHE-576
     RDKit          3D

 22 21  0  0  0  0  0  0  0  0999 V2000
   -4.4967    5.0966    1.5177 C   0  0  0  0  0  0  0  0  0  0  0  0
   -5.3576    5.0232    1.0241 H   0  0  0  0  0  0  0  0  0  0  0  0
   -3.9427    5.8294    1.1373 H   0  0  0  0  0  0  0  0  0  0  0  0
   -4.7233    5.3490    2.5535 H   0  0  0  0  0  0  0  0  0  0  0  0
   -3.7467    3.7975    1.3898 C   0  0  0  0  0  0  0  0  0  0  0  0
   -3.7104    3.0304    2.3833 O   0  0  0  0  0  1  0  0  0  0  0  0
   -3.2030    3.5432    0.2922 O   0  0  0  0  0  0  0  0  0  0  0  0
    0.0059    2.9198    0.0738 C   0  0  0  0  0  0  0  0  0  0  0  0
   -0.8822    3.2138    0.3798 H   0  0  0  0  0  0  0  0  0  0  0  0
    0.2214    3.2650   -0.8230 H   0  0  0  0  0  0  0  0  0  0  0  0
    0.7463    3.3130    0.7704 H   0  0  0  0  0  0  0  0  0  0  0  0
   -0.0021    1.4083    0.0015 C   0  0  0  0  0  0  0  0  0  0  0  0
   -1.1990    0.7025   -0.0025 C   0  0  0  0  0  0  0  0  0  0  0  0
   -2.0664    1.1897   -0.0082 H   0  0  0  0  0  0  0  0  0  0  0  0
   -1.2067   -0.6979   -0.0000 C   0  0  0  0  0  0  0  0  0  0  0  0
   -2.0809   -1.1880    0.0007 H   0  0  0  0  0  0  0  0  0  0  0  0
    0.0023   -1.4014    0.0028 C   0  0  0  0  0  0  0  0  0  0  0  0
   -0.0054   -2.3971    0.0057 H   0  0  0  0  0  0  0  0  0  0  0  0
    1.2067   -0.7032   -0.0000 C   0  0  0  0  0  0  0  0  0  0  0  0
    2.0867   -1.1988    0.0011 H   0  0  0  0  0  0  0  0  0  0  0  0
    1.1988    0.6917   -0.0018 C   0  0  0  0  0  0  0  0  0  0  0  0
    2.0666    1.1893   -0.0058 H   0  0  0  0  0  0  0  0  0  0  0  0
  1  5  1  0
  5  6  1  0
  5  7  2  0
  1  2  1  0
  1  3  1  0
  1  4  1  0
  8 12  1  0
 12 13  2  0
 13 15  1  0
 15 17  2  0
 17 19  1  0
 19 21  2  0
 21 12  1  0
  8  9  1  0
  8 10  1  0
  8 11  1  0
 13 14  1  0
 15 16  1  0
 17 18  1  0
 19 20  1  0
 21 22  1  0
M  CHG  1   6  -1
M  END
>  <PDB_ID>  (214) 
pdb2e28

>  <RESIDUE_NAME>  (214) 
ASP   PHE

>  <FRAG_NAME>  (214) 
ACET   MBZ

>  <FRAG_ATOM_NUM>  (214) 
fragi: 7  fragj: 15

>  <atom.prop.CHAIN_ID>  (214) 
A A A A A A A Z Z Z Z Z Z Z Z Z Z Z Z Z Z Z

>  <atom.prop.IS_HEAVY_ATOM>  (214) 
1 0 0 0 1 1 1 1 0 0 0 1 1 0 1 0 1 0 1 0 1 0

>  <DIFUSE_FUNC_ATOM>  (214) 
atom 6   atom 7   

>  <FINAL_SINGLE_POINT_ENERGY>  (214) 
0

>  <NONCOV_INTER_ENERGY_QM>  (214) 
0

>  <FF_Energy>  (214) 
-1.56

>  <QM_Energy>  (214) 
-8.23

>  <source>  (214) 
ACET_MBZ_00

>  <Index>  (214) 
7706

$$$$
ACET-pdb1d8w-B-GLU-275:MBZ-pdb1d8w-B-PHE-271
     RDKit          3D

 22 21  0  0  0  0  0  0  0  0999 V2000
    1.9825    3.5271   -2.8417 C   0  0  0  0  0  0  0  0  0  0  0  0
    1.1881    2.9741   -2.7530 H   0  0  0  0  0  0  0  0  0  0  0  0
    2.4014    3.4827   -3.7184 H   0  0  0  0  0  0  0  0  0  0  0  0
    1.6895    4.5616   -2.6627 H   0  0  0  0  0  0  0  0  0  0  0  0
    2.9971    3.0651   -1.8105 C   0  0  0  0  0  0  0  0  0  0  0  0
    3.2021    3.6725   -0.7598 O   0  0  0  0  0  1  0  0  0  0  0  0
    3.6364    1.9680   -2.1438 O   0  0  0  0  0  0  0  0  0  0  0  0
   -0.0453    2.9412    0.0206 C   0  0  0  0  0  0  0  0  0  0  0  0
   -0.8367    3.2313   -0.4486 H   0  0  0  0  0  0  0  0  0  0  0  0
    0.7918    3.2710   -0.3280 H   0  0  0  0  0  0  0  0  0  0  0  0
   -0.1301    3.2891    1.0500 H   0  0  0  0  0  0  0  0  0  0  0  0
   -0.0057    1.4082   -0.0073 C   0  0  0  0  0  0  0  0  0  0  0  0
   -1.2126    0.6895   -0.0031 C   0  0  0  0  0  0  0  0  0  0  0  0
   -2.0765    1.1791   -0.0035 H   0  0  0  0  0  0  0  0  0  0  0  0
   -1.2201   -0.7135   -0.0000 C   0  0  0  0  0  0  0  0  0  0  0  0
   -2.0824   -1.2087    0.0058 H   0  0  0  0  0  0  0  0  0  0  0  0
    0.0050   -1.3975   -0.0041 C   0  0  0  0  0  0  0  0  0  0  0  0
    0.0088   -2.3981   -0.0106 H   0  0  0  0  0  0  0  0  0  0  0  0
    1.2201   -0.6952    0.0000 C   0  0  0  0  0  0  0  0  0  0  0  0
    2.0959   -1.1903   -0.0063 H   0  0  0  0  0  0  0  0  0  0  0  0
    1.2132    0.7086    0.0145 C   0  0  0  0  0  0  0  0  0  0  0  0
    2.0688    1.2075    0.0389 H   0  0  0  0  0  0  0  0  0  0  0  0
  1  5  1  0
  5  6  1  0
  5  7  2  0
  1  2  1  0
  1  3  1  0
  1  4  1  0
  8 12  1  0
 12 13  2  0
 13 15  1  0
 15 17  2  0
 17 19  1  0
 19 21  2  0
 21 12  1  0
  8  9  1  0
  8 10  1  0
  8 11  1  0
 13 14  1  0
 15 16  1  0
 17 18  1  0
 19 20  1  0
 21 22  1  0
M  CHG  1   6  -1
M  END
>  <PDB_ID>  (215) 
pdb1d8w

>  <RESIDUE_NAME>  (215) 
GLU   PHE

>  <FRAG_NAME>  (215) 
ACET   MBZ

>  <FRAG_ATOM_NUM>  (215) 
fragi: 7  fragj: 15

>  <atom.prop.CHAIN_ID>  (215) 
A A A A A A A Z Z Z Z Z Z Z Z Z Z Z Z Z Z Z

>  <atom.prop.IS_HEAVY_ATOM>  (215) 
1 0 0 0 1 1 1 1 0 0 0 1 1 0 1 0 1 0 1 0 1 0

>  <DIFUSE_FUNC_ATOM>  (215) 
atom 6   atom 7   

>  <FINAL_SINGLE_POINT_ENERGY>  (215) 
0

>  <NONCOV_INTER_ENERGY_QM>  (215) 
0

>  <FF_Energy>  (215) 
-1.68

>  <QM_Energy>  (215) 
-7.79

>  <source>  (215) 
ACET_MBZ_00

>  <Index>  (215) 
7741

$$$$
ACET-pdb1dbv-P-GLU-94:MBZ-pdb1dbv-P-PHE-99
     RDKit          3D

 22 21  0  0  0  0  0  0  0  0999 V2000
    3.9314    4.3867   -0.3879 C   0  0  0  0  0  0  0  0  0  0  0  0
    3.2341    4.6335    0.2573 H   0  0  0  0  0  0  0  0  0  0  0  0
    3.7511    4.7376   -1.2870 H   0  0  0  0  0  0  0  0  0  0  0  0
    4.8760    4.8071   -0.0426 H   0  0  0  0  0  0  0  0  0  0  0  0
    3.9472    2.8593   -0.4859 C   0  0  0  0  0  0  0  0  0  0  0  0
    4.2000    2.1863    0.5425 O   0  0  0  0  0  1  0  0  0  0  0  0
    3.7313    2.3340   -1.6044 O   0  0  0  0  0  0  0  0  0  0  0  0
    0.0024    2.9083   -0.0234 C   0  0  0  0  0  0  0  0  0  0  0  0
    0.9427    3.2128   -0.0469 H   0  0  0  0  0  0  0  0  0  0  0  0
   -0.4582    3.2277    0.7917 H   0  0  0  0  0  0  0  0  0  0  0  0
   -0.5085    3.3392   -0.8846 H   0  0  0  0  0  0  0  0  0  0  0  0
    0.0010    1.4051   -0.0008 C   0  0  0  0  0  0  0  0  0  0  0  0
   -1.1994    0.6918    0.0005 C   0  0  0  0  0  0  0  0  0  0  0  0
   -2.0666    1.1781    0.0003 H   0  0  0  0  0  0  0  0  0  0  0  0
   -1.2046   -0.7110   -0.0000 C   0  0  0  0  0  0  0  0  0  0  0  0
   -2.0764   -1.2011    0.0015 H   0  0  0  0  0  0  0  0  0  0  0  0
    0.0052   -1.4002   -0.0004 C   0  0  0  0  0  0  0  0  0  0  0  0
    0.0110   -2.3957   -0.0018 H   0  0  0  0  0  0  0  0  0  0  0  0
    1.2046   -0.6879    0.0000 C   0  0  0  0  0  0  0  0  0  0  0  0
    2.0895   -1.1825    0.0014 H   0  0  0  0  0  0  0  0  0  0  0  0
    1.1933    0.7021    0.0008 C   0  0  0  0  0  0  0  0  0  0  0  0
    2.0630    1.1999    0.0018 H   0  0  0  0  0  0  0  0  0  0  0  0
  1  5  1  0
  5  6  1  0
  5  7  2  0
  1  2  1  0
  1  3  1  0
  1  4  1  0
  8 12  1  0
 12 13  2  0
 13 15  1  0
 15 17  2  0
 17 19  1  0
 19 21  2  0
 21 12  1  0
  8  9  1  0
  8 10  1  0
  8 11  1  0
 13 14  1  0
 15 16  1  0
 17 18  1  0
 19 20  1  0
 21 22  1  0
M  CHG  1   6  -1
M  END
>  <PDB_ID>  (216) 
pdb1dbv

>  <RESIDUE_NAME>  (216) 
GLU   PHE

>  <FRAG_NAME>  (216) 
ACET   MBZ

>  <FRAG_ATOM_NUM>  (216) 
fragi: 7  fragj: 15

>  <atom.prop.CHAIN_ID>  (216) 
A A A A A A A Z Z Z Z Z Z Z Z Z Z Z Z Z Z Z

>  <atom.prop.IS_HEAVY_ATOM>  (216) 
1 0 0 0 1 1 1 1 0 0 0 1 1 0 1 0 1 0 1 0 1 0

>  <DIFUSE_FUNC_ATOM>  (216) 
atom 6   atom 7   

>  <FINAL_SINGLE_POINT_ENERGY>  (216) 
0

>  <NONCOV_INTER_ENERGY_QM>  (216) 
0

>  <FF_Energy>  (216) 
-1.75

>  <QM_Energy>  (216) 
-7.77

>  <source>  (216) 
ACET_MBZ_00

>  <Index>  (216) 
7743

$$$$
ACET-pdb1ddz-B-ASP-151:MBZ-pdb1ddz-B-PHE-422
     RDKit          3D

 22 21  0  0  0  0  0  0  0  0999 V2000
   -4.2712   -1.2427    1.1438 C   0  0  0  0  0  0  0  0  0  0  0  0
   -5.2356   -1.0440    0.9991 H   0  0  0  0  0  0  0  0  0  0  0  0
   -3.7349   -0.9264    0.3682 H   0  0  0  0  0  0  0  0  0  0  0  0
   -3.9483   -0.6777    2.0182 H   0  0  0  0  0  0  0  0  0  0  0  0
   -4.0936   -2.7432    1.2892 C   0  0  0  0  0  0  0  0  0  0  0  0
   -3.1126   -3.2691    0.7406 O   0  0  0  0  0  1  0  0  0  0  0  0
   -4.8846   -3.4129    1.9906 O   0  0  0  0  0  0  0  0  0  0  0  0
    0.0119    2.9015   -0.0163 C   0  0  0  0  0  0  0  0  0  0  0  0
   -0.5261    3.2062   -0.7904 H   0  0  0  0  0  0  0  0  0  0  0  0
    0.9517    3.2053   -0.0967 H   0  0  0  0  0  0  0  0  0  0  0  0
   -0.4067    3.3662    0.8764 H   0  0  0  0  0  0  0  0  0  0  0  0
    0.0022    1.4039    0.0007 C   0  0  0  0  0  0  0  0  0  0  0  0
   -1.1972    0.7029   -0.0005 C   0  0  0  0  0  0  0  0  0  0  0  0
   -2.0618    1.1922   -0.0030 H   0  0  0  0  0  0  0  0  0  0  0  0
   -1.2028   -0.6912    0.0000 C   0  0  0  0  0  0  0  0  0  0  0  0
   -2.0824   -1.1822    0.0017 H   0  0  0  0  0  0  0  0  0  0  0  0
   -0.0032   -1.3972    0.0005 C   0  0  0  0  0  0  0  0  0  0  0  0
   -0.0149   -2.3958    0.0007 H   0  0  0  0  0  0  0  0  0  0  0  0
    1.2028   -0.7086   -0.0000 C   0  0  0  0  0  0  0  0  0  0  0  0
    2.0803   -1.2044    0.0015 H   0  0  0  0  0  0  0  0  0  0  0  0
    1.1982    0.6902   -0.0007 C   0  0  0  0  0  0  0  0  0  0  0  0
    2.0680    1.1822   -0.0030 H   0  0  0  0  0  0  0  0  0  0  0  0
  1  5  1  0
  5  6  1  0
  5  7  2  0
  1  2  1  0
  1  3  1  0
  1  4  1  0
  8 12  1  0
 12 13  2  0
 13 15  1  0
 15 17  2  0
 17 19  1  0
 19 21  2  0
 21 12  1  0
  8  9  1  0
  8 10  1  0
  8 11  1  0
 13 14  1  0
 15 16  1  0
 17 18  1  0
 19 20  1  0
 21 22  1  0
M  CHG  1   6  -1
M  END
>  <PDB_ID>  (217) 
pdb1ddz

>  <RESIDUE_NAME>  (217) 
ASP   PHE

>  <FRAG_NAME>  (217) 
ACET   MBZ

>  <FRAG_ATOM_NUM>  (217) 
fragi: 7  fragj: 15

>  <atom.prop.CHAIN_ID>  (217) 
A A A A A A A Z Z Z Z Z Z Z Z Z Z Z Z Z Z Z

>  <atom.prop.IS_HEAVY_ATOM>  (217) 
1 0 0 0 1 1 1 1 0 0 0 1 1 0 1 0 1 0 1 0 1 0

>  <DIFUSE_FUNC_ATOM>  (217) 
atom 6   atom 7   

>  <FINAL_SINGLE_POINT_ENERGY>  (217) 
0

>  <NONCOV_INTER_ENERGY_QM>  (217) 
0

>  <FF_Energy>  (217) 
5.5

>  <QM_Energy>  (217) 
-3.19

>  <source>  (217) 
ACET_MBZ_00

>  <Index>  (217) 
7755

$$$$
ACET-pdb1dek-B-GLU-84:MBZ-pdb1dek-B-PHE-115
     RDKit          3D

 22 21  0  0  0  0  0  0  0  0999 V2000
    5.2379   -0.5799   -0.9843 C   0  0  0  0  0  0  0  0  0  0  0  0
    6.0578   -1.1208   -0.9783 H   0  0  0  0  0  0  0  0  0  0  0  0
    5.4247    0.3801   -1.0790 H   0  0  0  0  0  0  0  0  0  0  0  0
    4.6418   -0.8898   -1.8426 H   0  0  0  0  0  0  0  0  0  0  0  0
    4.5281   -0.7913    0.3306 C   0  0  0  0  0  0  0  0  0  0  0  0
    4.1166   -1.9458    0.6008 O   0  0  0  0  0  1  0  0  0  0  0  0
    4.3878    0.1907    1.0981 O   0  0  0  0  0  0  0  0  0  0  0  0
    0.0203    2.8932   -0.0330 C   0  0  0  0  0  0  0  0  0  0  0  0
    0.8605    3.1948    0.3074 H   0  0  0  0  0  0  0  0  0  0  0  0
   -0.7695    3.2137    0.3989 H   0  0  0  0  0  0  0  0  0  0  0  0
   -0.0362    3.1599   -1.0884 H   0  0  0  0  0  0  0  0  0  0  0  0
    0.0062    1.3759    0.0167 C   0  0  0  0  0  0  0  0  0  0  0  0
   -1.2011    0.7002   -0.0101 C   0  0  0  0  0  0  0  0  0  0  0  0
   -2.0543    1.1962   -0.0378 H   0  0  0  0  0  0  0  0  0  0  0  0
   -1.1995   -0.6805    0.0000 C   0  0  0  0  0  0  0  0  0  0  0  0
   -2.0780   -1.1805    0.0135 H   0  0  0  0  0  0  0  0  0  0  0  0
   -0.0021   -1.3804   -0.0067 C   0  0  0  0  0  0  0  0  0  0  0  0
   -0.0148   -2.3829   -0.0168 H   0  0  0  0  0  0  0  0  0  0  0  0
    1.1995   -0.6990   -0.0000 C   0  0  0  0  0  0  0  0  0  0  0  0
    2.0770   -1.2016    0.0066 H   0  0  0  0  0  0  0  0  0  0  0  0
    1.1970    0.6838    0.0001 C   0  0  0  0  0  0  0  0  0  0  0  0
    2.0638    1.1807   -0.0128 H   0  0  0  0  0  0  0  0  0  0  0  0
  1  5  1  0
  5  6  1  0
  5  7  2  0
  1  2  1  0
  1  3  1  0
  1  4  1  0
  8 12  1  0
 12 13  2  0
 13 15  1  0
 15 17  2  0
 17 19  1  0
 19 21  2  0
 21 12  1  0
  8  9  1  0
  8 10  1  0
  8 11  1  0
 13 14  1  0
 15 16  1  0
 17 18  1  0
 19 20  1  0
 21 22  1  0
M  CHG  1   6  -1
M  END
>  <PDB_ID>  (218) 
pdb1dek

>  <RESIDUE_NAME>  (218) 
GLU   PHE

>  <FRAG_NAME>  (218) 
ACET   MBZ

>  <FRAG_ATOM_NUM>  (218) 
fragi: 7  fragj: 15

>  <atom.prop.CHAIN_ID>  (218) 
A A A A A A A Z Z Z Z Z Z Z Z Z Z Z Z Z Z Z

>  <atom.prop.IS_HEAVY_ATOM>  (218) 
1 0 0 0 1 1 1 1 0 0 0 1 1 0 1 0 1 0 1 0 1 0

>  <DIFUSE_FUNC_ATOM>  (218) 
atom 6   atom 7   

>  <FINAL_SINGLE_POINT_ENERGY>  (218) 
0

>  <NONCOV_INTER_ENERGY_QM>  (218) 
0

>  <FF_Energy>  (218) 
-0.87

>  <QM_Energy>  (218) 
-7.07

>  <source>  (218) 
ACET_MBZ_00

>  <Index>  (218) 
7783

$$$$
ACET-pdb1dej-A-ASP-1:MBZ-pdb1dej-A-PHE-21
     RDKit          3D

 22 21  0  0  0  0  0  0  0  0999 V2000
   -0.6887    0.9380    3.2451 C   0  0  0  0  0  0  0  0  0  0  0  0
    0.2764    0.8590    3.4560 H   0  0  0  0  0  0  0  0  0  0  0  0
   -0.8489    0.8369    2.2735 H   0  0  0  0  0  0  0  0  0  0  0  0
   -1.2143    0.1343    3.7608 H   0  0  0  0  0  0  0  0  0  0  0  0
   -1.1686    2.3247    3.6767 C   0  0  0  0  0  0  0  0  0  0  0  0
   -0.4904    3.0037    4.5386 O   0  0  0  0  0  1  0  0  0  0  0  0
   -2.2556    2.8139    3.1809 O   0  0  0  0  0  0  0  0  0  0  0  0
   -0.0727    2.8986   -0.0495 C   0  0  0  0  0  0  0  0  0  0  0  0
    0.6611    3.2603    0.4857 H   0  0  0  0  0  0  0  0  0  0  0  0
   -0.9549    3.1756    0.2708 H   0  0  0  0  0  0  0  0  0  0  0  0
    0.0426    3.2790   -1.0644 H   0  0  0  0  0  0  0  0  0  0  0  0
    0.0009    1.3994   -0.0077 C   0  0  0  0  0  0  0  0  0  0  0  0
   -1.1893    0.6784    0.0034 C   0  0  0  0  0  0  0  0  0  0  0  0
   -2.0615    1.1692    0.0128 H   0  0  0  0  0  0  0  0  0  0  0  0
   -1.1979   -0.7099    0.0000 C   0  0  0  0  0  0  0  0  0  0  0  0
   -2.0708   -1.2020    0.0102 H   0  0  0  0  0  0  0  0  0  0  0  0
    0.0025   -1.3854   -0.0156 C   0  0  0  0  0  0  0  0  0  0  0  0
    0.0118   -2.3886   -0.0386 H   0  0  0  0  0  0  0  0  0  0  0  0
    1.1979   -0.6836   -0.0000 C   0  0  0  0  0  0  0  0  0  0  0  0
    2.0819   -1.1789   -0.0019 H   0  0  0  0  0  0  0  0  0  0  0  0
    1.1859    0.7011    0.0199 C   0  0  0  0  0  0  0  0  0  0  0  0
    2.0577    1.1993    0.0547 H   0  0  0  0  0  0  0  0  0  0  0  0
  1  5  1  0
  5  6  1  0
  5  7  2  0
  1  2  1  0
  1  3  1  0
  1  4  1  0
  8 12  1  0
 12 13  2  0
 13 15  1  0
 15 17  2  0
 17 19  1  0
 19 21  2  0
 21 12  1  0
  8  9  1  0
  8 10  1  0
  8 11  1  0
 13 14  1  0
 15 16  1  0
 17 18  1  0
 19 20  1  0
 21 22  1  0
M  CHG  1   6  -1
M  END
>  <PDB_ID>  (219) 
pdb1dej

>  <RESIDUE_NAME>  (219) 
ASP   PHE

>  <FRAG_NAME>  (219) 
ACET   MBZ

>  <FRAG_ATOM_NUM>  (219) 
fragi: 7  fragj: 15

>  <atom.prop.CHAIN_ID>  (219) 
A A A A A A A Z Z Z Z Z Z Z Z Z Z Z Z Z Z Z

>  <atom.prop.IS_HEAVY_ATOM>  (219) 
1 0 0 0 1 1 1 1 0 0 0 1 1 0 1 0 1 0 1 0 1 0

>  <DIFUSE_FUNC_ATOM>  (219) 
atom 6   atom 7   

>  <FINAL_SINGLE_POINT_ENERGY>  (219) 
0

>  <NONCOV_INTER_ENERGY_QM>  (219) 
0

>  <FF_Energy>  (219) 
3.18

>  <QM_Energy>  (219) 
-2.01

>  <source>  (219) 
ACET_MBZ_00

>  <Index>  (219) 
7784

$$$$
ACET-pdb1dbv-Q-GLU-94:MBZ-pdb1dbv-Q-PHE-99
     RDKit          3D

 22 21  0  0  0  0  0  0  0  0999 V2000
    3.7771    4.5998    0.0408 C   0  0  0  0  0  0  0  0  0  0  0  0
    3.1317    4.6769    0.7795 H   0  0  0  0  0  0  0  0  0  0  0  0
    3.4757    5.0774   -0.7648 H   0  0  0  0  0  0  0  0  0  0  0  0
    4.7232    5.0334    0.3648 H   0  0  0  0  0  0  0  0  0  0  0  0
    3.8953    3.1357   -0.3133 C   0  0  0  0  0  0  0  0  0  0  0  0
    4.0918    2.3120    0.5995 O   0  0  0  0  0  1  0  0  0  0  0  0
    3.8023    2.8064   -1.5190 O   0  0  0  0  0  0  0  0  0  0  0  0
    0.0052    2.8942   -0.0415 C   0  0  0  0  0  0  0  0  0  0  0  0
    0.9443    3.2003   -0.0666 H   0  0  0  0  0  0  0  0  0  0  0  0
   -0.4614    3.2265    0.7645 H   0  0  0  0  0  0  0  0  0  0  0  0
   -0.5025    3.3083   -0.9126 H   0  0  0  0  0  0  0  0  0  0  0  0
    0.0025    1.3976   -0.0009 C   0  0  0  0  0  0  0  0  0  0  0  0
   -1.1933    0.6915    0.0011 C   0  0  0  0  0  0  0  0  0  0  0  0
   -2.0599    1.1822    0.0020 H   0  0  0  0  0  0  0  0  0  0  0  0
   -1.1989   -0.6979   -0.0000 C   0  0  0  0  0  0  0  0  0  0  0  0
   -2.0766   -1.1900    0.0018 H   0  0  0  0  0  0  0  0  0  0  0  0
   -0.0026   -1.3889   -0.0017 C   0  0  0  0  0  0  0  0  0  0  0  0
   -0.0029   -2.3896   -0.0042 H   0  0  0  0  0  0  0  0  0  0  0  0
    1.1989   -0.6938    0.0000 C   0  0  0  0  0  0  0  0  0  0  0  0
    2.0789   -1.1937    0.0011 H   0  0  0  0  0  0  0  0  0  0  0  0
    1.1934    0.6916    0.0014 C   0  0  0  0  0  0  0  0  0  0  0  0
    2.0639    1.1891    0.0036 H   0  0  0  0  0  0  0  0  0  0  0  0
  1  5  1  0
  5  6  1  0
  5  7  2  0
  1  2  1  0
  1  3  1  0
  1  4  1  0
  8 12  1  0
 12 13  2  0
 13 15  1  0
 15 17  2  0
 17 19  1  0
 19 21  2  0
 21 12  1  0
  8  9  1  0
  8 10  1  0
  8 11  1  0
 13 14  1  0
 15 16  1  0
 17 18  1  0
 19 20  1  0
 21 22  1  0
M  CHG  1   6  -1
M  END
>  <PDB_ID>  (220) 
pdb1dbv

>  <RESIDUE_NAME>  (220) 
GLU   PHE

>  <FRAG_NAME>  (220) 
ACET   MBZ

>  <FRAG_ATOM_NUM>  (220) 
fragi: 7  fragj: 15

>  <atom.prop.CHAIN_ID>  (220) 
A A A A A A A Z Z Z Z Z Z Z Z Z Z Z Z Z Z Z

>  <atom.prop.IS_HEAVY_ATOM>  (220) 
1 0 0 0 1 1 1 1 0 0 0 1 1 0 1 0 1 0 1 0 1 0

>  <DIFUSE_FUNC_ATOM>  (220) 
atom 6   atom 7   

>  <FINAL_SINGLE_POINT_ENERGY>  (220) 
0

>  <NONCOV_INTER_ENERGY_QM>  (220) 
0

>  <FF_Energy>  (220) 
-2.3

>  <QM_Energy>  (220) 
-7.92

>  <source>  (220) 
ACET_MBZ_00

>  <Index>  (220) 
7859

$$$$
ACET-pdb2e55-A-GLU-138:MBZ-pdb2e55-A-PHE-171
     RDKit          3D

 22 21  0  0  0  0  0  0  0  0999 V2000
    3.2663   -3.4088    0.4671 C   0  0  0  0  0  0  0  0  0  0  0  0
    2.5254   -4.0480    0.5452 H   0  0  0  0  0  0  0  0  0  0  0  0
    2.9585   -2.5050    0.2361 H   0  0  0  0  0  0  0  0  0  0  0  0
    3.7802   -3.3622    1.4273 H   0  0  0  0  0  0  0  0  0  0  0  0
    4.1693   -3.8855   -0.6509 C   0  0  0  0  0  0  0  0  0  0  0  0
    4.4590   -5.0994   -0.7091 O   0  0  0  0  0  1  0  0  0  0  0  0
    4.5987   -3.0426   -1.4662 O   0  0  0  0  0  0  0  0  0  0  0  0
    0.0036    2.9070   -0.0229 C   0  0  0  0  0  0  0  0  0  0  0  0
    0.9200    3.2145    0.1810 H   0  0  0  0  0  0  0  0  0  0  0  0
   -0.6419    3.2250    0.6543 H   0  0  0  0  0  0  0  0  0  0  0  0
   -0.2848    3.3333   -0.9837 H   0  0  0  0  0  0  0  0  0  0  0  0
    0.0004    1.4042   -0.0005 C   0  0  0  0  0  0  0  0  0  0  0  0
   -1.1959    0.6987    0.0006 C   0  0  0  0  0  0  0  0  0  0  0  0
   -2.0631    1.1868    0.0009 H   0  0  0  0  0  0  0  0  0  0  0  0
   -1.2028   -0.6989    0.0000 C   0  0  0  0  0  0  0  0  0  0  0  0
   -2.0792   -1.1889    0.0007 H   0  0  0  0  0  0  0  0  0  0  0  0
    0.0003   -1.3980   -0.0002 C   0  0  0  0  0  0  0  0  0  0  0  0
   -0.0041   -2.3957   -0.0010 H   0  0  0  0  0  0  0  0  0  0  0  0
    1.2028   -0.7002    0.0000 C   0  0  0  0  0  0  0  0  0  0  0  0
    2.0836   -1.1952    0.0013 H   0  0  0  0  0  0  0  0  0  0  0  0
    1.1952    0.6942    0.0000 C   0  0  0  0  0  0  0  0  0  0  0  0
    2.0649    1.1898    0.0000 H   0  0  0  0  0  0  0  0  0  0  0  0
  1  5  1  0
  5  6  1  0
  5  7  2  0
  1  2  1  0
  1  3  1  0
  1  4  1  0
  8 12  1  0
 12 13  2  0
 13 15  1  0
 15 17  2  0
 17 19  1  0
 19 21  2  0
 21 12  1  0
  8  9  1  0
  8 10  1  0
  8 11  1  0
 13 14  1  0
 15 16  1  0
 17 18  1  0
 19 20  1  0
 21 22  1  0
M  CHG  1   6  -1
M  END
>  <PDB_ID>  (221) 
pdb2e55

>  <RESIDUE_NAME>  (221) 
GLU   PHE

>  <FRAG_NAME>  (221) 
ACET   MBZ

>  <FRAG_ATOM_NUM>  (221) 
fragi: 7  fragj: 15

>  <atom.prop.CHAIN_ID>  (221) 
A A A A A A A Z Z Z Z Z Z Z Z Z Z Z Z Z Z Z

>  <atom.prop.IS_HEAVY_ATOM>  (221) 
1 0 0 0 1 1 1 1 0 0 0 1 1 0 1 0 1 0 1 0 1 0

>  <DIFUSE_FUNC_ATOM>  (221) 
atom 6   atom 7   

>  <FINAL_SINGLE_POINT_ENERGY>  (221) 
0

>  <NONCOV_INTER_ENERGY_QM>  (221) 
0

>  <FF_Energy>  (221) 
13.81

>  <QM_Energy>  (221) 
0.55

>  <source>  (221) 
ACET_MBZ_00

>  <Index>  (221) 
7907

$$$$
ACET-pdb2e55-D-GLU-138:MBZ-pdb2e55-D-PHE-171
     RDKit          3D

 22 21  0  0  0  0  0  0  0  0999 V2000
    3.5939   -3.1234    0.0131 C   0  0  0  0  0  0  0  0  0  0  0  0
    3.0484   -3.9070    0.2488 H   0  0  0  0  0  0  0  0  0  0  0  0
    3.0439   -2.3282   -0.1659 H   0  0  0  0  0  0  0  0  0  0  0  0
    4.2519   -2.9020    0.8534 H   0  0  0  0  0  0  0  0  0  0  0  0
    4.3483   -3.4567   -1.2658 C   0  0  0  0  0  0  0  0  0  0  0  0
    4.9593   -4.5428   -1.3410 O   0  0  0  0  0  1  0  0  0  0  0  0
    4.3304   -2.6273   -2.1993 O   0  0  0  0  0  0  0  0  0  0  0  0
    0.0020    2.9048    0.0111 C   0  0  0  0  0  0  0  0  0  0  0  0
    0.9378    3.2088    0.1095 H   0  0  0  0  0  0  0  0  0  0  0  0
   -0.5552    3.2071    0.7707 H   0  0  0  0  0  0  0  0  0  0  0  0
   -0.4006    3.3546   -0.8965 H   0  0  0  0  0  0  0  0  0  0  0  0
   -0.0006    1.4024    0.0007 C   0  0  0  0  0  0  0  0  0  0  0  0
   -1.1965    0.6958   -0.0003 C   0  0  0  0  0  0  0  0  0  0  0  0
   -2.0637    1.1847   -0.0022 H   0  0  0  0  0  0  0  0  0  0  0  0
   -1.2028   -0.6979   -0.0000 C   0  0  0  0  0  0  0  0  0  0  0  0
   -2.0788   -1.1903    0.0016 H   0  0  0  0  0  0  0  0  0  0  0  0
    0.0010   -1.3964   -0.0007 C   0  0  0  0  0  0  0  0  0  0  0  0
   -0.0036   -2.3937   -0.0025 H   0  0  0  0  0  0  0  0  0  0  0  0
    1.2028   -0.6985   -0.0000 C   0  0  0  0  0  0  0  0  0  0  0  0
    2.0834   -1.1939    0.0017 H   0  0  0  0  0  0  0  0  0  0  0  0
    1.1962    0.6946    0.0003 C   0  0  0  0  0  0  0  0  0  0  0  0
    2.0647    1.1911   -0.0003 H   0  0  0  0  0  0  0  0  0  0  0  0
  1  5  1  0
  5  6  1  0
  5  7  2  0
  1  2  1  0
  1  3  1  0
  1  4  1  0
  8 12  1  0
 12 13  2  0
 13 15  1  0
 15 17  2  0
 17 19  1  0
 19 21  2  0
 21 12  1  0
  8  9  1  0
  8 10  1  0
  8 11  1  0
 13 14  1  0
 15 16  1  0
 17 18  1  0
 19 20  1  0
 21 22  1  0
M  CHG  1   6  -1
M  END
>  <PDB_ID>  (222) 
pdb2e55

>  <RESIDUE_NAME>  (222) 
GLU   PHE

>  <FRAG_NAME>  (222) 
ACET   MBZ

>  <FRAG_ATOM_NUM>  (222) 
fragi: 7  fragj: 15

>  <atom.prop.CHAIN_ID>  (222) 
A A A A A A A Z Z Z Z Z Z Z Z Z Z Z Z Z Z Z

>  <atom.prop.IS_HEAVY_ATOM>  (222) 
1 0 0 0 1 1 1 1 0 0 0 1 1 0 1 0 1 0 1 0 1 0

>  <DIFUSE_FUNC_ATOM>  (222) 
atom 6   atom 7   

>  <FINAL_SINGLE_POINT_ENERGY>  (222) 
0

>  <NONCOV_INTER_ENERGY_QM>  (222) 
0

>  <FF_Energy>  (222) 
31.48

>  <QM_Energy>  (222) 
2.28

>  <source>  (222) 
ACET_MBZ_00

>  <Index>  (222) 
7910

$$$$
ACET-pdb2e5v-A-GLU-267:MBZ-pdb2e5v-A-PHE-244
     RDKit          3D

 22 21  0  0  0  0  0  0  0  0999 V2000
    0.2869    0.1069    3.9517 C   0  0  0  0  0  0  0  0  0  0  0  0
   -0.2367   -0.2270    3.1901 H   0  0  0  0  0  0  0  0  0  0  0  0
   -0.1504   -0.0726    4.8133 H   0  0  0  0  0  0  0  0  0  0  0  0
    1.2582   -0.3878    3.9458 H   0  0  0  0  0  0  0  0  0  0  0  0
    0.3918    1.6213    3.8037 C   0  0  0  0  0  0  0  0  0  0  0  0
    1.2389    2.2402    4.4872 O   0  0  0  0  0  1  0  0  0  0  0  0
   -0.3846    2.1924    3.0059 O   0  0  0  0  0  0  0  0  0  0  0  0
    0.0029    2.9084   -0.0019 C   0  0  0  0  0  0  0  0  0  0  0  0
    0.8638    3.2139    0.3757 H   0  0  0  0  0  0  0  0  0  0  0  0
   -0.7606    3.2171    0.5461 H   0  0  0  0  0  0  0  0  0  0  0  0
   -0.1002    3.3490   -0.9935 H   0  0  0  0  0  0  0  0  0  0  0  0
   -0.0001    1.4049    0.0001 C   0  0  0  0  0  0  0  0  0  0  0  0
   -1.1974    0.6968   -0.0006 C   0  0  0  0  0  0  0  0  0  0  0  0
   -2.0640    1.1852   -0.0024 H   0  0  0  0  0  0  0  0  0  0  0  0
   -1.2041   -0.7005   -0.0000 C   0  0  0  0  0  0  0  0  0  0  0  0
   -2.0799   -1.1904    0.0016 H   0  0  0  0  0  0  0  0  0  0  0  0
   -0.0003   -1.3984    0.0005 C   0  0  0  0  0  0  0  0  0  0  0  0
   -0.0032   -2.3952    0.0011 H   0  0  0  0  0  0  0  0  0  0  0  0
    1.2041   -0.6994    0.0000 C   0  0  0  0  0  0  0  0  0  0  0  0
    2.0837   -1.1949    0.0009 H   0  0  0  0  0  0  0  0  0  0  0  0
    1.1978    0.6966   -0.0001 C   0  0  0  0  0  0  0  0  0  0  0  0
    2.0659    1.1914   -0.0011 H   0  0  0  0  0  0  0  0  0  0  0  0
  1  5  1  0
  5  6  1  0
  5  7  2  0
  1  2  1  0
  1  3  1  0
  1  4  1  0
  8 12  1  0
 12 13  2  0
 13 15  1  0
 15 17  2  0
 17 19  1  0
 19 21  2  0
 21 12  1  0
  8  9  1  0
  8 10  1  0
  8 11  1  0
 13 14  1  0
 15 16  1  0
 17 18  1  0
 19 20  1  0
 21 22  1  0
M  CHG  1   6  -1
M  END
>  <PDB_ID>  (223) 
pdb2e5v

>  <RESIDUE_NAME>  (223) 
GLU   PHE

>  <FRAG_NAME>  (223) 
ACET   MBZ

>  <FRAG_ATOM_NUM>  (223) 
fragi: 7  fragj: 15

>  <atom.prop.CHAIN_ID>  (223) 
A A A A A A A Z Z Z Z Z Z Z Z Z Z Z Z Z Z Z

>  <atom.prop.IS_HEAVY_ATOM>  (223) 
1 0 0 0 1 1 1 1 0 0 0 1 1 0 1 0 1 0 1 0 1 0

>  <DIFUSE_FUNC_ATOM>  (223) 
atom 6   atom 7   

>  <FINAL_SINGLE_POINT_ENERGY>  (223) 
0

>  <NONCOV_INTER_ENERGY_QM>  (223) 
0

>  <FF_Energy>  (223) 
1.86

>  <QM_Energy>  (223) 
-4.05

>  <source>  (223) 
ACET_MBZ_00

>  <Index>  (223) 
7945

$$$$
ACET-pdb1cf9-D-ASP-446:MBZ-pdb1cf9-B-PHE-383
     RDKit          3D

 22 21  0  0  0  0  0  0  0  0999 V2000
    0.2052    0.1582   -3.6043 C   0  0  0  0  0  0  0  0  0  0  0  0
   -0.0967   -0.1879   -4.4895 H   0  0  0  0  0  0  0  0  0  0  0  0
   -0.2004   -0.3839   -2.8725 H   0  0  0  0  0  0  0  0  0  0  0  0
    1.2842    0.0125   -3.5528 H   0  0  0  0  0  0  0  0  0  0  0  0
   -0.2381    1.6009   -3.4582 C   0  0  0  0  0  0  0  0  0  0  0  0
    0.6226    2.4458   -3.1218 O   0  0  0  0  0  1  0  0  0  0  0  0
   -1.4187    1.9884   -3.6238 O   0  0  0  0  0  0  0  0  0  0  0  0
    0.0423    2.9104   -0.0298 C   0  0  0  0  0  0  0  0  0  0  0  0
   -0.7795    3.2077   -0.4675 H   0  0  0  0  0  0  0  0  0  0  0  0
    0.8529    3.2087   -0.4878 H   0  0  0  0  0  0  0  0  0  0  0  0
    0.0546    3.3348    0.9741 H   0  0  0  0  0  0  0  0  0  0  0  0
    0.0436    1.4035    0.0029 C   0  0  0  0  0  0  0  0  0  0  0  0
   -1.1789    0.7419    0.0449 C   0  0  0  0  0  0  0  0  0  0  0  0
   -2.0223    1.2414    0.1039 H   0  0  0  0  0  0  0  0  0  0  0  0
   -1.1965   -0.6566   -0.0000 C   0  0  0  0  0  0  0  0  0  0  0  0
   -2.1118   -1.1177   -0.0425 H   0  0  0  0  0  0  0  0  0  0  0  0
   -0.0543   -1.3986    0.0126 C   0  0  0  0  0  0  0  0  0  0  0  0
   -0.0809   -2.3942    0.0301 H   0  0  0  0  0  0  0  0  0  0  0  0
    1.1965   -0.7426    0.0000 C   0  0  0  0  0  0  0  0  0  0  0  0
    2.0432   -1.2532    0.0341 H   0  0  0  0  0  0  0  0  0  0  0  0
    1.1895    0.6523   -0.0603 C   0  0  0  0  0  0  0  0  0  0  0  0
    2.0874    1.1272   -0.1571 H   0  0  0  0  0  0  0  0  0  0  0  0
  1  5  1  0
  5  6  1  0
  5  7  2  0
  1  2  1  0
  1  3  1  0
  1  4  1  0
  8 12  1  0
 12 13  2  0
 13 15  1  0
 15 17  2  0
 17 19  1  0
 19 21  2  0
 21 12  1  0
  8  9  1  0
  8 10  1  0
  8 11  1  0
 13 14  1  0
 15 16  1  0
 17 18  1  0
 19 20  1  0
 21 22  1  0
M  CHG  1   6  -1
M  END
>  <PDB_ID>  (224) 
pdb1cf9

>  <RESIDUE_NAME>  (224) 
ASP   PHE

>  <FRAG_NAME>  (224) 
ACET   MBZ

>  <FRAG_ATOM_NUM>  (224) 
fragi: 7  fragj: 15

>  <atom.prop.CHAIN_ID>  (224) 
A A A A A A A Z Z Z Z Z Z Z Z Z Z Z Z Z Z Z

>  <atom.prop.IS_HEAVY_ATOM>  (224) 
1 0 0 0 1 1 1 1 0 0 0 1 1 0 1 0 1 0 1 0 1 0

>  <DIFUSE_FUNC_ATOM>  (224) 
atom 6   atom 7   

>  <FINAL_SINGLE_POINT_ENERGY>  (224) 
0

>  <NONCOV_INTER_ENERGY_QM>  (224) 
0

>  <FF_Energy>  (224) 
0.71

>  <QM_Energy>  (224) 
-6.0

>  <source>  (224) 
ACET_MBZ_00

>  <Index>  (224) 
8041

$$$$
ACET-pdb2e9x-E-GLU-35:MBZ-pdb2e9x-E-PHE-2
     RDKit          3D

 22 21  0  0  0  0  0  0  0  0999 V2000
    3.8050    1.8664   -3.1348 C   0  0  0  0  0  0  0  0  0  0  0  0
    3.1742    2.0416   -3.8669 H   0  0  0  0  0  0  0  0  0  0  0  0
    3.6078    1.0271   -2.6644 H   0  0  0  0  0  0  0  0  0  0  0  0
    4.8063    1.7926   -3.5591 H   0  0  0  0  0  0  0  0  0  0  0  0
    3.6700    2.9997   -2.1294 C   0  0  0  0  0  0  0  0  0  0  0  0
    2.5239    3.4333   -1.8759 O   0  0  0  0  0  1  0  0  0  0  0  0
    4.7053    3.4492   -1.5860 O   0  0  0  0  0  0  0  0  0  0  0  0
   -0.0018    2.9078   -0.0198 C   0  0  0  0  0  0  0  0  0  0  0  0
   -0.9287    3.2149    0.1355 H   0  0  0  0  0  0  0  0  0  0  0  0
    0.3310    3.2031   -0.9030 H   0  0  0  0  0  0  0  0  0  0  0  0
    0.6311    3.3616    0.7428 H   0  0  0  0  0  0  0  0  0  0  0  0
    0.0006    1.4048    0.0001 C   0  0  0  0  0  0  0  0  0  0  0  0
   -1.1987    0.6957   -0.0003 C   0  0  0  0  0  0  0  0  0  0  0  0
   -2.0648    1.1844   -0.0021 H   0  0  0  0  0  0  0  0  0  0  0  0
   -1.2043   -0.7007    0.0000 C   0  0  0  0  0  0  0  0  0  0  0  0
   -2.0803   -1.1920    0.0022 H   0  0  0  0  0  0  0  0  0  0  0  0
   -0.0011   -1.3968   -0.0007 C   0  0  0  0  0  0  0  0  0  0  0  0
   -0.0029   -2.3949   -0.0020 H   0  0  0  0  0  0  0  0  0  0  0  0
    1.2043   -0.6984   -0.0000 C   0  0  0  0  0  0  0  0  0  0  0  0
    2.0835   -1.1963    0.0016 H   0  0  0  0  0  0  0  0  0  0  0  0
    1.1992    0.6953    0.0010 C   0  0  0  0  0  0  0  0  0  0  0  0
    2.0661    1.1914    0.0015 H   0  0  0  0  0  0  0  0  0  0  0  0
  1  5  1  0
  5  6  1  0
  5  7  2  0
  1  2  1  0
  1  3  1  0
  1  4  1  0
  8 12  1  0
 12 13  2  0
 13 15  1  0
 15 17  2  0
 17 19  1  0
 19 21  2  0
 21 12  1  0
  8  9  1  0
  8 10  1  0
  8 11  1  0
 13 14  1  0
 15 16  1  0
 17 18  1  0
 19 20  1  0
 21 22  1  0
M  CHG  1   6  -1
M  END
>  <PDB_ID>  (225) 
pdb2e9x

>  <RESIDUE_NAME>  (225) 
GLU   PHE

>  <FRAG_NAME>  (225) 
ACET   MBZ

>  <FRAG_ATOM_NUM>  (225) 
fragi: 7  fragj: 15

>  <atom.prop.CHAIN_ID>  (225) 
A A A A A A A Z Z Z Z Z Z Z Z Z Z Z Z Z Z Z

>  <atom.prop.IS_HEAVY_ATOM>  (225) 
1 0 0 0 1 1 1 1 0 0 0 1 1 0 1 0 1 0 1 0 1 0

>  <DIFUSE_FUNC_ATOM>  (225) 
atom 6   atom 7   

>  <FINAL_SINGLE_POINT_ENERGY>  (225) 
0

>  <NONCOV_INTER_ENERGY_QM>  (225) 
0

>  <FF_Energy>  (225) 
-1.3

>  <QM_Energy>  (225) 
-6.86

>  <source>  (225) 
ACET_MBZ_00

>  <Index>  (225) 
8128

$$$$
ACET-pdb1dki-B-ASP-203:MBZ-pdb1dki-B-PHE-207
     RDKit          3D

 22 21  0  0  0  0  0  0  0  0999 V2000
   -1.9662    4.9166   -3.4089 C   0  0  0  0  0  0  0  0  0  0  0  0
   -2.1744    4.5710   -4.3171 H   0  0  0  0  0  0  0  0  0  0  0  0
   -1.0014    5.1455   -3.3383 H   0  0  0  0  0  0  0  0  0  0  0  0
   -2.5389    5.8320   -3.2604 H   0  0  0  0  0  0  0  0  0  0  0  0
   -2.2915    3.8413   -2.3899 C   0  0  0  0  0  0  0  0  0  0  0  0
   -3.0044    4.1343   -1.4068 O   0  0  0  0  0  1  0  0  0  0  0  0
   -1.8219    2.6929   -2.5749 O   0  0  0  0  0  0  0  0  0  0  0  0
    0.0087    2.9060   -0.0409 C   0  0  0  0  0  0  0  0  0  0  0  0
   -0.5391    3.1949   -0.8137 H   0  0  0  0  0  0  0  0  0  0  0  0
    0.9480    3.2048   -0.1377 H   0  0  0  0  0  0  0  0  0  0  0  0
   -0.3999    3.3788    0.8522 H   0  0  0  0  0  0  0  0  0  0  0  0
   -0.0002    1.4051   -0.0008 C   0  0  0  0  0  0  0  0  0  0  0  0
   -1.2014    0.6967    0.0005 C   0  0  0  0  0  0  0  0  0  0  0  0
   -2.0660    1.1867    0.0001 H   0  0  0  0  0  0  0  0  0  0  0  0
   -1.2046   -0.6966    0.0000 C   0  0  0  0  0  0  0  0  0  0  0  0
   -2.0787   -1.1926    0.0023 H   0  0  0  0  0  0  0  0  0  0  0  0
    0.0043   -1.3972   -0.0013 C   0  0  0  0  0  0  0  0  0  0  0  0
   -0.0038   -2.3943   -0.0040 H   0  0  0  0  0  0  0  0  0  0  0  0
    1.2046   -0.7005   -0.0000 C   0  0  0  0  0  0  0  0  0  0  0  0
    2.0864   -1.1959    0.0017 H   0  0  0  0  0  0  0  0  0  0  0  0
    1.1972    0.6924    0.0016 C   0  0  0  0  0  0  0  0  0  0  0  0
    2.0658    1.1898    0.0034 H   0  0  0  0  0  0  0  0  0  0  0  0
  1  5  1  0
  5  6  1  0
  5  7  2  0
  1  2  1  0
  1  3  1  0
  1  4  1  0
  8 12  1  0
 12 13  2  0
 13 15  1  0
 15 17  2  0
 17 19  1  0
 19 21  2  0
 21 12  1  0
  8  9  1  0
  8 10  1  0
  8 11  1  0
 13 14  1  0
 15 16  1  0
 17 18  1  0
 19 20  1  0
 21 22  1  0
M  CHG  1   6  -1
M  END
>  <PDB_ID>  (226) 
pdb1dki

>  <RESIDUE_NAME>  (226) 
ASP   PHE

>  <FRAG_NAME>  (226) 
ACET   MBZ

>  <FRAG_ATOM_NUM>  (226) 
fragi: 7  fragj: 15

>  <atom.prop.CHAIN_ID>  (226) 
A A A A A A A Z Z Z Z Z Z Z Z Z Z Z Z Z Z Z

>  <atom.prop.IS_HEAVY_ATOM>  (226) 
1 0 0 0 1 1 1 1 0 0 0 1 1 0 1 0 1 0 1 0 1 0

>  <DIFUSE_FUNC_ATOM>  (226) 
atom 6   atom 7   

>  <FINAL_SINGLE_POINT_ENERGY>  (226) 
0

>  <NONCOV_INTER_ENERGY_QM>  (226) 
0

>  <FF_Energy>  (226) 
2.43

>  <QM_Energy>  (226) 
-6.68

>  <source>  (226) 
ACET_MBZ_00

>  <Index>  (226) 
8141

$$$$
ACET-pdb2eba-D-GLU-29:MBZ-pdb2eba-D-PHE-25
     RDKit          3D

 22 21  0  0  0  0  0  0  0  0999 V2000
   -4.5877   -1.0625    1.9221 C   0  0  0  0  0  0  0  0  0  0  0  0
   -5.0562   -1.8655    2.2678 H   0  0  0  0  0  0  0  0  0  0  0  0
   -5.1906   -0.2746    1.9274 H   0  0  0  0  0  0  0  0  0  0  0  0
   -3.7154   -0.8568    2.5426 H   0  0  0  0  0  0  0  0  0  0  0  0
   -4.2323   -1.3361    0.5004 C   0  0  0  0  0  0  0  0  0  0  0  0
   -4.0930   -0.3668   -0.2789 O   0  0  0  0  0  1  0  0  0  0  0  0
   -4.0816   -2.5269    0.1610 O   0  0  0  0  0  0  0  0  0  0  0  0
   -0.0031    2.9037   -0.0718 C   0  0  0  0  0  0  0  0  0  0  0  0
   -0.2295    3.1635   -1.0013 H   0  0  0  0  0  0  0  0  0  0  0  0
    0.9024    3.2220    0.1747 H   0  0  0  0  0  0  0  0  0  0  0  0
   -0.7244    3.3697    0.5995 H   0  0  0  0  0  0  0  0  0  0  0  0
    0.0063    1.4047   -0.0062 C   0  0  0  0  0  0  0  0  0  0  0  0
   -1.1938    0.6960    0.0014 C   0  0  0  0  0  0  0  0  0  0  0  0
   -2.0595    1.1855    0.0064 H   0  0  0  0  0  0  0  0  0  0  0  0
   -1.1988   -0.6988   -0.0000 C   0  0  0  0  0  0  0  0  0  0  0  0
   -2.0835   -1.1844   -0.0077 H   0  0  0  0  0  0  0  0  0  0  0  0
   -0.0129   -1.3932    0.0104 C   0  0  0  0  0  0  0  0  0  0  0  0
   -0.0117   -2.3931    0.0250 H   0  0  0  0  0  0  0  0  0  0  0  0
    1.1988   -0.6994   -0.0000 C   0  0  0  0  0  0  0  0  0  0  0  0
    2.0745   -1.2040   -0.0016 H   0  0  0  0  0  0  0  0  0  0  0  0
    1.2004    0.6907   -0.0055 C   0  0  0  0  0  0  0  0  0  0  0  0
    2.0707    1.1834   -0.0097 H   0  0  0  0  0  0  0  0  0  0  0  0
  1  5  1  0
  5  6  1  0
  5  7  2  0
  1  2  1  0
  1  3  1  0
  1  4  1  0
  8 12  1  0
 12 13  2  0
 13 15  1  0
 15 17  2  0
 17 19  1  0
 19 21  2  0
 21 12  1  0
  8  9  1  0
  8 10  1  0
  8 11  1  0
 13 14  1  0
 15 16  1  0
 17 18  1  0
 19 20  1  0
 21 22  1  0
M  CHG  1   6  -1
M  END
>  <PDB_ID>  (227) 
pdb2eba

>  <RESIDUE_NAME>  (227) 
GLU   PHE

>  <FRAG_NAME>  (227) 
ACET   MBZ

>  <FRAG_ATOM_NUM>  (227) 
fragi: 7  fragj: 15

>  <atom.prop.CHAIN_ID>  (227) 
A A A A A A A Z Z Z Z Z Z Z Z Z Z Z Z Z Z Z

>  <atom.prop.IS_HEAVY_ATOM>  (227) 
1 0 0 0 1 1 1 1 0 0 0 1 1 0 1 0 1 0 1 0 1 0

>  <DIFUSE_FUNC_ATOM>  (227) 
atom 6   atom 7   

>  <FINAL_SINGLE_POINT_ENERGY>  (227) 
0

>  <NONCOV_INTER_ENERGY_QM>  (227) 
0

>  <FF_Energy>  (227) 
6.22

>  <QM_Energy>  (227) 
-6.12

>  <source>  (227) 
ACET_MBZ_00

>  <Index>  (227) 
8300

$$$$
ACET-pdb1dm5-A-GLU-189:MBZ-pdb1dm5-A-PHE-227
     RDKit          3D

 22 21  0  0  0  0  0  0  0  0999 V2000
   -3.8813   -2.5408    0.5268 C   0  0  0  0  0  0  0  0  0  0  0  0
   -4.1852   -1.6858    0.9225 H   0  0  0  0  0  0  0  0  0  0  0  0
   -3.1566   -2.3912   -0.1306 H   0  0  0  0  0  0  0  0  0  0  0  0
   -3.4989   -3.1749    1.3266 H   0  0  0  0  0  0  0  0  0  0  0  0
   -5.0594   -3.1304   -0.2292 C   0  0  0  0  0  0  0  0  0  0  0  0
   -6.2030   -2.8565    0.1943 O   0  0  0  0  0  1  0  0  0  0  0  0
   -4.8693   -3.8345   -1.2437 O   0  0  0  0  0  0  0  0  0  0  0  0
   -0.0035    2.9018   -0.0642 C   0  0  0  0  0  0  0  0  0  0  0  0
    0.9150    3.2100    0.0511 H   0  0  0  0  0  0  0  0  0  0  0  0
   -0.6142    3.2250    0.6245 H   0  0  0  0  0  0  0  0  0  0  0  0
   -0.3608    3.2648   -1.0279 H   0  0  0  0  0  0  0  0  0  0  0  0
    0.0012    1.3817   -0.0107 C   0  0  0  0  0  0  0  0  0  0  0  0
   -1.1995    0.6895    0.0154 C   0  0  0  0  0  0  0  0  0  0  0  0
   -2.0591    1.1849    0.0437 H   0  0  0  0  0  0  0  0  0  0  0  0
   -1.2015   -0.6910    0.0000 C   0  0  0  0  0  0  0  0  0  0  0  0
   -2.0744   -1.1904   -0.0231 H   0  0  0  0  0  0  0  0  0  0  0  0
    0.0006   -1.3744    0.0183 C   0  0  0  0  0  0  0  0  0  0  0  0
   -0.0050   -2.3820    0.0448 H   0  0  0  0  0  0  0  0  0  0  0  0
    1.2015   -0.6938   -0.0000 C   0  0  0  0  0  0  0  0  0  0  0  0
    2.0794   -1.1964    0.0044 H   0  0  0  0  0  0  0  0  0  0  0  0
    1.1977    0.6879   -0.0230 C   0  0  0  0  0  0  0  0  0  0  0  0
    2.0627    1.1881   -0.0492 H   0  0  0  0  0  0  0  0  0  0  0  0
  1  5  1  0
  5  6  1  0
  5  7  2  0
  1  2  1  0
  1  3  1  0
  1  4  1  0
  8 12  1  0
 12 13  2  0
 13 15  1  0
 15 17  2  0
 17 19  1  0
 19 21  2  0
 21 12  1  0
  8  9  1  0
  8 10  1  0
  8 11  1  0
 13 14  1  0
 15 16  1  0
 17 18  1  0
 19 20  1  0
 21 22  1  0
M  CHG  1   6  -1
M  END
>  <PDB_ID>  (228) 
pdb1dm5

>  <RESIDUE_NAME>  (228) 
GLU   PHE

>  <FRAG_NAME>  (228) 
ACET   MBZ

>  <FRAG_ATOM_NUM>  (228) 
fragi: 7  fragj: 15

>  <atom.prop.CHAIN_ID>  (228) 
A A A A A A A Z Z Z Z Z Z Z Z Z Z Z Z Z Z Z

>  <atom.prop.IS_HEAVY_ATOM>  (228) 
1 0 0 0 1 1 1 1 0 0 0 1 1 0 1 0 1 0 1 0 1 0

>  <DIFUSE_FUNC_ATOM>  (228) 
atom 6   atom 7   

>  <FINAL_SINGLE_POINT_ENERGY>  (228) 
0

>  <NONCOV_INTER_ENERGY_QM>  (228) 
0

>  <FF_Energy>  (228) 
13.86

>  <QM_Energy>  (228) 
1.09

>  <source>  (228) 
ACET_MBZ_00

>  <Index>  (228) 
8326

$$$$
ACET-pdb1dm5-D-GLU-138:MBZ-pdb1dm5-D-PHE-127
     RDKit          3D

 22 21  0  0  0  0  0  0  0  0999 V2000
   -1.5275   -5.3420    1.1292 C   0  0  0  0  0  0  0  0  0  0  0  0
   -1.1795   -6.2223    1.3776 H   0  0  0  0  0  0  0  0  0  0  0  0
   -2.4232   -5.3807    0.7370 H   0  0  0  0  0  0  0  0  0  0  0  0
   -1.5746   -4.7294    2.0295 H   0  0  0  0  0  0  0  0  0  0  0  0
   -0.5931   -4.7513    0.0883 C   0  0  0  0  0  0  0  0  0  0  0  0
   -1.1055   -4.3215   -0.9787 O   0  0  0  0  0  1  0  0  0  0  0  0
    0.6433   -4.7137    0.2771 O   0  0  0  0  0  0  0  0  0  0  0  0
    0.0056    2.9146   -0.0026 C   0  0  0  0  0  0  0  0  0  0  0  0
    0.8831    3.2039    0.3730 H   0  0  0  0  0  0  0  0  0  0  0  0
   -0.7347    3.2202    0.5933 H   0  0  0  0  0  0  0  0  0  0  0  0
   -0.1211    3.3994   -0.9706 H   0  0  0  0  0  0  0  0  0  0  0  0
   -0.0097    1.3966   -0.0024 C   0  0  0  0  0  0  0  0  0  0  0  0
   -1.1881    0.6761    0.0011 C   0  0  0  0  0  0  0  0  0  0  0  0
   -2.0665    1.1643    0.0032 H   0  0  0  0  0  0  0  0  0  0  0  0
   -1.1931   -0.7072   -0.0000 C   0  0  0  0  0  0  0  0  0  0  0  0
   -2.0648   -1.2055    0.0236 H   0  0  0  0  0  0  0  0  0  0  0  0
    0.0107   -1.3905   -0.0314 C   0  0  0  0  0  0  0  0  0  0  0  0
    0.0194   -2.3859   -0.0771 H   0  0  0  0  0  0  0  0  0  0  0  0
    1.1931   -0.6762   -0.0000 C   0  0  0  0  0  0  0  0  0  0  0  0
    2.0868   -1.1726    0.0003 H   0  0  0  0  0  0  0  0  0  0  0  0
    1.1871    0.7012    0.0328 C   0  0  0  0  0  0  0  0  0  0  0  0
    2.0502    1.2038    0.0812 H   0  0  0  0  0  0  0  0  0  0  0  0
  1  5  1  0
  5  6  1  0
  5  7  2  0
  1  2  1  0
  1  3  1  0
  1  4  1  0
  8 12  1  0
 12 13  2  0
 13 15  1  0
 15 17  2  0
 17 19  1  0
 19 21  2  0
 21 12  1  0
  8  9  1  0
  8 10  1  0
  8 11  1  0
 13 14  1  0
 15 16  1  0
 17 18  1  0
 19 20  1  0
 21 22  1  0
M  CHG  1   6  -1
M  END
>  <PDB_ID>  (229) 
pdb1dm5

>  <RESIDUE_NAME>  (229) 
GLU   PHE

>  <FRAG_NAME>  (229) 
ACET   MBZ

>  <FRAG_ATOM_NUM>  (229) 
fragi: 7  fragj: 15

>  <atom.prop.CHAIN_ID>  (229) 
A A A A A A A Z Z Z Z Z Z Z Z Z Z Z Z Z Z Z

>  <atom.prop.IS_HEAVY_ATOM>  (229) 
1 0 0 0 1 1 1 1 0 0 0 1 1 0 1 0 1 0 1 0 1 0

>  <DIFUSE_FUNC_ATOM>  (229) 
atom 6   atom 7   

>  <FINAL_SINGLE_POINT_ENERGY>  (229) 
0

>  <NONCOV_INTER_ENERGY_QM>  (229) 
0

>  <FF_Energy>  (229) 
-1.13

>  <QM_Energy>  (229) 
-6.68

>  <source>  (229) 
ACET_MBZ_00

>  <Index>  (229) 
8342

$$$$
ACET-pdb1dm5-F-GLU-243:MBZ-pdb1dm5-F-PHE-208
     RDKit          3D

 22 21  0  0  0  0  0  0  0  0999 V2000
   -4.5421    1.0544   -2.0637 C   0  0  0  0  0  0  0  0  0  0  0  0
   -4.0797    0.2001   -1.9680 H   0  0  0  0  0  0  0  0  0  0  0  0
   -4.1534    1.6320   -2.7481 H   0  0  0  0  0  0  0  0  0  0  0  0
   -5.5789    0.8529   -2.3330 H   0  0  0  0  0  0  0  0  0  0  0  0
   -4.4479    1.7835   -0.7359 C   0  0  0  0  0  0  0  0  0  0  0  0
   -4.4136    3.0310   -0.7643 O   0  0  0  0  0  1  0  0  0  0  0  0
   -4.4393    1.1173    0.3199 O   0  0  0  0  0  0  0  0  0  0  0  0
    0.0043    2.9132    0.0222 C   0  0  0  0  0  0  0  0  0  0  0  0
   -0.8175    3.2008    0.4872 H   0  0  0  0  0  0  0  0  0  0  0  0
    0.0235    3.2285   -0.9125 H   0  0  0  0  0  0  0  0  0  0  0  0
    0.8599    3.3410    0.5448 H   0  0  0  0  0  0  0  0  0  0  0  0
    0.0024    1.3910   -0.0087 C   0  0  0  0  0  0  0  0  0  0  0  0
   -1.1917    0.6916   -0.0035 C   0  0  0  0  0  0  0  0  0  0  0  0
   -2.0575    1.1868   -0.0034 H   0  0  0  0  0  0  0  0  0  0  0  0
   -1.1983   -0.6885   -0.0000 C   0  0  0  0  0  0  0  0  0  0  0  0
   -2.0750   -1.1853   -0.0215 H   0  0  0  0  0  0  0  0  0  0  0  0
   -0.0002   -1.3836    0.0350 C   0  0  0  0  0  0  0  0  0  0  0  0
   -0.0074   -2.3835    0.0853 H   0  0  0  0  0  0  0  0  0  0  0  0
    1.1983   -0.6947    0.0000 C   0  0  0  0  0  0  0  0  0  0  0  0
    2.0780   -1.1954   -0.0077 H   0  0  0  0  0  0  0  0  0  0  0  0
    1.1896    0.6843   -0.0228 C   0  0  0  0  0  0  0  0  0  0  0  0
    2.0609    1.1846   -0.0511 H   0  0  0  0  0  0  0  0  0  0  0  0
  1  5  1  0
  5  6  1  0
  5  7  2  0
  1  2  1  0
  1  3  1  0
  1  4  1  0
  8 12  1  0
 12 13  2  0
 13 15  1  0
 15 17  2  0
 17 19  1  0
 19 21  2  0
 21 12  1  0
  8  9  1  0
  8 10  1  0
  8 11  1  0
 13 14  1  0
 15 16  1  0
 17 18  1  0
 19 20  1  0
 21 22  1  0
M  CHG  1   6  -1
M  END
>  <PDB_ID>  (230) 
pdb1dm5

>  <RESIDUE_NAME>  (230) 
GLU   PHE

>  <FRAG_NAME>  (230) 
ACET   MBZ

>  <FRAG_ATOM_NUM>  (230) 
fragi: 7  fragj: 15

>  <atom.prop.CHAIN_ID>  (230) 
A A A A A A A Z Z Z Z Z Z Z Z Z Z Z Z Z Z Z

>  <atom.prop.IS_HEAVY_ATOM>  (230) 
1 0 0 0 1 1 1 1 0 0 0 1 1 0 1 0 1 0 1 0 1 0

>  <DIFUSE_FUNC_ATOM>  (230) 
atom 6   atom 7   

>  <FINAL_SINGLE_POINT_ENERGY>  (230) 
0

>  <NONCOV_INTER_ENERGY_QM>  (230) 
0

>  <FF_Energy>  (230) 
-1.98

>  <QM_Energy>  (230) 
-7.01

>  <source>  (230) 
ACET_MBZ_00

>  <Index>  (230) 
8358

$$$$
ACET-pdb1dnk-A-GLU-256:MBZ-pdb1dnk-A-PHE-233
     RDKit          3D

 22 21  0  0  0  0  0  0  0  0999 V2000
   -1.4567    5.7712   -2.9703 C   0  0  0  0  0  0  0  0  0  0  0  0
   -0.8249    5.6674   -2.2085 H   0  0  0  0  0  0  0  0  0  0  0  0
   -2.1539    6.4460   -2.7466 H   0  0  0  0  0  0  0  0  0  0  0  0
   -0.8907    6.1455   -3.8233 H   0  0  0  0  0  0  0  0  0  0  0  0
   -2.1412    4.4568   -3.1819 C   0  0  0  0  0  0  0  0  0  0  0  0
   -3.2555    4.3591   -3.6866 O   0  0  0  0  0  1  0  0  0  0  0  0
   -1.4118    3.5247   -2.7979 O   0  0  0  0  0  0  0  0  0  0  0  0
    0.0100    2.9172    0.0754 C   0  0  0  0  0  0  0  0  0  0  0  0
   -0.7038    3.2565   -0.5216 H   0  0  0  0  0  0  0  0  0  0  0  0
    0.9011    3.2317   -0.2212 H   0  0  0  0  0  0  0  0  0  0  0  0
   -0.1721    3.3005    1.0794 H   0  0  0  0  0  0  0  0  0  0  0  0
    0.0039    1.4135   -0.0138 C   0  0  0  0  0  0  0  0  0  0  0  0
   -1.2027    0.6964   -0.0223 C   0  0  0  0  0  0  0  0  0  0  0  0
   -2.0653    1.1938   -0.0457 H   0  0  0  0  0  0  0  0  0  0  0  0
   -1.2119   -0.6922    0.0000 C   0  0  0  0  0  0  0  0  0  0  0  0
   -2.0831   -1.1877    0.0045 H   0  0  0  0  0  0  0  0  0  0  0  0
   -0.0017   -1.3893    0.0181 C   0  0  0  0  0  0  0  0  0  0  0  0
   -0.0177   -2.3949    0.0441 H   0  0  0  0  0  0  0  0  0  0  0  0
    1.2119   -0.7150   -0.0000 C   0  0  0  0  0  0  0  0  0  0  0  0
    2.0819   -1.2086   -0.0236 H   0  0  0  0  0  0  0  0  0  0  0  0
    1.2004    0.6866    0.0180 C   0  0  0  0  0  0  0  0  0  0  0  0
    2.0721    1.1809    0.0540 H   0  0  0  0  0  0  0  0  0  0  0  0
  1  5  1  0
  5  6  1  0
  5  7  2  0
  1  2  1  0
  1  3  1  0
  1  4  1  0
  8 12  1  0
 12 13  2  0
 13 15  1  0
 15 17  2  0
 17 19  1  0
 19 21  2  0
 21 12  1  0
  8  9  1  0
  8 10  1  0
  8 11  1  0
 13 14  1  0
 15 16  1  0
 17 18  1  0
 19 20  1  0
 21 22  1  0
M  CHG  1   6  -1
M  END
>  <PDB_ID>  (231) 
pdb1dnk

>  <RESIDUE_NAME>  (231) 
GLU   PHE

>  <FRAG_NAME>  (231) 
ACET   MBZ

>  <FRAG_ATOM_NUM>  (231) 
fragi: 7  fragj: 15

>  <atom.prop.CHAIN_ID>  (231) 
A A A A A A A Z Z Z Z Z Z Z Z Z Z Z Z Z Z Z

>  <atom.prop.IS_HEAVY_ATOM>  (231) 
1 0 0 0 1 1 1 1 0 0 0 1 1 0 1 0 1 0 1 0 1 0

>  <DIFUSE_FUNC_ATOM>  (231) 
atom 6   atom 7   

>  <FINAL_SINGLE_POINT_ENERGY>  (231) 
0

>  <NONCOV_INTER_ENERGY_QM>  (231) 
0

>  <FF_Energy>  (231) 
0.34

>  <QM_Energy>  (231) 
-4.69

>  <source>  (231) 
ACET_MBZ_00

>  <Index>  (231) 
8370

$$$$
ACET-pdb1dnp-A-ASP-10:MBZ-pdb1dnp-A-PHE-7
     RDKit          3D

 22 21  0  0  0  0  0  0  0  0999 V2000
   -5.4177    1.8516   -2.0471 C   0  0  0  0  0  0  0  0  0  0  0  0
   -5.2991    0.8737   -2.1728 H   0  0  0  0  0  0  0  0  0  0  0  0
   -6.0485    2.2157   -2.7209 H   0  0  0  0  0  0  0  0  0  0  0  0
   -5.8386    2.0206   -1.0559 H   0  0  0  0  0  0  0  0  0  0  0  0
   -4.0741    2.5289   -2.2253 C   0  0  0  0  0  0  0  0  0  0  0  0
   -3.3795    2.7346   -1.2151 O   0  0  0  0  0  1  0  0  0  0  0  0
   -3.7102    2.8710   -3.3696 O   0  0  0  0  0  0  0  0  0  0  0  0
   -0.0044    2.9125    0.0610 C   0  0  0  0  0  0  0  0  0  0  0  0
    0.8251    3.2027    0.5232 H   0  0  0  0  0  0  0  0  0  0  0  0
   -0.8073    3.1977    0.5700 H   0  0  0  0  0  0  0  0  0  0  0  0
   -0.0341    3.4042   -0.9113 H   0  0  0  0  0  0  0  0  0  0  0  0
   -0.0009    1.4167   -0.0002 C   0  0  0  0  0  0  0  0  0  0  0  0
   -1.1953    0.6994   -0.0025 C   0  0  0  0  0  0  0  0  0  0  0  0
   -2.0665    1.1830   -0.0074 H   0  0  0  0  0  0  0  0  0  0  0  0
   -1.2060   -0.7101    0.0000 C   0  0  0  0  0  0  0  0  0  0  0  0
   -2.0859   -1.1919    0.0011 H   0  0  0  0  0  0  0  0  0  0  0  0
   -0.0058   -1.4132    0.0034 C   0  0  0  0  0  0  0  0  0  0  0  0
   -0.0020   -2.4041    0.0077 H   0  0  0  0  0  0  0  0  0  0  0  0
    1.2060   -0.7002   -0.0000 C   0  0  0  0  0  0  0  0  0  0  0  0
    2.0858   -1.1938   -0.0003 H   0  0  0  0  0  0  0  0  0  0  0  0
    1.2020    0.7074   -0.0006 C   0  0  0  0  0  0  0  0  0  0  0  0
    2.0685    1.1973   -0.0022 H   0  0  0  0  0  0  0  0  0  0  0  0
  1  5  1  0
  5  6  1  0
  5  7  2  0
  1  2  1  0
  1  3  1  0
  1  4  1  0
  8 12  1  0
 12 13  2  0
 13 15  1  0
 15 17  2  0
 17 19  1  0
 19 21  2  0
 21 12  1  0
  8  9  1  0
  8 10  1  0
  8 11  1  0
 13 14  1  0
 15 16  1  0
 17 18  1  0
 19 20  1  0
 21 22  1  0
M  CHG  1   6  -1
M  END
>  <PDB_ID>  (232) 
pdb1dnp

>  <RESIDUE_NAME>  (232) 
ASP   PHE

>  <FRAG_NAME>  (232) 
ACET   MBZ

>  <FRAG_ATOM_NUM>  (232) 
fragi: 7  fragj: 15

>  <atom.prop.CHAIN_ID>  (232) 
A A A A A A A Z Z Z Z Z Z Z Z Z Z Z Z Z Z Z

>  <atom.prop.IS_HEAVY_ATOM>  (232) 
1 0 0 0 1 1 1 1 0 0 0 1 1 0 1 0 1 0 1 0 1 0

>  <DIFUSE_FUNC_ATOM>  (232) 
atom 6   atom 7   

>  <FINAL_SINGLE_POINT_ENERGY>  (232) 
0

>  <NONCOV_INTER_ENERGY_QM>  (232) 
0

>  <FF_Energy>  (232) 
-0.98

>  <QM_Energy>  (232) 
-6.47

>  <source>  (232) 
ACET_MBZ_00

>  <Index>  (232) 
8412

$$$$
ACET-pdb1dof-D-GLU-384:MBZ-pdb1dof-D-PHE-356
     RDKit          3D

 22 21  0  0  0  0  0  0  0  0999 V2000
    2.7164    1.9678   -2.4420 C   0  0  0  0  0  0  0  0  0  0  0  0
    1.8228    2.1633   -2.7378 H   0  0  0  0  0  0  0  0  0  0  0  0
    2.8308    1.1519   -1.9472 H   0  0  0  0  0  0  0  0  0  0  0  0
    3.3897    1.9696   -3.2992 H   0  0  0  0  0  0  0  0  0  0  0  0
    3.1359    3.1286   -1.4915 C   0  0  0  0  0  0  0  0  0  0  0  0
    2.3922    4.1815   -1.5252 O   0  0  0  0  0  1  0  0  0  0  0  0
    4.1902    2.8585   -0.8767 O   0  0  0  0  0  0  0  0  0  0  0  0
   -0.0471    2.9161    0.0204 C   0  0  0  0  0  0  0  0  0  0  0  0
   -0.9180    3.2085   -0.2934 H   0  0  0  0  0  0  0  0  0  0  0  0
    0.6995    3.2321   -0.5136 H   0  0  0  0  0  0  0  0  0  0  0  0
    0.0867    3.2793    1.0394 H   0  0  0  0  0  0  0  0  0  0  0  0
   -0.0273    1.3975    0.0029 C   0  0  0  0  0  0  0  0  0  0  0  0
   -1.2003    0.6645    0.0054 C   0  0  0  0  0  0  0  0  0  0  0  0
   -2.0815    1.1399    0.0098 H   0  0  0  0  0  0  0  0  0  0  0  0
   -1.1808   -0.7179   -0.0000 C   0  0  0  0  0  0  0  0  0  0  0  0
   -2.0488   -1.2308    0.0009 H   0  0  0  0  0  0  0  0  0  0  0  0
    0.0335   -1.3992   -0.0050 C   0  0  0  0  0  0  0  0  0  0  0  0
    0.0456   -2.3891   -0.0126 H   0  0  0  0  0  0  0  0  0  0  0  0
    1.1808   -0.6624    0.0000 C   0  0  0  0  0  0  0  0  0  0  0  0
    2.0986   -1.1543    0.0077 H   0  0  0  0  0  0  0  0  0  0  0  0
    1.1941    0.7175   -0.0033 C   0  0  0  0  0  0  0  0  0  0  0  0
    2.0414    1.2199   -0.0107 H   0  0  0  0  0  0  0  0  0  0  0  0
  1  5  1  0
  5  6  1  0
  5  7  2  0
  1  2  1  0
  1  3  1  0
  1  4  1  0
  8 12  1  0
 12 13  2  0
 13 15  1  0
 15 17  2  0
 17 19  1  0
 19 21  2  0
 21 12  1  0
  8  9  1  0
  8 10  1  0
  8 11  1  0
 13 14  1  0
 15 16  1  0
 17 18  1  0
 19 20  1  0
 21 22  1  0
M  CHG  1   6  -1
M  END
>  <PDB_ID>  (233) 
pdb1dof

>  <RESIDUE_NAME>  (233) 
GLU   PHE

>  <FRAG_NAME>  (233) 
ACET   MBZ

>  <FRAG_ATOM_NUM>  (233) 
fragi: 7  fragj: 15

>  <atom.prop.CHAIN_ID>  (233) 
A A A A A A A Z Z Z Z Z Z Z Z Z Z Z Z Z Z Z

>  <atom.prop.IS_HEAVY_ATOM>  (233) 
1 0 0 0 1 1 1 1 0 0 0 1 1 0 1 0 1 0 1 0 1 0

>  <DIFUSE_FUNC_ATOM>  (233) 
atom 6   atom 7   

>  <FINAL_SINGLE_POINT_ENERGY>  (233) 
0

>  <NONCOV_INTER_ENERGY_QM>  (233) 
0

>  <FF_Energy>  (233) 
-1.08

>  <QM_Energy>  (233) 
-5.9

>  <source>  (233) 
ACET_MBZ_00

>  <Index>  (233) 
8421

$$$$
ACET-pdb2efc-A-GLU-222:MBZ-pdb2efc-A-PHE-226
     RDKit          3D

 22 21  0  0  0  0  0  0  0  0999 V2000
   -4.2461   -0.9185    1.0269 C   0  0  0  0  0  0  0  0  0  0  0  0
   -3.5388   -0.2586    0.8346 H   0  0  0  0  0  0  0  0  0  0  0  0
   -3.9533   -1.5810    1.6967 H   0  0  0  0  0  0  0  0  0  0  0  0
   -5.1199   -0.3926    1.4115 H   0  0  0  0  0  0  0  0  0  0  0  0
   -4.5145   -1.6786   -0.2672 C   0  0  0  0  0  0  0  0  0  0  0  0
   -4.3903   -2.9215   -0.2493 O   0  0  0  0  0  1  0  0  0  0  0  0
   -4.8432   -1.0483   -1.3002 O   0  0  0  0  0  0  0  0  0  0  0  0
    0.0197    2.9060    0.0383 C   0  0  0  0  0  0  0  0  0  0  0  0
   -0.8998    3.2250   -0.1047 H   0  0  0  0  0  0  0  0  0  0  0  0
    0.6372    3.2275   -0.6564 H   0  0  0  0  0  0  0  0  0  0  0  0
    0.3642    3.2878    0.9994 H   0  0  0  0  0  0  0  0  0  0  0  0
    0.0047    1.4048   -0.0100 C   0  0  0  0  0  0  0  0  0  0  0  0
   -1.1904    0.7046    0.0025 C   0  0  0  0  0  0  0  0  0  0  0  0
   -2.0574    1.1899    0.0118 H   0  0  0  0  0  0  0  0  0  0  0  0
   -1.1941   -0.6937   -0.0000 C   0  0  0  0  0  0  0  0  0  0  0  0
   -2.0825   -1.1776    0.0021 H   0  0  0  0  0  0  0  0  0  0  0  0
   -0.0117   -1.3951   -0.0033 C   0  0  0  0  0  0  0  0  0  0  0  0
   -0.0178   -2.3947   -0.0084 H   0  0  0  0  0  0  0  0  0  0  0  0
    1.1941   -0.7076    0.0000 C   0  0  0  0  0  0  0  0  0  0  0  0
    2.0724   -1.2084   -0.0041 H   0  0  0  0  0  0  0  0  0  0  0  0
    1.1974    0.6869    0.0108 C   0  0  0  0  0  0  0  0  0  0  0  0
    2.0688    1.1768    0.0326 H   0  0  0  0  0  0  0  0  0  0  0  0
  1  5  1  0
  5  6  1  0
  5  7  2  0
  1  2  1  0
  1  3  1  0
  1  4  1  0
  8 12  1  0
 12 13  2  0
 13 15  1  0
 15 17  2  0
 17 19  1  0
 19 21  2  0
 21 12  1  0
  8  9  1  0
  8 10  1  0
  8 11  1  0
 13 14  1  0
 15 16  1  0
 17 18  1  0
 19 20  1  0
 21 22  1  0
M  CHG  1   6  -1
M  END
>  <PDB_ID>  (234) 
pdb2efc

>  <RESIDUE_NAME>  (234) 
GLU   PHE

>  <FRAG_NAME>  (234) 
ACET   MBZ

>  <FRAG_ATOM_NUM>  (234) 
fragi: 7  fragj: 15

>  <atom.prop.CHAIN_ID>  (234) 
A A A A A A A Z Z Z Z Z Z Z Z Z Z Z Z Z Z Z

>  <atom.prop.IS_HEAVY_ATOM>  (234) 
1 0 0 0 1 1 1 1 0 0 0 1 1 0 1 0 1 0 1 0 1 0

>  <DIFUSE_FUNC_ATOM>  (234) 
atom 6   atom 7   

>  <FINAL_SINGLE_POINT_ENERGY>  (234) 
0

>  <NONCOV_INTER_ENERGY_QM>  (234) 
0

>  <FF_Energy>  (234) 
3.52

>  <QM_Energy>  (234) 
-2.41

>  <source>  (234) 
ACET_MBZ_00

>  <Index>  (234) 
8502

$$$$
ACET-pdb2efj-A-GLU-5:MBZ-pdb2efj-A-PHE-102
     RDKit          3D

 22 21  0  0  0  0  0  0  0  0999 V2000
    4.1989    3.7172    2.6622 C   0  0  0  0  0  0  0  0  0  0  0  0
    4.4994    2.8686    2.2847 H   0  0  0  0  0  0  0  0  0  0  0  0
    3.9543    3.6594    3.6052 H   0  0  0  0  0  0  0  0  0  0  0  0
    5.0051    4.4435    2.5590 H   0  0  0  0  0  0  0  0  0  0  0  0
    2.9583    4.1510    1.8904 C   0  0  0  0  0  0  0  0  0  0  0  0
    2.7776    3.6918    0.7326 O   0  0  0  0  0  1  0  0  0  0  0  0
    2.1936    4.9921    2.4169 O   0  0  0  0  0  0  0  0  0  0  0  0
    0.0194    2.8891   -0.0140 C   0  0  0  0  0  0  0  0  0  0  0  0
    0.9273    3.1911    0.2445 H   0  0  0  0  0  0  0  0  0  0  0  0
   -0.6571    3.2086    0.6367 H   0  0  0  0  0  0  0  0  0  0  0  0
   -0.2135    3.3475   -0.9751 H   0  0  0  0  0  0  0  0  0  0  0  0
    0.0039    1.3897   -0.0124 C   0  0  0  0  0  0  0  0  0  0  0  0
   -1.1974    0.6807    0.0006 C   0  0  0  0  0  0  0  0  0  0  0  0
   -2.0603    1.1829    0.0091 H   0  0  0  0  0  0  0  0  0  0  0  0
   -1.2053   -0.6929    0.0000 C   0  0  0  0  0  0  0  0  0  0  0  0
   -2.0784   -1.1931   -0.0065 H   0  0  0  0  0  0  0  0  0  0  0  0
   -0.0043   -1.3814    0.0104 C   0  0  0  0  0  0  0  0  0  0  0  0
    0.0014   -2.3805    0.0247 H   0  0  0  0  0  0  0  0  0  0  0  0
    1.2053   -0.6796   -0.0000 C   0  0  0  0  0  0  0  0  0  0  0  0
    2.0797   -1.1922   -0.0070 H   0  0  0  0  0  0  0  0  0  0  0  0
    1.1978    0.6834    0.0014 C   0  0  0  0  0  0  0  0  0  0  0  0
    2.0647    1.1937    0.0115 H   0  0  0  0  0  0  0  0  0  0  0  0
  1  5  1  0
  5  6  1  0
  5  7  2  0
  1  2  1  0
  1  3  1  0
  1  4  1  0
  8 12  1  0
 12 13  2  0
 13 15  1  0
 15 17  2  0
 17 19  1  0
 19 21  2  0
 21 12  1  0
  8  9  1  0
  8 10  1  0
  8 11  1  0
 13 14  1  0
 15 16  1  0
 17 18  1  0
 19 20  1  0
 21 22  1  0
M  CHG  1   6  -1
M  END
>  <PDB_ID>  (235) 
pdb2efj

>  <RESIDUE_NAME>  (235) 
GLU   PHE

>  <FRAG_NAME>  (235) 
ACET   MBZ

>  <FRAG_ATOM_NUM>  (235) 
fragi: 7  fragj: 15

>  <atom.prop.CHAIN_ID>  (235) 
A A A A A A A Z Z Z Z Z Z Z Z Z Z Z Z Z Z Z

>  <atom.prop.IS_HEAVY_ATOM>  (235) 
1 0 0 0 1 1 1 1 0 0 0 1 1 0 1 0 1 0 1 0 1 0

>  <DIFUSE_FUNC_ATOM>  (235) 
atom 6   atom 7   

>  <FINAL_SINGLE_POINT_ENERGY>  (235) 
0

>  <NONCOV_INTER_ENERGY_QM>  (235) 
0

>  <FF_Energy>  (235) 
5.91

>  <QM_Energy>  (235) 
-7.14

>  <source>  (235) 
ACET_MBZ_00

>  <Index>  (235) 
8512

$$$$
ACET-pdb1dki-C-GLU-103:MBZ-pdb1dki-C-PHE-241
     RDKit          3D

 22 21  0  0  0  0  0  0  0  0999 V2000
   -0.5073    6.9832   -3.4927 C   0  0  0  0  0  0  0  0  0  0  0  0
   -1.3597    7.4104   -3.7335 H   0  0  0  0  0  0  0  0  0  0  0  0
   -0.1451    6.4378   -4.2277 H   0  0  0  0  0  0  0  0  0  0  0  0
    0.2139    7.7656   -3.2565 H   0  0  0  0  0  0  0  0  0  0  0  0
   -0.7750    6.0546   -2.3239 C   0  0  0  0  0  0  0  0  0  0  0  0
   -0.9426    6.5549   -1.1912 O   0  0  0  0  0  1  0  0  0  0  0  0
   -0.8245    4.8266   -2.5422 O   0  0  0  0  0  0  0  0  0  0  0  0
   -0.0045    2.9042    0.0074 C   0  0  0  0  0  0  0  0  0  0  0  0
   -0.4786    3.2133   -0.8019 H   0  0  0  0  0  0  0  0  0  0  0  0
    0.9340    3.2127    0.0178 H   0  0  0  0  0  0  0  0  0  0  0  0
   -0.5067    3.3345    0.8738 H   0  0  0  0  0  0  0  0  0  0  0  0
   -0.0011    1.4025   -0.0001 C   0  0  0  0  0  0  0  0  0  0  0  0
   -1.1991    0.6937   -0.0007 C   0  0  0  0  0  0  0  0  0  0  0  0
   -2.0655    1.1826   -0.0029 H   0  0  0  0  0  0  0  0  0  0  0  0
   -1.2021   -0.6994    0.0000 C   0  0  0  0  0  0  0  0  0  0  0  0
   -2.0771   -1.1945    0.0016 H   0  0  0  0  0  0  0  0  0  0  0  0
    0.0028   -1.3960    0.0006 C   0  0  0  0  0  0  0  0  0  0  0  0
   -0.0005   -2.3930    0.0008 H   0  0  0  0  0  0  0  0  0  0  0  0
    1.2021   -0.6955   -0.0000 C   0  0  0  0  0  0  0  0  0  0  0  0
    2.0852   -1.1930    0.0011 H   0  0  0  0  0  0  0  0  0  0  0  0
    1.1975    0.6947    0.0002 C   0  0  0  0  0  0  0  0  0  0  0  0
    2.0649    1.1923   -0.0003 H   0  0  0  0  0  0  0  0  0  0  0  0
  1  5  1  0
  5  6  1  0
  5  7  2  0
  1  2  1  0
  1  3  1  0
  1  4  1  0
  8 12  1  0
 12 13  2  0
 13 15  1  0
 15 17  2  0
 17 19  1  0
 19 21  2  0
 21 12  1  0
  8  9  1  0
  8 10  1  0
  8 11  1  0
 13 14  1  0
 15 16  1  0
 17 18  1  0
 19 20  1  0
 21 22  1  0
M  CHG  1   6  -1
M  END
>  <PDB_ID>  (236) 
pdb1dki

>  <RESIDUE_NAME>  (236) 
GLU   PHE

>  <FRAG_NAME>  (236) 
ACET   MBZ

>  <FRAG_ATOM_NUM>  (236) 
fragi: 7  fragj: 15

>  <atom.prop.CHAIN_ID>  (236) 
A A A A A A A Z Z Z Z Z Z Z Z Z Z Z Z Z Z Z

>  <atom.prop.IS_HEAVY_ATOM>  (236) 
1 0 0 0 1 1 1 1 0 0 0 1 1 0 1 0 1 0 1 0 1 0

>  <DIFUSE_FUNC_ATOM>  (236) 
atom 6   atom 7   

>  <FINAL_SINGLE_POINT_ENERGY>  (236) 
0

>  <NONCOV_INTER_ENERGY_QM>  (236) 
0

>  <FF_Energy>  (236) 
-0.71

>  <QM_Energy>  (236) 
-5.81

>  <source>  (236) 
ACET_MBZ_00

>  <Index>  (236) 
8536

$$$$
ACET-pdb1dqy-A-GLU-102:MBZ-pdb1dqy-A-PHE-98
     RDKit          3D

 22 21  0  0  0  0  0  0  0  0999 V2000
   -4.4428    3.1649    2.3750 C   0  0  0  0  0  0  0  0  0  0  0  0
   -5.3682    3.1640    2.7070 H   0  0  0  0  0  0  0  0  0  0  0  0
   -3.8892    3.8457    2.8205 H   0  0  0  0  0  0  0  0  0  0  0  0
   -4.0085    2.1864    2.5796 H   0  0  0  0  0  0  0  0  0  0  0  0
   -4.4811    3.4939    0.9013 C   0  0  0  0  0  0  0  0  0  0  0  0
   -3.5864    3.0231    0.1636 O   0  0  0  0  0  1  0  0  0  0  0  0
   -5.3975    4.2363    0.4849 O   0  0  0  0  0  0  0  0  0  0  0  0
    0.0015    2.9076    0.0466 C   0  0  0  0  0  0  0  0  0  0  0  0
   -0.6233    3.2363   -0.6430 H   0  0  0  0  0  0  0  0  0  0  0  0
    0.9227    3.2188   -0.1201 H   0  0  0  0  0  0  0  0  0  0  0  0
   -0.3187    3.3119    1.0069 H   0  0  0  0  0  0  0  0  0  0  0  0
    0.0007    1.4053    0.0003 C   0  0  0  0  0  0  0  0  0  0  0  0
   -1.1974    0.6973    0.0006 C   0  0  0  0  0  0  0  0  0  0  0  0
   -2.0635    1.1851   -0.0004 H   0  0  0  0  0  0  0  0  0  0  0  0
   -1.2026   -0.6993   -0.0000 C   0  0  0  0  0  0  0  0  0  0  0  0
   -2.0795   -1.1904    0.0008 H   0  0  0  0  0  0  0  0  0  0  0  0
   -0.0001   -1.3984    0.0001 C   0  0  0  0  0  0  0  0  0  0  0  0
   -0.0047   -2.3963   -0.0005 H   0  0  0  0  0  0  0  0  0  0  0  0
    1.2026   -0.7015    0.0000 C   0  0  0  0  0  0  0  0  0  0  0  0
    2.0840   -1.1959    0.0022 H   0  0  0  0  0  0  0  0  0  0  0  0
    1.1968    0.6967   -0.0010 C   0  0  0  0  0  0  0  0  0  0  0  0
    2.0658    1.1893   -0.0032 H   0  0  0  0  0  0  0  0  0  0  0  0
  1  5  1  0
  5  6  1  0
  5  7  2  0
  1  2  1  0
  1  3  1  0
  1  4  1  0
  8 12  1  0
 12 13  2  0
 13 15  1  0
 15 17  2  0
 17 19  1  0
 19 21  2  0
 21 12  1  0
  8  9  1  0
  8 10  1  0
  8 11  1  0
 13 14  1  0
 15 16  1  0
 17 18  1  0
 19 20  1  0
 21 22  1  0
M  CHG  1   6  -1
M  END
>  <PDB_ID>  (237) 
pdb1dqy

>  <RESIDUE_NAME>  (237) 
GLU   PHE

>  <FRAG_NAME>  (237) 
ACET   MBZ

>  <FRAG_ATOM_NUM>  (237) 
fragi: 7  fragj: 15

>  <atom.prop.CHAIN_ID>  (237) 
A A A A A A A Z Z Z Z Z Z Z Z Z Z Z Z Z Z Z

>  <atom.prop.IS_HEAVY_ATOM>  (237) 
1 0 0 0 1 1 1 1 0 0 0 1 1 0 1 0 1 0 1 0 1 0

>  <DIFUSE_FUNC_ATOM>  (237) 
atom 6   atom 7   

>  <FINAL_SINGLE_POINT_ENERGY>  (237) 
0

>  <NONCOV_INTER_ENERGY_QM>  (237) 
0

>  <FF_Energy>  (237) 
-2.04

>  <QM_Energy>  (237) 
-7.4

>  <source>  (237) 
ACET_MBZ_00

>  <Index>  (237) 
8644

$$$$
ACET-pdb1dr0-B-GLU-65:MBZ-pdb1dr0-B-PHE-302
     RDKit          3D

 22 21  0  0  0  0  0  0  0  0999 V2000
   -4.6039   -3.0805   -1.5061 C   0  0  0  0  0  0  0  0  0  0  0  0
   -5.2224   -2.7079   -2.1618 H   0  0  0  0  0  0  0  0  0  0  0  0
   -4.7683   -4.0212   -1.3059 H   0  0  0  0  0  0  0  0  0  0  0  0
   -3.5881   -2.9762   -1.8873 H   0  0  0  0  0  0  0  0  0  0  0  0
   -4.7864   -2.2993   -0.2099 C   0  0  0  0  0  0  0  0  0  0  0  0
   -5.8662   -1.6966   -0.0259 O   0  0  0  0  0  1  0  0  0  0  0  0
   -3.8354   -2.2953    0.6138 O   0  0  0  0  0  0  0  0  0  0  0  0
   -0.0023    2.9197    0.0377 C   0  0  0  0  0  0  0  0  0  0  0  0
    0.9199    3.2173    0.2364 H   0  0  0  0  0  0  0  0  0  0  0  0
   -0.6320    3.2040    0.7452 H   0  0  0  0  0  0  0  0  0  0  0  0
   -0.3141    3.3814   -0.8992 H   0  0  0  0  0  0  0  0  0  0  0  0
   -0.0012    1.4140    0.0012 C   0  0  0  0  0  0  0  0  0  0  0  0
   -1.2080    0.7038   -0.0012 C   0  0  0  0  0  0  0  0  0  0  0  0
   -2.0716    1.1959   -0.0051 H   0  0  0  0  0  0  0  0  0  0  0  0
   -1.2225   -0.7002    0.0000 C   0  0  0  0  0  0  0  0  0  0  0  0
   -2.0894   -1.1926    0.0016 H   0  0  0  0  0  0  0  0  0  0  0  0
    0.0044   -1.4185    0.0002 C   0  0  0  0  0  0  0  0  0  0  0  0
   -0.0045   -2.4042    0.0001 H   0  0  0  0  0  0  0  0  0  0  0  0
    1.2225   -0.7060   -0.0000 C   0  0  0  0  0  0  0  0  0  0  0  0
    2.0982   -1.1935    0.0018 H   0  0  0  0  0  0  0  0  0  0  0  0
    1.2048    0.7069   -0.0002 C   0  0  0  0  0  0  0  0  0  0  0  0
    2.0704    1.2017   -0.0023 H   0  0  0  0  0  0  0  0  0  0  0  0
  1  5  1  0
  5  6  1  0
  5  7  2  0
  1  2  1  0
  1  3  1  0
  1  4  1  0
  8 12  1  0
 12 13  2  0
 13 15  1  0
 15 17  2  0
 17 19  1  0
 19 21  2  0
 21 12  1  0
  8  9  1  0
  8 10  1  0
  8 11  1  0
 13 14  1  0
 15 16  1  0
 17 18  1  0
 19 20  1  0
 21 22  1  0
M  CHG  1   6  -1
M  END
>  <PDB_ID>  (238) 
pdb1dr0

>  <RESIDUE_NAME>  (238) 
GLU   PHE

>  <FRAG_NAME>  (238) 
ACET   MBZ

>  <FRAG_ATOM_NUM>  (238) 
fragi: 7  fragj: 15

>  <atom.prop.CHAIN_ID>  (238) 
A A A A A A A Z Z Z Z Z Z Z Z Z Z Z Z Z Z Z

>  <atom.prop.IS_HEAVY_ATOM>  (238) 
1 0 0 0 1 1 1 1 0 0 0 1 1 0 1 0 1 0 1 0 1 0

>  <DIFUSE_FUNC_ATOM>  (238) 
atom 6   atom 7   

>  <FINAL_SINGLE_POINT_ENERGY>  (238) 
0

>  <NONCOV_INTER_ENERGY_QM>  (238) 
0

>  <FF_Energy>  (238) 
-0.16

>  <QM_Energy>  (238) 
-6.16

>  <source>  (238) 
ACET_MBZ_00

>  <Index>  (238) 
8651

$$$$
ACET-pdb2ej5-A-ASP-240:MBZ-pdb2ej5-A-PHE-256
     RDKit          3D

 22 21  0  0  0  0  0  0  0  0999 V2000
   -3.8416    1.8977    2.5317 C   0  0  0  0  0  0  0  0  0  0  0  0
   -4.2581    2.0932    3.4086 H   0  0  0  0  0  0  0  0  0  0  0  0
   -3.1419    1.2028    2.6175 H   0  0  0  0  0  0  0  0  0  0  0  0
   -4.6168    1.5181    1.8662 H   0  0  0  0  0  0  0  0  0  0  0  0
   -3.2114    3.1646    1.9965 C   0  0  0  0  0  0  0  0  0  0  0  0
   -3.5482    3.5817    0.8571 O   0  0  0  0  0  1  0  0  0  0  0  0
   -2.3565    3.7414    2.6790 O   0  0  0  0  0  0  0  0  0  0  0  0
   -0.0084    2.9171   -0.0084 C   0  0  0  0  0  0  0  0  0  0  0  0
    0.9286    3.2195   -0.0896 H   0  0  0  0  0  0  0  0  0  0  0  0
   -0.4131    3.2190    0.8417 H   0  0  0  0  0  0  0  0  0  0  0  0
   -0.5733    3.3721   -0.8221 H   0  0  0  0  0  0  0  0  0  0  0  0
   -0.0122    1.4021   -0.0146 C   0  0  0  0  0  0  0  0  0  0  0  0
   -1.1929    0.6950   -0.0012 C   0  0  0  0  0  0  0  0  0  0  0  0
   -2.0675    1.1802    0.0065 H   0  0  0  0  0  0  0  0  0  0  0  0
   -1.1944   -0.6907    0.0000 C   0  0  0  0  0  0  0  0  0  0  0  0
   -2.0694   -1.1895   -0.0124 H   0  0  0  0  0  0  0  0  0  0  0  0
    0.0106   -1.3909    0.0196 C   0  0  0  0  0  0  0  0  0  0  0  0
   -0.0049   -2.3904    0.0475 H   0  0  0  0  0  0  0  0  0  0  0  0
    1.1944   -0.7036    0.0000 C   0  0  0  0  0  0  0  0  0  0  0  0
    2.0838   -1.1965   -0.0103 H   0  0  0  0  0  0  0  0  0  0  0  0
    1.1945    0.6881   -0.0038 C   0  0  0  0  0  0  0  0  0  0  0  0
    2.0577    1.1862    0.0009 H   0  0  0  0  0  0  0  0  0  0  0  0
  1  5  1  0
  5  6  1  0
  5  7  2  0
  1  2  1  0
  1  3  1  0
  1  4  1  0
  8 12  1  0
 12 13  2  0
 13 15  1  0
 15 17  2  0
 17 19  1  0
 19 21  2  0
 21 12  1  0
  8  9  1  0
  8 10  1  0
  8 11  1  0
 13 14  1  0
 15 16  1  0
 17 18  1  0
 19 20  1  0
 21 22  1  0
M  CHG  1   6  -1
M  END
>  <PDB_ID>  (239) 
pdb2ej5

>  <RESIDUE_NAME>  (239) 
ASP   PHE

>  <FRAG_NAME>  (239) 
ACET   MBZ

>  <FRAG_ATOM_NUM>  (239) 
fragi: 7  fragj: 15

>  <atom.prop.CHAIN_ID>  (239) 
A A A A A A A Z Z Z Z Z Z Z Z Z Z Z Z Z Z Z

>  <atom.prop.IS_HEAVY_ATOM>  (239) 
1 0 0 0 1 1 1 1 0 0 0 1 1 0 1 0 1 0 1 0 1 0

>  <DIFUSE_FUNC_ATOM>  (239) 
atom 6   atom 7   

>  <FINAL_SINGLE_POINT_ENERGY>  (239) 
0

>  <NONCOV_INTER_ENERGY_QM>  (239) 
0

>  <FF_Energy>  (239) 
-2.46

>  <QM_Energy>  (239) 
-7.84

>  <source>  (239) 
ACET_MBZ_00

>  <Index>  (239) 
8738

$$$$
ACET-pdb2ej5-B-ASP-240:MBZ-pdb2ej5-B-PHE-256
     RDKit          3D

 22 21  0  0  0  0  0  0  0  0999 V2000
   -3.7937    1.6909    2.4214 C   0  0  0  0  0  0  0  0  0  0  0  0
   -4.2008    1.7926    3.3199 H   0  0  0  0  0  0  0  0  0  0  0  0
   -3.0734    1.0104    2.4358 H   0  0  0  0  0  0  0  0  0  0  0  0
   -4.5693    1.3479    1.7366 H   0  0  0  0  0  0  0  0  0  0  0  0
   -3.2013    3.0226    1.9996 C   0  0  0  0  0  0  0  0  0  0  0  0
   -3.5409    3.5282    0.8841 O   0  0  0  0  0  1  0  0  0  0  0  0
   -2.3811    3.5541    2.7684 O   0  0  0  0  0  0  0  0  0  0  0  0
   -0.0248    2.8709    0.0275 C   0  0  0  0  0  0  0  0  0  0  0  0
    0.9073    3.1996    0.0123 H   0  0  0  0  0  0  0  0  0  0  0  0
   -0.4997    3.1716    0.8408 H   0  0  0  0  0  0  0  0  0  0  0  0
   -0.5392    3.3008   -0.8318 H   0  0  0  0  0  0  0  0  0  0  0  0
   -0.0041    1.3887    0.0146 C   0  0  0  0  0  0  0  0  0  0  0  0
   -1.1815    0.6768    0.0162 C   0  0  0  0  0  0  0  0  0  0  0  0
   -2.0590    1.1726    0.0283 H   0  0  0  0  0  0  0  0  0  0  0  0
   -1.1997   -0.6994   -0.0000 C   0  0  0  0  0  0  0  0  0  0  0  0
   -2.0757   -1.1914    0.0049 H   0  0  0  0  0  0  0  0  0  0  0  0
   -0.0047   -1.3883   -0.0211 C   0  0  0  0  0  0  0  0  0  0  0  0
    0.0025   -2.3854   -0.0515 H   0  0  0  0  0  0  0  0  0  0  0  0
    1.1997   -0.6828    0.0000 C   0  0  0  0  0  0  0  0  0  0  0  0
    2.0801   -1.1807    0.0241 H   0  0  0  0  0  0  0  0  0  0  0  0
    1.1902    0.7050   -0.0097 C   0  0  0  0  0  0  0  0  0  0  0  0
    2.0549    1.2036   -0.0348 H   0  0  0  0  0  0  0  0  0  0  0  0
  1  5  1  0
  5  6  1  0
  5  7  2  0
  1  2  1  0
  1  3  1  0
  1  4  1  0
  8 12  1  0
 12 13  2  0
 13 15  1  0
 15 17  2  0
 17 19  1  0
 19 21  2  0
 21 12  1  0
  8  9  1  0
  8 10  1  0
  8 11  1  0
 13 14  1  0
 15 16  1  0
 17 18  1  0
 19 20  1  0
 21 22  1  0
M  CHG  1   6  -1
M  END
>  <PDB_ID>  (240) 
pdb2ej5

>  <RESIDUE_NAME>  (240) 
ASP   PHE

>  <FRAG_NAME>  (240) 
ACET   MBZ

>  <FRAG_ATOM_NUM>  (240) 
fragi: 7  fragj: 15

>  <atom.prop.CHAIN_ID>  (240) 
A A A A A A A Z Z Z Z Z Z Z Z Z Z Z Z Z Z Z

>  <atom.prop.IS_HEAVY_ATOM>  (240) 
1 0 0 0 1 1 1 1 0 0 0 1 1 0 1 0 1 0 1 0 1 0

>  <DIFUSE_FUNC_ATOM>  (240) 
atom 6   atom 7   

>  <FINAL_SINGLE_POINT_ENERGY>  (240) 
0

>  <NONCOV_INTER_ENERGY_QM>  (240) 
0

>  <FF_Energy>  (240) 
-2.4

>  <QM_Energy>  (240) 
-7.82

>  <source>  (240) 
ACET_MBZ_00

>  <Index>  (240) 
8740

$$$$
ACET-pdb1dub-A-ASP-271:MBZ-pdb1dub-A-PHE-287
     RDKit          3D

 22 21  0  0  0  0  0  0  0  0999 V2000
   -4.3517    1.7410    1.7464 C   0  0  0  0  0  0  0  0  0  0  0  0
   -4.8939    1.7769    2.5747 H   0  0  0  0  0  0  0  0  0  0  0  0
   -3.6044    1.0984    1.8389 H   0  0  0  0  0  0  0  0  0  0  0  0
   -4.9930    1.4065    0.9310 H   0  0  0  0  0  0  0  0  0  0  0  0
   -3.7656    3.1330    1.4925 C   0  0  0  0  0  0  0  0  0  0  0  0
   -3.3938    3.4423    0.3543 O   0  0  0  0  0  1  0  0  0  0  0  0
   -3.6702    3.9286    2.4310 O   0  0  0  0  0  0  0  0  0  0  0  0
   -0.0066    2.8984   -0.0140 C   0  0  0  0  0  0  0  0  0  0  0  0
    0.9303    3.2139    0.0042 H   0  0  0  0  0  0  0  0  0  0  0  0
   -0.5085    3.2166    0.7762 H   0  0  0  0  0  0  0  0  0  0  0  0
   -0.4819    3.3179   -0.9007 H   0  0  0  0  0  0  0  0  0  0  0  0
   -0.0014    1.4115    0.0013 C   0  0  0  0  0  0  0  0  0  0  0  0
   -1.2079    0.7047    0.0026 C   0  0  0  0  0  0  0  0  0  0  0  0
   -2.0704    1.1992    0.0042 H   0  0  0  0  0  0  0  0  0  0  0  0
   -1.2238   -0.6935    0.0000 C   0  0  0  0  0  0  0  0  0  0  0  0
   -2.0901   -1.1892    0.0018 H   0  0  0  0  0  0  0  0  0  0  0  0
    0.0052   -1.4179   -0.0035 C   0  0  0  0  0  0  0  0  0  0  0  0
   -0.0121   -2.4044   -0.0084 H   0  0  0  0  0  0  0  0  0  0  0  0
    1.2238   -0.7132   -0.0000 C   0  0  0  0  0  0  0  0  0  0  0  0
    2.0986   -1.1954    0.0049 H   0  0  0  0  0  0  0  0  0  0  0  0
    1.2041    0.7084   -0.0005 C   0  0  0  0  0  0  0  0  0  0  0  0
    2.0708    1.1995   -0.0031 H   0  0  0  0  0  0  0  0  0  0  0  0
  1  5  1  0
  5  6  1  0
  5  7  2  0
  1  2  1  0
  1  3  1  0
  1  4  1  0
  8 12  1  0
 12 13  2  0
 13 15  1  0
 15 17  2  0
 17 19  1  0
 19 21  2  0
 21 12  1  0
  8  9  1  0
  8 10  1  0
  8 11  1  0
 13 14  1  0
 15 16  1  0
 17 18  1  0
 19 20  1  0
 21 22  1  0
M  CHG  1   6  -1
M  END
>  <PDB_ID>  (241) 
pdb1dub

>  <RESIDUE_NAME>  (241) 
ASP   PHE

>  <FRAG_NAME>  (241) 
ACET   MBZ

>  <FRAG_ATOM_NUM>  (241) 
fragi: 7  fragj: 15

>  <atom.prop.CHAIN_ID>  (241) 
A A A A A A A Z Z Z Z Z Z Z Z Z Z Z Z Z Z Z

>  <atom.prop.IS_HEAVY_ATOM>  (241) 
1 0 0 0 1 1 1 1 0 0 0 1 1 0 1 0 1 0 1 0 1 0

>  <DIFUSE_FUNC_ATOM>  (241) 
atom 6   atom 7   

>  <FINAL_SINGLE_POINT_ENERGY>  (241) 
0

>  <NONCOV_INTER_ENERGY_QM>  (241) 
0

>  <FF_Energy>  (241) 
-2.45

>  <QM_Energy>  (241) 
-7.61

>  <source>  (241) 
ACET_MBZ_00

>  <Index>  (241) 
8743

$$$$
ACET-pdb1dub-D-ASP-271:MBZ-pdb1dub-D-PHE-287
     RDKit          3D

 22 21  0  0  0  0  0  0  0  0999 V2000
   -4.4696    1.9161    1.1114 C   0  0  0  0  0  0  0  0  0  0  0  0
   -5.0336    2.0295    1.9205 H   0  0  0  0  0  0  0  0  0  0  0  0
   -3.8037    1.1934    1.2469 H   0  0  0  0  0  0  0  0  0  0  0  0
   -5.1176    1.6313    0.2825 H   0  0  0  0  0  0  0  0  0  0  0  0
   -3.7483    3.2019    0.8345 C   0  0  0  0  0  0  0  0  0  0  0  0
   -3.1904    3.3426   -0.2751 O   0  0  0  0  0  1  0  0  0  0  0  0
   -3.7942    4.0994    1.6888 O   0  0  0  0  0  0  0  0  0  0  0  0
    0.0083    2.9416    0.0687 C   0  0  0  0  0  0  0  0  0  0  0  0
    0.9306    3.2276    0.2615 H   0  0  0  0  0  0  0  0  0  0  0  0
   -0.6188    3.2131    0.7783 H   0  0  0  0  0  0  0  0  0  0  0  0
   -0.3059    3.4196   -0.8591 H   0  0  0  0  0  0  0  0  0  0  0  0
   -0.0002    1.4212    0.0019 C   0  0  0  0  0  0  0  0  0  0  0  0
   -1.2061    0.7148   -0.0024 C   0  0  0  0  0  0  0  0  0  0  0  0
   -2.0698    1.1940   -0.0086 H   0  0  0  0  0  0  0  0  0  0  0  0
   -1.2071   -0.7019    0.0000 C   0  0  0  0  0  0  0  0  0  0  0  0
   -2.0815   -1.1900    0.0010 H   0  0  0  0  0  0  0  0  0  0  0  0
    0.0076   -1.4142    0.0031 C   0  0  0  0  0  0  0  0  0  0  0  0
   -0.0102   -2.4081    0.0070 H   0  0  0  0  0  0  0  0  0  0  0  0
    1.2071   -0.7201   -0.0000 C   0  0  0  0  0  0  0  0  0  0  0  0
    2.0907   -1.2011    0.0014 H   0  0  0  0  0  0  0  0  0  0  0  0
    1.1987    0.7001   -0.0026 C   0  0  0  0  0  0  0  0  0  0  0  0
    2.0707    1.1854   -0.0084 H   0  0  0  0  0  0  0  0  0  0  0  0
  1  5  1  0
  5  6  1  0
  5  7  2  0
  1  2  1  0
  1  3  1  0
  1  4  1  0
  8 12  1  0
 12 13  2  0
 13 15  1  0
 15 17  2  0
 17 19  1  0
 19 21  2  0
 21 12  1  0
  8  9  1  0
  8 10  1  0
  8 11  1  0
 13 14  1  0
 15 16  1  0
 17 18  1  0
 19 20  1  0
 21 22  1  0
M  CHG  1   6  -1
M  END
>  <PDB_ID>  (242) 
pdb1dub

>  <RESIDUE_NAME>  (242) 
ASP   PHE

>  <FRAG_NAME>  (242) 
ACET   MBZ

>  <FRAG_ATOM_NUM>  (242) 
fragi: 7  fragj: 15

>  <atom.prop.CHAIN_ID>  (242) 
A A A A A A A Z Z Z Z Z Z Z Z Z Z Z Z Z Z Z

>  <atom.prop.IS_HEAVY_ATOM>  (242) 
1 0 0 0 1 1 1 1 0 0 0 1 1 0 1 0 1 0 1 0 1 0

>  <DIFUSE_FUNC_ATOM>  (242) 
atom 6   atom 7   

>  <FINAL_SINGLE_POINT_ENERGY>  (242) 
0

>  <NONCOV_INTER_ENERGY_QM>  (242) 
0

>  <FF_Energy>  (242) 
20.06

>  <QM_Energy>  (242) 
-7.64

>  <source>  (242) 
ACET_MBZ_00

>  <Index>  (242) 
8749

$$$$
ACET-pdb1dug-B-GLU-133:MBZ-pdb1dug-B-PHE-172
     RDKit          3D

 22 21  0  0  0  0  0  0  0  0999 V2000
   -4.2013    2.5270    0.9237 C   0  0  0  0  0  0  0  0  0  0  0  0
   -3.8762    1.9054    0.2315 H   0  0  0  0  0  0  0  0  0  0  0  0
   -5.1823    2.6191    0.9011 H   0  0  0  0  0  0  0  0  0  0  0  0
   -3.9242    2.1201    1.8963 H   0  0  0  0  0  0  0  0  0  0  0  0
   -3.6021    3.8947    0.6345 C   0  0  0  0  0  0  0  0  0  0  0  0
   -2.5736    4.2510    1.2445 O   0  0  0  0  0  1  0  0  0  0  0  0
   -4.1394    4.6055   -0.2379 O   0  0  0  0  0  0  0  0  0  0  0  0
   -0.0011    2.9085   -0.0416 C   0  0  0  0  0  0  0  0  0  0  0  0
    0.9290    3.2180    0.0653 H   0  0  0  0  0  0  0  0  0  0  0  0
   -0.5802    3.2341    0.6876 H   0  0  0  0  0  0  0  0  0  0  0  0
   -0.3833    3.3151   -0.9779 H   0  0  0  0  0  0  0  0  0  0  0  0
    0.0004    1.4043   -0.0001 C   0  0  0  0  0  0  0  0  0  0  0  0
   -1.1961    0.6937    0.0001 C   0  0  0  0  0  0  0  0  0  0  0  0
   -2.0635    1.1841   -0.0004 H   0  0  0  0  0  0  0  0  0  0  0  0
   -1.2023   -0.6978   -0.0000 C   0  0  0  0  0  0  0  0  0  0  0  0
   -2.0804   -1.1901    0.0015 H   0  0  0  0  0  0  0  0  0  0  0  0
   -0.0028   -1.3973   -0.0001 C   0  0  0  0  0  0  0  0  0  0  0  0
   -0.0056   -2.3945   -0.0007 H   0  0  0  0  0  0  0  0  0  0  0  0
    1.2023   -0.6992    0.0000 C   0  0  0  0  0  0  0  0  0  0  0  0
    2.0820   -1.1968    0.0013 H   0  0  0  0  0  0  0  0  0  0  0  0
    1.1985    0.6962    0.0000 C   0  0  0  0  0  0  0  0  0  0  0  0
    2.0668    1.1903   -0.0008 H   0  0  0  0  0  0  0  0  0  0  0  0
  1  5  1  0
  5  6  1  0
  5  7  2  0
  1  2  1  0
  1  3  1  0
  1  4  1  0
  8 12  1  0
 12 13  2  0
 13 15  1  0
 15 17  2  0
 17 19  1  0
 19 21  2  0
 21 12  1  0
  8  9  1  0
  8 10  1  0
  8 11  1  0
 13 14  1  0
 15 16  1  0
 17 18  1  0
 19 20  1  0
 21 22  1  0
M  CHG  1   6  -1
M  END
>  <PDB_ID>  (243) 
pdb1dug

>  <RESIDUE_NAME>  (243) 
GLU   PHE

>  <FRAG_NAME>  (243) 
ACET   MBZ

>  <FRAG_ATOM_NUM>  (243) 
fragi: 7  fragj: 15

>  <atom.prop.CHAIN_ID>  (243) 
A A A A A A A Z Z Z Z Z Z Z Z Z Z Z Z Z Z Z

>  <atom.prop.IS_HEAVY_ATOM>  (243) 
1 0 0 0 1 1 1 1 0 0 0 1 1 0 1 0 1 0 1 0 1 0

>  <DIFUSE_FUNC_ATOM>  (243) 
atom 6   atom 7   

>  <FINAL_SINGLE_POINT_ENERGY>  (243) 
0

>  <NONCOV_INTER_ENERGY_QM>  (243) 
0

>  <FF_Energy>  (243) 
-0.06

>  <QM_Energy>  (243) 
-5.93

>  <source>  (243) 
ACET_MBZ_00

>  <Index>  (243) 
8758

$$$$
ACET-pdb1dw9-A-GLU-114:MBZ-pdb1dw9-D-PHE-29
     RDKit          3D

 22 21  0  0  0  0  0  0  0  0999 V2000
    5.0764    3.8406   -1.1928 C   0  0  0  0  0  0  0  0  0  0  0  0
    5.2880    4.6698   -0.7468 H   0  0  0  0  0  0  0  0  0  0  0  0
    5.5294    3.6920   -2.0320 H   0  0  0  0  0  0  0  0  0  0  0  0
    5.3439    3.0253   -0.5206 H   0  0  0  0  0  0  0  0  0  0  0  0
    3.5827    3.8013   -1.4446 C   0  0  0  0  0  0  0  0  0  0  0  0
    3.0467    2.7616   -1.8157 O   0  0  0  0  0  1  0  0  0  0  0  0
    3.0141    4.9107   -1.2522 O   0  0  0  0  0  0  0  0  0  0  0  0
   -0.0356    2.8966   -0.0228 C   0  0  0  0  0  0  0  0  0  0  0  0
    0.8776    3.2090    0.0744 H   0  0  0  0  0  0  0  0  0  0  0  0
   -0.6432    3.2008    0.6702 H   0  0  0  0  0  0  0  0  0  0  0  0
   -0.4114    3.2652   -0.9773 H   0  0  0  0  0  0  0  0  0  0  0  0
   -0.0228    1.3772   -0.0124 C   0  0  0  0  0  0  0  0  0  0  0  0
   -1.2030    0.6943   -0.0000 C   0  0  0  0  0  0  0  0  0  0  0  0
   -2.0763    1.1700    0.0073 H   0  0  0  0  0  0  0  0  0  0  0  0
   -1.2132   -0.7179    0.0000 C   0  0  0  0  0  0  0  0  0  0  0  0
   -2.0598   -1.2100   -0.0064 H   0  0  0  0  0  0  0  0  0  0  0  0
    0.0233   -1.3491    0.0116 C   0  0  0  0  0  0  0  0  0  0  0  0
    0.0191   -2.3842    0.0299 H   0  0  0  0  0  0  0  0  0  0  0  0
    1.2132   -0.6993    0.0000 C   0  0  0  0  0  0  0  0  0  0  0  0
    2.0915   -1.1877   -0.0075 H   0  0  0  0  0  0  0  0  0  0  0  0
    1.2024    0.6949    0.0009 C   0  0  0  0  0  0  0  0  0  0  0  0
    2.0507    1.2022    0.0107 H   0  0  0  0  0  0  0  0  0  0  0  0
  1  5  1  0
  5  6  1  0
  5  7  2  0
  1  2  1  0
  1  3  1  0
  1  4  1  0
  8 12  1  0
 12 13  2  0
 13 15  1  0
 15 17  2  0
 17 19  1  0
 19 21  2  0
 21 12  1  0
  8  9  1  0
  8 10  1  0
  8 11  1  0
 13 14  1  0
 15 16  1  0
 17 18  1  0
 19 20  1  0
 21 22  1  0
M  CHG  1   6  -1
M  END
>  <PDB_ID>  (244) 
pdb1dw9

>  <RESIDUE_NAME>  (244) 
GLU   PHE

>  <FRAG_NAME>  (244) 
ACET   MBZ

>  <FRAG_ATOM_NUM>  (244) 
fragi: 7  fragj: 15

>  <atom.prop.CHAIN_ID>  (244) 
A A A A A A A Z Z Z Z Z Z Z Z Z Z Z Z Z Z Z

>  <atom.prop.IS_HEAVY_ATOM>  (244) 
1 0 0 0 1 1 1 1 0 0 0 1 1 0 1 0 1 0 1 0 1 0

>  <DIFUSE_FUNC_ATOM>  (244) 
atom 6   atom 7   

>  <FINAL_SINGLE_POINT_ENERGY>  (244) 
0

>  <NONCOV_INTER_ENERGY_QM>  (244) 
0

>  <FF_Energy>  (244) 
-1.89

>  <QM_Energy>  (244) 
-6.82

>  <source>  (244) 
ACET_MBZ_00

>  <Index>  (244) 
8860

$$$$
ACET-pdb1dw9-B-GLU-114:MBZ-pdb1dw9-F-PHE-29
     RDKit          3D

 22 21  0  0  0  0  0  0  0  0999 V2000
    4.9233    4.1876   -1.0473 C   0  0  0  0  0  0  0  0  0  0  0  0
    5.0492    5.0402   -0.5878 H   0  0  0  0  0  0  0  0  0  0  0  0
    5.4218    4.1207   -1.8848 H   0  0  0  0  0  0  0  0  0  0  0  0
    5.2655    3.3931   -0.3841 H   0  0  0  0  0  0  0  0  0  0  0  0
    3.4542    4.0416   -1.3669 C   0  0  0  0  0  0  0  0  0  0  0  0
    2.9415    2.9948   -1.7987 O   0  0  0  0  0  1  0  0  0  0  0  0
    2.8058    5.1254   -1.2030 O   0  0  0  0  0  0  0  0  0  0  0  0
   -0.1504    2.9065   -0.0192 C   0  0  0  0  0  0  0  0  0  0  0  0
    0.7458    3.2572    0.1354 H   0  0  0  0  0  0  0  0  0  0  0  0
   -0.7963    3.1647    0.6631 H   0  0  0  0  0  0  0  0  0  0  0  0
   -0.5020    3.2828   -0.9798 H   0  0  0  0  0  0  0  0  0  0  0  0
   -0.0602    1.3837   -0.0229 C   0  0  0  0  0  0  0  0  0  0  0  0
   -1.2018    0.6296   -0.0003 C   0  0  0  0  0  0  0  0  0  0  0  0
   -2.1069    1.0905    0.0163 H   0  0  0  0  0  0  0  0  0  0  0  0
   -1.2018   -0.7778    0.0000 C   0  0  0  0  0  0  0  0  0  0  0  0
   -2.0249   -1.2872   -0.0184 H   0  0  0  0  0  0  0  0  0  0  0  0
    0.0625   -1.3685    0.0312 C   0  0  0  0  0  0  0  0  0  0  0  0
    0.1125   -2.3833    0.0780 H   0  0  0  0  0  0  0  0  0  0  0  0
    1.2018   -0.6279    0.0000 C   0  0  0  0  0  0  0  0  0  0  0  0
    2.1234   -1.1049   -0.0174 H   0  0  0  0  0  0  0  0  0  0  0  0
    1.1995    0.7610   -0.0080 C   0  0  0  0  0  0  0  0  0  0  0  0
    2.0165    1.2783   -0.0042 H   0  0  0  0  0  0  0  0  0  0  0  0
  1  5  1  0
  5  6  1  0
  5  7  2  0
  1  2  1  0
  1  3  1  0
  1  4  1  0
  8 12  1  0
 12 13  2  0
 13 15  1  0
 15 17  2  0
 17 19  1  0
 19 21  2  0
 21 12  1  0
  8  9  1  0
  8 10  1  0
  8 11  1  0
 13 14  1  0
 15 16  1  0
 17 18  1  0
 19 20  1  0
 21 22  1  0
M  CHG  1   6  -1
M  END
>  <PDB_ID>  (245) 
pdb1dw9

>  <RESIDUE_NAME>  (245) 
GLU   PHE

>  <FRAG_NAME>  (245) 
ACET   MBZ

>  <FRAG_ATOM_NUM>  (245) 
fragi: 7  fragj: 15

>  <atom.prop.CHAIN_ID>  (245) 
A A A A A A A Z Z Z Z Z Z Z Z Z Z Z Z Z Z Z

>  <atom.prop.IS_HEAVY_ATOM>  (245) 
1 0 0 0 1 1 1 1 0 0 0 1 1 0 1 0 1 0 1 0 1 0

>  <DIFUSE_FUNC_ATOM>  (245) 
atom 6   atom 7   

>  <FINAL_SINGLE_POINT_ENERGY>  (245) 
0

>  <NONCOV_INTER_ENERGY_QM>  (245) 
0

>  <FF_Energy>  (245) 
-1.58

>  <QM_Energy>  (245) 
-7.04

>  <source>  (245) 
ACET_MBZ_00

>  <Index>  (245) 
8865

$$$$
ACET-pdb1dw9-C-GLU-114:MBZ-pdb1dw9-H-PHE-29
     RDKit          3D

 22 21  0  0  0  0  0  0  0  0999 V2000
    5.0568    3.9479   -0.9114 C   0  0  0  0  0  0  0  0  0  0  0  0
    5.2690    4.8009   -0.5034 H   0  0  0  0  0  0  0  0  0  0  0  0
    5.5105    3.7747   -1.7501 H   0  0  0  0  0  0  0  0  0  0  0  0
    5.3307    3.1605   -0.2091 H   0  0  0  0  0  0  0  0  0  0  0  0
    3.5504    3.9194   -1.1794 C   0  0  0  0  0  0  0  0  0  0  0  0
    3.0591    2.8594   -1.5922 O   0  0  0  0  0  1  0  0  0  0  0  0
    2.9950    5.0255   -1.0109 O   0  0  0  0  0  0  0  0  0  0  0  0
   -0.0678    2.9206    0.0332 C   0  0  0  0  0  0  0  0  0  0  0  0
    0.8323    3.2475    0.1982 H   0  0  0  0  0  0  0  0  0  0  0  0
   -0.7197    3.1896    0.7020 H   0  0  0  0  0  0  0  0  0  0  0  0
   -0.3947    3.3234   -0.9255 H   0  0  0  0  0  0  0  0  0  0  0  0
   -0.0263    1.4102   -0.0140 C   0  0  0  0  0  0  0  0  0  0  0  0
   -1.1842    0.6656   -0.0114 C   0  0  0  0  0  0  0  0  0  0  0  0
   -2.0780    1.1527   -0.0194 H   0  0  0  0  0  0  0  0  0  0  0  0
   -1.1992   -0.7147   -0.0000 C   0  0  0  0  0  0  0  0  0  0  0  0
   -2.0612   -1.2150    0.0085 H   0  0  0  0  0  0  0  0  0  0  0  0
    0.0202   -1.3949    0.0014 C   0  0  0  0  0  0  0  0  0  0  0  0
    0.0360   -2.3867    0.0025 H   0  0  0  0  0  0  0  0  0  0  0  0
    1.1992   -0.6624    0.0000 C   0  0  0  0  0  0  0  0  0  0  0  0
    2.0960   -1.1661   -0.0185 H   0  0  0  0  0  0  0  0  0  0  0  0
    1.1904    0.6961    0.0240 C   0  0  0  0  0  0  0  0  0  0  0  0
    2.0441    1.2176    0.0687 H   0  0  0  0  0  0  0  0  0  0  0  0
  1  5  1  0
  5  6  1  0
  5  7  2  0
  1  2  1  0
  1  3  1  0
  1  4  1  0
  8 12  1  0
 12 13  2  0
 13 15  1  0
 15 17  2  0
 17 19  1  0
 19 21  2  0
 21 12  1  0
  8  9  1  0
  8 10  1  0
  8 11  1  0
 13 14  1  0
 15 16  1  0
 17 18  1  0
 19 20  1  0
 21 22  1  0
M  CHG  1   6  -1
M  END
>  <PDB_ID>  (246) 
pdb1dw9

>  <RESIDUE_NAME>  (246) 
GLU   PHE

>  <FRAG_NAME>  (246) 
ACET   MBZ

>  <FRAG_ATOM_NUM>  (246) 
fragi: 7  fragj: 15

>  <atom.prop.CHAIN_ID>  (246) 
A A A A A A A Z Z Z Z Z Z Z Z Z Z Z Z Z Z Z

>  <atom.prop.IS_HEAVY_ATOM>  (246) 
1 0 0 0 1 1 1 1 0 0 0 1 1 0 1 0 1 0 1 0 1 0

>  <DIFUSE_FUNC_ATOM>  (246) 
atom 6   atom 7   

>  <FINAL_SINGLE_POINT_ENERGY>  (246) 
0

>  <NONCOV_INTER_ENERGY_QM>  (246) 
0

>  <FF_Energy>  (246) 
-1.59

>  <QM_Energy>  (246) 
-7.1

>  <source>  (246) 
ACET_MBZ_00

>  <Index>  (246) 
8871

$$$$
ACET-pdb1dw9-I-GLU-114:MBZ-pdb1dw9-J-PHE-29
     RDKit          3D

 22 21  0  0  0  0  0  0  0  0999 V2000
    5.0247    4.0395   -1.1536 C   0  0  0  0  0  0  0  0  0  0  0  0
    5.1803    4.9123   -0.7581 H   0  0  0  0  0  0  0  0  0  0  0  0
    5.4838    3.8951   -1.9977 H   0  0  0  0  0  0  0  0  0  0  0  0
    5.3510    3.2771   -0.4462 H   0  0  0  0  0  0  0  0  0  0  0  0
    3.5177    3.9184   -1.4246 C   0  0  0  0  0  0  0  0  0  0  0  0
    3.0610    2.8712   -1.8795 O   0  0  0  0  0  1  0  0  0  0  0  0
    2.9666    5.0443   -1.3156 O   0  0  0  0  0  0  0  0  0  0  0  0
   -0.0144    2.9181   -0.0796 C   0  0  0  0  0  0  0  0  0  0  0  0
    0.9054    3.2235    0.0211 H   0  0  0  0  0  0  0  0  0  0  0  0
   -0.6153    3.2413    0.6153 H   0  0  0  0  0  0  0  0  0  0  0  0
   -0.3839    3.2870   -1.0364 H   0  0  0  0  0  0  0  0  0  0  0  0
   -0.0197    1.4076   -0.0474 C   0  0  0  0  0  0  0  0  0  0  0  0
   -1.1913    0.6783    0.0020 C   0  0  0  0  0  0  0  0  0  0  0  0
   -2.0741    1.1593    0.0400 H   0  0  0  0  0  0  0  0  0  0  0  0
   -1.1971   -0.7146    0.0000 C   0  0  0  0  0  0  0  0  0  0  0  0
   -2.0700   -1.2061   -0.0348 H   0  0  0  0  0  0  0  0  0  0  0  0
    0.0022   -1.3926    0.0479 C   0  0  0  0  0  0  0  0  0  0  0  0
    0.0150   -2.3890    0.1163 H   0  0  0  0  0  0  0  0  0  0  0  0
    1.1971   -0.6821   -0.0000 C   0  0  0  0  0  0  0  0  0  0  0  0
    2.0840   -1.1879   -0.0330 H   0  0  0  0  0  0  0  0  0  0  0  0
    1.2087    0.7035   -0.0025 C   0  0  0  0  0  0  0  0  0  0  0  0
    2.0567    1.2070    0.0260 H   0  0  0  0  0  0  0  0  0  0  0  0
  1  5  1  0
  5  6  1  0
  5  7  2  0
  1  2  1  0
  1  3  1  0
  1  4  1  0
  8 12  1  0
 12 13  2  0
 13 15  1  0
 15 17  2  0
 17 19  1  0
 19 21  2  0
 21 12  1  0
  8  9  1  0
  8 10  1  0
  8 11  1  0
 13 14  1  0
 15 16  1  0
 17 18  1  0
 19 20  1  0
 21 22  1  0
M  CHG  1   6  -1
M  END
>  <PDB_ID>  (247) 
pdb1dw9

>  <RESIDUE_NAME>  (247) 
GLU   PHE

>  <FRAG_NAME>  (247) 
ACET   MBZ

>  <FRAG_ATOM_NUM>  (247) 
fragi: 7  fragj: 15

>  <atom.prop.CHAIN_ID>  (247) 
A A A A A A A Z Z Z Z Z Z Z Z Z Z Z Z Z Z Z

>  <atom.prop.IS_HEAVY_ATOM>  (247) 
1 0 0 0 1 1 1 1 0 0 0 1 1 0 1 0 1 0 1 0 1 0

>  <DIFUSE_FUNC_ATOM>  (247) 
atom 6   atom 7   

>  <FINAL_SINGLE_POINT_ENERGY>  (247) 
0

>  <NONCOV_INTER_ENERGY_QM>  (247) 
0

>  <FF_Energy>  (247) 
-1.59

>  <QM_Energy>  (247) 
-6.6

>  <source>  (247) 
ACET_MBZ_00

>  <Index>  (247) 
8876

$$$$
ACET-pdb1dub-C-GLU-68:MBZ-pdb1dub-C-PHE-33
     RDKit          3D

 22 21  0  0  0  0  0  0  0  0999 V2000
   -3.8814    1.3014    2.2250 C   0  0  0  0  0  0  0  0  0  0  0  0
   -3.9674    0.8175    1.3738 H   0  0  0  0  0  0  0  0  0  0  0  0
   -4.7398    1.3744    2.6994 H   0  0  0  0  0  0  0  0  0  0  0  0
   -3.1696    0.7735    2.8596 H   0  0  0  0  0  0  0  0  0  0  0  0
   -3.4317    2.7189    1.8926 C   0  0  0  0  0  0  0  0  0  0  0  0
   -2.4277    3.2061    2.4972 O   0  0  0  0  0  1  0  0  0  0  0  0
   -4.0927    3.3331    1.0096 O   0  0  0  0  0  0  0  0  0  0  0  0
    0.0258    2.9374    0.0036 C   0  0  0  0  0  0  0  0  0  0  0  0
    0.9082    3.2283   -0.3372 H   0  0  0  0  0  0  0  0  0  0  0  0
   -0.1181    3.2421    0.9338 H   0  0  0  0  0  0  0  0  0  0  0  0
   -0.7383    3.4037   -0.6184 H   0  0  0  0  0  0  0  0  0  0  0  0
    0.0008    1.4248    0.0001 C   0  0  0  0  0  0  0  0  0  0  0  0
   -1.2023    0.7175    0.0015 C   0  0  0  0  0  0  0  0  0  0  0  0
   -2.0684    1.1953    0.0022 H   0  0  0  0  0  0  0  0  0  0  0  0
   -1.2124   -0.7079   -0.0000 C   0  0  0  0  0  0  0  0  0  0  0  0
   -2.0885   -1.1862    0.0036 H   0  0  0  0  0  0  0  0  0  0  0  0
   -0.0011   -1.4195   -0.0047 C   0  0  0  0  0  0  0  0  0  0  0  0
   -0.0108   -2.4120   -0.0116 H   0  0  0  0  0  0  0  0  0  0  0  0
    1.2124   -0.7195    0.0000 C   0  0  0  0  0  0  0  0  0  0  0  0
    2.0904   -1.2027    0.0028 H   0  0  0  0  0  0  0  0  0  0  0  0
    1.2025    0.7046    0.0030 C   0  0  0  0  0  0  0  0  0  0  0  0
    2.0733    1.1894    0.0063 H   0  0  0  0  0  0  0  0  0  0  0  0
  1  5  1  0
  5  6  1  0
  5  7  2  0
  1  2  1  0
  1  3  1  0
  1  4  1  0
  8 12  1  0
 12 13  2  0
 13 15  1  0
 15 17  2  0
 17 19  1  0
 19 21  2  0
 21 12  1  0
  8  9  1  0
  8 10  1  0
  8 11  1  0
 13 14  1  0
 15 16  1  0
 17 18  1  0
 19 20  1  0
 21 22  1  0
M  CHG  1   6  -1
M  END
>  <PDB_ID>  (248) 
pdb1dub

>  <RESIDUE_NAME>  (248) 
GLU   PHE

>  <FRAG_NAME>  (248) 
ACET   MBZ

>  <FRAG_ATOM_NUM>  (248) 
fragi: 7  fragj: 15

>  <atom.prop.CHAIN_ID>  (248) 
A A A A A A A Z Z Z Z Z Z Z Z Z Z Z Z Z Z Z

>  <atom.prop.IS_HEAVY_ATOM>  (248) 
1 0 0 0 1 1 1 1 0 0 0 1 1 0 1 0 1 0 1 0 1 0

>  <DIFUSE_FUNC_ATOM>  (248) 
atom 6   atom 7   

>  <FINAL_SINGLE_POINT_ENERGY>  (248) 
0

>  <NONCOV_INTER_ENERGY_QM>  (248) 
0

>  <FF_Energy>  (248) 
-1.6

>  <QM_Energy>  (248) 
-6.77

>  <source>  (248) 
ACET_MBZ_00

>  <Index>  (248) 
8965

$$$$
ACET-pdb2eq6-A-ASP-291:MBZ-pdb2eq6-A-PHE-295
     RDKit          3D

 22 21  0  0  0  0  0  0  0  0999 V2000
   -4.2417    5.8078    0.2736 C   0  0  0  0  0  0  0  0  0  0  0  0
   -5.2008    5.6813    0.0376 H   0  0  0  0  0  0  0  0  0  0  0  0
   -3.8073    6.4242   -0.3764 H   0  0  0  0  0  0  0  0  0  0  0  0
   -4.2007    6.2780    1.2561 H   0  0  0  0  0  0  0  0  0  0  0  0
   -3.5398    4.4528    0.2067 C   0  0  0  0  0  0  0  0  0  0  0  0
   -3.3646    3.7774    1.2423 O   0  0  0  0  0  1  0  0  0  0  0  0
   -3.1873    4.0494   -0.9263 O   0  0  0  0  0  0  0  0  0  0  0  0
    0.0080    2.8969    0.0224 C   0  0  0  0  0  0  0  0  0  0  0  0
   -0.8994    3.2153   -0.2101 H   0  0  0  0  0  0  0  0  0  0  0  0
    0.6777    3.2134   -0.6341 H   0  0  0  0  0  0  0  0  0  0  0  0
    0.2688    3.3237    0.9909 H   0  0  0  0  0  0  0  0  0  0  0  0
    0.0006    1.4020    0.0003 C   0  0  0  0  0  0  0  0  0  0  0  0
   -1.1976    0.6977   -0.0008 C   0  0  0  0  0  0  0  0  0  0  0  0
   -2.0630    1.1871   -0.0035 H   0  0  0  0  0  0  0  0  0  0  0  0
   -1.2045   -0.6969   -0.0000 C   0  0  0  0  0  0  0  0  0  0  0  0
   -2.0816   -1.1879    0.0007 H   0  0  0  0  0  0  0  0  0  0  0  0
   -0.0025   -1.3962    0.0013 C   0  0  0  0  0  0  0  0  0  0  0  0
   -0.0067   -2.3938    0.0024 H   0  0  0  0  0  0  0  0  0  0  0  0
    1.2045   -0.6992    0.0000 C   0  0  0  0  0  0  0  0  0  0  0  0
    2.0829   -1.1982    0.0011 H   0  0  0  0  0  0  0  0  0  0  0  0
    1.1995    0.6926   -0.0007 C   0  0  0  0  0  0  0  0  0  0  0  0
    2.0666    1.1892   -0.0029 H   0  0  0  0  0  0  0  0  0  0  0  0
  1  5  1  0
  5  6  1  0
  5  7  2  0
  1  2  1  0
  1  3  1  0
  1  4  1  0
  8 12  1  0
 12 13  2  0
 13 15  1  0
 15 17  2  0
 17 19  1  0
 19 21  2  0
 21 12  1  0
  8  9  1  0
  8 10  1  0
  8 11  1  0
 13 14  1  0
 15 16  1  0
 17 18  1  0
 19 20  1  0
 21 22  1  0
M  CHG  1   6  -1
M  END
>  <PDB_ID>  (249) 
pdb2eq6

>  <RESIDUE_NAME>  (249) 
ASP   PHE

>  <FRAG_NAME>  (249) 
ACET   MBZ

>  <FRAG_ATOM_NUM>  (249) 
fragi: 7  fragj: 15

>  <atom.prop.CHAIN_ID>  (249) 
A A A A A A A Z Z Z Z Z Z Z Z Z Z Z Z Z Z Z

>  <atom.prop.IS_HEAVY_ATOM>  (249) 
1 0 0 0 1 1 1 1 0 0 0 1 1 0 1 0 1 0 1 0 1 0

>  <DIFUSE_FUNC_ATOM>  (249) 
atom 6   atom 7   

>  <FINAL_SINGLE_POINT_ENERGY>  (249) 
0

>  <NONCOV_INTER_ENERGY_QM>  (249) 
0

>  <FF_Energy>  (249) 
-2.27

>  <QM_Energy>  (249) 
-8.36

>  <source>  (249) 
ACET_MBZ_00

>  <Index>  (249) 
9028

$$$$
ACET-pdb2eq9-D-ASP-291:MBZ-pdb2eq9-D-PHE-295
     RDKit          3D

 22 21  0  0  0  0  0  0  0  0999 V2000
   -4.2984    5.2290   -0.8815 C   0  0  0  0  0  0  0  0  0  0  0  0
   -5.1476    4.8254   -1.2063 H   0  0  0  0  0  0  0  0  0  0  0  0
   -3.9046    5.8159   -1.5806 H   0  0  0  0  0  0  0  0  0  0  0  0
   -4.5310    5.8475   -0.0147 H   0  0  0  0  0  0  0  0  0  0  0  0
   -3.3177    4.1163   -0.5680 C   0  0  0  0  0  0  0  0  0  0  0  0
   -3.4941    3.4234    0.4581 O   0  0  0  0  0  1  0  0  0  0  0  0
   -2.3715    3.9271   -1.3656 O   0  0  0  0  0  0  0  0  0  0  0  0
    0.0040    2.9160   -0.0283 C   0  0  0  0  0  0  0  0  0  0  0  0
   -0.8572    3.2155   -0.4135 H   0  0  0  0  0  0  0  0  0  0  0  0
    0.7665    3.2081   -0.5879 H   0  0  0  0  0  0  0  0  0  0  0  0
    0.1116    3.3846    0.9499 H   0  0  0  0  0  0  0  0  0  0  0  0
    0.0004    1.4063   -0.0002 C   0  0  0  0  0  0  0  0  0  0  0  0
   -1.1954    0.6978    0.0012 C   0  0  0  0  0  0  0  0  0  0  0  0
   -2.0641    1.1842    0.0016 H   0  0  0  0  0  0  0  0  0  0  0  0
   -1.2017   -0.7017   -0.0000 C   0  0  0  0  0  0  0  0  0  0  0  0
   -2.0783   -1.1904    0.0014 H   0  0  0  0  0  0  0  0  0  0  0  0
   -0.0002   -1.3985   -0.0015 C   0  0  0  0  0  0  0  0  0  0  0  0
   -0.0025   -2.3957   -0.0041 H   0  0  0  0  0  0  0  0  0  0  0  0
    1.2017   -0.6992    0.0000 C   0  0  0  0  0  0  0  0  0  0  0  0
    2.0832   -1.1943    0.0021 H   0  0  0  0  0  0  0  0  0  0  0  0
    1.1952    0.6953    0.0004 C   0  0  0  0  0  0  0  0  0  0  0  0
    2.0651    1.1905    0.0007 H   0  0  0  0  0  0  0  0  0  0  0  0
  1  5  1  0
  5  6  1  0
  5  7  2  0
  1  2  1  0
  1  3  1  0
  1  4  1  0
  8 12  1  0
 12 13  2  0
 13 15  1  0
 15 17  2  0
 17 19  1  0
 19 21  2  0
 21 12  1  0
  8  9  1  0
  8 10  1  0
  8 11  1  0
 13 14  1  0
 15 16  1  0
 17 18  1  0
 19 20  1  0
 21 22  1  0
M  CHG  1   6  -1
M  END
>  <PDB_ID>  (250) 
pdb2eq9

>  <RESIDUE_NAME>  (250) 
ASP   PHE

>  <FRAG_NAME>  (250) 
ACET   MBZ

>  <FRAG_ATOM_NUM>  (250) 
fragi: 7  fragj: 15

>  <atom.prop.CHAIN_ID>  (250) 
A A A A A A A Z Z Z Z Z Z Z Z Z Z Z Z Z Z Z

>  <atom.prop.IS_HEAVY_ATOM>  (250) 
1 0 0 0 1 1 1 1 0 0 0 1 1 0 1 0 1 0 1 0 1 0

>  <DIFUSE_FUNC_ATOM>  (250) 
atom 6   atom 7   

>  <FINAL_SINGLE_POINT_ENERGY>  (250) 
0

>  <NONCOV_INTER_ENERGY_QM>  (250) 
0

>  <FF_Energy>  (250) 
9.59

>  <QM_Energy>  (250) 
-7.68

>  <source>  (250) 
ACET_MBZ_00

>  <Index>  (250) 
9101

$$$$
ACET-pdb2eq9-E-ASP-291:MBZ-pdb2eq9-E-PHE-295
     RDKit          3D

 22 21  0  0  0  0  0  0  0  0999 V2000
   -4.4434    5.4866   -1.0706 C   0  0  0  0  0  0  0  0  0  0  0  0
   -5.2338    5.1743   -1.5855 H   0  0  0  0  0  0  0  0  0  0  0  0
   -3.9420    6.1727   -1.5846 H   0  0  0  0  0  0  0  0  0  0  0  0
   -4.8019    5.9497   -0.1513 H   0  0  0  0  0  0  0  0  0  0  0  0
   -3.5277    4.3005   -0.8160 C   0  0  0  0  0  0  0  0  0  0  0  0
   -3.9359    3.3556   -0.1042 O   0  0  0  0  0  1  0  0  0  0  0  0
   -2.3959    4.3151   -1.3399 O   0  0  0  0  0  0  0  0  0  0  0  0
    0.0037    2.9035    0.0280 C   0  0  0  0  0  0  0  0  0  0  0  0
   -0.7441    3.2235   -0.5342 H   0  0  0  0  0  0  0  0  0  0  0  0
    0.8751    3.2159   -0.3184 H   0  0  0  0  0  0  0  0  0  0  0  0
   -0.1270    3.3241    1.0251 H   0  0  0  0  0  0  0  0  0  0  0  0
    0.0001    1.4031   -0.0008 C   0  0  0  0  0  0  0  0  0  0  0  0
   -1.1974    0.6934    0.0002 C   0  0  0  0  0  0  0  0  0  0  0  0
   -2.0645    1.1833   -0.0006 H   0  0  0  0  0  0  0  0  0  0  0  0
   -1.2033   -0.7004   -0.0000 C   0  0  0  0  0  0  0  0  0  0  0  0
   -2.0792   -1.1925   -0.0003 H   0  0  0  0  0  0  0  0  0  0  0  0
   -0.0005   -1.3953    0.0016 C   0  0  0  0  0  0  0  0  0  0  0  0
   -0.0007   -2.3929    0.0034 H   0  0  0  0  0  0  0  0  0  0  0  0
    1.2033   -0.6951    0.0000 C   0  0  0  0  0  0  0  0  0  0  0  0
    2.0829   -1.1944    0.0012 H   0  0  0  0  0  0  0  0  0  0  0  0
    1.1977    0.6944   -0.0010 C   0  0  0  0  0  0  0  0  0  0  0  0
    2.0655    1.1926   -0.0021 H   0  0  0  0  0  0  0  0  0  0  0  0
  1  5  1  0
  5  6  1  0
  5  7  2  0
  1  2  1  0
  1  3  1  0
  1  4  1  0
  8 12  1  0
 12 13  2  0
 13 15  1  0
 15 17  2  0
 17 19  1  0
 19 21  2  0
 21 12  1  0
  8  9  1  0
  8 10  1  0
  8 11  1  0
 13 14  1  0
 15 16  1  0
 17 18  1  0
 19 20  1  0
 21 22  1  0
M  CHG  1   6  -1
M  END
>  <PDB_ID>  (251) 
pdb2eq9

>  <RESIDUE_NAME>  (251) 
ASP   PHE

>  <FRAG_NAME>  (251) 
ACET   MBZ

>  <FRAG_ATOM_NUM>  (251) 
fragi: 7  fragj: 15

>  <atom.prop.CHAIN_ID>  (251) 
A A A A A A A Z Z Z Z Z Z Z Z Z Z Z Z Z Z Z

>  <atom.prop.IS_HEAVY_ATOM>  (251) 
1 0 0 0 1 1 1 1 0 0 0 1 1 0 1 0 1 0 1 0 1 0

>  <DIFUSE_FUNC_ATOM>  (251) 
atom 6   atom 7   

>  <FINAL_SINGLE_POINT_ENERGY>  (251) 
0

>  <NONCOV_INTER_ENERGY_QM>  (251) 
0

>  <FF_Energy>  (251) 
-1.96

>  <QM_Energy>  (251) 
-8.51

>  <source>  (251) 
ACET_MBZ_00

>  <Index>  (251) 
9107

$$$$
ACET-pdb2eq9-K-ASP-291:MBZ-pdb2eq9-K-PHE-295
     RDKit          3D

 22 21  0  0  0  0  0  0  0  0999 V2000
   -4.7759    5.3470   -0.0619 C   0  0  0  0  0  0  0  0  0  0  0  0
   -5.5999    4.8835   -0.3644 H   0  0  0  0  0  0  0  0  0  0  0  0
   -4.5309    6.0718   -0.6948 H   0  0  0  0  0  0  0  0  0  0  0  0
   -4.9828    5.8022    0.9067 H   0  0  0  0  0  0  0  0  0  0  0  0
   -3.6394    4.3375   -0.0093 C   0  0  0  0  0  0  0  0  0  0  0  0
   -3.7755    3.3097    0.6885 O   0  0  0  0  0  1  0  0  0  0  0  0
   -2.6076    4.5746   -0.6715 O   0  0  0  0  0  0  0  0  0  0  0  0
    0.0046    2.9076    0.0069 C   0  0  0  0  0  0  0  0  0  0  0  0
   -0.8404    3.2176   -0.4038 H   0  0  0  0  0  0  0  0  0  0  0  0
    0.7895    3.2134   -0.5119 H   0  0  0  0  0  0  0  0  0  0  0  0
    0.0716    3.3450    1.0029 H   0  0  0  0  0  0  0  0  0  0  0  0
    0.0007    1.4038   -0.0001 C   0  0  0  0  0  0  0  0  0  0  0  0
   -1.1978    0.6972    0.0007 C   0  0  0  0  0  0  0  0  0  0  0  0
   -2.0637    1.1873    0.0001 H   0  0  0  0  0  0  0  0  0  0  0  0
   -1.2037   -0.6968    0.0000 C   0  0  0  0  0  0  0  0  0  0  0  0
   -2.0807   -1.1882    0.0012 H   0  0  0  0  0  0  0  0  0  0  0  0
   -0.0011   -1.3971   -0.0009 C   0  0  0  0  0  0  0  0  0  0  0  0
   -0.0061   -2.3941   -0.0032 H   0  0  0  0  0  0  0  0  0  0  0  0
    1.2037   -0.7003   -0.0000 C   0  0  0  0  0  0  0  0  0  0  0  0
    2.0834   -1.1980    0.0023 H   0  0  0  0  0  0  0  0  0  0  0  0
    1.1982    0.6932    0.0004 C   0  0  0  0  0  0  0  0  0  0  0  0
    2.0666    1.1888   -0.0003 H   0  0  0  0  0  0  0  0  0  0  0  0
  1  5  1  0
  5  6  1  0
  5  7  2  0
  1  2  1  0
  1  3  1  0
  1  4  1  0
  8 12  1  0
 12 13  2  0
 13 15  1  0
 15 17  2  0
 17 19  1  0
 19 21  2  0
 21 12  1  0
  8  9  1  0
  8 10  1  0
  8 11  1  0
 13 14  1  0
 15 16  1  0
 17 18  1  0
 19 20  1  0
 21 22  1  0
M  CHG  1   6  -1
M  END
>  <PDB_ID>  (252) 
pdb2eq9

>  <RESIDUE_NAME>  (252) 
ASP   PHE

>  <FRAG_NAME>  (252) 
ACET   MBZ

>  <FRAG_ATOM_NUM>  (252) 
fragi: 7  fragj: 15

>  <atom.prop.CHAIN_ID>  (252) 
A A A A A A A Z Z Z Z Z Z Z Z Z Z Z Z Z Z Z

>  <atom.prop.IS_HEAVY_ATOM>  (252) 
1 0 0 0 1 1 1 1 0 0 0 1 1 0 1 0 1 0 1 0 1 0

>  <DIFUSE_FUNC_ATOM>  (252) 
atom 6   atom 7   

>  <FINAL_SINGLE_POINT_ENERGY>  (252) 
0

>  <NONCOV_INTER_ENERGY_QM>  (252) 
0

>  <FF_Energy>  (252) 
-1.33

>  <QM_Energy>  (252) 
-8.53

>  <source>  (252) 
ACET_MBZ_00

>  <Index>  (252) 
9131

$$$$
ACET-pdb1dw9-D-GLU-114:MBZ-pdb1dw9-A-PHE-29
     RDKit          3D

 22 21  0  0  0  0  0  0  0  0999 V2000
    5.0226    4.0984   -1.2904 C   0  0  0  0  0  0  0  0  0  0  0  0
    5.1966    4.9781   -0.9404 H   0  0  0  0  0  0  0  0  0  0  0  0
    5.4589    3.8815   -2.1211 H   0  0  0  0  0  0  0  0  0  0  0  0
    5.3587    3.3776   -0.5451 H   0  0  0  0  0  0  0  0  0  0  0  0
    3.5109    3.9537   -1.4921 C   0  0  0  0  0  0  0  0  0  0  0  0
    3.0647    2.8487   -1.8941 O   0  0  0  0  0  1  0  0  0  0  0  0
    2.8200    5.0438   -1.4198 O   0  0  0  0  0  0  0  0  0  0  0  0
   -0.0416    2.9139   -0.0585 C   0  0  0  0  0  0  0  0  0  0  0  0
    0.8700    3.2290   -0.0168 H   0  0  0  0  0  0  0  0  0  0  0  0
   -0.6216    3.2226    0.6484 H   0  0  0  0  0  0  0  0  0  0  0  0
   -0.4672    3.2320   -1.0102 H   0  0  0  0  0  0  0  0  0  0  0  0
   -0.0167    1.3920   -0.0172 C   0  0  0  0  0  0  0  0  0  0  0  0
   -1.2021    0.6734    0.0107 C   0  0  0  0  0  0  0  0  0  0  0  0
   -2.0761    1.1577    0.0378 H   0  0  0  0  0  0  0  0  0  0  0  0
   -1.2026   -0.7178    0.0000 C   0  0  0  0  0  0  0  0  0  0  0  0
   -2.0649   -1.2190   -0.0243 H   0  0  0  0  0  0  0  0  0  0  0  0
    0.0164   -1.3877    0.0255 C   0  0  0  0  0  0  0  0  0  0  0  0
    0.0268   -2.3904    0.0620 H   0  0  0  0  0  0  0  0  0  0  0  0
    1.2026   -0.6789   -0.0000 C   0  0  0  0  0  0  0  0  0  0  0  0
    2.0946   -1.1696   -0.0036 H   0  0  0  0  0  0  0  0  0  0  0  0
    1.2024    0.7190   -0.0190 C   0  0  0  0  0  0  0  0  0  0  0  0
    2.0528    1.2173   -0.0339 H   0  0  0  0  0  0  0  0  0  0  0  0
  1  5  1  0
  5  6  1  0
  5  7  2  0
  1  2  1  0
  1  3  1  0
  1  4  1  0
  8 12  1  0
 12 13  2  0
 13 15  1  0
 15 17  2  0
 17 19  1  0
 19 21  2  0
 21 12  1  0
  8  9  1  0
  8 10  1  0
  8 11  1  0
 13 14  1  0
 15 16  1  0
 17 18  1  0
 19 20  1  0
 21 22  1  0
M  CHG  1   6  -1
M  END
>  <PDB_ID>  (253) 
pdb1dw9

>  <RESIDUE_NAME>  (253) 
GLU   PHE

>  <FRAG_NAME>  (253) 
ACET   MBZ

>  <FRAG_ATOM_NUM>  (253) 
fragi: 7  fragj: 15

>  <atom.prop.CHAIN_ID>  (253) 
A A A A A A A Z Z Z Z Z Z Z Z Z Z Z Z Z Z Z

>  <atom.prop.IS_HEAVY_ATOM>  (253) 
1 0 0 0 1 1 1 1 0 0 0 1 1 0 1 0 1 0 1 0 1 0

>  <DIFUSE_FUNC_ATOM>  (253) 
atom 6   atom 7   

>  <FINAL_SINGLE_POINT_ENERGY>  (253) 
0

>  <NONCOV_INTER_ENERGY_QM>  (253) 
0

>  <FF_Energy>  (253) 
-1.67

>  <QM_Energy>  (253) 
-6.97

>  <source>  (253) 
ACET_MBZ_00

>  <Index>  (253) 
9138

$$$$
ACET-pdb1e0t-A-ASP-177:MBZ-pdb1e0t-A-PHE-35
     RDKit          3D

 22 21  0  0  0  0  0  0  0  0999 V2000
    2.1629    1.6881   -3.2449 C   0  0  0  0  0  0  0  0  0  0  0  0
    1.8901    2.4544   -3.8257 H   0  0  0  0  0  0  0  0  0  0  0  0
    1.3486    1.2195   -2.9053 H   0  0  0  0  0  0  0  0  0  0  0  0
    2.7345    0.9853   -3.8511 H   0  0  0  0  0  0  0  0  0  0  0  0
    2.9280    2.2470   -2.0459 C   0  0  0  0  0  0  0  0  0  0  0  0
    3.7780    1.5073   -1.4814 O   0  0  0  0  0  1  0  0  0  0  0  0
    2.6654    3.4261   -1.6683 O   0  0  0  0  0  0  0  0  0  0  0  0
    0.0332    2.9235    0.0534 C   0  0  0  0  0  0  0  0  0  0  0  0
   -0.6529    3.2599   -0.5434 H   0  0  0  0  0  0  0  0  0  0  0  0
    0.9333    3.2157   -0.1581 H   0  0  0  0  0  0  0  0  0  0  0  0
   -0.2016    3.2658    1.0612 H   0  0  0  0  0  0  0  0  0  0  0  0
    0.0039    1.4026   -0.0015 C   0  0  0  0  0  0  0  0  0  0  0  0
   -1.1836    0.7061   -0.0040 C   0  0  0  0  0  0  0  0  0  0  0  0
   -2.0503    1.1792   -0.0101 H   0  0  0  0  0  0  0  0  0  0  0  0
   -1.1556   -0.6818    0.0000 C   0  0  0  0  0  0  0  0  0  0  0  0
   -2.0578   -1.1778   -0.0056 H   0  0  0  0  0  0  0  0  0  0  0  0
    0.0066   -1.3917    0.0128 C   0  0  0  0  0  0  0  0  0  0  0  0
   -0.0101   -2.3874    0.0306 H   0  0  0  0  0  0  0  0  0  0  0  0
    1.1556   -0.7002   -0.0000 C   0  0  0  0  0  0  0  0  0  0  0  0
    2.0633   -1.2008   -0.0033 H   0  0  0  0  0  0  0  0  0  0  0  0
    1.1731    0.6650   -0.0072 C   0  0  0  0  0  0  0  0  0  0  0  0
    2.0572    1.1540   -0.0181 H   0  0  0  0  0  0  0  0  0  0  0  0
  1  5  1  0
  5  6  1  0
  5  7  2  0
  1  2  1  0
  1  3  1  0
  1  4  1  0
  8 12  1  0
 12 13  2  0
 13 15  1  0
 15 17  2  0
 17 19  1  0
 19 21  2  0
 21 12  1  0
  8  9  1  0
  8 10  1  0
  8 11  1  0
 13 14  1  0
 15 16  1  0
 17 18  1  0
 19 20  1  0
 21 22  1  0
M  CHG  1   6  -1
M  END
>  <PDB_ID>  (254) 
pdb1e0t

>  <RESIDUE_NAME>  (254) 
ASP   PHE

>  <FRAG_NAME>  (254) 
ACET   MBZ

>  <FRAG_ATOM_NUM>  (254) 
fragi: 7  fragj: 15

>  <atom.prop.CHAIN_ID>  (254) 
A A A A A A A Z Z Z Z Z Z Z Z Z Z Z Z Z Z Z

>  <atom.prop.IS_HEAVY_ATOM>  (254) 
1 0 0 0 1 1 1 1 0 0 0 1 1 0 1 0 1 0 1 0 1 0

>  <DIFUSE_FUNC_ATOM>  (254) 
atom 6   atom 7   

>  <FINAL_SINGLE_POINT_ENERGY>  (254) 
0

>  <NONCOV_INTER_ENERGY_QM>  (254) 
0

>  <FF_Energy>  (254) 
1.06

>  <QM_Energy>  (254) 
-7.88

>  <source>  (254) 
ACET_MBZ_00

>  <Index>  (254) 
9153

$$$$
ACET-pdb1e0t-B-ASP-177:MBZ-pdb1e0t-B-PHE-35
     RDKit          3D

 22 21  0  0  0  0  0  0  0  0999 V2000
    3.1902    1.7109   -2.7770 C   0  0  0  0  0  0  0  0  0  0  0  0
    3.2552    2.4192   -3.4759 H   0  0  0  0  0  0  0  0  0  0  0  0
    2.2459    1.4035   -2.6915 H   0  0  0  0  0  0  0  0  0  0  0  0
    3.7901    0.8619   -3.1048 H   0  0  0  0  0  0  0  0  0  0  0  0
    3.6347    2.2961   -1.4485 C   0  0  0  0  0  0  0  0  0  0  0  0
    4.6106    1.8184   -0.8475 O   0  0  0  0  0  1  0  0  0  0  0  0
    2.9578    3.2191   -0.9791 O   0  0  0  0  0  0  0  0  0  0  0  0
    0.0158    2.9094    0.0138 C   0  0  0  0  0  0  0  0  0  0  0  0
   -0.5133    3.2285   -0.7535 H   0  0  0  0  0  0  0  0  0  0  0  0
    0.9531    3.2093   -0.0330 H   0  0  0  0  0  0  0  0  0  0  0  0
   -0.4220    3.3361    0.9162 H   0  0  0  0  0  0  0  0  0  0  0  0
    0.0024    1.4046    0.0018 C   0  0  0  0  0  0  0  0  0  0  0  0
   -1.1926    0.6983   -0.0101 C   0  0  0  0  0  0  0  0  0  0  0  0
   -2.0601    1.1859   -0.0272 H   0  0  0  0  0  0  0  0  0  0  0  0
   -1.1967   -0.6967   -0.0000 C   0  0  0  0  0  0  0  0  0  0  0  0
   -2.0739   -1.1886   -0.0001 H   0  0  0  0  0  0  0  0  0  0  0  0
    0.0059   -1.3963    0.0125 C   0  0  0  0  0  0  0  0  0  0  0  0
    0.0001   -2.3921    0.0294 H   0  0  0  0  0  0  0  0  0  0  0  0
    1.1967   -0.6952    0.0000 C   0  0  0  0  0  0  0  0  0  0  0  0
    2.0829   -1.1906   -0.0044 H   0  0  0  0  0  0  0  0  0  0  0  0
    1.1842    0.6852   -0.0042 C   0  0  0  0  0  0  0  0  0  0  0  0
    2.0625    1.1850   -0.0124 H   0  0  0  0  0  0  0  0  0  0  0  0
  1  5  1  0
  5  6  1  0
  5  7  2  0
  1  2  1  0
  1  3  1  0
  1  4  1  0
  8 12  1  0
 12 13  2  0
 13 15  1  0
 15 17  2  0
 17 19  1  0
 19 21  2  0
 21 12  1  0
  8  9  1  0
  8 10  1  0
  8 11  1  0
 13 14  1  0
 15 16  1  0
 17 18  1  0
 19 20  1  0
 21 22  1  0
M  CHG  1   6  -1
M  END
>  <PDB_ID>  (255) 
pdb1e0t

>  <RESIDUE_NAME>  (255) 
ASP   PHE

>  <FRAG_NAME>  (255) 
ACET   MBZ

>  <FRAG_ATOM_NUM>  (255) 
fragi: 7  fragj: 15

>  <atom.prop.CHAIN_ID>  (255) 
A A A A A A A Z Z Z Z Z Z Z Z Z Z Z Z Z Z Z

>  <atom.prop.IS_HEAVY_ATOM>  (255) 
1 0 0 0 1 1 1 1 0 0 0 1 1 0 1 0 1 0 1 0 1 0

>  <DIFUSE_FUNC_ATOM>  (255) 
atom 6   atom 7   

>  <FINAL_SINGLE_POINT_ENERGY>  (255) 
0

>  <NONCOV_INTER_ENERGY_QM>  (255) 
0

>  <FF_Energy>  (255) 
0.97

>  <QM_Energy>  (255) 
-8.2

>  <source>  (255) 
ACET_MBZ_00

>  <Index>  (255) 
9154

$$$$
ACET-pdb1e0t-C-ASP-177:MBZ-pdb1e0t-C-PHE-35
     RDKit          3D

 22 21  0  0  0  0  0  0  0  0999 V2000
    2.9122    1.9799   -2.8982 C   0  0  0  0  0  0  0  0  0  0  0  0
    3.0931    2.7577   -3.4962 H   0  0  0  0  0  0  0  0  0  0  0  0
    1.9411    1.7567   -2.9165 H   0  0  0  0  0  0  0  0  0  0  0  0
    3.4753    1.1211   -3.2637 H   0  0  0  0  0  0  0  0  0  0  0  0
    3.2810    2.3801   -1.4750 C   0  0  0  0  0  0  0  0  0  0  0  0
    4.0716    1.6640   -0.8024 O   0  0  0  0  0  1  0  0  0  0  0  0
    2.6790    3.4296   -1.1108 O   0  0  0  0  0  0  0  0  0  0  0  0
   -0.0632    2.9548    0.0590 C   0  0  0  0  0  0  0  0  0  0  0  0
   -0.6318    3.2680   -0.6651 H   0  0  0  0  0  0  0  0  0  0  0  0
    0.8464    3.2974    0.0285 H   0  0  0  0  0  0  0  0  0  0  0  0
   -0.5071    3.3052    0.9909 H   0  0  0  0  0  0  0  0  0  0  0  0
   -0.0090    1.4372    0.0073 C   0  0  0  0  0  0  0  0  0  0  0  0
   -1.1749    0.6861   -0.0129 C   0  0  0  0  0  0  0  0  0  0  0  0
   -2.0632    1.1491   -0.0387 H   0  0  0  0  0  0  0  0  0  0  0  0
   -1.1548   -0.7161    0.0000 C   0  0  0  0  0  0  0  0  0  0  0  0
   -2.0600   -1.2016    0.0094 H   0  0  0  0  0  0  0  0  0  0  0  0
    0.0081   -1.4408    0.0014 C   0  0  0  0  0  0  0  0  0  0  0  0
    0.0152   -2.4126    0.0028 H   0  0  0  0  0  0  0  0  0  0  0  0
    1.1548   -0.6910   -0.0000 C   0  0  0  0  0  0  0  0  0  0  0  0
    2.0789   -1.1693   -0.0028 H   0  0  0  0  0  0  0  0  0  0  0  0
    1.1758    0.7245    0.0042 C   0  0  0  0  0  0  0  0  0  0  0  0
    2.0510    1.1930    0.0045 H   0  0  0  0  0  0  0  0  0  0  0  0
  1  5  1  0
  5  6  1  0
  5  7  2  0
  1  2  1  0
  1  3  1  0
  1  4  1  0
  8 12  1  0
 12 13  2  0
 13 15  1  0
 15 17  2  0
 17 19  1  0
 19 21  2  0
 21 12  1  0
  8  9  1  0
  8 10  1  0
  8 11  1  0
 13 14  1  0
 15 16  1  0
 17 18  1  0
 19 20  1  0
 21 22  1  0
M  CHG  1   6  -1
M  END
>  <PDB_ID>  (256) 
pdb1e0t

>  <RESIDUE_NAME>  (256) 
ASP   PHE

>  <FRAG_NAME>  (256) 
ACET   MBZ

>  <FRAG_ATOM_NUM>  (256) 
fragi: 7  fragj: 15

>  <atom.prop.CHAIN_ID>  (256) 
A A A A A A A Z Z Z Z Z Z Z Z Z Z Z Z Z Z Z

>  <atom.prop.IS_HEAVY_ATOM>  (256) 
1 0 0 0 1 1 1 1 0 0 0 1 1 0 1 0 1 0 1 0 1 0

>  <DIFUSE_FUNC_ATOM>  (256) 
atom 6   atom 7   

>  <FINAL_SINGLE_POINT_ENERGY>  (256) 
0

>  <NONCOV_INTER_ENERGY_QM>  (256) 
0

>  <FF_Energy>  (256) 
6.7

>  <QM_Energy>  (256) 
-7.51

>  <source>  (256) 
ACET_MBZ_00

>  <Index>  (256) 
9155

$$$$
ACET-pdb1e0t-D-ASP-177:MBZ-pdb1e0t-D-PHE-35
     RDKit          3D

 22 21  0  0  0  0  0  0  0  0999 V2000
    2.5006    1.4188   -3.2410 C   0  0  0  0  0  0  0  0  0  0  0  0
    2.1492    2.1117   -3.8713 H   0  0  0  0  0  0  0  0  0  0  0  0
    1.7385    0.8862   -2.8735 H   0  0  0  0  0  0  0  0  0  0  0  0
    3.1563    0.7474   -3.7954 H   0  0  0  0  0  0  0  0  0  0  0  0
    3.1823    2.1388   -2.0770 C   0  0  0  0  0  0  0  0  0  0  0  0
    4.2352    1.7390   -1.5355 O   0  0  0  0  0  1  0  0  0  0  0  0
    2.5870    3.1707   -1.6624 O   0  0  0  0  0  0  0  0  0  0  0  0
    0.0651    2.9087    0.0275 C   0  0  0  0  0  0  0  0  0  0  0  0
   -0.5169    3.2412   -0.6795 H   0  0  0  0  0  0  0  0  0  0  0  0
    0.9950    3.1839   -0.0645 H   0  0  0  0  0  0  0  0  0  0  0  0
   -0.3076    3.2891    0.9786 H   0  0  0  0  0  0  0  0  0  0  0  0
    0.0171    1.3981    0.0043 C   0  0  0  0  0  0  0  0  0  0  0  0
   -1.1962    0.7284    0.0071 C   0  0  0  0  0  0  0  0  0  0  0  0
   -2.0466    1.2237    0.0125 H   0  0  0  0  0  0  0  0  0  0  0  0
   -1.1976   -0.6599   -0.0000 C   0  0  0  0  0  0  0  0  0  0  0  0
   -2.0842   -1.1538    0.0060 H   0  0  0  0  0  0  0  0  0  0  0  0
   -0.0049   -1.3872   -0.0139 C   0  0  0  0  0  0  0  0  0  0  0  0
   -0.0443   -2.3871   -0.0338 H   0  0  0  0  0  0  0  0  0  0  0  0
    1.1976   -0.7285    0.0000 C   0  0  0  0  0  0  0  0  0  0  0  0
    2.0692   -1.2289    0.0092 H   0  0  0  0  0  0  0  0  0  0  0  0
    1.1840    0.6491    0.0025 C   0  0  0  0  0  0  0  0  0  0  0  0
    2.0749    1.1457    0.0016 H   0  0  0  0  0  0  0  0  0  0  0  0
  1  5  1  0
  5  6  1  0
  5  7  2  0
  1  2  1  0
  1  3  1  0
  1  4  1  0
  8 12  1  0
 12 13  2  0
 13 15  1  0
 15 17  2  0
 17 19  1  0
 19 21  2  0
 21 12  1  0
  8  9  1  0
  8 10  1  0
  8 11  1  0
 13 14  1  0
 15 16  1  0
 17 18  1  0
 19 20  1  0
 21 22  1  0
M  CHG  1   6  -1
M  END
>  <PDB_ID>  (257) 
pdb1e0t

>  <RESIDUE_NAME>  (257) 
ASP   PHE

>  <FRAG_NAME>  (257) 
ACET   MBZ

>  <FRAG_ATOM_NUM>  (257) 
fragi: 7  fragj: 15

>  <atom.prop.CHAIN_ID>  (257) 
A A A A A A A Z Z Z Z Z Z Z Z Z Z Z Z Z Z Z

>  <atom.prop.IS_HEAVY_ATOM>  (257) 
1 0 0 0 1 1 1 1 0 0 0 1 1 0 1 0 1 0 1 0 1 0

>  <DIFUSE_FUNC_ATOM>  (257) 
atom 6   atom 7   

>  <FINAL_SINGLE_POINT_ENERGY>  (257) 
0

>  <NONCOV_INTER_ENERGY_QM>  (257) 
0

>  <FF_Energy>  (257) 
-0.05

>  <QM_Energy>  (257) 
-8.05

>  <source>  (257) 
ACET_MBZ_00

>  <Index>  (257) 
9156

$$$$
ACET-pdb1e2d-A-GLU-12:MBZ-pdb1e2d-A-PHE-100
     RDKit          3D

 22 21  0  0  0  0  0  0  0  0999 V2000
    3.5515    3.2385    1.7456 C   0  0  0  0  0  0  0  0  0  0  0  0
    4.2065    2.4870    1.6920 H   0  0  0  0  0  0  0  0  0  0  0  0
    2.6228    2.8726    1.7747 H   0  0  0  0  0  0  0  0  0  0  0  0
    3.7355    3.7911    2.6669 H   0  0  0  0  0  0  0  0  0  0  0  0
    3.6745    4.0273    0.4480 C   0  0  0  0  0  0  0  0  0  0  0  0
    4.0602    5.2218    0.4759 O   0  0  0  0  0  1  0  0  0  0  0  0
    3.3123    3.3870   -0.5707 O   0  0  0  0  0  0  0  0  0  0  0  0
    0.0570    2.9056   -0.0892 C   0  0  0  0  0  0  0  0  0  0  0  0
    0.9651    3.1904    0.1027 H   0  0  0  0  0  0  0  0  0  0  0  0
   -0.6123    3.2629    0.5168 H   0  0  0  0  0  0  0  0  0  0  0  0
   -0.1920    3.2362   -1.0975 H   0  0  0  0  0  0  0  0  0  0  0  0
    0.0071    1.3965   -0.0121 C   0  0  0  0  0  0  0  0  0  0  0  0
   -1.1907    0.7189   -0.0202 C   0  0  0  0  0  0  0  0  0  0  0  0
   -2.0512    1.1994   -0.0413 H   0  0  0  0  0  0  0  0  0  0  0  0
   -1.1831   -0.6803    0.0000 C   0  0  0  0  0  0  0  0  0  0  0  0
   -2.0780   -1.1656    0.0002 H   0  0  0  0  0  0  0  0  0  0  0  0
   -0.0072   -1.3926    0.0209 C   0  0  0  0  0  0  0  0  0  0  0  0
   -0.0249   -2.3898    0.0500 H   0  0  0  0  0  0  0  0  0  0  0  0
    1.1831   -0.7103    0.0000 C   0  0  0  0  0  0  0  0  0  0  0  0
    2.0669   -1.2151   -0.0226 H   0  0  0  0  0  0  0  0  0  0  0  0
    1.1909    0.6678    0.0114 C   0  0  0  0  0  0  0  0  0  0  0  0
    2.0665    1.1601    0.0365 H   0  0  0  0  0  0  0  0  0  0  0  0
  1  5  1  0
  5  6  1  0
  5  7  2  0
  1  2  1  0
  1  3  1  0
  1  4  1  0
  8 12  1  0
 12 13  2  0
 13 15  1  0
 15 17  2  0
 17 19  1  0
 19 21  2  0
 21 12  1  0
  8  9  1  0
  8 10  1  0
  8 11  1  0
 13 14  1  0
 15 16  1  0
 17 18  1  0
 19 20  1  0
 21 22  1  0
M  CHG  1   6  -1
M  END
>  <PDB_ID>  (258) 
pdb1e2d

>  <RESIDUE_NAME>  (258) 
GLU   PHE

>  <FRAG_NAME>  (258) 
ACET   MBZ

>  <FRAG_ATOM_NUM>  (258) 
fragi: 7  fragj: 15

>  <atom.prop.CHAIN_ID>  (258) 
A A A A A A A Z Z Z Z Z Z Z Z Z Z Z Z Z Z Z

>  <atom.prop.IS_HEAVY_ATOM>  (258) 
1 0 0 0 1 1 1 1 0 0 0 1 1 0 1 0 1 0 1 0 1 0

>  <DIFUSE_FUNC_ATOM>  (258) 
atom 6   atom 7   

>  <FINAL_SINGLE_POINT_ENERGY>  (258) 
0

>  <NONCOV_INTER_ENERGY_QM>  (258) 
0

>  <FF_Energy>  (258) 
-2.31

>  <QM_Energy>  (258) 
-7.46

>  <source>  (258) 
ACET_MBZ_00

>  <Index>  (258) 
9220

$$$$
ACET-pdb1e0d-A-GLU-428:MBZ-pdb1e0d-A-PHE-419
     RDKit          3D

 22 21  0  0  0  0  0  0  0  0999 V2000
   -5.6810   -1.0137    1.3397 C   0  0  0  0  0  0  0  0  0  0  0  0
   -6.5414   -1.2657    0.9515 H   0  0  0  0  0  0  0  0  0  0  0  0
   -5.6825   -0.1201    1.7352 H   0  0  0  0  0  0  0  0  0  0  0  0
   -5.4290   -1.7356    2.1165 H   0  0  0  0  0  0  0  0  0  0  0  0
   -4.6515   -1.0108    0.2085 C   0  0  0  0  0  0  0  0  0  0  0  0
   -4.2620   -2.1359   -0.2067 O   0  0  0  0  0  1  0  0  0  0  0  0
   -4.2368    0.0952   -0.2644 O   0  0  0  0  0  0  0  0  0  0  0  0
   -0.0013    2.8931    0.0009 C   0  0  0  0  0  0  0  0  0  0  0  0
    0.8745    3.2036    0.3515 H   0  0  0  0  0  0  0  0  0  0  0  0
   -0.7425    3.2040    0.5833 H   0  0  0  0  0  0  0  0  0  0  0  0
   -0.1420    3.3446   -0.9812 H   0  0  0  0  0  0  0  0  0  0  0  0
   -0.0027    1.4031   -0.0002 C   0  0  0  0  0  0  0  0  0  0  0  0
   -1.2062    0.7032   -0.0005 C   0  0  0  0  0  0  0  0  0  0  0  0
   -2.0678    1.1965   -0.0022 H   0  0  0  0  0  0  0  0  0  0  0  0
   -1.2130   -0.6878   -0.0000 C   0  0  0  0  0  0  0  0  0  0  0  0
   -2.0830   -1.1873    0.0013 H   0  0  0  0  0  0  0  0  0  0  0  0
    0.0057   -1.4008    0.0008 C   0  0  0  0  0  0  0  0  0  0  0  0
   -0.0113   -2.3945    0.0009 H   0  0  0  0  0  0  0  0  0  0  0  0
    1.2130   -0.7068   -0.0000 C   0  0  0  0  0  0  0  0  0  0  0  0
    2.0906   -1.2021    0.0011 H   0  0  0  0  0  0  0  0  0  0  0  0
    1.2032    0.6891   -0.0000 C   0  0  0  0  0  0  0  0  0  0  0  0
    2.0686    1.1885   -0.0009 H   0  0  0  0  0  0  0  0  0  0  0  0
  1  5  1  0
  5  6  1  0
  5  7  2  0
  1  2  1  0
  1  3  1  0
  1  4  1  0
  8 12  1  0
 12 13  2  0
 13 15  1  0
 15 17  2  0
 17 19  1  0
 19 21  2  0
 21 12  1  0
  8  9  1  0
  8 10  1  0
  8 11  1  0
 13 14  1  0
 15 16  1  0
 17 18  1  0
 19 20  1  0
 21 22  1  0
M  CHG  1   6  -1
M  END
>  <PDB_ID>  (259) 
pdb1e0d

>  <RESIDUE_NAME>  (259) 
GLU   PHE

>  <FRAG_NAME>  (259) 
ACET   MBZ

>  <FRAG_ATOM_NUM>  (259) 
fragi: 7  fragj: 15

>  <atom.prop.CHAIN_ID>  (259) 
A A A A A A A Z Z Z Z Z Z Z Z Z Z Z Z Z Z Z

>  <atom.prop.IS_HEAVY_ATOM>  (259) 
1 0 0 0 1 1 1 1 0 0 0 1 1 0 1 0 1 0 1 0 1 0

>  <DIFUSE_FUNC_ATOM>  (259) 
atom 6   atom 7   

>  <FINAL_SINGLE_POINT_ENERGY>  (259) 
0

>  <NONCOV_INTER_ENERGY_QM>  (259) 
0

>  <FF_Energy>  (259) 
-1.63

>  <QM_Energy>  (259) 
-8.52

>  <source>  (259) 
ACET_MBZ_00

>  <Index>  (259) 
9235

$$$$
ACET-pdb1e3g-A-ASP-864:MBZ-pdb1e3g-A-PHE-916
     RDKit          3D

 22 21  0  0  0  0  0  0  0  0999 V2000
   -5.2244    4.4132   -1.7591 C   0  0  0  0  0  0  0  0  0  0  0  0
   -4.8602    4.6703   -2.6429 H   0  0  0  0  0  0  0  0  0  0  0  0
   -5.7049    5.1668   -1.3368 H   0  0  0  0  0  0  0  0  0  0  0  0
   -5.9344    3.6000   -1.9092 H   0  0  0  0  0  0  0  0  0  0  0  0
   -4.0415    4.0171   -0.8442 C   0  0  0  0  0  0  0  0  0  0  0  0
   -3.9959    2.8731   -0.3309 O   0  0  0  0  0  1  0  0  0  0  0  0
   -3.1465    4.8639   -0.6193 O   0  0  0  0  0  0  0  0  0  0  0  0
    0.0060    2.8976    0.0405 C   0  0  0  0  0  0  0  0  0  0  0  0
   -0.7132    3.2252   -0.5509 H   0  0  0  0  0  0  0  0  0  0  0  0
    0.8931    3.2124   -0.2551 H   0  0  0  0  0  0  0  0  0  0  0  0
   -0.1736    3.3065    1.0349 H   0  0  0  0  0  0  0  0  0  0  0  0
    0.0015    1.3981    0.0013 C   0  0  0  0  0  0  0  0  0  0  0  0
   -1.1977    0.6873   -0.0013 C   0  0  0  0  0  0  0  0  0  0  0  0
   -2.0636    1.1825   -0.0057 H   0  0  0  0  0  0  0  0  0  0  0  0
   -1.2062   -0.7001   -0.0000 C   0  0  0  0  0  0  0  0  0  0  0  0
   -2.0794   -1.1942    0.0034 H   0  0  0  0  0  0  0  0  0  0  0  0
   -0.0022   -1.3893   -0.0010 C   0  0  0  0  0  0  0  0  0  0  0  0
   -0.0006   -2.3902   -0.0033 H   0  0  0  0  0  0  0  0  0  0  0  0
    1.2062   -0.6921   -0.0000 C   0  0  0  0  0  0  0  0  0  0  0  0
    2.0830   -1.1926    0.0019 H   0  0  0  0  0  0  0  0  0  0  0  0
    1.1984    0.6962    0.0010 C   0  0  0  0  0  0  0  0  0  0  0  0
    2.0650    1.1958    0.0005 H   0  0  0  0  0  0  0  0  0  0  0  0
  1  5  1  0
  5  6  1  0
  5  7  2  0
  1  2  1  0
  1  3  1  0
  1  4  1  0
  8 12  1  0
 12 13  2  0
 13 15  1  0
 15 17  2  0
 17 19  1  0
 19 21  2  0
 21 12  1  0
  8  9  1  0
  8 10  1  0
  8 11  1  0
 13 14  1  0
 15 16  1  0
 17 18  1  0
 19 20  1  0
 21 22  1  0
M  CHG  1   6  -1
M  END
>  <PDB_ID>  (260) 
pdb1e3g

>  <RESIDUE_NAME>  (260) 
ASP   PHE

>  <FRAG_NAME>  (260) 
ACET   MBZ

>  <FRAG_ATOM_NUM>  (260) 
fragi: 7  fragj: 15

>  <atom.prop.CHAIN_ID>  (260) 
A A A A A A A Z Z Z Z Z Z Z Z Z Z Z Z Z Z Z

>  <atom.prop.IS_HEAVY_ATOM>  (260) 
1 0 0 0 1 1 1 1 0 0 0 1 1 0 1 0 1 0 1 0 1 0

>  <DIFUSE_FUNC_ATOM>  (260) 
atom 6   atom 7   

>  <FINAL_SINGLE_POINT_ENERGY>  (260) 
0

>  <NONCOV_INTER_ENERGY_QM>  (260) 
0

>  <FF_Energy>  (260) 
-2.72

>  <QM_Energy>  (260) 
-8.15

>  <source>  (260) 
ACET_MBZ_00

>  <Index>  (260) 
9245

$$$$
ACET-pdb1e44-A-GLU-20:MBZ-pdb1e44-A-PHE-62
     RDKit          3D

 22 21  0  0  0  0  0  0  0  0999 V2000
   -4.8196    1.8276    0.1645 C   0  0  0  0  0  0  0  0  0  0  0  0
   -4.3697    1.1275   -0.3543 H   0  0  0  0  0  0  0  0  0  0  0  0
   -5.7166    2.0327   -0.1738 H   0  0  0  0  0  0  0  0  0  0  0  0
   -4.9136    1.4811    1.1936 H   0  0  0  0  0  0  0  0  0  0  0  0
   -3.9673    3.1289    0.0042 C   0  0  0  0  0  0  0  0  0  0  0  0
   -3.8241    3.9160    0.9666 O   0  0  0  0  0  1  0  0  0  0  0  0
   -3.4488    3.3975   -1.0962 O   0  0  0  0  0  0  0  0  0  0  0  0
    0.0016    2.8975   -0.0919 C   0  0  0  0  0  0  0  0  0  0  0  0
    0.8662    3.2304    0.2452 H   0  0  0  0  0  0  0  0  0  0  0  0
   -0.7552    3.2493    0.4338 H   0  0  0  0  0  0  0  0  0  0  0  0
   -0.1125    3.2688   -1.1102 H   0  0  0  0  0  0  0  0  0  0  0  0
   -0.0050    1.4088   -0.0012 C   0  0  0  0  0  0  0  0  0  0  0  0
   -1.2091    0.7153    0.0008 C   0  0  0  0  0  0  0  0  0  0  0  0
   -2.0709    1.2044    0.0018 H   0  0  0  0  0  0  0  0  0  0  0  0
   -1.2181   -0.6865    0.0000 C   0  0  0  0  0  0  0  0  0  0  0  0
   -2.0884   -1.1811    0.0027 H   0  0  0  0  0  0  0  0  0  0  0  0
    0.0041   -1.4072   -0.0026 C   0  0  0  0  0  0  0  0  0  0  0  0
   -0.0192   -2.4004   -0.0062 H   0  0  0  0  0  0  0  0  0  0  0  0
    1.2181   -0.7194    0.0000 C   0  0  0  0  0  0  0  0  0  0  0  0
    2.0924   -1.2116    0.0017 H   0  0  0  0  0  0  0  0  0  0  0  0
    1.2099    0.6890    0.0030 C   0  0  0  0  0  0  0  0  0  0  0  0
    2.0720    1.1856    0.0074 H   0  0  0  0  0  0  0  0  0  0  0  0
  1  5  1  0
  5  6  1  0
  5  7  2  0
  1  2  1  0
  1  3  1  0
  1  4  1  0
  8 12  1  0
 12 13  2  0
 13 15  1  0
 15 17  2  0
 17 19  1  0
 19 21  2  0
 21 12  1  0
  8  9  1  0
  8 10  1  0
  8 11  1  0
 13 14  1  0
 15 16  1  0
 17 18  1  0
 19 20  1  0
 21 22  1  0
M  CHG  1   6  -1
M  END
>  <PDB_ID>  (261) 
pdb1e44

>  <RESIDUE_NAME>  (261) 
GLU   PHE

>  <FRAG_NAME>  (261) 
ACET   MBZ

>  <FRAG_ATOM_NUM>  (261) 
fragi: 7  fragj: 15

>  <atom.prop.CHAIN_ID>  (261) 
A A A A A A A Z Z Z Z Z Z Z Z Z Z Z Z Z Z Z

>  <atom.prop.IS_HEAVY_ATOM>  (261) 
1 0 0 0 1 1 1 1 0 0 0 1 1 0 1 0 1 0 1 0 1 0

>  <DIFUSE_FUNC_ATOM>  (261) 
atom 6   atom 7   

>  <FINAL_SINGLE_POINT_ENERGY>  (261) 
0

>  <NONCOV_INTER_ENERGY_QM>  (261) 
0

>  <FF_Energy>  (261) 
-2.1

>  <QM_Energy>  (261) 
-7.15

>  <source>  (261) 
ACET_MBZ_00

>  <Index>  (261) 
9293

$$$$
ACET-pdb2eva-A-GLU-77:MBZ-pdb2eva-A-PHE-47
     RDKit          3D

 22 21  0  0  0  0  0  0  0  0999 V2000
   -0.2769   -5.1109   -0.1239 C   0  0  0  0  0  0  0  0  0  0  0  0
    0.2546   -5.8168    0.3015 H   0  0  0  0  0  0  0  0  0  0  0  0
    0.2769   -4.3894   -0.4909 H   0  0  0  0  0  0  0  0  0  0  0  0
   -0.8517   -5.5546   -0.9368 H   0  0  0  0  0  0  0  0  0  0  0  0
   -1.1686   -4.4990    0.9526 C   0  0  0  0  0  0  0  0  0  0  0  0
   -1.9739   -3.5968    0.6272 O   0  0  0  0  0  1  0  0  0  0  0  0
   -1.0695   -4.9225    2.1257 O   0  0  0  0  0  0  0  0  0  0  0  0
    0.0079    2.9145   -0.0613 C   0  0  0  0  0  0  0  0  0  0  0  0
   -0.6963    3.2003   -0.6996 H   0  0  0  0  0  0  0  0  0  0  0  0
    0.9039    3.2042   -0.3734 H   0  0  0  0  0  0  0  0  0  0  0  0
   -0.1864    3.4170    0.8863 H   0  0  0  0  0  0  0  0  0  0  0  0
   -0.0007    1.4082   -0.0009 C   0  0  0  0  0  0  0  0  0  0  0  0
   -1.1972    0.6990    0.0010 C   0  0  0  0  0  0  0  0  0  0  0  0
   -2.0646    1.1854    0.0015 H   0  0  0  0  0  0  0  0  0  0  0  0
   -1.2029   -0.7005    0.0000 C   0  0  0  0  0  0  0  0  0  0  0  0
   -2.0799   -1.1899    0.0003 H   0  0  0  0  0  0  0  0  0  0  0  0
   -0.0000   -1.4002   -0.0006 C   0  0  0  0  0  0  0  0  0  0  0  0
   -0.0049   -2.3974   -0.0021 H   0  0  0  0  0  0  0  0  0  0  0  0
    1.2029   -0.7021   -0.0000 C   0  0  0  0  0  0  0  0  0  0  0  0
    2.0842   -1.1965    0.0013 H   0  0  0  0  0  0  0  0  0  0  0  0
    1.1979    0.6958    0.0004 C   0  0  0  0  0  0  0  0  0  0  0  0
    2.0664    1.1892    0.0008 H   0  0  0  0  0  0  0  0  0  0  0  0
  1  5  1  0
  5  6  1  0
  5  7  2  0
  1  2  1  0
  1  3  1  0
  1  4  1  0
  8 12  1  0
 12 13  2  0
 13 15  1  0
 15 17  2  0
 17 19  1  0
 19 21  2  0
 21 12  1  0
  8  9  1  0
  8 10  1  0
  8 11  1  0
 13 14  1  0
 15 16  1  0
 17 18  1  0
 19 20  1  0
 21 22  1  0
M  CHG  1   6  -1
M  END
>  <PDB_ID>  (262) 
pdb2eva

>  <RESIDUE_NAME>  (262) 
GLU   PHE

>  <FRAG_NAME>  (262) 
ACET   MBZ

>  <FRAG_ATOM_NUM>  (262) 
fragi: 7  fragj: 15

>  <atom.prop.CHAIN_ID>  (262) 
A A A A A A A Z Z Z Z Z Z Z Z Z Z Z Z Z Z Z

>  <atom.prop.IS_HEAVY_ATOM>  (262) 
1 0 0 0 1 1 1 1 0 0 0 1 1 0 1 0 1 0 1 0 1 0

>  <DIFUSE_FUNC_ATOM>  (262) 
atom 6   atom 7   

>  <FINAL_SINGLE_POINT_ENERGY>  (262) 
0

>  <NONCOV_INTER_ENERGY_QM>  (262) 
0

>  <FF_Energy>  (262) 
0.29

>  <QM_Energy>  (262) 
-4.87

>  <source>  (262) 
ACET_MBZ_00

>  <Index>  (262) 
9330

$$$$
ACET-pdb2ew1-A-GLU-55:MBZ-pdb2ew1-A-PHE-7
     RDKit          3D

 22 21  0  0  0  0  0  0  0  0999 V2000
   -4.6623   -1.9199   -1.4578 C   0  0  0  0  0  0  0  0  0  0  0  0
   -5.4200   -2.3606   -1.9078 H   0  0  0  0  0  0  0  0  0  0  0  0
   -3.8178   -2.0481   -1.9493 H   0  0  0  0  0  0  0  0  0  0  0  0
   -4.8699   -0.8517   -1.3948 H   0  0  0  0  0  0  0  0  0  0  0  0
   -4.5016   -2.5584   -0.1041 C   0  0  0  0  0  0  0  0  0  0  0  0
   -3.6509   -2.1099    0.6941 O   0  0  0  0  0  1  0  0  0  0  0  0
   -5.2136   -3.5259    0.1602 O   0  0  0  0  0  0  0  0  0  0  0  0
    0.0170    2.8816    0.0387 C   0  0  0  0  0  0  0  0  0  0  0  0
   -0.7663    3.2153   -0.4658 H   0  0  0  0  0  0  0  0  0  0  0  0
    0.8633    3.1985   -0.3669 H   0  0  0  0  0  0  0  0  0  0  0  0
   -0.0399    3.3081    1.0403 H   0  0  0  0  0  0  0  0  0  0  0  0
    0.0038    1.3904    0.0062 C   0  0  0  0  0  0  0  0  0  0  0  0
   -1.2011    0.6921    0.0021 C   0  0  0  0  0  0  0  0  0  0  0  0
   -2.0599    1.1905   -0.0003 H   0  0  0  0  0  0  0  0  0  0  0  0
   -1.2029   -0.6850    0.0000 C   0  0  0  0  0  0  0  0  0  0  0  0
   -2.0743   -1.1903    0.0078 H   0  0  0  0  0  0  0  0  0  0  0  0
    0.0071   -1.3857   -0.0111 C   0  0  0  0  0  0  0  0  0  0  0  0
   -0.0063   -2.3847   -0.0275 H   0  0  0  0  0  0  0  0  0  0  0  0
    1.2029   -0.6955    0.0000 C   0  0  0  0  0  0  0  0  0  0  0  0
    2.0840   -1.1929    0.0076 H   0  0  0  0  0  0  0  0  0  0  0  0
    1.1902    0.6837    0.0028 C   0  0  0  0  0  0  0  0  0  0  0  0
    2.0629    1.1865    0.0016 H   0  0  0  0  0  0  0  0  0  0  0  0
  1  5  1  0
  5  6  1  0
  5  7  2  0
  1  2  1  0
  1  3  1  0
  1  4  1  0
  8 12  1  0
 12 13  2  0
 13 15  1  0
 15 17  2  0
 17 19  1  0
 19 21  2  0
 21 12  1  0
  8  9  1  0
  8 10  1  0
  8 11  1  0
 13 14  1  0
 15 16  1  0
 17 18  1  0
 19 20  1  0
 21 22  1  0
M  CHG  1   6  -1
M  END
>  <PDB_ID>  (263) 
pdb2ew1

>  <RESIDUE_NAME>  (263) 
GLU   PHE

>  <FRAG_NAME>  (263) 
ACET   MBZ

>  <FRAG_ATOM_NUM>  (263) 
fragi: 7  fragj: 15

>  <atom.prop.CHAIN_ID>  (263) 
A A A A A A A Z Z Z Z Z Z Z Z Z Z Z Z Z Z Z

>  <atom.prop.IS_HEAVY_ATOM>  (263) 
1 0 0 0 1 1 1 1 0 0 0 1 1 0 1 0 1 0 1 0 1 0

>  <DIFUSE_FUNC_ATOM>  (263) 
atom 6   atom 7   

>  <FINAL_SINGLE_POINT_ENERGY>  (263) 
0

>  <NONCOV_INTER_ENERGY_QM>  (263) 
0

>  <FF_Energy>  (263) 
8.45

>  <QM_Energy>  (263) 
-5.27

>  <source>  (263) 
ACET_MBZ_00

>  <Index>  (263) 
9345

$$$$
ACET-pdb2ew2-A-GLU-225:MBZ-pdb2ew2-A-PHE-295
     RDKit          3D

 22 21  0  0  0  0  0  0  0  0999 V2000
   -1.4249    4.7111   -4.5329 C   0  0  0  0  0  0  0  0  0  0  0  0
   -2.3274    4.6831   -4.9215 H   0  0  0  0  0  0  0  0  0  0  0  0
   -0.8690    3.9563   -4.8302 H   0  0  0  0  0  0  0  0  0  0  0  0
   -0.9447    5.6375   -4.8480 H   0  0  0  0  0  0  0  0  0  0  0  0
   -1.5800    4.5911   -3.0136 C   0  0  0  0  0  0  0  0  0  0  0  0
   -1.2730    5.5638   -2.2841 O   0  0  0  0  0  1  0  0  0  0  0  0
   -2.0097    3.5113   -2.5557 O   0  0  0  0  0  0  0  0  0  0  0  0
    0.0350    2.9299   -0.0366 C   0  0  0  0  0  0  0  0  0  0  0  0
   -0.1298    3.2079   -0.9717 H   0  0  0  0  0  0  0  0  0  0  0  0
    0.9292    3.2191    0.2721 H   0  0  0  0  0  0  0  0  0  0  0  0
   -0.7143    3.4045    0.5969 H   0  0  0  0  0  0  0  0  0  0  0  0
    0.0074    1.4137    0.0011 C   0  0  0  0  0  0  0  0  0  0  0  0
   -1.1966    0.7200   -0.0054 C   0  0  0  0  0  0  0  0  0  0  0  0
   -2.0592    1.2046   -0.0152 H   0  0  0  0  0  0  0  0  0  0  0  0
   -1.2076   -0.6940    0.0000 C   0  0  0  0  0  0  0  0  0  0  0  0
   -2.0928   -1.1714   -0.0017 H   0  0  0  0  0  0  0  0  0  0  0  0
   -0.0136   -1.4069    0.0092 C   0  0  0  0  0  0  0  0  0  0  0  0
   -0.0296   -2.4050    0.0215 H   0  0  0  0  0  0  0  0  0  0  0  0
    1.2076   -0.7271   -0.0000 C   0  0  0  0  0  0  0  0  0  0  0  0
    2.0772   -1.2170   -0.0021 H   0  0  0  0  0  0  0  0  0  0  0  0
    1.2027    0.6942   -0.0048 C   0  0  0  0  0  0  0  0  0  0  0  0
    2.0761    1.1756   -0.0129 H   0  0  0  0  0  0  0  0  0  0  0  0
  1  5  1  0
  5  6  1  0
  5  7  2  0
  1  2  1  0
  1  3  1  0
  1  4  1  0
  8 12  1  0
 12 13  2  0
 13 15  1  0
 15 17  2  0
 17 19  1  0
 19 21  2  0
 21 12  1  0
  8  9  1  0
  8 10  1  0
  8 11  1  0
 13 14  1  0
 15 16  1  0
 17 18  1  0
 19 20  1  0
 21 22  1  0
M  CHG  1   6  -1
M  END
>  <PDB_ID>  (264) 
pdb2ew2

>  <RESIDUE_NAME>  (264) 
GLU   PHE

>  <FRAG_NAME>  (264) 
ACET   MBZ

>  <FRAG_ATOM_NUM>  (264) 
fragi: 7  fragj: 15

>  <atom.prop.CHAIN_ID>  (264) 
A A A A A A A Z Z Z Z Z Z Z Z Z Z Z Z Z Z Z

>  <atom.prop.IS_HEAVY_ATOM>  (264) 
1 0 0 0 1 1 1 1 0 0 0 1 1 0 1 0 1 0 1 0 1 0

>  <DIFUSE_FUNC_ATOM>  (264) 
atom 6   atom 7   

>  <FINAL_SINGLE_POINT_ENERGY>  (264) 
0

>  <NONCOV_INTER_ENERGY_QM>  (264) 
0

>  <FF_Energy>  (264) 
-0.65

>  <QM_Energy>  (264) 
-6.33

>  <source>  (264) 
ACET_MBZ_00

>  <Index>  (264) 
9361

$$$$
ACET-pdb1e79-E-GLU-168:MBZ-pdb1e79-E-PHE-418
     RDKit          3D

 22 21  0  0  0  0  0  0  0  0999 V2000
   -0.6878    1.2794    3.5617 C   0  0  0  0  0  0  0  0  0  0  0  0
   -0.7666    0.6964    2.7710 H   0  0  0  0  0  0  0  0  0  0  0  0
   -1.2870    0.9905    4.2897 H   0  0  0  0  0  0  0  0  0  0  0  0
    0.3397    1.2298    3.9220 H   0  0  0  0  0  0  0  0  0  0  0  0
   -1.1137    2.6723    3.1467 C   0  0  0  0  0  0  0  0  0  0  0  0
   -0.4793    3.6607    3.5710 O   0  0  0  0  0  1  0  0  0  0  0  0
   -2.0929    2.7803    2.3794 O   0  0  0  0  0  0  0  0  0  0  0  0
    0.0172    2.8992   -0.0048 C   0  0  0  0  0  0  0  0  0  0  0  0
    0.8115    3.1940   -0.5262 H   0  0  0  0  0  0  0  0  0  0  0  0
    0.0897    3.2082    0.9382 H   0  0  0  0  0  0  0  0  0  0  0  0
   -0.8611    3.3739   -0.4424 H   0  0  0  0  0  0  0  0  0  0  0  0
   -0.0020    1.3996    0.0004 C   0  0  0  0  0  0  0  0  0  0  0  0
   -1.1893    0.6864    0.0021 C   0  0  0  0  0  0  0  0  0  0  0  0
   -2.0612    1.1794    0.0040 H   0  0  0  0  0  0  0  0  0  0  0  0
   -1.1957   -0.6928   -0.0000 C   0  0  0  0  0  0  0  0  0  0  0  0
   -2.0740   -1.1893   -0.0002 H   0  0  0  0  0  0  0  0  0  0  0  0
    0.0006   -1.3900    0.0002 C   0  0  0  0  0  0  0  0  0  0  0  0
   -0.0038   -2.3881    0.0003 H   0  0  0  0  0  0  0  0  0  0  0  0
    1.1957   -0.6935    0.0000 C   0  0  0  0  0  0  0  0  0  0  0  0
    2.0799   -1.1923    0.0037 H   0  0  0  0  0  0  0  0  0  0  0  0
    1.1907    0.6903   -0.0027 C   0  0  0  0  0  0  0  0  0  0  0  0
    2.0608    1.1884   -0.0077 H   0  0  0  0  0  0  0  0  0  0  0  0
  1  5  1  0
  5  6  1  0
  5  7  2  0
  1  2  1  0
  1  3  1  0
  1  4  1  0
  8 12  1  0
 12 13  2  0
 13 15  1  0
 15 17  2  0
 17 19  1  0
 19 21  2  0
 21 12  1  0
  8  9  1  0
  8 10  1  0
  8 11  1  0
 13 14  1  0
 15 16  1  0
 17 18  1  0
 19 20  1  0
 21 22  1  0
M  CHG  1   6  -1
M  END
>  <PDB_ID>  (265) 
pdb1e79

>  <RESIDUE_NAME>  (265) 
GLU   PHE

>  <FRAG_NAME>  (265) 
ACET   MBZ

>  <FRAG_ATOM_NUM>  (265) 
fragi: 7  fragj: 15

>  <atom.prop.CHAIN_ID>  (265) 
A A A A A A A Z Z Z Z Z Z Z Z Z Z Z Z Z Z Z

>  <atom.prop.IS_HEAVY_ATOM>  (265) 
1 0 0 0 1 1 1 1 0 0 0 1 1 0 1 0 1 0 1 0 1 0

>  <DIFUSE_FUNC_ATOM>  (265) 
atom 6   atom 7   

>  <FINAL_SINGLE_POINT_ENERGY>  (265) 
0

>  <NONCOV_INTER_ENERGY_QM>  (265) 
0

>  <FF_Energy>  (265) 
-0.09

>  <QM_Energy>  (265) 
-6.86

>  <source>  (265) 
ACET_MBZ_00

>  <Index>  (265) 
9473

$$$$
ACET-pdb1e79-F-GLU-168:MBZ-pdb1e79-F-PHE-418
     RDKit          3D

 22 21  0  0  0  0  0  0  0  0999 V2000
    0.0207    0.8140    3.6805 C   0  0  0  0  0  0  0  0  0  0  0  0
   -0.3024    0.1783    2.9967 H   0  0  0  0  0  0  0  0  0  0  0  0
   -0.3974    0.6404    4.5594 H   0  0  0  0  0  0  0  0  0  0  0  0
    1.0968    0.6764    3.7853 H   0  0  0  0  0  0  0  0  0  0  0  0
   -0.3824    2.2018    3.2460 C   0  0  0  0  0  0  0  0  0  0  0  0
    0.3783    3.1736    3.4483 O   0  0  0  0  0  1  0  0  0  0  0  0
   -1.4818    2.3497    2.6581 O   0  0  0  0  0  0  0  0  0  0  0  0
    0.0376    2.8917   -0.0123 C   0  0  0  0  0  0  0  0  0  0  0  0
    0.6799    3.1756   -0.7332 H   0  0  0  0  0  0  0  0  0  0  0  0
    0.4022    3.1949    0.8755 H   0  0  0  0  0  0  0  0  0  0  0  0
   -0.9013    3.4190   -0.1808 H   0  0  0  0  0  0  0  0  0  0  0  0
   -0.0018    1.3998   -0.0010 C   0  0  0  0  0  0  0  0  0  0  0  0
   -1.1885    0.6889    0.0005 C   0  0  0  0  0  0  0  0  0  0  0  0
   -2.0605    1.1825    0.0007 H   0  0  0  0  0  0  0  0  0  0  0  0
   -1.1965   -0.6917   -0.0000 C   0  0  0  0  0  0  0  0  0  0  0  0
   -2.0733   -1.1872    0.0007 H   0  0  0  0  0  0  0  0  0  0  0  0
    0.0008   -1.3864    0.0005 C   0  0  0  0  0  0  0  0  0  0  0  0
   -0.0060   -2.3877    0.0011 H   0  0  0  0  0  0  0  0  0  0  0  0
    1.1965   -0.6959   -0.0000 C   0  0  0  0  0  0  0  0  0  0  0  0
    2.0783   -1.1953    0.0011 H   0  0  0  0  0  0  0  0  0  0  0  0
    1.1895    0.6853   -0.0000 C   0  0  0  0  0  0  0  0  0  0  0  0
    2.0613    1.1863    0.0001 H   0  0  0  0  0  0  0  0  0  0  0  0
  1  5  1  0
  5  6  1  0
  5  7  2  0
  1  2  1  0
  1  3  1  0
  1  4  1  0
  8 12  1  0
 12 13  2  0
 13 15  1  0
 15 17  2  0
 17 19  1  0
 19 21  2  0
 21 12  1  0
  8  9  1  0
  8 10  1  0
  8 11  1  0
 13 14  1  0
 15 16  1  0
 17 18  1  0
 19 20  1  0
 21 22  1  0
M  CHG  1   6  -1
M  END
>  <PDB_ID>  (266) 
pdb1e79

>  <RESIDUE_NAME>  (266) 
GLU   PHE

>  <FRAG_NAME>  (266) 
ACET   MBZ

>  <FRAG_ATOM_NUM>  (266) 
fragi: 7  fragj: 15

>  <atom.prop.CHAIN_ID>  (266) 
A A A A A A A Z Z Z Z Z Z Z Z Z Z Z Z Z Z Z

>  <atom.prop.IS_HEAVY_ATOM>  (266) 
1 0 0 0 1 1 1 1 0 0 0 1 1 0 1 0 1 0 1 0 1 0

>  <DIFUSE_FUNC_ATOM>  (266) 
atom 6   atom 7   

>  <FINAL_SINGLE_POINT_ENERGY>  (266) 
0

>  <NONCOV_INTER_ENERGY_QM>  (266) 
0

>  <FF_Energy>  (266) 
1.29

>  <QM_Energy>  (266) 
-6.85

>  <source>  (266) 
ACET_MBZ_00

>  <Index>  (266) 
9478

$$$$
ACET-pdb2eyu-A-ASP-173:MBZ-pdb2eyu-A-PHE-198
     RDKit          3D

 22 21  0  0  0  0  0  0  0  0999 V2000
   -3.0124   -4.5113    0.6146 C   0  0  0  0  0  0  0  0  0  0  0  0
   -2.3444   -4.4234   -0.1188 H   0  0  0  0  0  0  0  0  0  0  0  0
   -3.5306   -5.3540    0.5050 H   0  0  0  0  0  0  0  0  0  0  0  0
   -2.4728   -4.5648    1.5601 H   0  0  0  0  0  0  0  0  0  0  0  0
   -3.9675   -3.3408    0.5438 C   0  0  0  0  0  0  0  0  0  0  0  0
   -5.1906   -3.5692    0.4922 O   0  0  0  0  0  1  0  0  0  0  0  0
   -3.5010   -2.1837    0.5441 O   0  0  0  0  0  0  0  0  0  0  0  0
   -0.0235    2.9123   -0.0023 C   0  0  0  0  0  0  0  0  0  0  0  0
   -0.7464    3.1965   -0.6270 H   0  0  0  0  0  0  0  0  0  0  0  0
    0.8613    3.2232   -0.3404 H   0  0  0  0  0  0  0  0  0  0  0  0
   -0.2035    3.3862    0.9626 H   0  0  0  0  0  0  0  0  0  0  0  0
    0.0013    1.3942    0.0002 C   0  0  0  0  0  0  0  0  0  0  0  0
   -1.1929    0.6899    0.0026 C   0  0  0  0  0  0  0  0  0  0  0  0
   -2.0592    1.1827    0.0048 H   0  0  0  0  0  0  0  0  0  0  0  0
   -1.1959   -0.6932    0.0000 C   0  0  0  0  0  0  0  0  0  0  0  0
   -2.0764   -1.1886   -0.0037 H   0  0  0  0  0  0  0  0  0  0  0  0
   -0.0018   -1.3902    0.0041 C   0  0  0  0  0  0  0  0  0  0  0  0
   -0.0039   -2.3879    0.0098 H   0  0  0  0  0  0  0  0  0  0  0  0
    1.1959   -0.6921    0.0000 C   0  0  0  0  0  0  0  0  0  0  0  0
    2.0786   -1.1935    0.0035 H   0  0  0  0  0  0  0  0  0  0  0  0
    1.1933    0.6915   -0.0069 C   0  0  0  0  0  0  0  0  0  0  0  0
    2.0619    1.1887   -0.0179 H   0  0  0  0  0  0  0  0  0  0  0  0
  1  5  1  0
  5  6  1  0
  5  7  2  0
  1  2  1  0
  1  3  1  0
  1  4  1  0
  8 12  1  0
 12 13  2  0
 13 15  1  0
 15 17  2  0
 17 19  1  0
 19 21  2  0
 21 12  1  0
  8  9  1  0
  8 10  1  0
  8 11  1  0
 13 14  1  0
 15 16  1  0
 17 18  1  0
 19 20  1  0
 21 22  1  0
M  CHG  1   6  -1
M  END
>  <PDB_ID>  (267) 
pdb2eyu

>  <RESIDUE_NAME>  (267) 
ASP   PHE

>  <FRAG_NAME>  (267) 
ACET   MBZ

>  <FRAG_ATOM_NUM>  (267) 
fragi: 7  fragj: 15

>  <atom.prop.CHAIN_ID>  (267) 
A A A A A A A Z Z Z Z Z Z Z Z Z Z Z Z Z Z Z

>  <atom.prop.IS_HEAVY_ATOM>  (267) 
1 0 0 0 1 1 1 1 0 0 0 1 1 0 1 0 1 0 1 0 1 0

>  <DIFUSE_FUNC_ATOM>  (267) 
atom 6   atom 7   

>  <FINAL_SINGLE_POINT_ENERGY>  (267) 
0

>  <NONCOV_INTER_ENERGY_QM>  (267) 
0

>  <FF_Energy>  (267) 
24.3

>  <QM_Energy>  (267) 
-4.32

>  <source>  (267) 
ACET_MBZ_00

>  <Index>  (267) 
9497

$$$$
ACET-pdb2eyu-A-ASP-158:MBZ-pdb2eyu-A-PHE-179
     RDKit          3D

 22 21  0  0  0  0  0  0  0  0999 V2000
    4.3004   -1.1229   -1.4620 C   0  0  0  0  0  0  0  0  0  0  0  0
    3.5988   -1.2145   -0.7782 H   0  0  0  0  0  0  0  0  0  0  0  0
    4.9718   -1.8380   -1.4017 H   0  0  0  0  0  0  0  0  0  0  0  0
    3.8287   -1.1808   -2.4430 H   0  0  0  0  0  0  0  0  0  0  0  0
    4.9931    0.2198   -1.2789 C   0  0  0  0  0  0  0  0  0  0  0  0
    6.2203    0.2186   -1.0535 O   0  0  0  0  0  1  0  0  0  0  0  0
    4.3115    1.2612   -1.3756 O   0  0  0  0  0  0  0  0  0  0  0  0
    0.0321    2.9115    0.0090 C   0  0  0  0  0  0  0  0  0  0  0  0
   -0.8985    3.2255   -0.0324 H   0  0  0  0  0  0  0  0  0  0  0  0
    0.5580    3.2003   -0.7705 H   0  0  0  0  0  0  0  0  0  0  0  0
    0.4936    3.3239    0.9062 H   0  0  0  0  0  0  0  0  0  0  0  0
    0.0029    1.3883    0.0023 C   0  0  0  0  0  0  0  0  0  0  0  0
   -1.1898    0.6977    0.0001 C   0  0  0  0  0  0  0  0  0  0  0  0
   -2.0545    1.1907   -0.0033 H   0  0  0  0  0  0  0  0  0  0  0  0
   -1.1955   -0.6855   -0.0000 C   0  0  0  0  0  0  0  0  0  0  0  0
   -2.0764   -1.1790    0.0064 H   0  0  0  0  0  0  0  0  0  0  0  0
   -0.0029   -1.3818   -0.0066 C   0  0  0  0  0  0  0  0  0  0  0  0
   -0.0127   -2.3849   -0.0170 H   0  0  0  0  0  0  0  0  0  0  0  0
    1.1955   -0.6980   -0.0000 C   0  0  0  0  0  0  0  0  0  0  0  0
    2.0747   -1.2004    0.0026 H   0  0  0  0  0  0  0  0  0  0  0  0
    1.1898    0.6792    0.0042 C   0  0  0  0  0  0  0  0  0  0  0  0
    2.0620    1.1797    0.0080 H   0  0  0  0  0  0  0  0  0  0  0  0
  1  5  1  0
  5  6  1  0
  5  7  2  0
  1  2  1  0
  1  3  1  0
  1  4  1  0
  8 12  1  0
 12 13  2  0
 13 15  1  0
 15 17  2  0
 17 19  1  0
 19 21  2  0
 21 12  1  0
  8  9  1  0
  8 10  1  0
  8 11  1  0
 13 14  1  0
 15 16  1  0
 17 18  1  0
 19 20  1  0
 21 22  1  0
M  CHG  1   6  -1
M  END
>  <PDB_ID>  (268) 
pdb2eyu

>  <RESIDUE_NAME>  (268) 
ASP   PHE

>  <FRAG_NAME>  (268) 
ACET   MBZ

>  <FRAG_ATOM_NUM>  (268) 
fragi: 7  fragj: 15

>  <atom.prop.CHAIN_ID>  (268) 
A A A A A A A Z Z Z Z Z Z Z Z Z Z Z Z Z Z Z

>  <atom.prop.IS_HEAVY_ATOM>  (268) 
1 0 0 0 1 1 1 1 0 0 0 1 1 0 1 0 1 0 1 0 1 0

>  <DIFUSE_FUNC_ATOM>  (268) 
atom 6   atom 7   

>  <FINAL_SINGLE_POINT_ENERGY>  (268) 
0

>  <NONCOV_INTER_ENERGY_QM>  (268) 
0

>  <FF_Energy>  (268) 
4.26

>  <QM_Energy>  (268) 
-2.98

>  <source>  (268) 
ACET_MBZ_00

>  <Index>  (268) 
9524

$$$$
ACET-pdb2f1c-X-GLU-192:MBZ-pdb2f1c-X-PHE-233
     RDKit          3D

 22 21  0  0  0  0  0  0  0  0999 V2000
    3.2224   -2.8856   -1.7832 C   0  0  0  0  0  0  0  0  0  0  0  0
    2.4694   -2.2612   -1.8615 H   0  0  0  0  0  0  0  0  0  0  0  0
    3.0468   -3.6080   -1.1425 H   0  0  0  0  0  0  0  0  0  0  0  0
    3.4084   -3.3270   -2.7624 H   0  0  0  0  0  0  0  0  0  0  0  0
    4.4211   -2.0821   -1.2391 C   0  0  0  0  0  0  0  0  0  0  0  0
    4.2442   -1.3624   -0.2359 O   0  0  0  0  0  1  0  0  0  0  0  0
    5.5370   -2.1690   -1.7974 O   0  0  0  0  0  0  0  0  0  0  0  0
   -0.0010    2.9232   -0.0203 C   0  0  0  0  0  0  0  0  0  0  0  0
    0.9344    3.2278    0.0598 H   0  0  0  0  0  0  0  0  0  0  0  0
   -0.5512    3.2345    0.7382 H   0  0  0  0  0  0  0  0  0  0  0  0
   -0.4160    3.3496   -0.9336 H   0  0  0  0  0  0  0  0  0  0  0  0
    0.0007    1.4098   -0.0001 C   0  0  0  0  0  0  0  0  0  0  0  0
   -1.2001    0.6952    0.0002 C   0  0  0  0  0  0  0  0  0  0  0  0
   -2.0666    1.1852   -0.0005 H   0  0  0  0  0  0  0  0  0  0  0  0
   -1.2073   -0.7025   -0.0000 C   0  0  0  0  0  0  0  0  0  0  0  0
   -2.0829   -1.1933    0.0020 H   0  0  0  0  0  0  0  0  0  0  0  0
   -0.0022   -1.4021   -0.0009 C   0  0  0  0  0  0  0  0  0  0  0  0
   -0.0028   -2.3974   -0.0025 H   0  0  0  0  0  0  0  0  0  0  0  0
    1.2073   -0.6983    0.0000 C   0  0  0  0  0  0  0  0  0  0  0  0
    2.0857   -1.1958    0.0015 H   0  0  0  0  0  0  0  0  0  0  0  0
    1.2016    0.6979    0.0007 C   0  0  0  0  0  0  0  0  0  0  0  0
    2.0683    1.1940    0.0006 H   0  0  0  0  0  0  0  0  0  0  0  0
  1  5  1  0
  5  6  1  0
  5  7  2  0
  1  2  1  0
  1  3  1  0
  1  4  1  0
  8 12  1  0
 12 13  2  0
 13 15  1  0
 15 17  2  0
 17 19  1  0
 19 21  2  0
 21 12  1  0
  8  9  1  0
  8 10  1  0
  8 11  1  0
 13 14  1  0
 15 16  1  0
 17 18  1  0
 19 20  1  0
 21 22  1  0
M  CHG  1   6  -1
M  END
>  <PDB_ID>  (269) 
pdb2f1c

>  <RESIDUE_NAME>  (269) 
GLU   PHE

>  <FRAG_NAME>  (269) 
ACET   MBZ

>  <FRAG_ATOM_NUM>  (269) 
fragi: 7  fragj: 15

>  <atom.prop.CHAIN_ID>  (269) 
A A A A A A A Z Z Z Z Z Z Z Z Z Z Z Z Z Z Z

>  <atom.prop.IS_HEAVY_ATOM>  (269) 
1 0 0 0 1 1 1 1 0 0 0 1 1 0 1 0 1 0 1 0 1 0

>  <DIFUSE_FUNC_ATOM>  (269) 
atom 6   atom 7   

>  <FINAL_SINGLE_POINT_ENERGY>  (269) 
0

>  <NONCOV_INTER_ENERGY_QM>  (269) 
0

>  <FF_Energy>  (269) 
0.17

>  <QM_Energy>  (269) 
-5.84

>  <source>  (269) 
ACET_MBZ_00

>  <Index>  (269) 
9606

$$$$
ACET-pdb2f1c-X-GLU-257:MBZ-pdb2f1c-X-PHE-269
     RDKit          3D

 22 21  0  0  0  0  0  0  0  0999 V2000
    4.8914    1.7976   -0.8884 C   0  0  0  0  0  0  0  0  0  0  0  0
    4.3744    1.1067   -1.3599 H   0  0  0  0  0  0  0  0  0  0  0  0
    5.8120    1.8685   -1.2248 H   0  0  0  0  0  0  0  0  0  0  0  0
    4.3962    2.7571   -1.0382 H   0  0  0  0  0  0  0  0  0  0  0  0
    4.9679    1.3949    0.5733 C   0  0  0  0  0  0  0  0  0  0  0  0
    3.9104    1.3891    1.2447 O   0  0  0  0  0  1  0  0  0  0  0  0
    6.0840    1.0802    1.0473 O   0  0  0  0  0  0  0  0  0  0  0  0
    0.0033    2.9074   -0.0061 C   0  0  0  0  0  0  0  0  0  0  0  0
    0.9370    3.2112   -0.1173 H   0  0  0  0  0  0  0  0  0  0  0  0
   -0.3778    3.2165    0.8511 H   0  0  0  0  0  0  0  0  0  0  0  0
   -0.5885    3.3420   -0.8117 H   0  0  0  0  0  0  0  0  0  0  0  0
    0.0002    1.4052   -0.0011 C   0  0  0  0  0  0  0  0  0  0  0  0
   -1.1981    0.6969    0.0011 C   0  0  0  0  0  0  0  0  0  0  0  0
   -2.0649    1.1878    0.0023 H   0  0  0  0  0  0  0  0  0  0  0  0
   -1.2057   -0.6969    0.0000 C   0  0  0  0  0  0  0  0  0  0  0  0
   -2.0817   -1.1893   -0.0002 H   0  0  0  0  0  0  0  0  0  0  0  0
   -0.0011   -1.3980    0.0009 C   0  0  0  0  0  0  0  0  0  0  0  0
   -0.0072   -2.3951    0.0011 H   0  0  0  0  0  0  0  0  0  0  0  0
    1.2057   -0.7016   -0.0000 C   0  0  0  0  0  0  0  0  0  0  0  0
    2.0842   -1.1980    0.0018 H   0  0  0  0  0  0  0  0  0  0  0  0
    1.1991    0.6944   -0.0008 C   0  0  0  0  0  0  0  0  0  0  0  0
    2.0669    1.1903   -0.0024 H   0  0  0  0  0  0  0  0  0  0  0  0
  1  5  1  0
  5  6  1  0
  5  7  2  0
  1  2  1  0
  1  3  1  0
  1  4  1  0
  8 12  1  0
 12 13  2  0
 13 15  1  0
 15 17  2  0
 17 19  1  0
 19 21  2  0
 21 12  1  0
  8  9  1  0
  8 10  1  0
  8 11  1  0
 13 14  1  0
 15 16  1  0
 17 18  1  0
 19 20  1  0
 21 22  1  0
M  CHG  1   6  -1
M  END
>  <PDB_ID>  (270) 
pdb2f1c

>  <RESIDUE_NAME>  (270) 
GLU   PHE

>  <FRAG_NAME>  (270) 
ACET   MBZ

>  <FRAG_ATOM_NUM>  (270) 
fragi: 7  fragj: 15

>  <atom.prop.CHAIN_ID>  (270) 
A A A A A A A Z Z Z Z Z Z Z Z Z Z Z Z Z Z Z

>  <atom.prop.IS_HEAVY_ATOM>  (270) 
1 0 0 0 1 1 1 1 0 0 0 1 1 0 1 0 1 0 1 0 1 0

>  <DIFUSE_FUNC_ATOM>  (270) 
atom 6   atom 7   

>  <FINAL_SINGLE_POINT_ENERGY>  (270) 
0

>  <NONCOV_INTER_ENERGY_QM>  (270) 
0

>  <FF_Energy>  (270) 
-0.54

>  <QM_Energy>  (270) 
-5.76

>  <source>  (270) 
ACET_MBZ_00

>  <Index>  (270) 
9607

$$$$
ACET-pdb2f20-B-ASP-140:MBZ-pdb2f20-B-PHE-65
     RDKit          3D

 22 21  0  0  0  0  0  0  0  0999 V2000
    5.2831    3.7649    1.7478 C   0  0  0  0  0  0  0  0  0  0  0  0
    5.9297    3.1694    2.2094 H   0  0  0  0  0  0  0  0  0  0  0  0
    4.8902    4.4163    2.3849 H   0  0  0  0  0  0  0  0  0  0  0  0
    5.8219    4.3215    0.9810 H   0  0  0  0  0  0  0  0  0  0  0  0
    4.1616    2.9110    1.1724 C   0  0  0  0  0  0  0  0  0  0  0  0
    3.7960    3.0877   -0.0164 O   0  0  0  0  0  1  0  0  0  0  0  0
    3.6374    2.0583    1.9166 O   0  0  0  0  0  0  0  0  0  0  0  0
    0.0301    2.9067    0.1524 C   0  0  0  0  0  0  0  0  0  0  0  0
   -0.7015    3.2733   -0.3953 H   0  0  0  0  0  0  0  0  0  0  0  0
    0.9125    3.2241   -0.1487 H   0  0  0  0  0  0  0  0  0  0  0  0
   -0.1153    3.2577    1.1740 H   0  0  0  0  0  0  0  0  0  0  0  0
    0.0039    1.3990    0.0217 C   0  0  0  0  0  0  0  0  0  0  0  0
   -1.2089    0.6858   -0.0007 C   0  0  0  0  0  0  0  0  0  0  0  0
   -2.0665    1.1901   -0.0184 H   0  0  0  0  0  0  0  0  0  0  0  0
   -1.2190   -0.6926    0.0000 C   0  0  0  0  0  0  0  0  0  0  0  0
   -2.0871   -1.1939    0.0105 H   0  0  0  0  0  0  0  0  0  0  0  0
   -0.0064   -1.3870   -0.0123 C   0  0  0  0  0  0  0  0  0  0  0  0
   -0.0064   -2.3862   -0.0309 H   0  0  0  0  0  0  0  0  0  0  0  0
    1.2190   -0.6916   -0.0000 C   0  0  0  0  0  0  0  0  0  0  0  0
    2.0856   -1.2031    0.0162 H   0  0  0  0  0  0  0  0  0  0  0  0
    1.2114    0.6864   -0.0087 C   0  0  0  0  0  0  0  0  0  0  0  0
    2.0729    1.1949   -0.0382 H   0  0  0  0  0  0  0  0  0  0  0  0
  1  5  1  0
  5  6  1  0
  5  7  2  0
  1  2  1  0
  1  3  1  0
  1  4  1  0
  8 12  1  0
 12 13  2  0
 13 15  1  0
 15 17  2  0
 17 19  1  0
 19 21  2  0
 21 12  1  0
  8  9  1  0
  8 10  1  0
  8 11  1  0
 13 14  1  0
 15 16  1  0
 17 18  1  0
 19 20  1  0
 21 22  1  0
M  CHG  1   6  -1
M  END
>  <PDB_ID>  (271) 
pdb2f20

>  <RESIDUE_NAME>  (271) 
ASP   PHE

>  <FRAG_NAME>  (271) 
ACET   MBZ

>  <FRAG_ATOM_NUM>  (271) 
fragi: 7  fragj: 15

>  <atom.prop.CHAIN_ID>  (271) 
A A A A A A A Z Z Z Z Z Z Z Z Z Z Z Z Z Z Z

>  <atom.prop.IS_HEAVY_ATOM>  (271) 
1 0 0 0 1 1 1 1 0 0 0 1 1 0 1 0 1 0 1 0 1 0

>  <DIFUSE_FUNC_ATOM>  (271) 
atom 6   atom 7   

>  <FINAL_SINGLE_POINT_ENERGY>  (271) 
0

>  <NONCOV_INTER_ENERGY_QM>  (271) 
0

>  <FF_Energy>  (271) 
-2.44

>  <QM_Energy>  (271) 
-8.65

>  <source>  (271) 
ACET_MBZ_00

>  <Index>  (271) 
9635

$$$$
ACET-pdb1ebf-A-ASP-74:MBZ-pdb1ebf-A-PHE-101
     RDKit          3D

 22 21  0  0  0  0  0  0  0  0999 V2000
    3.0070   -4.1032   -2.0265 C   0  0  0  0  0  0  0  0  0  0  0  0
    2.3214   -4.6147   -2.5306 H   0  0  0  0  0  0  0  0  0  0  0  0
    3.8688   -4.5951   -2.0112 H   0  0  0  0  0  0  0  0  0  0  0  0
    3.1690   -3.1590   -2.5467 H   0  0  0  0  0  0  0  0  0  0  0  0
    2.5280   -3.9054   -0.6085 C   0  0  0  0  0  0  0  0  0  0  0  0
    3.2570   -3.2552    0.1662 O   0  0  0  0  0  1  0  0  0  0  0  0
    1.4294   -4.3937   -0.2681 O   0  0  0  0  0  0  0  0  0  0  0  0
    0.0091    2.9413    0.0042 C   0  0  0  0  0  0  0  0  0  0  0  0
   -0.7771    3.2462   -0.5074 H   0  0  0  0  0  0  0  0  0  0  0  0
    0.8530    3.2367   -0.4131 H   0  0  0  0  0  0  0  0  0  0  0  0
   -0.0456    3.3844    0.9986 H   0  0  0  0  0  0  0  0  0  0  0  0
    0.0000    1.4176    0.0008 C   0  0  0  0  0  0  0  0  0  0  0  0
   -1.1992    0.7079   -0.0003 C   0  0  0  0  0  0  0  0  0  0  0  0
   -2.0677    1.1896   -0.0032 H   0  0  0  0  0  0  0  0  0  0  0  0
   -1.2099   -0.7079    0.0000 C   0  0  0  0  0  0  0  0  0  0  0  0
   -2.0862   -1.1891    0.0023 H   0  0  0  0  0  0  0  0  0  0  0  0
   -0.0015   -1.4139   -0.0012 C   0  0  0  0  0  0  0  0  0  0  0  0
   -0.0034   -2.4056   -0.0040 H   0  0  0  0  0  0  0  0  0  0  0  0
    1.2099   -0.7056   -0.0000 C   0  0  0  0  0  0  0  0  0  0  0  0
    2.0884   -1.1970    0.0024 H   0  0  0  0  0  0  0  0  0  0  0  0
    1.2006    0.7018    0.0007 C   0  0  0  0  0  0  0  0  0  0  0  0
    2.0697    1.1936    0.0006 H   0  0  0  0  0  0  0  0  0  0  0  0
  1  5  1  0
  5  6  1  0
  5  7  2  0
  1  2  1  0
  1  3  1  0
  1  4  1  0
  8 12  1  0
 12 13  2  0
 13 15  1  0
 15 17  2  0
 17 19  1  0
 19 21  2  0
 21 12  1  0
  8  9  1  0
  8 10  1  0
  8 11  1  0
 13 14  1  0
 15 16  1  0
 17 18  1  0
 19 20  1  0
 21 22  1  0
M  CHG  1   6  -1
M  END
>  <PDB_ID>  (272) 
pdb1ebf

>  <RESIDUE_NAME>  (272) 
ASP   PHE

>  <FRAG_NAME>  (272) 
ACET   MBZ

>  <FRAG_ATOM_NUM>  (272) 
fragi: 7  fragj: 15

>  <atom.prop.CHAIN_ID>  (272) 
A A A A A A A Z Z Z Z Z Z Z Z Z Z Z Z Z Z Z

>  <atom.prop.IS_HEAVY_ATOM>  (272) 
1 0 0 0 1 1 1 1 0 0 0 1 1 0 1 0 1 0 1 0 1 0

>  <DIFUSE_FUNC_ATOM>  (272) 
atom 6   atom 7   

>  <FINAL_SINGLE_POINT_ENERGY>  (272) 
0

>  <NONCOV_INTER_ENERGY_QM>  (272) 
0

>  <FF_Energy>  (272) 
-2.99

>  <QM_Energy>  (272) 
-8.01

>  <source>  (272) 
ACET_MBZ_00

>  <Index>  (272) 
9657

$$$$
ACET-pdb1ebg-A-GLU-416:MBZ-pdb1ebg-A-PHE-179
     RDKit          3D

 22 21  0  0  0  0  0  0  0  0999 V2000
    2.9620    5.5639   -2.3028 C   0  0  0  0  0  0  0  0  0  0  0  0
    3.8793    5.9028   -2.2752 H   0  0  0  0  0  0  0  0  0  0  0  0
    2.3231    6.2178   -2.6520 H   0  0  0  0  0  0  0  0  0  0  0  0
    2.9461    4.6944   -2.9600 H   0  0  0  0  0  0  0  0  0  0  0  0
    2.5436    5.2487   -0.8381 C   0  0  0  0  0  0  0  0  0  0  0  0
    3.1746    4.5457   -0.0844 O   0  0  0  0  0  1  0  0  0  0  0  0
    1.3616    5.7624   -0.5178 O   0  0  0  0  0  0  0  0  0  0  0  0
    0.0207    2.9242    0.0366 C   0  0  0  0  0  0  0  0  0  0  0  0
   -0.7872    3.2466   -0.3695 H   0  0  0  0  0  0  0  0  0  0  0  0
    0.8454    3.2266   -0.3515 H   0  0  0  0  0  0  0  0  0  0  0  0
    0.0125    3.2138    1.0874 H   0  0  0  0  0  0  0  0  0  0  0  0
    0.0025    1.3970   -0.0264 C   0  0  0  0  0  0  0  0  0  0  0  0
   -1.2067    0.7001    0.0199 C   0  0  0  0  0  0  0  0  0  0  0  0
   -2.0634    1.1966    0.0661 H   0  0  0  0  0  0  0  0  0  0  0  0
   -1.2163   -0.6912   -0.0000 C   0  0  0  0  0  0  0  0  0  0  0  0
   -2.0834   -1.1878   -0.0281 H   0  0  0  0  0  0  0  0  0  0  0  0
    0.0006   -1.3878    0.0218 C   0  0  0  0  0  0  0  0  0  0  0  0
   -0.0109   -2.3905    0.0530 H   0  0  0  0  0  0  0  0  0  0  0  0
    1.2163   -0.7052    0.0000 C   0  0  0  0  0  0  0  0  0  0  0  0
    2.0865   -1.2037   -0.0035 H   0  0  0  0  0  0  0  0  0  0  0  0
    1.2037    0.6870   -0.0154 C   0  0  0  0  0  0  0  0  0  0  0  0
    2.0701    1.1879   -0.0200 H   0  0  0  0  0  0  0  0  0  0  0  0
  1  5  1  0
  5  6  1  0
  5  7  2  0
  1  2  1  0
  1  3  1  0
  1  4  1  0
  8 12  1  0
 12 13  2  0
 13 15  1  0
 15 17  2  0
 17 19  1  0
 19 21  2  0
 21 12  1  0
  8  9  1  0
  8 10  1  0
  8 11  1  0
 13 14  1  0
 15 16  1  0
 17 18  1  0
 19 20  1  0
 21 22  1  0
M  CHG  1   6  -1
M  END
>  <PDB_ID>  (273) 
pdb1ebg

>  <RESIDUE_NAME>  (273) 
GLU   PHE

>  <FRAG_NAME>  (273) 
ACET   MBZ

>  <FRAG_ATOM_NUM>  (273) 
fragi: 7  fragj: 15

>  <atom.prop.CHAIN_ID>  (273) 
A A A A A A A Z Z Z Z Z Z Z Z Z Z Z Z Z Z Z

>  <atom.prop.IS_HEAVY_ATOM>  (273) 
1 0 0 0 1 1 1 1 0 0 0 1 1 0 1 0 1 0 1 0 1 0

>  <DIFUSE_FUNC_ATOM>  (273) 
atom 6   atom 7   

>  <FINAL_SINGLE_POINT_ENERGY>  (273) 
0

>  <NONCOV_INTER_ENERGY_QM>  (273) 
0

>  <FF_Energy>  (273) 
-1.28

>  <QM_Energy>  (273) 
-6.53

>  <source>  (273) 
ACET_MBZ_00

>  <Index>  (273) 
9662

$$$$
ACET-pdb1ebg-B-ASP-434:MBZ-pdb1ebg-B-PHE-363
     RDKit          3D

 22 21  0  0  0  0  0  0  0  0999 V2000
   -1.1053   -1.0373    3.4208 C   0  0  0  0  0  0  0  0  0  0  0  0
   -0.1735   -0.8339    3.6920 H   0  0  0  0  0  0  0  0  0  0  0  0
   -1.1216   -1.6054    2.6094 H   0  0  0  0  0  0  0  0  0  0  0  0
   -1.5723   -1.5985    4.2302 H   0  0  0  0  0  0  0  0  0  0  0  0
   -1.8298    0.2538    3.1358 C   0  0  0  0  0  0  0  0  0  0  0  0
   -3.0818    0.0601    2.8223 O   0  0  0  0  0  1  0  0  0  0  0  0
   -1.3112    1.3592    3.2011 O   0  0  0  0  0  0  0  0  0  0  0  0
    0.0243    2.9162    0.0286 C   0  0  0  0  0  0  0  0  0  0  0  0
    0.9138    3.2056   -0.2795 H   0  0  0  0  0  0  0  0  0  0  0  0
   -0.1571    3.2025    0.9532 H   0  0  0  0  0  0  0  0  0  0  0  0
   -0.7262    3.3646   -0.6223 H   0  0  0  0  0  0  0  0  0  0  0  0
   -0.0029    1.4059    0.0009 C   0  0  0  0  0  0  0  0  0  0  0  0
   -1.2024    0.6868    0.0036 C   0  0  0  0  0  0  0  0  0  0  0  0
   -2.0708    1.1764    0.0068 H   0  0  0  0  0  0  0  0  0  0  0  0
   -1.2117   -0.7124   -0.0000 C   0  0  0  0  0  0  0  0  0  0  0  0
   -2.0763   -1.2061   -0.0026 H   0  0  0  0  0  0  0  0  0  0  0  0
    0.0065   -1.3893    0.0025 C   0  0  0  0  0  0  0  0  0  0  0  0
    0.0093   -2.3947    0.0053 H   0  0  0  0  0  0  0  0  0  0  0  0
    1.2117   -0.6937    0.0000 C   0  0  0  0  0  0  0  0  0  0  0  0
    2.0907   -1.1863    0.0044 H   0  0  0  0  0  0  0  0  0  0  0  0
    1.1988    0.7027   -0.0069 C   0  0  0  0  0  0  0  0  0  0  0  0
    2.0641    1.2017   -0.0179 H   0  0  0  0  0  0  0  0  0  0  0  0
  1  5  1  0
  5  6  1  0
  5  7  2  0
  1  2  1  0
  1  3  1  0
  1  4  1  0
  8 12  1  0
 12 13  2  0
 13 15  1  0
 15 17  2  0
 17 19  1  0
 19 21  2  0
 21 12  1  0
  8  9  1  0
  8 10  1  0
  8 11  1  0
 13 14  1  0
 15 16  1  0
 17 18  1  0
 19 20  1  0
 21 22  1  0
M  CHG  1   6  -1
M  END
>  <PDB_ID>  (274) 
pdb1ebg

>  <RESIDUE_NAME>  (274) 
ASP   PHE

>  <FRAG_NAME>  (274) 
ACET   MBZ

>  <FRAG_ATOM_NUM>  (274) 
fragi: 7  fragj: 15

>  <atom.prop.CHAIN_ID>  (274) 
A A A A A A A Z Z Z Z Z Z Z Z Z Z Z Z Z Z Z

>  <atom.prop.IS_HEAVY_ATOM>  (274) 
1 0 0 0 1 1 1 1 0 0 0 1 1 0 1 0 1 0 1 0 1 0

>  <DIFUSE_FUNC_ATOM>  (274) 
atom 6   atom 7   

>  <FINAL_SINGLE_POINT_ENERGY>  (274) 
0

>  <NONCOV_INTER_ENERGY_QM>  (274) 
0

>  <FF_Energy>  (274) 
1.37

>  <QM_Energy>  (274) 
-4.59

>  <source>  (274) 
ACET_MBZ_00

>  <Index>  (274) 
9671

$$$$
ACET-pdb1ebm-A-GLU-139:MBZ-pdb1ebm-A-PHE-181
     RDKit          3D

 22 21  0  0  0  0  0  0  0  0999 V2000
   -2.0251    0.6585   -3.1919 C   0  0  0  0  0  0  0  0  0  0  0  0
   -2.4178    0.0728   -3.8749 H   0  0  0  0  0  0  0  0  0  0  0  0
   -1.9894    0.2331   -2.3083 H   0  0  0  0  0  0  0  0  0  0  0  0
   -1.0053    0.8945   -3.4959 H   0  0  0  0  0  0  0  0  0  0  0  0
   -2.8981    1.8899   -3.0785 C   0  0  0  0  0  0  0  0  0  0  0  0
   -2.6494    2.7190   -2.1807 O   0  0  0  0  0  1  0  0  0  0  0  0
   -3.8311    2.0408   -3.8910 O   0  0  0  0  0  0  0  0  0  0  0  0
   -0.0029    2.8896    0.1292 C   0  0  0  0  0  0  0  0  0  0  0  0
   -0.8127    3.2393   -0.3092 H   0  0  0  0  0  0  0  0  0  0  0  0
    0.8189    3.2373   -0.2890 H   0  0  0  0  0  0  0  0  0  0  0  0
   -0.0154    3.2252    1.1662 H   0  0  0  0  0  0  0  0  0  0  0  0
   -0.0033    1.4023    0.0017 C   0  0  0  0  0  0  0  0  0  0  0  0
   -1.2030    0.6964   -0.0017 C   0  0  0  0  0  0  0  0  0  0  0  0
   -2.0668    1.1869   -0.0064 H   0  0  0  0  0  0  0  0  0  0  0  0
   -1.2057   -0.6932    0.0000 C   0  0  0  0  0  0  0  0  0  0  0  0
   -2.0773   -1.1922   -0.0003 H   0  0  0  0  0  0  0  0  0  0  0  0
    0.0067   -1.3960    0.0038 C   0  0  0  0  0  0  0  0  0  0  0  0
   -0.0033   -2.3927    0.0086 H   0  0  0  0  0  0  0  0  0  0  0  0
    1.2057   -0.6996   -0.0000 C   0  0  0  0  0  0  0  0  0  0  0  0
    2.0873   -1.1961    0.0016 H   0  0  0  0  0  0  0  0  0  0  0  0
    1.1996    0.6901   -0.0038 C   0  0  0  0  0  0  0  0  0  0  0  0
    2.0655    1.1898   -0.0115 H   0  0  0  0  0  0  0  0  0  0  0  0
  1  5  1  0
  5  6  1  0
  5  7  2  0
  1  2  1  0
  1  3  1  0
  1  4  1  0
  8 12  1  0
 12 13  2  0
 13 15  1  0
 15 17  2  0
 17 19  1  0
 19 21  2  0
 21 12  1  0
  8  9  1  0
  8 10  1  0
  8 11  1  0
 13 14  1  0
 15 16  1  0
 17 18  1  0
 19 20  1  0
 21 22  1  0
M  CHG  1   6  -1
M  END
>  <PDB_ID>  (275) 
pdb1ebm

>  <RESIDUE_NAME>  (275) 
GLU   PHE

>  <FRAG_NAME>  (275) 
ACET   MBZ

>  <FRAG_ATOM_NUM>  (275) 
fragi: 7  fragj: 15

>  <atom.prop.CHAIN_ID>  (275) 
A A A A A A A Z Z Z Z Z Z Z Z Z Z Z Z Z Z Z

>  <atom.prop.IS_HEAVY_ATOM>  (275) 
1 0 0 0 1 1 1 1 0 0 0 1 1 0 1 0 1 0 1 0 1 0

>  <DIFUSE_FUNC_ATOM>  (275) 
atom 6   atom 7   

>  <FINAL_SINGLE_POINT_ENERGY>  (275) 
0

>  <NONCOV_INTER_ENERGY_QM>  (275) 
0

>  <FF_Energy>  (275) 
0.13

>  <QM_Energy>  (275) 
-5.12

>  <source>  (275) 
ACET_MBZ_00

>  <Index>  (275) 
9677

$$$$
ACET-pdb1ebm-A-ASP-268:MBZ-pdb1ebm-A-PHE-319
     RDKit          3D

 22 21  0  0  0  0  0  0  0  0999 V2000
   -5.4611   -2.6778   -1.8568 C   0  0  0  0  0  0  0  0  0  0  0  0
   -5.3920   -3.6291   -1.5914 H   0  0  0  0  0  0  0  0  0  0  0  0
   -5.0115   -2.5163   -2.7238 H   0  0  0  0  0  0  0  0  0  0  0  0
   -6.5167   -2.4292   -1.9667 H   0  0  0  0  0  0  0  0  0  0  0  0
   -4.7787   -1.8260   -0.7897 C   0  0  0  0  0  0  0  0  0  0  0  0
   -4.9672   -0.5920   -0.7988 O   0  0  0  0  0  1  0  0  0  0  0  0
   -4.0552   -2.3832    0.0554 O   0  0  0  0  0  0  0  0  0  0  0  0
   -0.0004    2.9140    0.0415 C   0  0  0  0  0  0  0  0  0  0  0  0
   -0.8023    3.2352   -0.4354 H   0  0  0  0  0  0  0  0  0  0  0  0
    0.8293    3.2321   -0.3869 H   0  0  0  0  0  0  0  0  0  0  0  0
   -0.0294    3.3218    1.0520 H   0  0  0  0  0  0  0  0  0  0  0  0
   -0.0019    1.4106    0.0001 C   0  0  0  0  0  0  0  0  0  0  0  0
   -1.2066    0.6970   -0.0003 C   0  0  0  0  0  0  0  0  0  0  0  0
   -2.0703    1.1841   -0.0024 H   0  0  0  0  0  0  0  0  0  0  0  0
   -1.2096   -0.7045    0.0000 C   0  0  0  0  0  0  0  0  0  0  0  0
   -2.0787   -1.1997    0.0001 H   0  0  0  0  0  0  0  0  0  0  0  0
    0.0083   -1.4037    0.0019 C   0  0  0  0  0  0  0  0  0  0  0  0
    0.0026   -2.3989    0.0044 H   0  0  0  0  0  0  0  0  0  0  0  0
    1.2096   -0.7000    0.0000 C   0  0  0  0  0  0  0  0  0  0  0  0
    2.0923   -1.1905    0.0018 H   0  0  0  0  0  0  0  0  0  0  0  0
    1.2002    0.7007   -0.0018 C   0  0  0  0  0  0  0  0  0  0  0  0
    2.0668    1.1968   -0.0056 H   0  0  0  0  0  0  0  0  0  0  0  0
  1  5  1  0
  5  6  1  0
  5  7  2  0
  1  2  1  0
  1  3  1  0
  1  4  1  0
  8 12  1  0
 12 13  2  0
 13 15  1  0
 15 17  2  0
 17 19  1  0
 19 21  2  0
 21 12  1  0
  8  9  1  0
  8 10  1  0
  8 11  1  0
 13 14  1  0
 15 16  1  0
 17 18  1  0
 19 20  1  0
 21 22  1  0
M  CHG  1   6  -1
M  END
>  <PDB_ID>  (276) 
pdb1ebm

>  <RESIDUE_NAME>  (276) 
ASP   PHE

>  <FRAG_NAME>  (276) 
ACET   MBZ

>  <FRAG_ATOM_NUM>  (276) 
fragi: 7  fragj: 15

>  <atom.prop.CHAIN_ID>  (276) 
A A A A A A A Z Z Z Z Z Z Z Z Z Z Z Z Z Z Z

>  <atom.prop.IS_HEAVY_ATOM>  (276) 
1 0 0 0 1 1 1 1 0 0 0 1 1 0 1 0 1 0 1 0 1 0

>  <DIFUSE_FUNC_ATOM>  (276) 
atom 6   atom 7   

>  <FINAL_SINGLE_POINT_ENERGY>  (276) 
0

>  <NONCOV_INTER_ENERGY_QM>  (276) 
0

>  <FF_Energy>  (276) 
1.32

>  <QM_Energy>  (276) 
-7.52

>  <source>  (276) 
ACET_MBZ_00

>  <Index>  (276) 
9679

$$$$
ACET-pdb2f2f-F-ASP-129:MBZ-pdb2f2f-F-PHE-134
     RDKit          3D

 22 21  0  0  0  0  0  0  0  0999 V2000
    0.6491    5.9339   -4.2603 C   0  0  0  0  0  0  0  0  0  0  0  0
    1.1475    6.0087   -5.1167 H   0  0  0  0  0  0  0  0  0  0  0  0
    1.2280    6.1974   -3.4979 H   0  0  0  0  0  0  0  0  0  0  0  0
   -0.1847    6.6348   -4.3003 H   0  0  0  0  0  0  0  0  0  0  0  0
    0.2066    4.4998   -4.0715 C   0  0  0  0  0  0  0  0  0  0  0  0
   -0.2500    4.1541   -2.9674 O   0  0  0  0  0  1  0  0  0  0  0  0
    0.3224    3.7145   -5.0325 O   0  0  0  0  0  0  0  0  0  0  0  0
   -0.0085    2.8692   -0.0425 C   0  0  0  0  0  0  0  0  0  0  0  0
    0.3525    3.1608   -0.9185 H   0  0  0  0  0  0  0  0  0  0  0  0
    0.5514    3.2075    0.7021 H   0  0  0  0  0  0  0  0  0  0  0  0
   -1.0018    3.3045    0.0674 H   0  0  0  0  0  0  0  0  0  0  0  0
   -0.0011    1.3901   -0.0006 C   0  0  0  0  0  0  0  0  0  0  0  0
   -1.1942    0.6789    0.0009 C   0  0  0  0  0  0  0  0  0  0  0  0
   -2.0627    1.1748    0.0017 H   0  0  0  0  0  0  0  0  0  0  0  0
   -1.2025   -0.7015   -0.0000 C   0  0  0  0  0  0  0  0  0  0  0  0
   -2.0747   -1.1993    0.0014 H   0  0  0  0  0  0  0  0  0  0  0  0
    0.0014   -1.3906   -0.0014 C   0  0  0  0  0  0  0  0  0  0  0  0
    0.0091   -2.3871   -0.0045 H   0  0  0  0  0  0  0  0  0  0  0  0
    1.2025   -0.6795    0.0000 C   0  0  0  0  0  0  0  0  0  0  0  0
    2.0847   -1.1800    0.0013 H   0  0  0  0  0  0  0  0  0  0  0  0
    1.1940    0.7025    0.0011 C   0  0  0  0  0  0  0  0  0  0  0  0
    2.0582    1.2038    0.0029 H   0  0  0  0  0  0  0  0  0  0  0  0
  1  5  1  0
  5  6  1  0
  5  7  2  0
  1  2  1  0
  1  3  1  0
  1  4  1  0
  8 12  1  0
 12 13  2  0
 13 15  1  0
 15 17  2  0
 17 19  1  0
 19 21  2  0
 21 12  1  0
  8  9  1  0
  8 10  1  0
  8 11  1  0
 13 14  1  0
 15 16  1  0
 17 18  1  0
 19 20  1  0
 21 22  1  0
M  CHG  1   6  -1
M  END
>  <PDB_ID>  (277) 
pdb2f2f

>  <RESIDUE_NAME>  (277) 
ASP   PHE

>  <FRAG_NAME>  (277) 
ACET   MBZ

>  <FRAG_ATOM_NUM>  (277) 
fragi: 7  fragj: 15

>  <atom.prop.CHAIN_ID>  (277) 
A A A A A A A Z Z Z Z Z Z Z Z Z Z Z Z Z Z Z

>  <atom.prop.IS_HEAVY_ATOM>  (277) 
1 0 0 0 1 1 1 1 0 0 0 1 1 0 1 0 1 0 1 0 1 0

>  <DIFUSE_FUNC_ATOM>  (277) 
atom 6   atom 7   

>  <FINAL_SINGLE_POINT_ENERGY>  (277) 
0

>  <NONCOV_INTER_ENERGY_QM>  (277) 
0

>  <FF_Energy>  (277) 
0.73

>  <QM_Energy>  (277) 
-4.33

>  <source>  (277) 
ACET_MBZ_00

>  <Index>  (277) 
9685

$$$$
ACET-pdb1ec7-A-GLU-54:MBZ-pdb1ec7-A-PHE-344
     RDKit          3D

 22 21  0  0  0  0  0  0  0  0999 V2000
   -4.6854    4.6615   -1.0050 C   0  0  0  0  0  0  0  0  0  0  0  0
   -5.3441    4.9851   -0.3603 H   0  0  0  0  0  0  0  0  0  0  0  0
   -4.8651    3.7534   -1.3176 H   0  0  0  0  0  0  0  0  0  0  0  0
   -4.6838    5.3318   -1.8646 H   0  0  0  0  0  0  0  0  0  0  0  0
   -3.3299    4.6433   -0.3034 C   0  0  0  0  0  0  0  0  0  0  0  0
   -2.3651    5.2547   -0.7260 O   0  0  0  0  0  1  0  0  0  0  0  0
   -3.3142    3.9085    0.7883 O   0  0  0  0  0  0  0  0  0  0  0  0
   -0.0663    2.9310   -0.0456 C   0  0  0  0  0  0  0  0  0  0  0  0
   -0.9159    3.1952   -0.4788 H   0  0  0  0  0  0  0  0  0  0  0  0
    0.7133    3.2518   -0.5654 H   0  0  0  0  0  0  0  0  0  0  0  0
   -0.0318    3.4239    0.9260 H   0  0  0  0  0  0  0  0  0  0  0  0
   -0.0120    1.4140   -0.0049 C   0  0  0  0  0  0  0  0  0  0  0  0
   -1.1980    0.6760   -0.0118 C   0  0  0  0  0  0  0  0  0  0  0  0
   -2.0765    1.1632   -0.0266 H   0  0  0  0  0  0  0  0  0  0  0  0
   -1.2085   -0.7198   -0.0000 C   0  0  0  0  0  0  0  0  0  0  0  0
   -2.0755   -1.2131    0.0022 H   0  0  0  0  0  0  0  0  0  0  0  0
    0.0073   -1.4074    0.0103 C   0  0  0  0  0  0  0  0  0  0  0  0
    0.0197   -2.3999    0.0239 H   0  0  0  0  0  0  0  0  0  0  0  0
    1.2085   -0.6833    0.0000 C   0  0  0  0  0  0  0  0  0  0  0  0
    2.0959   -1.1747   -0.0105 H   0  0  0  0  0  0  0  0  0  0  0  0
    1.2026    0.7205    0.0064 C   0  0  0  0  0  0  0  0  0  0  0  0
    2.0594    1.2172    0.0186 H   0  0  0  0  0  0  0  0  0  0  0  0
  1  5  1  0
  5  6  1  0
  5  7  2  0
  1  2  1  0
  1  3  1  0
  1  4  1  0
  8 12  1  0
 12 13  2  0
 13 15  1  0
 15 17  2  0
 17 19  1  0
 19 21  2  0
 21 12  1  0
  8  9  1  0
  8 10  1  0
  8 11  1  0
 13 14  1  0
 15 16  1  0
 17 18  1  0
 19 20  1  0
 21 22  1  0
M  CHG  1   6  -1
M  END
>  <PDB_ID>  (278) 
pdb1ec7

>  <RESIDUE_NAME>  (278) 
GLU   PHE

>  <FRAG_NAME>  (278) 
ACET   MBZ

>  <FRAG_ATOM_NUM>  (278) 
fragi: 7  fragj: 15

>  <atom.prop.CHAIN_ID>  (278) 
A A A A A A A Z Z Z Z Z Z Z Z Z Z Z Z Z Z Z

>  <atom.prop.IS_HEAVY_ATOM>  (278) 
1 0 0 0 1 1 1 1 0 0 0 1 1 0 1 0 1 0 1 0 1 0

>  <DIFUSE_FUNC_ATOM>  (278) 
atom 6   atom 7   

>  <FINAL_SINGLE_POINT_ENERGY>  (278) 
0

>  <NONCOV_INTER_ENERGY_QM>  (278) 
0

>  <FF_Energy>  (278) 
-2.03

>  <QM_Energy>  (278) 
-7.38

>  <source>  (278) 
ACET_MBZ_00

>  <Index>  (278) 
9693

$$$$
ACET-pdb1ecc-A-GLU-255:MBZ-pdb1ecc-A-PHE-259
     RDKit          3D

 22 21  0  0  0  0  0  0  0  0999 V2000
    3.4667    3.9908   -2.9205 C   0  0  0  0  0  0  0  0  0  0  0  0
    2.7300    3.9367   -3.5702 H   0  0  0  0  0  0  0  0  0  0  0  0
    4.3486    3.9724   -3.3564 H   0  0  0  0  0  0  0  0  0  0  0  0
    3.3739    4.9340   -2.3823 H   0  0  0  0  0  0  0  0  0  0  0  0
    3.3734    2.7869   -2.0146 C   0  0  0  0  0  0  0  0  0  0  0  0
    3.6053    2.9374   -0.8049 O   0  0  0  0  0  1  0  0  0  0  0  0
    3.0654    1.6772   -2.5000 O   0  0  0  0  0  0  0  0  0  0  0  0
    0.0024    2.9140    0.0452 C   0  0  0  0  0  0  0  0  0  0  0  0
   -0.6721    3.2413   -0.5953 H   0  0  0  0  0  0  0  0  0  0  0  0
    0.9091    3.2249   -0.1895 H   0  0  0  0  0  0  0  0  0  0  0  0
   -0.2458    3.3164    1.0274 H   0  0  0  0  0  0  0  0  0  0  0  0
   -0.0017    1.4114   -0.0003 C   0  0  0  0  0  0  0  0  0  0  0  0
   -1.2014    0.7115   -0.0001 C   0  0  0  0  0  0  0  0  0  0  0  0
   -2.0671    1.1950   -0.0015 H   0  0  0  0  0  0  0  0  0  0  0  0
   -1.2085   -0.6967   -0.0000 C   0  0  0  0  0  0  0  0  0  0  0  0
   -2.0830   -1.1850    0.0013 H   0  0  0  0  0  0  0  0  0  0  0  0
    0.0036   -1.4074    0.0007 C   0  0  0  0  0  0  0  0  0  0  0  0
   -0.0093   -2.4005    0.0017 H   0  0  0  0  0  0  0  0  0  0  0  0
    1.2085   -0.7103    0.0000 C   0  0  0  0  0  0  0  0  0  0  0  0
    2.0884   -1.2021    0.0010 H   0  0  0  0  0  0  0  0  0  0  0  0
    1.1995    0.6916   -0.0003 C   0  0  0  0  0  0  0  0  0  0  0  0
    2.0683    1.1863   -0.0015 H   0  0  0  0  0  0  0  0  0  0  0  0
  1  5  1  0
  5  6  1  0
  5  7  2  0
  1  2  1  0
  1  3  1  0
  1  4  1  0
  8 12  1  0
 12 13  2  0
 13 15  1  0
 15 17  2  0
 17 19  1  0
 19 21  2  0
 21 12  1  0
  8  9  1  0
  8 10  1  0
  8 11  1  0
 13 14  1  0
 15 16  1  0
 17 18  1  0
 19 20  1  0
 21 22  1  0
M  CHG  1   6  -1
M  END
>  <PDB_ID>  (279) 
pdb1ecc

>  <RESIDUE_NAME>  (279) 
GLU   PHE

>  <FRAG_NAME>  (279) 
ACET   MBZ

>  <FRAG_ATOM_NUM>  (279) 
fragi: 7  fragj: 15

>  <atom.prop.CHAIN_ID>  (279) 
A A A A A A A Z Z Z Z Z Z Z Z Z Z Z Z Z Z Z

>  <atom.prop.IS_HEAVY_ATOM>  (279) 
1 0 0 0 1 1 1 1 0 0 0 1 1 0 1 0 1 0 1 0 1 0

>  <DIFUSE_FUNC_ATOM>  (279) 
atom 6   atom 7   

>  <FINAL_SINGLE_POINT_ENERGY>  (279) 
0

>  <NONCOV_INTER_ENERGY_QM>  (279) 
0

>  <FF_Energy>  (279) 
-1.59

>  <QM_Energy>  (279) 
-7.94

>  <source>  (279) 
ACET_MBZ_00

>  <Index>  (279) 
9701

$$$$
ACET-pdb1ecc-B-GLU-255:MBZ-pdb1ecc-B-PHE-259
     RDKit          3D

 22 21  0  0  0  0  0  0  0  0999 V2000
    3.3234    4.2828   -2.9940 C   0  0  0  0  0  0  0  0  0  0  0  0
    2.5677    4.0942   -3.5980 H   0  0  0  0  0  0  0  0  0  0  0  0
    4.1755    4.3497   -3.4859 H   0  0  0  0  0  0  0  0  0  0  0  0
    3.1362    5.2394   -2.5060 H   0  0  0  0  0  0  0  0  0  0  0  0
    3.4394    3.1303   -2.0280 C   0  0  0  0  0  0  0  0  0  0  0  0
    3.4925    3.3569   -0.8143 O   0  0  0  0  0  1  0  0  0  0  0  0
    3.4694    1.9764   -2.4832 O   0  0  0  0  0  0  0  0  0  0  0  0
   -0.0029    2.9074   -0.0127 C   0  0  0  0  0  0  0  0  0  0  0  0
   -0.6076    3.2092   -0.7344 H   0  0  0  0  0  0  0  0  0  0  0  0
    0.9239    3.2163   -0.1676 H   0  0  0  0  0  0  0  0  0  0  0  0
   -0.3495    3.3569    0.9178 H   0  0  0  0  0  0  0  0  0  0  0  0
   -0.0002    1.4068   -0.0004 C   0  0  0  0  0  0  0  0  0  0  0  0
   -1.1931    0.6937   -0.0013 C   0  0  0  0  0  0  0  0  0  0  0  0
   -2.0637    1.1806   -0.0042 H   0  0  0  0  0  0  0  0  0  0  0  0
   -1.2033   -0.7073   -0.0000 C   0  0  0  0  0  0  0  0  0  0  0  0
   -2.0784   -1.1940    0.0024 H   0  0  0  0  0  0  0  0  0  0  0  0
   -0.0001   -1.3977    0.0003 C   0  0  0  0  0  0  0  0  0  0  0  0
    0.0038   -2.3959    0.0003 H   0  0  0  0  0  0  0  0  0  0  0  0
    1.2033   -0.6944    0.0000 C   0  0  0  0  0  0  0  0  0  0  0  0
    2.0848   -1.1895    0.0000 H   0  0  0  0  0  0  0  0  0  0  0  0
    1.1934    0.6987    0.0014 C   0  0  0  0  0  0  0  0  0  0  0  0
    2.0638    1.1951    0.0030 H   0  0  0  0  0  0  0  0  0  0  0  0
  1  5  1  0
  5  6  1  0
  5  7  2  0
  1  2  1  0
  1  3  1  0
  1  4  1  0
  8 12  1  0
 12 13  2  0
 13 15  1  0
 15 17  2  0
 17 19  1  0
 19 21  2  0
 21 12  1  0
  8  9  1  0
  8 10  1  0
  8 11  1  0
 13 14  1  0
 15 16  1  0
 17 18  1  0
 19 20  1  0
 21 22  1  0
M  CHG  1   6  -1
M  END
>  <PDB_ID>  (280) 
pdb1ecc

>  <RESIDUE_NAME>  (280) 
GLU   PHE

>  <FRAG_NAME>  (280) 
ACET   MBZ

>  <FRAG_ATOM_NUM>  (280) 
fragi: 7  fragj: 15

>  <atom.prop.CHAIN_ID>  (280) 
A A A A A A A Z Z Z Z Z Z Z Z Z Z Z Z Z Z Z

>  <atom.prop.IS_HEAVY_ATOM>  (280) 
1 0 0 0 1 1 1 1 0 0 0 1 1 0 1 0 1 0 1 0 1 0

>  <DIFUSE_FUNC_ATOM>  (280) 
atom 6   atom 7   

>  <FINAL_SINGLE_POINT_ENERGY>  (280) 
0

>  <NONCOV_INTER_ENERGY_QM>  (280) 
0

>  <FF_Energy>  (280) 
-2.35

>  <QM_Energy>  (280) 
-7.88

>  <source>  (280) 
ACET_MBZ_00

>  <Index>  (280) 
9707

$$$$
ACET-pdb1eem-A-ASP-174:MBZ-pdb1eem-A-PHE-164
     RDKit          3D

 22 21  0  0  0  0  0  0  0  0999 V2000
    3.7883    3.0844   -3.2015 C   0  0  0  0  0  0  0  0  0  0  0  0
    3.3693    2.8073   -4.0584 H   0  0  0  0  0  0  0  0  0  0  0  0
    4.2318    2.3109   -2.7648 H   0  0  0  0  0  0  0  0  0  0  0  0
    4.5500    3.8319   -3.4229 H   0  0  0  0  0  0  0  0  0  0  0  0
    2.7181    3.6158   -2.2848 C   0  0  0  0  0  0  0  0  0  0  0  0
    3.0338    3.8851   -1.1011 O   0  0  0  0  0  1  0  0  0  0  0  0
    1.5696    3.7688   -2.7609 O   0  0  0  0  0  0  0  0  0  0  0  0
    0.0061    2.9186    0.0248 C   0  0  0  0  0  0  0  0  0  0  0  0
   -0.8515    3.2282   -0.3477 H   0  0  0  0  0  0  0  0  0  0  0  0
    0.7726    3.2258   -0.5126 H   0  0  0  0  0  0  0  0  0  0  0  0
    0.1086    3.3348    1.0271 H   0  0  0  0  0  0  0  0  0  0  0  0
    0.0019    1.4035    0.0001 C   0  0  0  0  0  0  0  0  0  0  0  0
   -1.1936    0.6963   -0.0009 C   0  0  0  0  0  0  0  0  0  0  0  0
   -2.0610    1.1869   -0.0033 H   0  0  0  0  0  0  0  0  0  0  0  0
   -1.1985   -0.6928   -0.0000 C   0  0  0  0  0  0  0  0  0  0  0  0
   -2.0798   -1.1852    0.0015 H   0  0  0  0  0  0  0  0  0  0  0  0
   -0.0030   -1.3956    0.0010 C   0  0  0  0  0  0  0  0  0  0  0  0
   -0.0117   -2.3939    0.0025 H   0  0  0  0  0  0  0  0  0  0  0  0
    1.1985   -0.7035    0.0000 C   0  0  0  0  0  0  0  0  0  0  0  0
    2.0793   -1.1987    0.0011 H   0  0  0  0  0  0  0  0  0  0  0  0
    1.1946    0.6921   -0.0002 C   0  0  0  0  0  0  0  0  0  0  0  0
    2.0656    1.1848   -0.0011 H   0  0  0  0  0  0  0  0  0  0  0  0
  1  5  1  0
  5  6  1  0
  5  7  2  0
  1  2  1  0
  1  3  1  0
  1  4  1  0
  8 12  1  0
 12 13  2  0
 13 15  1  0
 15 17  2  0
 17 19  1  0
 19 21  2  0
 21 12  1  0
  8  9  1  0
  8 10  1  0
  8 11  1  0
 13 14  1  0
 15 16  1  0
 17 18  1  0
 19 20  1  0
 21 22  1  0
M  CHG  1   6  -1
M  END
>  <PDB_ID>  (281) 
pdb1eem

>  <RESIDUE_NAME>  (281) 
ASP   PHE

>  <FRAG_NAME>  (281) 
ACET   MBZ

>  <FRAG_ATOM_NUM>  (281) 
fragi: 7  fragj: 15

>  <atom.prop.CHAIN_ID>  (281) 
A A A A A A A Z Z Z Z Z Z Z Z Z Z Z Z Z Z Z

>  <atom.prop.IS_HEAVY_ATOM>  (281) 
1 0 0 0 1 1 1 1 0 0 0 1 1 0 1 0 1 0 1 0 1 0

>  <DIFUSE_FUNC_ATOM>  (281) 
atom 6   atom 7   

>  <FINAL_SINGLE_POINT_ENERGY>  (281) 
0

>  <NONCOV_INTER_ENERGY_QM>  (281) 
0

>  <FF_Energy>  (281) 
-0.66

>  <QM_Energy>  (281) 
-7.73

>  <source>  (281) 
ACET_MBZ_00

>  <Index>  (281) 
9840

$$$$
ACET-pdb1eg7-B-ASP-1387:MBZ-pdb1eg7-B-PHE-1384
     RDKit          3D

 22 21  0  0  0  0  0  0  0  0999 V2000
    3.6729    5.5558    0.9885 C   0  0  0  0  0  0  0  0  0  0  0  0
    2.9800    5.6632    1.6925 H   0  0  0  0  0  0  0  0  0  0  0  0
    4.0791    6.4331    0.7638 H   0  0  0  0  0  0  0  0  0  0  0  0
    4.4588    4.9135    1.3858 H   0  0  0  0  0  0  0  0  0  0  0  0
    3.0182    4.9853   -0.2583 C   0  0  0  0  0  0  0  0  0  0  0  0
    3.7187    4.3115   -1.0476 O   0  0  0  0  0  1  0  0  0  0  0  0
    1.8076    5.2277   -0.4587 O   0  0  0  0  0  0  0  0  0  0  0  0
   -0.0026    2.9027    0.0686 C   0  0  0  0  0  0  0  0  0  0  0  0
   -0.5737    3.2429   -0.6608 H   0  0  0  0  0  0  0  0  0  0  0  0
    0.9284    3.2174   -0.0223 H   0  0  0  0  0  0  0  0  0  0  0  0
   -0.3948    3.2946    1.0070 H   0  0  0  0  0  0  0  0  0  0  0  0
    0.0007    1.4047    0.0011 C   0  0  0  0  0  0  0  0  0  0  0  0
   -1.1973    0.6951   -0.0020 C   0  0  0  0  0  0  0  0  0  0  0  0
   -2.0640    1.1853   -0.0065 H   0  0  0  0  0  0  0  0  0  0  0  0
   -1.2046   -0.6987    0.0000 C   0  0  0  0  0  0  0  0  0  0  0  0
   -2.0808   -1.1903    0.0004 H   0  0  0  0  0  0  0  0  0  0  0  0
   -0.0013   -1.3982    0.0032 C   0  0  0  0  0  0  0  0  0  0  0  0
   -0.0048   -2.3952    0.0073 H   0  0  0  0  0  0  0  0  0  0  0  0
    1.2046   -0.6998   -0.0000 C   0  0  0  0  0  0  0  0  0  0  0  0
    2.0836   -1.1955    0.0009 H   0  0  0  0  0  0  0  0  0  0  0  0
    1.1978    0.6969   -0.0023 C   0  0  0  0  0  0  0  0  0  0  0  0
    2.0664    1.1916   -0.0073 H   0  0  0  0  0  0  0  0  0  0  0  0
  1  5  1  0
  5  6  1  0
  5  7  2  0
  1  2  1  0
  1  3  1  0
  1  4  1  0
  8 12  1  0
 12 13  2  0
 13 15  1  0
 15 17  2  0
 17 19  1  0
 19 21  2  0
 21 12  1  0
  8  9  1  0
  8 10  1  0
  8 11  1  0
 13 14  1  0
 15 16  1  0
 17 18  1  0
 19 20  1  0
 21 22  1  0
M  CHG  1   6  -1
M  END
>  <PDB_ID>  (282) 
pdb1eg7

>  <RESIDUE_NAME>  (282) 
ASP   PHE

>  <FRAG_NAME>  (282) 
ACET   MBZ

>  <FRAG_ATOM_NUM>  (282) 
fragi: 7  fragj: 15

>  <atom.prop.CHAIN_ID>  (282) 
A A A A A A A Z Z Z Z Z Z Z Z Z Z Z Z Z Z Z

>  <atom.prop.IS_HEAVY_ATOM>  (282) 
1 0 0 0 1 1 1 1 0 0 0 1 1 0 1 0 1 0 1 0 1 0

>  <DIFUSE_FUNC_ATOM>  (282) 
atom 6   atom 7   

>  <FINAL_SINGLE_POINT_ENERGY>  (282) 
0

>  <NONCOV_INTER_ENERGY_QM>  (282) 
0

>  <FF_Energy>  (282) 
0.19

>  <QM_Energy>  (282) 
-5.36

>  <source>  (282) 
ACET_MBZ_00

>  <Index>  (282) 
9978

$$$$
ACET-pdb1ega-B-ASP-187:MBZ-pdb1ega-B-PHE-192
     RDKit          3D

 22 21  0  0  0  0  0  0  0  0999 V2000
    1.3550    2.4095    3.1059 C   0  0  0  0  0  0  0  0  0  0  0  0
    2.0261    1.7629    3.4550 H   0  0  0  0  0  0  0  0  0  0  0  0
    0.7653    1.9668    2.4387 H   0  0  0  0  0  0  0  0  0  0  0  0
    0.7329    2.7285    3.9422 H   0  0  0  0  0  0  0  0  0  0  0  0
    2.0867    3.5551    2.4294 C   0  0  0  0  0  0  0  0  0  0  0  0
    1.9840    4.7104    2.8839 O   0  0  0  0  0  1  0  0  0  0  0  0
    2.7823    3.2821    1.4276 O   0  0  0  0  0  0  0  0  0  0  0  0
   -0.0016    2.9121   -0.1971 C   0  0  0  0  0  0  0  0  0  0  0  0
    0.8410    3.2638    0.1642 H   0  0  0  0  0  0  0  0  0  0  0  0
   -0.7884    3.2749    0.2649 H   0  0  0  0  0  0  0  0  0  0  0  0
   -0.0642    3.2052   -1.2451 H   0  0  0  0  0  0  0  0  0  0  0  0
    0.0001    1.4053   -0.0033 C   0  0  0  0  0  0  0  0  0  0  0  0
   -1.2019    0.6887    0.0064 C   0  0  0  0  0  0  0  0  0  0  0  0
   -2.0678    1.1829    0.0173 H   0  0  0  0  0  0  0  0  0  0  0  0
   -1.2101   -0.7024    0.0000 C   0  0  0  0  0  0  0  0  0  0  0  0
   -2.0825   -1.1962    0.0019 H   0  0  0  0  0  0  0  0  0  0  0  0
   -0.0036   -1.3941   -0.0076 C   0  0  0  0  0  0  0  0  0  0  0  0
   -0.0005   -2.3929   -0.0194 H   0  0  0  0  0  0  0  0  0  0  0  0
    1.2101   -0.6927   -0.0000 C   0  0  0  0  0  0  0  0  0  0  0  0
    2.0846   -1.1965    0.0037 H   0  0  0  0  0  0  0  0  0  0  0  0
    1.2054    0.6952    0.0045 C   0  0  0  0  0  0  0  0  0  0  0  0
    2.0684    1.1962    0.0127 H   0  0  0  0  0  0  0  0  0  0  0  0
  1  5  1  0
  5  6  1  0
  5  7  2  0
  1  2  1  0
  1  3  1  0
  1  4  1  0
  8 12  1  0
 12 13  2  0
 13 15  1  0
 15 17  2  0
 17 19  1  0
 19 21  2  0
 21 12  1  0
  8  9  1  0
  8 10  1  0
  8 11  1  0
 13 14  1  0
 15 16  1  0
 17 18  1  0
 19 20  1  0
 21 22  1  0
M  CHG  1   6  -1
M  END
>  <PDB_ID>  (283) 
pdb1ega

>  <RESIDUE_NAME>  (283) 
ASP   PHE

>  <FRAG_NAME>  (283) 
ACET   MBZ

>  <FRAG_ATOM_NUM>  (283) 
fragi: 7  fragj: 15

>  <atom.prop.CHAIN_ID>  (283) 
A A A A A A A Z Z Z Z Z Z Z Z Z Z Z Z Z Z Z

>  <atom.prop.IS_HEAVY_ATOM>  (283) 
1 0 0 0 1 1 1 1 0 0 0 1 1 0 1 0 1 0 1 0 1 0

>  <DIFUSE_FUNC_ATOM>  (283) 
atom 6   atom 7   

>  <FINAL_SINGLE_POINT_ENERGY>  (283) 
0

>  <NONCOV_INTER_ENERGY_QM>  (283) 
0

>  <FF_Energy>  (283) 
-0.29

>  <QM_Energy>  (283) 
-7.25

>  <source>  (283) 
ACET_MBZ_00

>  <Index>  (283) 
9989

$$$$
ACET-pdb1ega-B-GLU-260:MBZ-pdb1ega-B-PHE-205
     RDKit          3D

 22 21  0  0  0  0  0  0  0  0999 V2000
    1.7977   -3.5631    1.6136 C   0  0  0  0  0  0  0  0  0  0  0  0
    1.8408   -3.1202    2.4960 H   0  0  0  0  0  0  0  0  0  0  0  0
    1.1935   -3.0810    0.9982 H   0  0  0  0  0  0  0  0  0  0  0  0
    2.7987   -3.5616    1.1823 H   0  0  0  0  0  0  0  0  0  0  0  0
    1.1874   -4.9620    1.8405 C   0  0  0  0  0  0  0  0  0  0  0  0
    1.7469   -5.9769    1.3631 O   0  0  0  0  0  1  0  0  0  0  0  0
    0.1223   -5.0438    2.5027 O   0  0  0  0  0  0  0  0  0  0  0  0
   -0.0024    2.8906    0.0061 C   0  0  0  0  0  0  0  0  0  0  0  0
    0.9354    3.2005    0.0320 H   0  0  0  0  0  0  0  0  0  0  0  0
   -0.5056    3.1952    0.8004 H   0  0  0  0  0  0  0  0  0  0  0  0
   -0.4760    3.3164   -0.8786 H   0  0  0  0  0  0  0  0  0  0  0  0
    0.0006    1.4028    0.0013 C   0  0  0  0  0  0  0  0  0  0  0  0
   -1.1972    0.6998   -0.0009 C   0  0  0  0  0  0  0  0  0  0  0  0
   -2.0632    1.1888   -0.0047 H   0  0  0  0  0  0  0  0  0  0  0  0
   -1.2067   -0.6983    0.0000 C   0  0  0  0  0  0  0  0  0  0  0  0
   -2.0818   -1.1883    0.0027 H   0  0  0  0  0  0  0  0  0  0  0  0
   -0.0006   -1.4011   -0.0007 C   0  0  0  0  0  0  0  0  0  0  0  0
   -0.0052   -2.3961   -0.0024 H   0  0  0  0  0  0  0  0  0  0  0  0
    1.2067   -0.6999   -0.0000 C   0  0  0  0  0  0  0  0  0  0  0  0
    2.0851   -1.1950    0.0020 H   0  0  0  0  0  0  0  0  0  0  0  0
    1.1972    0.6968    0.0003 C   0  0  0  0  0  0  0  0  0  0  0  0
    2.0663    1.1927   -0.0008 H   0  0  0  0  0  0  0  0  0  0  0  0
  1  5  1  0
  5  6  1  0
  5  7  2  0
  1  2  1  0
  1  3  1  0
  1  4  1  0
  8 12  1  0
 12 13  2  0
 13 15  1  0
 15 17  2  0
 17 19  1  0
 19 21  2  0
 21 12  1  0
  8  9  1  0
  8 10  1  0
  8 11  1  0
 13 14  1  0
 15 16  1  0
 17 18  1  0
 19 20  1  0
 21 22  1  0
M  CHG  1   6  -1
M  END
>  <PDB_ID>  (284) 
pdb1ega

>  <RESIDUE_NAME>  (284) 
GLU   PHE

>  <FRAG_NAME>  (284) 
ACET   MBZ

>  <FRAG_ATOM_NUM>  (284) 
fragi: 7  fragj: 15

>  <atom.prop.CHAIN_ID>  (284) 
A A A A A A A Z Z Z Z Z Z Z Z Z Z Z Z Z Z Z

>  <atom.prop.IS_HEAVY_ATOM>  (284) 
1 0 0 0 1 1 1 1 0 0 0 1 1 0 1 0 1 0 1 0 1 0

>  <DIFUSE_FUNC_ATOM>  (284) 
atom 6   atom 7   

>  <FINAL_SINGLE_POINT_ENERGY>  (284) 
0

>  <NONCOV_INTER_ENERGY_QM>  (284) 
0

>  <FF_Energy>  (284) 
8.84

>  <QM_Energy>  (284) 
1.5

>  <source>  (284) 
ACET_MBZ_00

>  <Index>  (284) 
9990

$$$$
ACET-pdb1egd-A-ASP-143:MBZ-pdb1egd-B-PHE-284
     RDKit          3D

 22 21  0  0  0  0  0  0  0  0999 V2000
    0.6778   -0.4003   -3.7327 C   0  0  0  0  0  0  0  0  0  0  0  0
    1.2996   -0.1047   -3.0164 H   0  0  0  0  0  0  0  0  0  0  0  0
    1.0931   -0.2792   -4.6263 H   0  0  0  0  0  0  0  0  0  0  0  0
    0.4871   -1.4644   -3.5929 H   0  0  0  0  0  0  0  0  0  0  0  0
   -0.5857    0.4474   -3.6621 C   0  0  0  0  0  0  0  0  0  0  0  0
   -1.3877    0.2165   -2.7284 O   0  0  0  0  0  1  0  0  0  0  0  0
   -0.7878    1.3303   -4.5285 O   0  0  0  0  0  0  0  0  0  0  0  0
    0.0075    2.9237    0.0016 C   0  0  0  0  0  0  0  0  0  0  0  0
    0.8668    3.2147    0.3842 H   0  0  0  0  0  0  0  0  0  0  0  0
   -0.7577    3.2221    0.5444 H   0  0  0  0  0  0  0  0  0  0  0  0
   -0.0886    3.3600   -0.9927 H   0  0  0  0  0  0  0  0  0  0  0  0
    0.0007    1.3973   -0.0000 C   0  0  0  0  0  0  0  0  0  0  0  0
   -1.2129    0.6970   -0.0004 C   0  0  0  0  0  0  0  0  0  0  0  0
   -2.0695    1.1865   -0.0016 H   0  0  0  0  0  0  0  0  0  0  0  0
   -1.2126   -0.7023   -0.0000 C   0  0  0  0  0  0  0  0  0  0  0  0
   -2.0836   -1.1989    0.0017 H   0  0  0  0  0  0  0  0  0  0  0  0
    0.0019   -1.3986   -0.0004 C   0  0  0  0  0  0  0  0  0  0  0  0
    0.0008   -2.3945   -0.0016 H   0  0  0  0  0  0  0  0  0  0  0  0
    1.2126   -0.6952    0.0000 C   0  0  0  0  0  0  0  0  0  0  0  0
    2.0909   -1.1941    0.0011 H   0  0  0  0  0  0  0  0  0  0  0  0
    1.2103    0.7018    0.0008 C   0  0  0  0  0  0  0  0  0  0  0  0
    2.0696    1.1988    0.0004 H   0  0  0  0  0  0  0  0  0  0  0  0
  1  5  1  0
  5  6  1  0
  5  7  2  0
  1  2  1  0
  1  3  1  0
  1  4  1  0
  8 12  1  0
 12 13  2  0
 13 15  1  0
 15 17  2  0
 17 19  1  0
 19 21  2  0
 21 12  1  0
  8  9  1  0
  8 10  1  0
  8 11  1  0
 13 14  1  0
 15 16  1  0
 17 18  1  0
 19 20  1  0
 21 22  1  0
M  CHG  1   6  -1
M  END
>  <PDB_ID>  (285) 
pdb1egd

>  <RESIDUE_NAME>  (285) 
ASP   PHE

>  <FRAG_NAME>  (285) 
ACET   MBZ

>  <FRAG_ATOM_NUM>  (285) 
fragi: 7  fragj: 15

>  <atom.prop.CHAIN_ID>  (285) 
A A A A A A A Z Z Z Z Z Z Z Z Z Z Z Z Z Z Z

>  <atom.prop.IS_HEAVY_ATOM>  (285) 
1 0 0 0 1 1 1 1 0 0 0 1 1 0 1 0 1 0 1 0 1 0

>  <DIFUSE_FUNC_ATOM>  (285) 
atom 6   atom 7   

>  <FINAL_SINGLE_POINT_ENERGY>  (285) 
0

>  <NONCOV_INTER_ENERGY_QM>  (285) 
0

>  <FF_Energy>  (285) 
5.94

>  <QM_Energy>  (285) 
0.72

>  <source>  (285) 
ACET_MBZ_00

>  <Index>  (285) 
10001

$$$$
ACET-pdb2f96-A-ASP-59:MBZ-pdb2f96-A-PHE-63
     RDKit          3D

 22 21  0  0  0  0  0  0  0  0999 V2000
   -3.9008    5.9485    0.2500 C   0  0  0  0  0  0  0  0  0  0  0  0
   -4.8253    5.8762   -0.1109 H   0  0  0  0  0  0  0  0  0  0  0  0
   -3.3494    6.5350   -0.3331 H   0  0  0  0  0  0  0  0  0  0  0  0
   -3.9588    6.4105    1.2355 H   0  0  0  0  0  0  0  0  0  0  0  0
   -3.2820    4.5736    0.2858 C   0  0  0  0  0  0  0  0  0  0  0  0
   -3.2422    3.9614    1.3560 O   0  0  0  0  0  1  0  0  0  0  0  0
   -2.8217    4.1190   -0.7623 O   0  0  0  0  0  0  0  0  0  0  0  0
    0.0110    2.8954   -0.0064 C   0  0  0  0  0  0  0  0  0  0  0  0
   -0.8985    3.2090   -0.2261 H   0  0  0  0  0  0  0  0  0  0  0  0
    0.6703    3.1901   -0.6793 H   0  0  0  0  0  0  0  0  0  0  0  0
    0.2952    3.3179    0.9574 H   0  0  0  0  0  0  0  0  0  0  0  0
   -0.0065    1.3949   -0.0046 C   0  0  0  0  0  0  0  0  0  0  0  0
   -1.1939    0.7015    0.0108 C   0  0  0  0  0  0  0  0  0  0  0  0
   -2.0626    1.1857    0.0290 H   0  0  0  0  0  0  0  0  0  0  0  0
   -1.1958   -0.6904   -0.0000 C   0  0  0  0  0  0  0  0  0  0  0  0
   -2.0682   -1.1870   -0.0106 H   0  0  0  0  0  0  0  0  0  0  0  0
    0.0122   -1.3859    0.0058 C   0  0  0  0  0  0  0  0  0  0  0  0
   -0.0033   -2.3885    0.0132 H   0  0  0  0  0  0  0  0  0  0  0  0
    1.1958   -0.7010    0.0000 C   0  0  0  0  0  0  0  0  0  0  0  0
    2.0834   -1.1948    0.0064 H   0  0  0  0  0  0  0  0  0  0  0  0
    1.1882    0.6809   -0.0120 C   0  0  0  0  0  0  0  0  0  0  0  0
    2.0571    1.1824   -0.0272 H   0  0  0  0  0  0  0  0  0  0  0  0
  1  5  1  0
  5  6  1  0
  5  7  2  0
  1  2  1  0
  1  3  1  0
  1  4  1  0
  8 12  1  0
 12 13  2  0
 13 15  1  0
 15 17  2  0
 17 19  1  0
 19 21  2  0
 21 12  1  0
  8  9  1  0
  8 10  1  0
  8 11  1  0
 13 14  1  0
 15 16  1  0
 17 18  1  0
 19 20  1  0
 21 22  1  0
M  CHG  1   6  -1
M  END
>  <PDB_ID>  (286) 
pdb2f96

>  <RESIDUE_NAME>  (286) 
ASP   PHE

>  <FRAG_NAME>  (286) 
ACET   MBZ

>  <FRAG_ATOM_NUM>  (286) 
fragi: 7  fragj: 15

>  <atom.prop.CHAIN_ID>  (286) 
A A A A A A A Z Z Z Z Z Z Z Z Z Z Z Z Z Z Z

>  <atom.prop.IS_HEAVY_ATOM>  (286) 
1 0 0 0 1 1 1 1 0 0 0 1 1 0 1 0 1 0 1 0 1 0

>  <DIFUSE_FUNC_ATOM>  (286) 
atom 6   atom 7   

>  <FINAL_SINGLE_POINT_ENERGY>  (286) 
0

>  <NONCOV_INTER_ENERGY_QM>  (286) 
0

>  <FF_Energy>  (286) 
-0.32

>  <QM_Energy>  (286) 
-8.2

>  <source>  (286) 
ACET_MBZ_00

>  <Index>  (286) 
10093

$$$$
ACET-pdb2f9i-A-ASP-55:MBZ-pdb2f9i-A-PHE-4
     RDKit          3D

 22 21  0  0  0  0  0  0  0  0999 V2000
    1.1780    0.1147   -3.5820 C   0  0  0  0  0  0  0  0  0  0  0  0
    0.7895   -0.1712   -4.4501 H   0  0  0  0  0  0  0  0  0  0  0  0
    0.7173   -0.3381   -2.8279 H   0  0  0  0  0  0  0  0  0  0  0  0
    2.2275   -0.1794   -3.5658 H   0  0  0  0  0  0  0  0  0  0  0  0
    0.9698    1.6296   -3.4358 C   0  0  0  0  0  0  0  0  0  0  0  0
    1.7903    2.3259   -2.7862 O   0  0  0  0  0  1  0  0  0  0  0  0
   -0.0236    2.1011   -4.0030 O   0  0  0  0  0  0  0  0  0  0  0  0
   -0.0004    2.9151   -0.0364 C   0  0  0  0  0  0  0  0  0  0  0  0
   -0.7837    3.2065   -0.5691 H   0  0  0  0  0  0  0  0  0  0  0  0
    0.8461    3.2057   -0.4613 H   0  0  0  0  0  0  0  0  0  0  0  0
   -0.0641    3.3928    0.9413 H   0  0  0  0  0  0  0  0  0  0  0  0
   -0.0040    1.4027   -0.0006 C   0  0  0  0  0  0  0  0  0  0  0  0
   -1.2033    0.6939   -0.0054 C   0  0  0  0  0  0  0  0  0  0  0  0
   -2.0677    1.1887   -0.0136 H   0  0  0  0  0  0  0  0  0  0  0  0
   -1.2083   -0.6894   -0.0000 C   0  0  0  0  0  0  0  0  0  0  0  0
   -2.0799   -1.1900   -0.0030 H   0  0  0  0  0  0  0  0  0  0  0  0
    0.0028   -1.3902    0.0116 C   0  0  0  0  0  0  0  0  0  0  0  0
   -0.0111   -2.3908    0.0282 H   0  0  0  0  0  0  0  0  0  0  0  0
    1.2083   -0.7053    0.0000 C   0  0  0  0  0  0  0  0  0  0  0  0
    2.0849   -1.2038   -0.0030 H   0  0  0  0  0  0  0  0  0  0  0  0
    1.2046    0.6883   -0.0056 C   0  0  0  0  0  0  0  0  0  0  0  0
    2.0679    1.1875   -0.0142 H   0  0  0  0  0  0  0  0  0  0  0  0
  1  5  1  0
  5  6  1  0
  5  7  2  0
  1  2  1  0
  1  3  1  0
  1  4  1  0
  8 12  1  0
 12 13  2  0
 13 15  1  0
 15 17  2  0
 17 19  1  0
 19 21  2  0
 21 12  1  0
  8  9  1  0
  8 10  1  0
  8 11  1  0
 13 14  1  0
 15 16  1  0
 17 18  1  0
 19 20  1  0
 21 22  1  0
M  CHG  1   6  -1
M  END
>  <PDB_ID>  (287) 
pdb2f9i

>  <RESIDUE_NAME>  (287) 
ASP   PHE

>  <FRAG_NAME>  (287) 
ACET   MBZ

>  <FRAG_ATOM_NUM>  (287) 
fragi: 7  fragj: 15

>  <atom.prop.CHAIN_ID>  (287) 
A A A A A A A Z Z Z Z Z Z Z Z Z Z Z Z Z Z Z

>  <atom.prop.IS_HEAVY_ATOM>  (287) 
1 0 0 0 1 1 1 1 0 0 0 1 1 0 1 0 1 0 1 0 1 0

>  <DIFUSE_FUNC_ATOM>  (287) 
atom 6   atom 7   

>  <FINAL_SINGLE_POINT_ENERGY>  (287) 
0

>  <NONCOV_INTER_ENERGY_QM>  (287) 
0

>  <FF_Energy>  (287) 
0.18

>  <QM_Energy>  (287) 
-5.78

>  <source>  (287) 
ACET_MBZ_00

>  <Index>  (287) 
10098

$$$$
ACET-pdb1ehy-A-ASP-62:MBZ-pdb1ehy-A-PHE-41
     RDKit          3D

 22 21  0  0  0  0  0  0  0  0999 V2000
    4.2955    5.9028    0.4796 C   0  0  0  0  0  0  0  0  0  0  0  0
    5.2791    5.9467    0.6271 H   0  0  0  0  0  0  0  0  0  0  0  0
    3.8142    6.2853    1.2626 H   0  0  0  0  0  0  0  0  0  0  0  0
    4.0581    6.5120   -0.3926 H   0  0  0  0  0  0  0  0  0  0  0  0
    3.8914    4.4553    0.3177 C   0  0  0  0  0  0  0  0  0  0  0  0
    2.8662    4.1938   -0.3411 O   0  0  0  0  0  1  0  0  0  0  0  0
    4.5760    3.5795    0.8954 O   0  0  0  0  0  0  0  0  0  0  0  0
    0.0234    2.9126    0.1051 C   0  0  0  0  0  0  0  0  0  0  0  0
    0.9690    3.2071    0.0493 H   0  0  0  0  0  0  0  0  0  0  0  0
   -0.3720    3.1649    0.9796 H   0  0  0  0  0  0  0  0  0  0  0  0
   -0.5321    3.4377   -0.6720 H   0  0  0  0  0  0  0  0  0  0  0  0
   -0.0012    1.4073    0.0015 C   0  0  0  0  0  0  0  0  0  0  0  0
   -1.1998    0.7005   -0.0017 C   0  0  0  0  0  0  0  0  0  0  0  0
   -2.0655    1.1913   -0.0059 H   0  0  0  0  0  0  0  0  0  0  0  0
   -1.2053   -0.6919   -0.0000 C   0  0  0  0  0  0  0  0  0  0  0  0
   -2.0805   -1.1872    0.0007 H   0  0  0  0  0  0  0  0  0  0  0  0
    0.0023   -1.3977    0.0029 C   0  0  0  0  0  0  0  0  0  0  0  0
   -0.0098   -2.3945    0.0064 H   0  0  0  0  0  0  0  0  0  0  0  0
    1.2053   -0.7061   -0.0000 C   0  0  0  0  0  0  0  0  0  0  0  0
    2.0849   -1.2019    0.0017 H   0  0  0  0  0  0  0  0  0  0  0  0
    1.1986    0.6878   -0.0026 C   0  0  0  0  0  0  0  0  0  0  0  0
    2.0674    1.1849   -0.0084 H   0  0  0  0  0  0  0  0  0  0  0  0
  1  5  1  0
  5  6  1  0
  5  7  2  0
  1  2  1  0
  1  3  1  0
  1  4  1  0
  8 12  1  0
 12 13  2  0
 13 15  1  0
 15 17  2  0
 17 19  1  0
 19 21  2  0
 21 12  1  0
  8  9  1  0
  8 10  1  0
  8 11  1  0
 13 14  1  0
 15 16  1  0
 17 18  1  0
 19 20  1  0
 21 22  1  0
M  CHG  1   6  -1
M  END
>  <PDB_ID>  (288) 
pdb1ehy

>  <RESIDUE_NAME>  (288) 
ASP   PHE

>  <FRAG_NAME>  (288) 
ACET   MBZ

>  <FRAG_ATOM_NUM>  (288) 
fragi: 7  fragj: 15

>  <atom.prop.CHAIN_ID>  (288) 
A A A A A A A Z Z Z Z Z Z Z Z Z Z Z Z Z Z Z

>  <atom.prop.IS_HEAVY_ATOM>  (288) 
1 0 0 0 1 1 1 1 0 0 0 1 1 0 1 0 1 0 1 0 1 0

>  <DIFUSE_FUNC_ATOM>  (288) 
atom 6   atom 7   

>  <FINAL_SINGLE_POINT_ENERGY>  (288) 
0

>  <NONCOV_INTER_ENERGY_QM>  (288) 
0

>  <FF_Energy>  (288) 
-0.28

>  <QM_Energy>  (288) 
-7.62

>  <source>  (288) 
ACET_MBZ_00

>  <Index>  (288) 
10106

$$$$
ACET-pdb1ehy-B-ASP-62:MBZ-pdb1ehy-B-PHE-41
     RDKit          3D

 22 21  0  0  0  0  0  0  0  0999 V2000
    4.2529    6.0324    0.0938 C   0  0  0  0  0  0  0  0  0  0  0  0
    5.2372    6.1259    0.2035 H   0  0  0  0  0  0  0  0  0  0  0  0
    3.7804    6.4219    0.8780 H   0  0  0  0  0  0  0  0  0  0  0  0
    3.9622    6.6058   -0.7865 H   0  0  0  0  0  0  0  0  0  0  0  0
    3.9058    4.5685   -0.0145 C   0  0  0  0  0  0  0  0  0  0  0  0
    2.8675    4.2402   -0.6306 O   0  0  0  0  0  1  0  0  0  0  0  0
    4.6779    3.7503    0.5290 O   0  0  0  0  0  0  0  0  0  0  0  0
    0.0180    2.9106    0.0778 C   0  0  0  0  0  0  0  0  0  0  0  0
    0.9616    3.2060   -0.0062 H   0  0  0  0  0  0  0  0  0  0  0  0
   -0.3552    3.1757    0.9582 H   0  0  0  0  0  0  0  0  0  0  0  0
   -0.5592    3.4197   -0.6940 H   0  0  0  0  0  0  0  0  0  0  0  0
   -0.0045    1.4046   -0.0002 C   0  0  0  0  0  0  0  0  0  0  0  0
   -1.1966    0.6939   -0.0012 C   0  0  0  0  0  0  0  0  0  0  0  0
   -2.0666    1.1825   -0.0044 H   0  0  0  0  0  0  0  0  0  0  0  0
   -1.2023   -0.6984    0.0000 C   0  0  0  0  0  0  0  0  0  0  0  0
   -2.0737   -1.1951    0.0003 H   0  0  0  0  0  0  0  0  0  0  0  0
    0.0099   -1.3948    0.0025 C   0  0  0  0  0  0  0  0  0  0  0  0
    0.0019   -2.3940    0.0057 H   0  0  0  0  0  0  0  0  0  0  0  0
    1.2023   -0.6985    0.0000 C   0  0  0  0  0  0  0  0  0  0  0  0
    2.0884   -1.1896    0.0004 H   0  0  0  0  0  0  0  0  0  0  0  0
    1.1913    0.6933   -0.0012 C   0  0  0  0  0  0  0  0  0  0  0  0
    2.0609    1.1923   -0.0035 H   0  0  0  0  0  0  0  0  0  0  0  0
  1  5  1  0
  5  6  1  0
  5  7  2  0
  1  2  1  0
  1  3  1  0
  1  4  1  0
  8 12  1  0
 12 13  2  0
 13 15  1  0
 15 17  2  0
 17 19  1  0
 19 21  2  0
 21 12  1  0
  8  9  1  0
  8 10  1  0
  8 11  1  0
 13 14  1  0
 15 16  1  0
 17 18  1  0
 19 20  1  0
 21 22  1  0
M  CHG  1   6  -1
M  END
>  <PDB_ID>  (289) 
pdb1ehy

>  <RESIDUE_NAME>  (289) 
ASP   PHE

>  <FRAG_NAME>  (289) 
ACET   MBZ

>  <FRAG_ATOM_NUM>  (289) 
fragi: 7  fragj: 15

>  <atom.prop.CHAIN_ID>  (289) 
A A A A A A A Z Z Z Z Z Z Z Z Z Z Z Z Z Z Z

>  <atom.prop.IS_HEAVY_ATOM>  (289) 
1 0 0 0 1 1 1 1 0 0 0 1 1 0 1 0 1 0 1 0 1 0

>  <DIFUSE_FUNC_ATOM>  (289) 
atom 6   atom 7   

>  <FINAL_SINGLE_POINT_ENERGY>  (289) 
0

>  <NONCOV_INTER_ENERGY_QM>  (289) 
0

>  <FF_Energy>  (289) 
-1.12

>  <QM_Energy>  (289) 
-7.39

>  <source>  (289) 
ACET_MBZ_00

>  <Index>  (289) 
10107

$$$$
ACET-pdb2f9z-A-ASP-70:MBZ-pdb2f9z-A-PHE-131
     RDKit          3D

 22 21  0  0  0  0  0  0  0  0999 V2000
    3.1017    2.6431   -1.7546 C   0  0  0  0  0  0  0  0  0  0  0  0
    2.2638    3.1754   -1.8044 H   0  0  0  0  0  0  0  0  0  0  0  0
    2.9294    1.7648   -1.3230 H   0  0  0  0  0  0  0  0  0  0  0  0
    3.4462    2.4587   -2.7721 H   0  0  0  0  0  0  0  0  0  0  0  0
    4.1130    3.4055   -0.9199 C   0  0  0  0  0  0  0  0  0  0  0  0
    5.0048    4.0585   -1.5054 O   0  0  0  0  0  1  0  0  0  0  0  0
    4.0048    3.3633    0.3269 O   0  0  0  0  0  0  0  0  0  0  0  0
   -0.0018    2.9017   -0.0130 C   0  0  0  0  0  0  0  0  0  0  0  0
   -0.9399    3.2110    0.0546 H   0  0  0  0  0  0  0  0  0  0  0  0
    0.4137    3.2037   -0.8591 H   0  0  0  0  0  0  0  0  0  0  0  0
    0.5550    3.3531    0.8081 H   0  0  0  0  0  0  0  0  0  0  0  0
   -0.0013    1.4034   -0.0009 C   0  0  0  0  0  0  0  0  0  0  0  0
   -1.1982    0.6958   -0.0000 C   0  0  0  0  0  0  0  0  0  0  0  0
   -2.0648    1.1834   -0.0010 H   0  0  0  0  0  0  0  0  0  0  0  0
   -1.2029   -0.7003    0.0000 C   0  0  0  0  0  0  0  0  0  0  0  0
   -2.0782   -1.1929    0.0013 H   0  0  0  0  0  0  0  0  0  0  0  0
    0.0019   -1.3954   -0.0001 C   0  0  0  0  0  0  0  0  0  0  0  0
    0.0002   -2.3933   -0.0013 H   0  0  0  0  0  0  0  0  0  0  0  0
    1.2029   -0.6953    0.0000 C   0  0  0  0  0  0  0  0  0  0  0  0
    2.0846   -1.1948    0.0011 H   0  0  0  0  0  0  0  0  0  0  0  0
    1.1976    0.6919    0.0009 C   0  0  0  0  0  0  0  0  0  0  0  0
    2.0650    1.1914    0.0025 H   0  0  0  0  0  0  0  0  0  0  0  0
  1  5  1  0
  5  6  1  0
  5  7  2  0
  1  2  1  0
  1  3  1  0
  1  4  1  0
  8 12  1  0
 12 13  2  0
 13 15  1  0
 15 17  2  0
 17 19  1  0
 19 21  2  0
 21 12  1  0
  8  9  1  0
  8 10  1  0
  8 11  1  0
 13 14  1  0
 15 16  1  0
 17 18  1  0
 19 20  1  0
 21 22  1  0
M  CHG  1   6  -1
M  END
>  <PDB_ID>  (290) 
pdb2f9z

>  <RESIDUE_NAME>  (290) 
ASP   PHE

>  <FRAG_NAME>  (290) 
ACET   MBZ

>  <FRAG_ATOM_NUM>  (290) 
fragi: 7  fragj: 15

>  <atom.prop.CHAIN_ID>  (290) 
A A A A A A A Z Z Z Z Z Z Z Z Z Z Z Z Z Z Z

>  <atom.prop.IS_HEAVY_ATOM>  (290) 
1 0 0 0 1 1 1 1 0 0 0 1 1 0 1 0 1 0 1 0 1 0

>  <DIFUSE_FUNC_ATOM>  (290) 
atom 6   atom 7   

>  <FINAL_SINGLE_POINT_ENERGY>  (290) 
0

>  <NONCOV_INTER_ENERGY_QM>  (290) 
0

>  <FF_Energy>  (290) 
7.81

>  <QM_Energy>  (290) 
-1.69

>  <source>  (290) 
ACET_MBZ_00

>  <Index>  (290) 
10111

$$$$
ACET-pdb1ehy-D-ASP-62:MBZ-pdb1ehy-D-PHE-41
     RDKit          3D

 22 21  0  0  0  0  0  0  0  0999 V2000
    4.2344    5.9937   -0.0588 C   0  0  0  0  0  0  0  0  0  0  0  0
    5.2149    6.1074    0.0679 H   0  0  0  0  0  0  0  0  0  0  0  0
    3.7427    6.3483    0.7293 H   0  0  0  0  0  0  0  0  0  0  0  0
    3.9426    6.5874   -0.9252 H   0  0  0  0  0  0  0  0  0  0  0  0
    3.9252    4.5222   -0.2121 C   0  0  0  0  0  0  0  0  0  0  0  0
    2.8728    4.1656   -0.7773 O   0  0  0  0  0  1  0  0  0  0  0  0
    4.7475    3.7077    0.2327 O   0  0  0  0  0  0  0  0  0  0  0  0
    0.0224    2.9364    0.0967 C   0  0  0  0  0  0  0  0  0  0  0  0
    0.9608    3.2311   -0.0188 H   0  0  0  0  0  0  0  0  0  0  0  0
   -0.3222    3.1889    0.9901 H   0  0  0  0  0  0  0  0  0  0  0  0
   -0.5806    3.4560   -0.6479 H   0  0  0  0  0  0  0  0  0  0  0  0
   -0.0019    1.4171    0.0021 C   0  0  0  0  0  0  0  0  0  0  0  0
   -1.2025    0.6996   -0.0035 C   0  0  0  0  0  0  0  0  0  0  0  0
   -2.0699    1.1844   -0.0109 H   0  0  0  0  0  0  0  0  0  0  0  0
   -1.2061   -0.7042    0.0000 C   0  0  0  0  0  0  0  0  0  0  0  0
   -2.0777   -1.1971    0.0024 H   0  0  0  0  0  0  0  0  0  0  0  0
    0.0082   -1.4057    0.0019 C   0  0  0  0  0  0  0  0  0  0  0  0
    0.0003   -2.4008    0.0036 H   0  0  0  0  0  0  0  0  0  0  0  0
    1.2061   -0.7049   -0.0000 C   0  0  0  0  0  0  0  0  0  0  0  0
    2.0904   -1.1935    0.0001 H   0  0  0  0  0  0  0  0  0  0  0  0
    1.1962    0.6982   -0.0005 C   0  0  0  0  0  0  0  0  0  0  0  0
    2.0672    1.1922   -0.0034 H   0  0  0  0  0  0  0  0  0  0  0  0
  1  5  1  0
  5  6  1  0
  5  7  2  0
  1  2  1  0
  1  3  1  0
  1  4  1  0
  8 12  1  0
 12 13  2  0
 13 15  1  0
 15 17  2  0
 17 19  1  0
 19 21  2  0
 21 12  1  0
  8  9  1  0
  8 10  1  0
  8 11  1  0
 13 14  1  0
 15 16  1  0
 17 18  1  0
 19 20  1  0
 21 22  1  0
M  CHG  1   6  -1
M  END
>  <PDB_ID>  (291) 
pdb1ehy

>  <RESIDUE_NAME>  (291) 
ASP   PHE

>  <FRAG_NAME>  (291) 
ACET   MBZ

>  <FRAG_ATOM_NUM>  (291) 
fragi: 7  fragj: 15

>  <atom.prop.CHAIN_ID>  (291) 
A A A A A A A Z Z Z Z Z Z Z Z Z Z Z Z Z Z Z

>  <atom.prop.IS_HEAVY_ATOM>  (291) 
1 0 0 0 1 1 1 1 0 0 0 1 1 0 1 0 1 0 1 0 1 0

>  <DIFUSE_FUNC_ATOM>  (291) 
atom 6   atom 7   

>  <FINAL_SINGLE_POINT_ENERGY>  (291) 
0

>  <NONCOV_INTER_ENERGY_QM>  (291) 
0

>  <FF_Energy>  (291) 
-1.13

>  <QM_Energy>  (291) 
-7.49

>  <source>  (291) 
ACET_MBZ_00

>  <Index>  (291) 
10115

$$$$
ACET-pdb1ei6-A-ASP-223:MBZ-pdb1ei6-A-PHE-43
     RDKit          3D

 22 21  0  0  0  0  0  0  0  0999 V2000
    3.4968    5.5968   -1.7134 C   0  0  0  0  0  0  0  0  0  0  0  0
    4.3650    5.8229   -1.2512 H   0  0  0  0  0  0  0  0  0  0  0  0
    3.1694    6.4250   -2.1864 H   0  0  0  0  0  0  0  0  0  0  0  0
    3.7189    4.8509   -2.4766 H   0  0  0  0  0  0  0  0  0  0  0  0
    2.4746    5.2068   -0.6575 C   0  0  0  0  0  0  0  0  0  0  0  0
    1.3959    5.7460   -0.5590 O   0  0  0  0  0  1  0  0  0  0  0  0
    2.8893    4.2994    0.1939 O   0  0  0  0  0  0  0  0  0  0  0  0
   -0.0020    2.8962    0.0107 C   0  0  0  0  0  0  0  0  0  0  0  0
   -0.7232    3.2106   -0.5624 H   0  0  0  0  0  0  0  0  0  0  0  0
    0.8812    3.2085   -0.2542 H   0  0  0  0  0  0  0  0  0  0  0  0
   -0.1962    3.2505    1.0230 H   0  0  0  0  0  0  0  0  0  0  0  0
   -0.0002    1.4001   -0.0089 C   0  0  0  0  0  0  0  0  0  0  0  0
   -1.2041    0.6949   -0.0000 C   0  0  0  0  0  0  0  0  0  0  0  0
   -2.0668    1.1879    0.0045 H   0  0  0  0  0  0  0  0  0  0  0  0
   -1.2140   -0.7005    0.0000 C   0  0  0  0  0  0  0  0  0  0  0  0
   -2.0818   -1.1948   -0.0016 H   0  0  0  0  0  0  0  0  0  0  0  0
    0.0010   -1.3906    0.0042 C   0  0  0  0  0  0  0  0  0  0  0  0
   -0.0027   -2.3939    0.0098 H   0  0  0  0  0  0  0  0  0  0  0  0
    1.2140   -0.6998   -0.0000 C   0  0  0  0  0  0  0  0  0  0  0  0
    2.0879   -1.1962   -0.0048 H   0  0  0  0  0  0  0  0  0  0  0  0
    1.2033    0.6958    0.0047 C   0  0  0  0  0  0  0  0  0  0  0  0
    2.0674    1.1947    0.0172 H   0  0  0  0  0  0  0  0  0  0  0  0
  1  5  1  0
  5  6  1  0
  5  7  2  0
  1  2  1  0
  1  3  1  0
  1  4  1  0
  8 12  1  0
 12 13  2  0
 13 15  1  0
 15 17  2  0
 17 19  1  0
 19 21  2  0
 21 12  1  0
  8  9  1  0
  8 10  1  0
  8 11  1  0
 13 14  1  0
 15 16  1  0
 17 18  1  0
 19 20  1  0
 21 22  1  0
M  CHG  1   6  -1
M  END
>  <PDB_ID>  (292) 
pdb1ei6

>  <RESIDUE_NAME>  (292) 
ASP   PHE

>  <FRAG_NAME>  (292) 
ACET   MBZ

>  <FRAG_ATOM_NUM>  (292) 
fragi: 7  fragj: 15

>  <atom.prop.CHAIN_ID>  (292) 
A A A A A A A Z Z Z Z Z Z Z Z Z Z Z Z Z Z Z

>  <atom.prop.IS_HEAVY_ATOM>  (292) 
1 0 0 0 1 1 1 1 0 0 0 1 1 0 1 0 1 0 1 0 1 0

>  <DIFUSE_FUNC_ATOM>  (292) 
atom 6   atom 7   

>  <FINAL_SINGLE_POINT_ENERGY>  (292) 
0

>  <NONCOV_INTER_ENERGY_QM>  (292) 
0

>  <FF_Energy>  (292) 
-2.32

>  <QM_Energy>  (292) 
-7.49

>  <source>  (292) 
ACET_MBZ_00

>  <Index>  (292) 
10122

$$$$
ACET-pdb1ei6-B-ASP-223:MBZ-pdb1ei6-B-PHE-43
     RDKit          3D

 22 21  0  0  0  0  0  0  0  0999 V2000
    3.6132    5.5519   -1.4363 C   0  0  0  0  0  0  0  0  0  0  0  0
    4.4126    5.4967   -0.8276 H   0  0  0  0  0  0  0  0  0  0  0  0
    3.5652    6.4833   -1.8134 H   0  0  0  0  0  0  0  0  0  0  0  0
    3.7916    4.8718   -2.2692 H   0  0  0  0  0  0  0  0  0  0  0  0
    2.3761    5.2795   -0.6457 C   0  0  0  0  0  0  0  0  0  0  0  0
    1.2920    5.7575   -0.9323 O   0  0  0  0  0  1  0  0  0  0  0  0
    2.5939    4.5274    0.4086 O   0  0  0  0  0  0  0  0  0  0  0  0
   -0.0210    2.9000    0.0064 C   0  0  0  0  0  0  0  0  0  0  0  0
   -0.6171    3.2083   -0.7040 H   0  0  0  0  0  0  0  0  0  0  0  0
    0.8976    3.2178   -0.0927 H   0  0  0  0  0  0  0  0  0  0  0  0
   -0.4052    3.2833    0.9517 H   0  0  0  0  0  0  0  0  0  0  0  0
   -0.0070    1.3986   -0.0038 C   0  0  0  0  0  0  0  0  0  0  0  0
   -1.2006    0.6815   -0.0134 C   0  0  0  0  0  0  0  0  0  0  0  0
   -2.0707    1.1711   -0.0312 H   0  0  0  0  0  0  0  0  0  0  0  0
   -1.2112   -0.7135   -0.0000 C   0  0  0  0  0  0  0  0  0  0  0  0
   -2.0741   -1.2077    0.0014 H   0  0  0  0  0  0  0  0  0  0  0  0
    0.0065   -1.3849    0.0132 C   0  0  0  0  0  0  0  0  0  0  0  0
    0.0152   -2.3905    0.0322 H   0  0  0  0  0  0  0  0  0  0  0  0
    1.2112   -0.6848   -0.0000 C   0  0  0  0  0  0  0  0  0  0  0  0
    2.0901   -1.1825   -0.0111 H   0  0  0  0  0  0  0  0  0  0  0  0
    1.2010    0.7032    0.0039 C   0  0  0  0  0  0  0  0  0  0  0  0
    2.0605    1.2073    0.0113 H   0  0  0  0  0  0  0  0  0  0  0  0
  1  5  1  0
  5  6  1  0
  5  7  2  0
  1  2  1  0
  1  3  1  0
  1  4  1  0
  8 12  1  0
 12 13  2  0
 13 15  1  0
 15 17  2  0
 17 19  1  0
 19 21  2  0
 21 12  1  0
  8  9  1  0
  8 10  1  0
  8 11  1  0
 13 14  1  0
 15 16  1  0
 17 18  1  0
 19 20  1  0
 21 22  1  0
M  CHG  1   6  -1
M  END
>  <PDB_ID>  (293) 
pdb1ei6

>  <RESIDUE_NAME>  (293) 
ASP   PHE

>  <FRAG_NAME>  (293) 
ACET   MBZ

>  <FRAG_ATOM_NUM>  (293) 
fragi: 7  fragj: 15

>  <atom.prop.CHAIN_ID>  (293) 
A A A A A A A Z Z Z Z Z Z Z Z Z Z Z Z Z Z Z

>  <atom.prop.IS_HEAVY_ATOM>  (293) 
1 0 0 0 1 1 1 1 0 0 0 1 1 0 1 0 1 0 1 0 1 0

>  <DIFUSE_FUNC_ATOM>  (293) 
atom 6   atom 7   

>  <FINAL_SINGLE_POINT_ENERGY>  (293) 
0

>  <NONCOV_INTER_ENERGY_QM>  (293) 
0

>  <FF_Energy>  (293) 
-2.36

>  <QM_Energy>  (293) 
-6.94

>  <source>  (293) 
ACET_MBZ_00

>  <Index>  (293) 
10126

$$$$
ACET-pdb2faf-A-ASP-329:MBZ-pdb2faf-A-PHE-351
     RDKit          3D

 22 21  0  0  0  0  0  0  0  0999 V2000
   -4.6407   -1.1193    2.1582 C   0  0  0  0  0  0  0  0  0  0  0  0
   -5.0708   -1.0888    3.0559 H   0  0  0  0  0  0  0  0  0  0  0  0
   -3.8668   -1.7447    2.1704 H   0  0  0  0  0  0  0  0  0  0  0  0
   -5.3739   -1.5202    1.4584 H   0  0  0  0  0  0  0  0  0  0  0  0
   -4.1615    0.2576    1.7905 C   0  0  0  0  0  0  0  0  0  0  0  0
   -4.4236    0.7340    0.6591 O   0  0  0  0  0  1  0  0  0  0  0  0
   -3.5261    0.8927    2.6673 O   0  0  0  0  0  0  0  0  0  0  0  0
   -0.0131    2.9000    0.0159 C   0  0  0  0  0  0  0  0  0  0  0  0
    0.9182    3.2129    0.0952 H   0  0  0  0  0  0  0  0  0  0  0  0
   -0.5668    3.1978    0.7756 H   0  0  0  0  0  0  0  0  0  0  0  0
   -0.4345    3.3276   -0.8940 H   0  0  0  0  0  0  0  0  0  0  0  0
   -0.0020    1.4011    0.0063 C   0  0  0  0  0  0  0  0  0  0  0  0
   -1.2003    0.6918    0.0077 C   0  0  0  0  0  0  0  0  0  0  0  0
   -2.0659    1.1830    0.0135 H   0  0  0  0  0  0  0  0  0  0  0  0
   -1.2048   -0.6976   -0.0000 C   0  0  0  0  0  0  0  0  0  0  0  0
   -2.0805   -1.1916    0.0008 H   0  0  0  0  0  0  0  0  0  0  0  0
   -0.0042   -1.3869   -0.0072 C   0  0  0  0  0  0  0  0  0  0  0  0
   -0.0040   -2.3891   -0.0177 H   0  0  0  0  0  0  0  0  0  0  0  0
    1.2048   -0.6934   -0.0000 C   0  0  0  0  0  0  0  0  0  0  0  0
    2.0807   -1.2033    0.0116 H   0  0  0  0  0  0  0  0  0  0  0  0
    1.2065    0.6851   -0.0068 C   0  0  0  0  0  0  0  0  0  0  0  0
    2.0683    1.1890   -0.0215 H   0  0  0  0  0  0  0  0  0  0  0  0
  1  5  1  0
  5  6  1  0
  5  7  2  0
  1  2  1  0
  1  3  1  0
  1  4  1  0
  8 12  1  0
 12 13  2  0
 13 15  1  0
 15 17  2  0
 17 19  1  0
 19 21  2  0
 21 12  1  0
  8  9  1  0
  8 10  1  0
  8 11  1  0
 13 14  1  0
 15 16  1  0
 17 18  1  0
 19 20  1  0
 21 22  1  0
M  CHG  1   6  -1
M  END
>  <PDB_ID>  (294) 
pdb2faf

>  <RESIDUE_NAME>  (294) 
ASP   PHE

>  <FRAG_NAME>  (294) 
ACET   MBZ

>  <FRAG_ATOM_NUM>  (294) 
fragi: 7  fragj: 15

>  <atom.prop.CHAIN_ID>  (294) 
A A A A A A A Z Z Z Z Z Z Z Z Z Z Z Z Z Z Z

>  <atom.prop.IS_HEAVY_ATOM>  (294) 
1 0 0 0 1 1 1 1 0 0 0 1 1 0 1 0 1 0 1 0 1 0

>  <DIFUSE_FUNC_ATOM>  (294) 
atom 6   atom 7   

>  <FINAL_SINGLE_POINT_ENERGY>  (294) 
0

>  <NONCOV_INTER_ENERGY_QM>  (294) 
0

>  <FF_Energy>  (294) 
-1.79

>  <QM_Energy>  (294) 
-6.93

>  <source>  (294) 
ACET_MBZ_00

>  <Index>  (294) 
10139

$$$$
ACET-pdb2f8l-A-GLU-228:MBZ-pdb2f8l-A-PHE-211
     RDKit          3D

 22 21  0  0  0  0  0  0  0  0999 V2000
    4.8773    1.9779    0.1385 C   0  0  0  0  0  0  0  0  0  0  0  0
    4.5281    1.1633    0.5647 H   0  0  0  0  0  0  0  0  0  0  0  0
    5.7322    2.2649    0.5306 H   0  0  0  0  0  0  0  0  0  0  0  0
    5.0339    1.7728   -0.9205 H   0  0  0  0  0  0  0  0  0  0  0  0
    3.8762    3.0802    0.3675 C   0  0  0  0  0  0  0  0  0  0  0  0
    3.4431    3.6754   -0.6279 O   0  0  0  0  0  1  0  0  0  0  0  0
    3.5189    3.3460    1.5326 O   0  0  0  0  0  0  0  0  0  0  0  0
    0.0113    2.9006    0.0005 C   0  0  0  0  0  0  0  0  0  0  0  0
   -0.8160    3.2210   -0.4304 H   0  0  0  0  0  0  0  0  0  0  0  0
    0.8161    3.2107   -0.4779 H   0  0  0  0  0  0  0  0  0  0  0  0
    0.0439    3.3355    0.9995 H   0  0  0  0  0  0  0  0  0  0  0  0
    0.0016    1.3954   -0.0111 C   0  0  0  0  0  0  0  0  0  0  0  0
   -1.1841    0.6958    0.0237 C   0  0  0  0  0  0  0  0  0  0  0  0
   -2.0530    1.1859    0.0654 H   0  0  0  0  0  0  0  0  0  0  0  0
   -1.1907   -0.6869    0.0000 C   0  0  0  0  0  0  0  0  0  0  0  0
   -2.0762   -1.1773   -0.0244 H   0  0  0  0  0  0  0  0  0  0  0  0
   -0.0064   -1.3867    0.0112 C   0  0  0  0  0  0  0  0  0  0  0  0
   -0.0128   -2.3856    0.0273 H   0  0  0  0  0  0  0  0  0  0  0  0
    1.1907   -0.6965   -0.0000 C   0  0  0  0  0  0  0  0  0  0  0  0
    2.0715   -1.2012    0.0111 H   0  0  0  0  0  0  0  0  0  0  0  0
    1.1889    0.6789   -0.0239 C   0  0  0  0  0  0  0  0  0  0  0  0
    2.0617    1.1777   -0.0522 H   0  0  0  0  0  0  0  0  0  0  0  0
  1  5  1  0
  5  6  1  0
  5  7  2  0
  1  2  1  0
  1  3  1  0
  1  4  1  0
  8 12  1  0
 12 13  2  0
 13 15  1  0
 15 17  2  0
 17 19  1  0
 19 21  2  0
 21 12  1  0
  8  9  1  0
  8 10  1  0
  8 11  1  0
 13 14  1  0
 15 16  1  0
 17 18  1  0
 19 20  1  0
 21 22  1  0
M  CHG  1   6  -1
M  END
>  <PDB_ID>  (295) 
pdb2f8l

>  <RESIDUE_NAME>  (295) 
GLU   PHE

>  <FRAG_NAME>  (295) 
ACET   MBZ

>  <FRAG_ATOM_NUM>  (295) 
fragi: 7  fragj: 15

>  <atom.prop.CHAIN_ID>  (295) 
A A A A A A A Z Z Z Z Z Z Z Z Z Z Z Z Z Z Z

>  <atom.prop.IS_HEAVY_ATOM>  (295) 
1 0 0 0 1 1 1 1 0 0 0 1 1 0 1 0 1 0 1 0 1 0

>  <DIFUSE_FUNC_ATOM>  (295) 
atom 6   atom 7   

>  <FINAL_SINGLE_POINT_ENERGY>  (295) 
0

>  <NONCOV_INTER_ENERGY_QM>  (295) 
0

>  <FF_Energy>  (295) 
-2.17

>  <QM_Energy>  (295) 
-7.55

>  <source>  (295) 
ACET_MBZ_00

>  <Index>  (295) 
10150

$$$$
ACET-pdb2f2a-D-ASP-211:MBZ-pdb2f2a-D-PHE-206
     RDKit          3D

 22 21  0  0  0  0  0  0  0  0999 V2000
    1.3621    5.8446    4.3058 C   0  0  0  0  0  0  0  0  0  0  0  0
    0.7331    6.4840    4.7408 H   0  0  0  0  0  0  0  0  0  0  0  0
    2.1188    6.3396    3.8894 H   0  0  0  0  0  0  0  0  0  0  0  0
    1.7701    5.1949    5.0800 H   0  0  0  0  0  0  0  0  0  0  0  0
    0.6074    5.0971    3.2055 C   0  0  0  0  0  0  0  0  0  0  0  0
    0.7626    3.8689    3.0378 O   0  0  0  0  0  1  0  0  0  0  0  0
   -0.1379    5.7803    2.4743 O   0  0  0  0  0  0  0  0  0  0  0  0
    0.0203    2.9337    0.1110 C   0  0  0  0  0  0  0  0  0  0  0  0
    0.6842    3.2716   -0.5383 H   0  0  0  0  0  0  0  0  0  0  0  0
    0.2751    3.1627    1.0382 H   0  0  0  0  0  0  0  0  0  0  0  0
   -0.9340    3.4146   -0.1037 H   0  0  0  0  0  0  0  0  0  0  0  0
    0.0014    1.4140    0.0011 C   0  0  0  0  0  0  0  0  0  0  0  0
   -1.1967    0.7020   -0.0024 C   0  0  0  0  0  0  0  0  0  0  0  0
   -2.0642    1.1876   -0.0084 H   0  0  0  0  0  0  0  0  0  0  0  0
   -1.2017   -0.6994    0.0000 C   0  0  0  0  0  0  0  0  0  0  0  0
   -2.0812   -1.1877   -0.0011 H   0  0  0  0  0  0  0  0  0  0  0  0
   -0.0021   -1.4038    0.0050 C   0  0  0  0  0  0  0  0  0  0  0  0
   -0.0090   -2.4002    0.0118 H   0  0  0  0  0  0  0  0  0  0  0  0
    1.2017   -0.7071    0.0000 C   0  0  0  0  0  0  0  0  0  0  0  0
    2.0825   -1.2007    0.0010 H   0  0  0  0  0  0  0  0  0  0  0  0
    1.1974    0.6943   -0.0037 C   0  0  0  0  0  0  0  0  0  0  0  0
    2.0684    1.1850   -0.0105 H   0  0  0  0  0  0  0  0  0  0  0  0
  1  5  1  0
  5  6  1  0
  5  7  2  0
  1  2  1  0
  1  3  1  0
  1  4  1  0
  8 12  1  0
 12 13  2  0
 13 15  1  0
 15 17  2  0
 17 19  1  0
 19 21  2  0
 21 12  1  0
  8  9  1  0
  8 10  1  0
  8 11  1  0
 13 14  1  0
 15 16  1  0
 17 18  1  0
 19 20  1  0
 21 22  1  0
M  CHG  1   6  -1
M  END
>  <PDB_ID>  (296) 
pdb2f2a

>  <RESIDUE_NAME>  (296) 
ASP   PHE

>  <FRAG_NAME>  (296) 
ACET   MBZ

>  <FRAG_ATOM_NUM>  (296) 
fragi: 7  fragj: 15

>  <atom.prop.CHAIN_ID>  (296) 
A A A A A A A Z Z Z Z Z Z Z Z Z Z Z Z Z Z Z

>  <atom.prop.IS_HEAVY_ATOM>  (296) 
1 0 0 0 1 1 1 1 0 0 0 1 1 0 1 0 1 0 1 0 1 0

>  <DIFUSE_FUNC_ATOM>  (296) 
atom 6   atom 7   

>  <FINAL_SINGLE_POINT_ENERGY>  (296) 
0

>  <NONCOV_INTER_ENERGY_QM>  (296) 
0

>  <FF_Energy>  (296) 
1.37

>  <QM_Energy>  (296) 
-6.28

>  <source>  (296) 
ACET_MBZ_00

>  <Index>  (296) 
10221

$$$$
ACET-pdb2f5z-B-GLU-431:MBZ-pdb2f5z-B-PHE-459
     RDKit          3D

 22 21  0  0  0  0  0  0  0  0999 V2000
    4.3128   -0.9215   -2.8055 C   0  0  0  0  0  0  0  0  0  0  0  0
    4.1265   -1.6944   -2.2245 H   0  0  0  0  0  0  0  0  0  0  0  0
    5.2081   -0.9759   -3.2142 H   0  0  0  0  0  0  0  0  0  0  0  0
    3.5739   -0.9148   -3.6068 H   0  0  0  0  0  0  0  0  0  0  0  0
    4.2773    0.3224   -1.9410 C   0  0  0  0  0  0  0  0  0  0  0  0
    4.3806    1.4415   -2.4842 O   0  0  0  0  0  1  0  0  0  0  0  0
    4.1565    0.1838   -0.7069 O   0  0  0  0  0  0  0  0  0  0  0  0
    0.0080    2.9069   -0.0685 C   0  0  0  0  0  0  0  0  0  0  0  0
   -0.5133    3.1764   -0.8664 H   0  0  0  0  0  0  0  0  0  0  0  0
    0.9514    3.2008   -0.1448 H   0  0  0  0  0  0  0  0  0  0  0  0
   -0.4283    3.3988    0.8008 H   0  0  0  0  0  0  0  0  0  0  0  0
   -0.0002    1.4011   -0.0007 C   0  0  0  0  0  0  0  0  0  0  0  0
   -1.1992    0.6996    0.0041 C   0  0  0  0  0  0  0  0  0  0  0  0
   -2.0632    1.1955    0.0091 H   0  0  0  0  0  0  0  0  0  0  0  0
   -1.2083   -0.6856   -0.0000 C   0  0  0  0  0  0  0  0  0  0  0  0
   -2.0835   -1.1822   -0.0001 H   0  0  0  0  0  0  0  0  0  0  0  0
   -0.0010   -1.3964   -0.0026 C   0  0  0  0  0  0  0  0  0  0  0  0
   -0.0150   -2.3917   -0.0067 H   0  0  0  0  0  0  0  0  0  0  0  0
    1.2083   -0.7043   -0.0000 C   0  0  0  0  0  0  0  0  0  0  0  0
    2.0845   -1.2036    0.0039 H   0  0  0  0  0  0  0  0  0  0  0  0
    1.2004    0.6856   -0.0007 C   0  0  0  0  0  0  0  0  0  0  0  0
    2.0679    1.1853   -0.0015 H   0  0  0  0  0  0  0  0  0  0  0  0
  1  5  1  0
  5  6  1  0
  5  7  2  0
  1  2  1  0
  1  3  1  0
  1  4  1  0
  8 12  1  0
 12 13  2  0
 13 15  1  0
 15 17  2  0
 17 19  1  0
 19 21  2  0
 21 12  1  0
  8  9  1  0
  8 10  1  0
  8 11  1  0
 13 14  1  0
 15 16  1  0
 17 18  1  0
 19 20  1  0
 21 22  1  0
M  CHG  1   6  -1
M  END
>  <PDB_ID>  (297) 
pdb2f5z

>  <RESIDUE_NAME>  (297) 
GLU   PHE

>  <FRAG_NAME>  (297) 
ACET   MBZ

>  <FRAG_ATOM_NUM>  (297) 
fragi: 7  fragj: 15

>  <atom.prop.CHAIN_ID>  (297) 
A A A A A A A Z Z Z Z Z Z Z Z Z Z Z Z Z Z Z

>  <atom.prop.IS_HEAVY_ATOM>  (297) 
1 0 0 0 1 1 1 1 0 0 0 1 1 0 1 0 1 0 1 0 1 0

>  <DIFUSE_FUNC_ATOM>  (297) 
atom 6   atom 7   

>  <FINAL_SINGLE_POINT_ENERGY>  (297) 
0

>  <NONCOV_INTER_ENERGY_QM>  (297) 
0

>  <FF_Energy>  (297) 
-1.94

>  <QM_Energy>  (297) 
-7.06

>  <source>  (297) 
ACET_MBZ_00

>  <Index>  (297) 
10297

$$$$
ACET-pdb2fcw-A-GLU-251:MBZ-pdb2fcw-A-PHE-218
     RDKit          3D

 22 21  0  0  0  0  0  0  0  0999 V2000
   -5.3726    2.4264    1.4590 C   0  0  0  0  0  0  0  0  0  0  0  0
   -5.9228    2.1292    0.7152 H   0  0  0  0  0  0  0  0  0  0  0  0
   -5.8080    3.0645    2.0488 H   0  0  0  0  0  0  0  0  0  0  0  0
   -5.1065    1.5501    2.0501 H   0  0  0  0  0  0  0  0  0  0  0  0
   -4.1305    3.0702    0.9005 C   0  0  0  0  0  0  0  0  0  0  0  0
   -3.2405    3.3847    1.6805 O   0  0  0  0  0  1  0  0  0  0  0  0
   -4.1486    3.2628   -0.3323 O   0  0  0  0  0  0  0  0  0  0  0  0
   -0.0498    2.9363    0.0364 C   0  0  0  0  0  0  0  0  0  0  0  0
    0.8541    3.2546    0.1980 H   0  0  0  0  0  0  0  0  0  0  0  0
   -0.6942    3.2077    0.7131 H   0  0  0  0  0  0  0  0  0  0  0  0
   -0.3813    3.3302   -0.9243 H   0  0  0  0  0  0  0  0  0  0  0  0
   -0.0125    1.4142    0.0084 C   0  0  0  0  0  0  0  0  0  0  0  0
   -1.1823    0.6653    0.0084 C   0  0  0  0  0  0  0  0  0  0  0  0
   -2.0688    1.1490    0.0136 H   0  0  0  0  0  0  0  0  0  0  0  0
   -1.1772   -0.7113   -0.0000 C   0  0  0  0  0  0  0  0  0  0  0  0
   -2.0527   -1.2182   -0.0027 H   0  0  0  0  0  0  0  0  0  0  0  0
    0.0284   -1.4170   -0.0022 C   0  0  0  0  0  0  0  0  0  0  0  0
    0.0383   -2.3934   -0.0054 H   0  0  0  0  0  0  0  0  0  0  0  0
    1.1772   -0.6632    0.0000 C   0  0  0  0  0  0  0  0  0  0  0  0
    2.0947   -1.1469    0.0150 H   0  0  0  0  0  0  0  0  0  0  0  0
    1.1664    0.7121   -0.0146 C   0  0  0  0  0  0  0  0  0  0  0  0
    2.0414    1.2127   -0.0438 H   0  0  0  0  0  0  0  0  0  0  0  0
  1  5  1  0
  5  6  1  0
  5  7  2  0
  1  2  1  0
  1  3  1  0
  1  4  1  0
  8 12  1  0
 12 13  2  0
 13 15  1  0
 15 17  2  0
 17 19  1  0
 19 21  2  0
 21 12  1  0
  8  9  1  0
  8 10  1  0
  8 11  1  0
 13 14  1  0
 15 16  1  0
 17 18  1  0
 19 20  1  0
 21 22  1  0
M  CHG  1   6  -1
M  END
>  <PDB_ID>  (298) 
pdb2fcw

>  <RESIDUE_NAME>  (298) 
GLU   PHE

>  <FRAG_NAME>  (298) 
ACET   MBZ

>  <FRAG_ATOM_NUM>  (298) 
fragi: 7  fragj: 15

>  <atom.prop.CHAIN_ID>  (298) 
A A A A A A A Z Z Z Z Z Z Z Z Z Z Z Z Z Z Z

>  <atom.prop.IS_HEAVY_ATOM>  (298) 
1 0 0 0 1 1 1 1 0 0 0 1 1 0 1 0 1 0 1 0 1 0

>  <DIFUSE_FUNC_ATOM>  (298) 
atom 6   atom 7   

>  <FINAL_SINGLE_POINT_ENERGY>  (298) 
0

>  <NONCOV_INTER_ENERGY_QM>  (298) 
0

>  <FF_Energy>  (298) 
-2.42

>  <QM_Energy>  (298) 
-7.65

>  <source>  (298) 
ACET_MBZ_00

>  <Index>  (298) 
10310

$$$$
ACET-pdb2fd6-A-GLU-52:MBZ-pdb2fd6-A-PHE-57
     RDKit          3D

 22 21  0  0  0  0  0  0  0  0999 V2000
   -4.1524    5.2790   -0.9322 C   0  0  0  0  0  0  0  0  0  0  0  0
   -3.8112    5.6595   -1.7659 H   0  0  0  0  0  0  0  0  0  0  0  0
   -4.0870    5.8936   -0.1741 H   0  0  0  0  0  0  0  0  0  0  0  0
   -5.1983    5.0075   -1.0748 H   0  0  0  0  0  0  0  0  0  0  0  0
   -3.3201    4.0637   -0.6082 C   0  0  0  0  0  0  0  0  0  0  0  0
   -3.5594    3.4451    0.4518 O   0  0  0  0  0  1  0  0  0  0  0  0
   -2.4377    3.7172   -1.4184 O   0  0  0  0  0  0  0  0  0  0  0  0
    0.0009    2.9108    0.0191 C   0  0  0  0  0  0  0  0  0  0  0  0
   -0.7486    3.2246   -0.5435 H   0  0  0  0  0  0  0  0  0  0  0  0
    0.8713    3.2207   -0.3325 H   0  0  0  0  0  0  0  0  0  0  0  0
   -0.1274    3.3395    1.0129 H   0  0  0  0  0  0  0  0  0  0  0  0
   -0.0001    1.4047   -0.0000 C   0  0  0  0  0  0  0  0  0  0  0  0
   -1.1988    0.6957    0.0007 C   0  0  0  0  0  0  0  0  0  0  0  0
   -2.0646    1.1844    0.0002 H   0  0  0  0  0  0  0  0  0  0  0  0
   -1.2037   -0.6990    0.0000 C   0  0  0  0  0  0  0  0  0  0  0  0
   -2.0788   -1.1920    0.0013 H   0  0  0  0  0  0  0  0  0  0  0  0
    0.0021   -1.3971   -0.0011 C   0  0  0  0  0  0  0  0  0  0  0  0
   -0.0024   -2.3944   -0.0037 H   0  0  0  0  0  0  0  0  0  0  0  0
    1.2037   -0.6986    0.0000 C   0  0  0  0  0  0  0  0  0  0  0  0
    2.0855   -1.1943    0.0020 H   0  0  0  0  0  0  0  0  0  0  0  0
    1.1968    0.6942    0.0004 C   0  0  0  0  0  0  0  0  0  0  0  0
    2.0652    1.1911    0.0000 H   0  0  0  0  0  0  0  0  0  0  0  0
  1  5  1  0
  5  6  1  0
  5  7  2  0
  1  2  1  0
  1  3  1  0
  1  4  1  0
  8 12  1  0
 12 13  2  0
 13 15  1  0
 15 17  2  0
 17 19  1  0
 19 21  2  0
 21 12  1  0
  8  9  1  0
  8 10  1  0
  8 11  1  0
 13 14  1  0
 15 16  1  0
 17 18  1  0
 19 20  1  0
 21 22  1  0
M  CHG  1   6  -1
M  END
>  <PDB_ID>  (299) 
pdb2fd6

>  <RESIDUE_NAME>  (299) 
GLU   PHE

>  <FRAG_NAME>  (299) 
ACET   MBZ

>  <FRAG_ATOM_NUM>  (299) 
fragi: 7  fragj: 15

>  <atom.prop.CHAIN_ID>  (299) 
A A A A A A A Z Z Z Z Z Z Z Z Z Z Z Z Z Z Z

>  <atom.prop.IS_HEAVY_ATOM>  (299) 
1 0 0 0 1 1 1 1 0 0 0 1 1 0 1 0 1 0 1 0 1 0

>  <DIFUSE_FUNC_ATOM>  (299) 
atom 6   atom 7   

>  <FINAL_SINGLE_POINT_ENERGY>  (299) 
0

>  <NONCOV_INTER_ENERGY_QM>  (299) 
0

>  <FF_Energy>  (299) 
6.79

>  <QM_Energy>  (299) 
-8.29

>  <source>  (299) 
ACET_MBZ_00

>  <Index>  (299) 
10329

$$$$
ACET-pdb2fe7-A-GLU-108:MBZ-pdb2fe7-A-PHE-68
     RDKit          3D

 22 21  0  0  0  0  0  0  0  0999 V2000
   -3.4583   -3.8316   -2.7584 C   0  0  0  0  0  0  0  0  0  0  0  0
   -4.2954   -3.3168   -2.6795 H   0  0  0  0  0  0  0  0  0  0  0  0
   -3.6049   -4.7945   -2.6094 H   0  0  0  0  0  0  0  0  0  0  0  0
   -3.0758   -3.7001   -3.7706 H   0  0  0  0  0  0  0  0  0  0  0  0
   -2.5117   -3.3386   -1.6680 C   0  0  0  0  0  0  0  0  0  0  0  0
   -1.2687   -3.3685   -1.8676 O   0  0  0  0  0  1  0  0  0  0  0  0
   -3.0199   -2.9319   -0.5916 O   0  0  0  0  0  0  0  0  0  0  0  0
   -0.0006    2.8664    0.0103 C   0  0  0  0  0  0  0  0  0  0  0  0
   -0.8992    3.1801   -0.2566 H   0  0  0  0  0  0  0  0  0  0  0  0
    0.6940    3.1849   -0.6169 H   0  0  0  0  0  0  0  0  0  0  0  0
    0.2189    3.2979    0.9868 H   0  0  0  0  0  0  0  0  0  0  0  0
    0.0022    1.3736   -0.0005 C   0  0  0  0  0  0  0  0  0  0  0  0
   -1.1957    0.6732    0.0054 C   0  0  0  0  0  0  0  0  0  0  0  0
   -2.0561    1.1832    0.0126 H   0  0  0  0  0  0  0  0  0  0  0  0
   -1.1967   -0.6738   -0.0000 C   0  0  0  0  0  0  0  0  0  0  0  0
   -2.0725   -1.1873    0.0012 H   0  0  0  0  0  0  0  0  0  0  0  0
   -0.0046   -1.3588   -0.0050 C   0  0  0  0  0  0  0  0  0  0  0  0
   -0.0112   -2.3675   -0.0130 H   0  0  0  0  0  0  0  0  0  0  0  0
    1.1967   -0.6819    0.0000 C   0  0  0  0  0  0  0  0  0  0  0  0
    2.0713   -1.2024    0.0050 H   0  0  0  0  0  0  0  0  0  0  0  0
    1.1981    0.6677    0.0002 C   0  0  0  0  0  0  0  0  0  0  0  0
    2.0618    1.1816    0.0001 H   0  0  0  0  0  0  0  0  0  0  0  0
  1  5  1  0
  5  6  1  0
  5  7  2  0
  1  2  1  0
  1  3  1  0
  1  4  1  0
  8 12  1  0
 12 13  2  0
 13 15  1  0
 15 17  2  0
 17 19  1  0
 19 21  2  0
 21 12  1  0
  8  9  1  0
  8 10  1  0
  8 11  1  0
 13 14  1  0
 15 16  1  0
 17 18  1  0
 19 20  1  0
 21 22  1  0
M  CHG  1   6  -1
M  END
>  <PDB_ID>  (300) 
pdb2fe7

>  <RESIDUE_NAME>  (300) 
GLU   PHE

>  <FRAG_NAME>  (300) 
ACET   MBZ

>  <FRAG_ATOM_NUM>  (300) 
fragi: 7  fragj: 15

>  <atom.prop.CHAIN_ID>  (300) 
A A A A A A A Z Z Z Z Z Z Z Z Z Z Z Z Z Z Z

>  <atom.prop.IS_HEAVY_ATOM>  (300) 
1 0 0 0 1 1 1 1 0 0 0 1 1 0 1 0 1 0 1 0 1 0

>  <DIFUSE_FUNC_ATOM>  (300) 
atom 6   atom 7   

>  <FINAL_SINGLE_POINT_ENERGY>  (300) 
0

>  <NONCOV_INTER_ENERGY_QM>  (300) 
0

>  <FF_Energy>  (300) 
3.31

>  <QM_Energy>  (300) 
-5.98

>  <source>  (300) 
ACET_MBZ_00

>  <Index>  (300) 
10353

$$$$
ACET-pdb1ei6-C-ASP-223:MBZ-pdb1ei6-C-PHE-43
     RDKit          3D

 22 21  0  0  0  0  0  0  0  0999 V2000
    3.7098    5.4708   -1.1064 C   0  0  0  0  0  0  0  0  0  0  0  0
    4.4726    5.7585   -0.5353 H   0  0  0  0  0  0  0  0  0  0  0  0
    3.3712    6.2375   -1.6417 H   0  0  0  0  0  0  0  0  0  0  0  0
    4.0889    4.7259   -1.8060 H   0  0  0  0  0  0  0  0  0  0  0  0
    2.6056    4.9460   -0.2340 C   0  0  0  0  0  0  0  0  0  0  0  0
    1.4483    5.3277   -0.2952 O   0  0  0  0  0  1  0  0  0  0  0  0
    3.0365    4.0571    0.6543 O   0  0  0  0  0  0  0  0  0  0  0  0
   -0.0215    2.8767    0.0094 C   0  0  0  0  0  0  0  0  0  0  0  0
   -0.6252    3.1880   -0.6875 H   0  0  0  0  0  0  0  0  0  0  0  0
    0.8925    3.1973   -0.0836 H   0  0  0  0  0  0  0  0  0  0  0  0
   -0.4070    3.2100    0.9729 H   0  0  0  0  0  0  0  0  0  0  0  0
   -0.0047    1.3952   -0.0097 C   0  0  0  0  0  0  0  0  0  0  0  0
   -1.2022    0.6842    0.0030 C   0  0  0  0  0  0  0  0  0  0  0  0
   -2.0697    1.1769    0.0133 H   0  0  0  0  0  0  0  0  0  0  0  0
   -1.2127   -0.7076   -0.0000 C   0  0  0  0  0  0  0  0  0  0  0  0
   -2.0776   -1.2035   -0.0034 H   0  0  0  0  0  0  0  0  0  0  0  0
    0.0031   -1.3865    0.0039 C   0  0  0  0  0  0  0  0  0  0  0  0
    0.0081   -2.3905    0.0091 H   0  0  0  0  0  0  0  0  0  0  0  0
    1.2127   -0.6885    0.0000 C   0  0  0  0  0  0  0  0  0  0  0  0
    2.0896   -1.1869   -0.0037 H   0  0  0  0  0  0  0  0  0  0  0  0
    1.2038    0.7033    0.0028 C   0  0  0  0  0  0  0  0  0  0  0  0
    2.0623    1.2049    0.0132 H   0  0  0  0  0  0  0  0  0  0  0  0
  1  5  1  0
  5  6  1  0
  5  7  2  0
  1  2  1  0
  1  3  1  0
  1  4  1  0
  8 12  1  0
 12 13  2  0
 13 15  1  0
 15 17  2  0
 17 19  1  0
 19 21  2  0
 21 12  1  0
  8  9  1  0
  8 10  1  0
  8 11  1  0
 13 14  1  0
 15 16  1  0
 17 18  1  0
 19 20  1  0
 21 22  1  0
M  CHG  1   6  -1
M  END
>  <PDB_ID>  (301) 
pdb1ei6

>  <RESIDUE_NAME>  (301) 
ASP   PHE

>  <FRAG_NAME>  (301) 
ACET   MBZ

>  <FRAG_ATOM_NUM>  (301) 
fragi: 7  fragj: 15

>  <atom.prop.CHAIN_ID>  (301) 
A A A A A A A Z Z Z Z Z Z Z Z Z Z Z Z Z Z Z

>  <atom.prop.IS_HEAVY_ATOM>  (301) 
1 0 0 0 1 1 1 1 0 0 0 1 1 0 1 0 1 0 1 0 1 0

>  <DIFUSE_FUNC_ATOM>  (301) 
atom 6   atom 7   

>  <FINAL_SINGLE_POINT_ENERGY>  (301) 
0

>  <NONCOV_INTER_ENERGY_QM>  (301) 
0

>  <FF_Energy>  (301) 
2.54

>  <QM_Energy>  (301) 
-6.43

>  <source>  (301) 
ACET_MBZ_00

>  <Index>  (301) 
10375

$$$$
ACET-pdb1eo6-A-GLU-112:MBZ-pdb1eo6-A-PHE-77
     RDKit          3D

 22 21  0  0  0  0  0  0  0  0999 V2000
   -3.9303   -4.3256    1.6326 C   0  0  0  0  0  0  0  0  0  0  0  0
   -3.7885   -3.6099    2.2895 H   0  0  0  0  0  0  0  0  0  0  0  0
   -4.0503   -5.2045    2.0531 H   0  0  0  0  0  0  0  0  0  0  0  0
   -4.8270   -4.0924    1.0584 H   0  0  0  0  0  0  0  0  0  0  0  0
   -2.6908   -4.4006    0.7613 C   0  0  0  0  0  0  0  0  0  0  0  0
   -2.2776   -3.3541    0.2211 O   0  0  0  0  0  1  0  0  0  0  0  0
   -2.1319   -5.5068    0.6084 O   0  0  0  0  0  0  0  0  0  0  0  0
    0.0023    2.8961   -0.0023 C   0  0  0  0  0  0  0  0  0  0  0  0
   -0.8406    3.2071   -0.4173 H   0  0  0  0  0  0  0  0  0  0  0  0
    0.7882    3.2028   -0.5211 H   0  0  0  0  0  0  0  0  0  0  0  0
    0.0664    3.3447    0.9891 H   0  0  0  0  0  0  0  0  0  0  0  0
   -0.0015    1.3978   -0.0004 C   0  0  0  0  0  0  0  0  0  0  0  0
   -1.1973    0.6943    0.0008 C   0  0  0  0  0  0  0  0  0  0  0  0
   -2.0631    1.1857    0.0011 H   0  0  0  0  0  0  0  0  0  0  0  0
   -1.2016   -0.6935    0.0000 C   0  0  0  0  0  0  0  0  0  0  0  0
   -2.0758   -1.1907    0.0007 H   0  0  0  0  0  0  0  0  0  0  0  0
    0.0048   -1.3924    0.0004 C   0  0  0  0  0  0  0  0  0  0  0  0
   -0.0039   -2.3915    0.0005 H   0  0  0  0  0  0  0  0  0  0  0  0
    1.2016   -0.6979   -0.0000 C   0  0  0  0  0  0  0  0  0  0  0  0
    2.0849   -1.1930    0.0019 H   0  0  0  0  0  0  0  0  0  0  0  0
    1.1940    0.6917   -0.0008 C   0  0  0  0  0  0  0  0  0  0  0  0
    2.0625    1.1892   -0.0022 H   0  0  0  0  0  0  0  0  0  0  0  0
  1  5  1  0
  5  6  1  0
  5  7  2  0
  1  2  1  0
  1  3  1  0
  1  4  1  0
  8 12  1  0
 12 13  2  0
 13 15  1  0
 15 17  2  0
 17 19  1  0
 19 21  2  0
 21 12  1  0
  8  9  1  0
  8 10  1  0
  8 11  1  0
 13 14  1  0
 15 16  1  0
 17 18  1  0
 19 20  1  0
 21 22  1  0
M  CHG  1   6  -1
M  END
>  <PDB_ID>  (302) 
pdb1eo6

>  <RESIDUE_NAME>  (302) 
GLU   PHE

>  <FRAG_NAME>  (302) 
ACET   MBZ

>  <FRAG_ATOM_NUM>  (302) 
fragi: 7  fragj: 15

>  <atom.prop.CHAIN_ID>  (302) 
A A A A A A A Z Z Z Z Z Z Z Z Z Z Z Z Z Z Z

>  <atom.prop.IS_HEAVY_ATOM>  (302) 
1 0 0 0 1 1 1 1 0 0 0 1 1 0 1 0 1 0 1 0 1 0

>  <DIFUSE_FUNC_ATOM>  (302) 
atom 6   atom 7   

>  <FINAL_SINGLE_POINT_ENERGY>  (302) 
0

>  <NONCOV_INTER_ENERGY_QM>  (302) 
0

>  <FF_Energy>  (302) 
0.66

>  <QM_Energy>  (302) 
-6.34

>  <source>  (302) 
ACET_MBZ_00

>  <Index>  (302) 
10519

$$$$
ACET-pdb2fge-B-GLU-28:MBZ-pdb2fge-B-PHE-437
     RDKit          3D

 22 21  0  0  0  0  0  0  0  0999 V2000
   -2.1106    0.7897    3.1270 C   0  0  0  0  0  0  0  0  0  0  0  0
   -1.6190    0.0028    2.8056 H   0  0  0  0  0  0  0  0  0  0  0  0
   -2.7846    1.1006    2.4835 H   0  0  0  0  0  0  0  0  0  0  0  0
   -2.6076    0.5347    4.0630 H   0  0  0  0  0  0  0  0  0  0  0  0
   -1.1006    1.9134    3.2997 C   0  0  0  0  0  0  0  0  0  0  0  0
   -1.5342    3.0652    3.5091 O   0  0  0  0  0  1  0  0  0  0  0  0
    0.1229    1.6497    3.2266 O   0  0  0  0  0  0  0  0  0  0  0  0
    0.0057    2.9144    0.0357 C   0  0  0  0  0  0  0  0  0  0  0  0
    0.8240    3.2051    0.5175 H   0  0  0  0  0  0  0  0  0  0  0  0
   -0.8088    3.2069    0.5222 H   0  0  0  0  0  0  0  0  0  0  0  0
    0.0034    3.4043   -0.9380 H   0  0  0  0  0  0  0  0  0  0  0  0
    0.0038    1.4091   -0.0076 C   0  0  0  0  0  0  0  0  0  0  0  0
   -1.1937    0.6995    0.0035 C   0  0  0  0  0  0  0  0  0  0  0  0
   -2.0613    1.1842    0.0123 H   0  0  0  0  0  0  0  0  0  0  0  0
   -1.1982   -0.7031    0.0000 C   0  0  0  0  0  0  0  0  0  0  0  0
   -2.0811   -1.1870    0.0004 H   0  0  0  0  0  0  0  0  0  0  0  0
   -0.0070   -1.3982   -0.0018 C   0  0  0  0  0  0  0  0  0  0  0  0
   -0.0069   -2.3976   -0.0050 H   0  0  0  0  0  0  0  0  0  0  0  0
    1.1982   -0.7025   -0.0000 C   0  0  0  0  0  0  0  0  0  0  0  0
    2.0776   -1.1997   -0.0011 H   0  0  0  0  0  0  0  0  0  0  0  0
    1.1968    0.6953    0.0059 C   0  0  0  0  0  0  0  0  0  0  0  0
    2.0684    1.1861    0.0194 H   0  0  0  0  0  0  0  0  0  0  0  0
  1  5  1  0
  5  6  1  0
  5  7  2  0
  1  2  1  0
  1  3  1  0
  1  4  1  0
  8 12  1  0
 12 13  2  0
 13 15  1  0
 15 17  2  0
 17 19  1  0
 19 21  2  0
 21 12  1  0
  8  9  1  0
  8 10  1  0
  8 11  1  0
 13 14  1  0
 15 16  1  0
 17 18  1  0
 19 20  1  0
 21 22  1  0
M  CHG  1   6  -1
M  END
>  <PDB_ID>  (303) 
pdb2fge

>  <RESIDUE_NAME>  (303) 
GLU   PHE

>  <FRAG_NAME>  (303) 
ACET   MBZ

>  <FRAG_ATOM_NUM>  (303) 
fragi: 7  fragj: 15

>  <atom.prop.CHAIN_ID>  (303) 
A A A A A A A Z Z Z Z Z Z Z Z Z Z Z Z Z Z Z

>  <atom.prop.IS_HEAVY_ATOM>  (303) 
1 0 0 0 1 1 1 1 0 0 0 1 1 0 1 0 1 0 1 0 1 0

>  <DIFUSE_FUNC_ATOM>  (303) 
atom 6   atom 7   

>  <FINAL_SINGLE_POINT_ENERGY>  (303) 
0

>  <NONCOV_INTER_ENERGY_QM>  (303) 
0

>  <FF_Energy>  (303) 
2.03

>  <QM_Energy>  (303) 
-3.65

>  <source>  (303) 
ACET_MBZ_00

>  <Index>  (303) 
10537

$$$$
ACET-pdb2fgz-A-ASP-481:MBZ-pdb2fgz-A-PHE-562
     RDKit          3D

 22 21  0  0  0  0  0  0  0  0999 V2000
   -1.7631    5.1529   -3.6874 C   0  0  0  0  0  0  0  0  0  0  0  0
   -2.0465    5.2027   -4.6375 H   0  0  0  0  0  0  0  0  0  0  0  0
   -0.7739    5.1894   -3.6151 H   0  0  0  0  0  0  0  0  0  0  0  0
   -2.1710    6.0207   -3.1691 H   0  0  0  0  0  0  0  0  0  0  0  0
   -2.2490    3.8414   -3.1007 C   0  0  0  0  0  0  0  0  0  0  0  0
   -3.4411    3.7596   -2.7256 O   0  0  0  0  0  1  0  0  0  0  0  0
   -1.4514    2.8843   -3.0307 O   0  0  0  0  0  0  0  0  0  0  0  0
   -0.0124    2.9203   -0.0210 C   0  0  0  0  0  0  0  0  0  0  0  0
   -0.6278    3.2278    0.6887 H   0  0  0  0  0  0  0  0  0  0  0  0
   -0.3198    3.2093   -0.9147 H   0  0  0  0  0  0  0  0  0  0  0  0
    0.9607    3.3764    0.1608 H   0  0  0  0  0  0  0  0  0  0  0  0
    0.0001    1.4077   -0.0013 C   0  0  0  0  0  0  0  0  0  0  0  0
   -1.1991    0.6972    0.0001 C   0  0  0  0  0  0  0  0  0  0  0  0
   -2.0656    1.1869   -0.0003 H   0  0  0  0  0  0  0  0  0  0  0  0
   -1.2062   -0.6998   -0.0000 C   0  0  0  0  0  0  0  0  0  0  0  0
   -2.0809   -1.1914    0.0013 H   0  0  0  0  0  0  0  0  0  0  0  0
    0.0004   -1.3996    0.0002 C   0  0  0  0  0  0  0  0  0  0  0  0
   -0.0048   -2.3969   -0.0005 H   0  0  0  0  0  0  0  0  0  0  0  0
    1.2062   -0.7019    0.0000 C   0  0  0  0  0  0  0  0  0  0  0  0
    2.0856   -1.1959    0.0009 H   0  0  0  0  0  0  0  0  0  0  0  0
    1.1986    0.6964    0.0011 C   0  0  0  0  0  0  0  0  0  0  0  0
    2.0668    1.1914    0.0032 H   0  0  0  0  0  0  0  0  0  0  0  0
  1  5  1  0
  5  6  1  0
  5  7  2  0
  1  2  1  0
  1  3  1  0
  1  4  1  0
  8 12  1  0
 12 13  2  0
 13 15  1  0
 15 17  2  0
 17 19  1  0
 19 21  2  0
 21 12  1  0
  8  9  1  0
  8 10  1  0
  8 11  1  0
 13 14  1  0
 15 16  1  0
 17 18  1  0
 19 20  1  0
 21 22  1  0
M  CHG  1   6  -1
M  END
>  <PDB_ID>  (304) 
pdb2fgz

>  <RESIDUE_NAME>  (304) 
ASP   PHE

>  <FRAG_NAME>  (304) 
ACET   MBZ

>  <FRAG_ATOM_NUM>  (304) 
fragi: 7  fragj: 15

>  <atom.prop.CHAIN_ID>  (304) 
A A A A A A A Z Z Z Z Z Z Z Z Z Z Z Z Z Z Z

>  <atom.prop.IS_HEAVY_ATOM>  (304) 
1 0 0 0 1 1 1 1 0 0 0 1 1 0 1 0 1 0 1 0 1 0

>  <DIFUSE_FUNC_ATOM>  (304) 
atom 6   atom 7   

>  <FINAL_SINGLE_POINT_ENERGY>  (304) 
0

>  <NONCOV_INTER_ENERGY_QM>  (304) 
0

>  <FF_Energy>  (304) 
0.39

>  <QM_Energy>  (304) 
-5.25

>  <source>  (304) 
ACET_MBZ_00

>  <Index>  (304) 
10577

$$$$
ACET-pdb2fcw-B-ASP-112:MBZ-pdb2fcw-B-PHE-105
     RDKit          3D

 22 21  0  0  0  0  0  0  0  0999 V2000
    3.4061    4.0814    3.0702 C   0  0  0  0  0  0  0  0  0  0  0  0
    3.2725    4.8377    2.4370 H   0  0  0  0  0  0  0  0  0  0  0  0
    4.0362    3.4162    2.6821 H   0  0  0  0  0  0  0  0  0  0  0  0
    3.8612    4.4818    3.9760 H   0  0  0  0  0  0  0  0  0  0  0  0
    2.0769    3.4121    3.3217 C   0  0  0  0  0  0  0  0  0  0  0  0
    2.0997    2.2806    3.8099 O   0  0  0  0  0  1  0  0  0  0  0  0
    1.0183    4.0137    3.0336 O   0  0  0  0  0  0  0  0  0  0  0  0
    0.0942    2.9135    0.0008 C   0  0  0  0  0  0  0  0  0  0  0  0
    0.9010    3.1685   -0.5265 H   0  0  0  0  0  0  0  0  0  0  0  0
    0.2060    3.1979    0.9503 H   0  0  0  0  0  0  0  0  0  0  0  0
   -0.7679    3.4347   -0.4152 H   0  0  0  0  0  0  0  0  0  0  0  0
    0.0102    1.4045   -0.0086 C   0  0  0  0  0  0  0  0  0  0  0  0
   -1.1666    0.7082   -0.0042 C   0  0  0  0  0  0  0  0  0  0  0  0
   -2.0394    1.2094   -0.0049 H   0  0  0  0  0  0  0  0  0  0  0  0
   -1.1786   -0.6517   -0.0000 C   0  0  0  0  0  0  0  0  0  0  0  0
   -2.0852   -1.1424    0.0055 H   0  0  0  0  0  0  0  0  0  0  0  0
   -0.0193   -1.4085   -0.0009 C   0  0  0  0  0  0  0  0  0  0  0  0
   -0.0515   -2.3890   -0.0029 H   0  0  0  0  0  0  0  0  0  0  0  0
    1.1786   -0.7186    0.0000 C   0  0  0  0  0  0  0  0  0  0  0  0
    2.0598   -1.2188   -0.0079 H   0  0  0  0  0  0  0  0  0  0  0  0
    1.1756    0.6661    0.0137 C   0  0  0  0  0  0  0  0  0  0  0  0
    2.0643    1.1537    0.0404 H   0  0  0  0  0  0  0  0  0  0  0  0
  1  5  1  0
  5  6  1  0
  5  7  2  0
  1  2  1  0
  1  3  1  0
  1  4  1  0
  8 12  1  0
 12 13  2  0
 13 15  1  0
 15 17  2  0
 17 19  1  0
 19 21  2  0
 21 12  1  0
  8  9  1  0
  8 10  1  0
  8 11  1  0
 13 14  1  0
 15 16  1  0
 17 18  1  0
 19 20  1  0
 21 22  1  0
M  CHG  1   6  -1
M  END
>  <PDB_ID>  (305) 
pdb2fcw

>  <RESIDUE_NAME>  (305) 
ASP   PHE

>  <FRAG_NAME>  (305) 
ACET   MBZ

>  <FRAG_ATOM_NUM>  (305) 
fragi: 7  fragj: 15

>  <atom.prop.CHAIN_ID>  (305) 
A A A A A A A Z Z Z Z Z Z Z Z Z Z Z Z Z Z Z

>  <atom.prop.IS_HEAVY_ATOM>  (305) 
1 0 0 0 1 1 1 1 0 0 0 1 1 0 1 0 1 0 1 0 1 0

>  <DIFUSE_FUNC_ATOM>  (305) 
atom 6   atom 7   

>  <FINAL_SINGLE_POINT_ENERGY>  (305) 
0

>  <NONCOV_INTER_ENERGY_QM>  (305) 
0

>  <FF_Energy>  (305) 
0.33

>  <QM_Energy>  (305) 
-4.74

>  <source>  (305) 
ACET_MBZ_00

>  <Index>  (305) 
10605

$$$$
ACET-pdb1eqy-A-GLU-259:MBZ-pdb1eqy-A-PHE-223
     RDKit          3D

 22 21  0  0  0  0  0  0  0  0999 V2000
   -0.9560    0.3898   -3.8202 C   0  0  0  0  0  0  0  0  0  0  0  0
   -0.5025   -0.0423   -3.0556 H   0  0  0  0  0  0  0  0  0  0  0  0
   -0.4326    0.2844   -4.6531 H   0  0  0  0  0  0  0  0  0  0  0  0
   -1.9208   -0.0977   -3.9607 H   0  0  0  0  0  0  0  0  0  0  0  0
   -1.0453    1.8712   -3.5217 C   0  0  0  0  0  0  0  0  0  0  0  0
   -2.1455    2.3612   -3.1830 O   0  0  0  0  0  1  0  0  0  0  0  0
   -0.0043    2.5605   -3.6217 O   0  0  0  0  0  0  0  0  0  0  0  0
   -0.0400    2.9135    0.0192 C   0  0  0  0  0  0  0  0  0  0  0  0
   -0.6491    3.2003   -0.6675 H   0  0  0  0  0  0  0  0  0  0  0  0
    0.8653    3.2299   -0.0584 H   0  0  0  0  0  0  0  0  0  0  0  0
   -0.4334    3.2333    0.9842 H   0  0  0  0  0  0  0  0  0  0  0  0
   -0.0038    1.3826    0.0026 C   0  0  0  0  0  0  0  0  0  0  0  0
   -1.1948    0.6803   -0.0060 C   0  0  0  0  0  0  0  0  0  0  0  0
   -2.0626    1.1745   -0.0180 H   0  0  0  0  0  0  0  0  0  0  0  0
   -1.2012   -0.6982   -0.0000 C   0  0  0  0  0  0  0  0  0  0  0  0
   -2.0693   -1.1994    0.0131 H   0  0  0  0  0  0  0  0  0  0  0  0
    0.0069   -1.3783   -0.0103 C   0  0  0  0  0  0  0  0  0  0  0  0
    0.0067   -2.3838   -0.0258 H   0  0  0  0  0  0  0  0  0  0  0  0
    1.2012   -0.6854    0.0000 C   0  0  0  0  0  0  0  0  0  0  0  0
    2.0844   -1.1814   -0.0011 H   0  0  0  0  0  0  0  0  0  0  0  0
    1.1917    0.6990    0.0138 C   0  0  0  0  0  0  0  0  0  0  0  0
    2.0559    1.2000    0.0308 H   0  0  0  0  0  0  0  0  0  0  0  0
  1  5  1  0
  5  6  1  0
  5  7  2  0
  1  2  1  0
  1  3  1  0
  1  4  1  0
  8 12  1  0
 12 13  2  0
 13 15  1  0
 15 17  2  0
 17 19  1  0
 19 21  2  0
 21 12  1  0
  8  9  1  0
  8 10  1  0
  8 11  1  0
 13 14  1  0
 15 16  1  0
 17 18  1  0
 19 20  1  0
 21 22  1  0
M  CHG  1   6  -1
M  END
>  <PDB_ID>  (306) 
pdb1eqy

>  <RESIDUE_NAME>  (306) 
GLU   PHE

>  <FRAG_NAME>  (306) 
ACET   MBZ

>  <FRAG_ATOM_NUM>  (306) 
fragi: 7  fragj: 15

>  <atom.prop.CHAIN_ID>  (306) 
A A A A A A A Z Z Z Z Z Z Z Z Z Z Z Z Z Z Z

>  <atom.prop.IS_HEAVY_ATOM>  (306) 
1 0 0 0 1 1 1 1 0 0 0 1 1 0 1 0 1 0 1 0 1 0

>  <DIFUSE_FUNC_ATOM>  (306) 
atom 6   atom 7   

>  <FINAL_SINGLE_POINT_ENERGY>  (306) 
0

>  <NONCOV_INTER_ENERGY_QM>  (306) 
0

>  <FF_Energy>  (306) 
-0.36

>  <QM_Energy>  (306) 
-5.84

>  <source>  (306) 
ACET_MBZ_00

>  <Index>  (306) 
10766

$$$$
ACET-pdb2fju-B-GLU-393:MBZ-pdb2fju-B-PHE-72
     RDKit          3D

 22 21  0  0  0  0  0  0  0  0999 V2000
    0.5924    0.1850   -3.4233 C   0  0  0  0  0  0  0  0  0  0  0  0
   -0.0693    0.2899   -4.1465 H   0  0  0  0  0  0  0  0  0  0  0  0
    0.1632   -0.0323   -2.5627 H   0  0  0  0  0  0  0  0  0  0  0  0
    1.2536   -0.6397   -3.6893 H   0  0  0  0  0  0  0  0  0  0  0  0
    1.3097    1.5083   -3.2587 C   0  0  0  0  0  0  0  0  0  0  0  0
    2.5306    1.5102   -2.9926 O   0  0  0  0  0  1  0  0  0  0  0  0
    0.6398    2.5546   -3.3839 O   0  0  0  0  0  0  0  0  0  0  0  0
    0.0011    2.9092   -0.0019 C   0  0  0  0  0  0  0  0  0  0  0  0
   -0.9253    3.2148    0.1532 H   0  0  0  0  0  0  0  0  0  0  0  0
    0.3416    3.2140   -0.8777 H   0  0  0  0  0  0  0  0  0  0  0  0
    0.6318    3.3466    0.7721 H   0  0  0  0  0  0  0  0  0  0  0  0
    0.0004    1.4050   -0.0000 C   0  0  0  0  0  0  0  0  0  0  0  0
   -1.1985    0.6949    0.0009 C   0  0  0  0  0  0  0  0  0  0  0  0
   -2.0648    1.1852    0.0006 H   0  0  0  0  0  0  0  0  0  0  0  0
   -1.2046   -0.6988    0.0000 C   0  0  0  0  0  0  0  0  0  0  0  0
   -2.0801   -1.1910    0.0015 H   0  0  0  0  0  0  0  0  0  0  0  0
    0.0001   -1.3977   -0.0009 C   0  0  0  0  0  0  0  0  0  0  0  0
   -0.0043   -2.3947   -0.0028 H   0  0  0  0  0  0  0  0  0  0  0  0
    1.2046   -0.6993    0.0000 C   0  0  0  0  0  0  0  0  0  0  0  0
    2.0850   -1.1953    0.0017 H   0  0  0  0  0  0  0  0  0  0  0  0
    1.1980    0.6958    0.0001 C   0  0  0  0  0  0  0  0  0  0  0  0
    2.0663    1.1915    0.0001 H   0  0  0  0  0  0  0  0  0  0  0  0
  1  5  1  0
  5  6  1  0
  5  7  2  0
  1  2  1  0
  1  3  1  0
  1  4  1  0
  8 12  1  0
 12 13  2  0
 13 15  1  0
 15 17  2  0
 17 19  1  0
 19 21  2  0
 21 12  1  0
  8  9  1  0
  8 10  1  0
  8 11  1  0
 13 14  1  0
 15 16  1  0
 17 18  1  0
 19 20  1  0
 21 22  1  0
M  CHG  1   6  -1
M  END
>  <PDB_ID>  (307) 
pdb2fju

>  <RESIDUE_NAME>  (307) 
GLU   PHE

>  <FRAG_NAME>  (307) 
ACET   MBZ

>  <FRAG_ATOM_NUM>  (307) 
fragi: 7  fragj: 15

>  <atom.prop.CHAIN_ID>  (307) 
A A A A A A A Z Z Z Z Z Z Z Z Z Z Z Z Z Z Z

>  <atom.prop.IS_HEAVY_ATOM>  (307) 
1 0 0 0 1 1 1 1 0 0 0 1 1 0 1 0 1 0 1 0 1 0

>  <DIFUSE_FUNC_ATOM>  (307) 
atom 6   atom 7   

>  <FINAL_SINGLE_POINT_ENERGY>  (307) 
0

>  <NONCOV_INTER_ENERGY_QM>  (307) 
0

>  <FF_Energy>  (307) 
-0.03

>  <QM_Energy>  (307) 
-6.65

>  <source>  (307) 
ACET_MBZ_00

>  <Index>  (307) 
10803

$$$$
ACET-pdb1et6-B-GLU-132:MBZ-pdb1et6-B-PHE-69
     RDKit          3D

 22 21  0  0  0  0  0  0  0  0999 V2000
    0.0108    0.3787    3.1890 C   0  0  0  0  0  0  0  0  0  0  0  0
   -0.0415   -0.3846    3.8046 H   0  0  0  0  0  0  0  0  0  0  0  0
   -0.0863    0.1111    2.2498 H   0  0  0  0  0  0  0  0  0  0  0  0
   -0.7983    1.0673    3.4325 H   0  0  0  0  0  0  0  0  0  0  0  0
    1.3844    1.0070    3.3493 C   0  0  0  0  0  0  0  0  0  0  0  0
    1.5249    2.2106    3.0438 O   0  0  0  0  0  1  0  0  0  0  0  0
    2.3221    0.2962    3.7653 O   0  0  0  0  0  0  0  0  0  0  0  0
    0.0073    2.8982   -0.0864 C   0  0  0  0  0  0  0  0  0  0  0  0
    0.9377    3.2088    0.0114 H   0  0  0  0  0  0  0  0  0  0  0  0
   -0.5731    3.2484    0.6301 H   0  0  0  0  0  0  0  0  0  0  0  0
   -0.3718    3.2740   -1.0367 H   0  0  0  0  0  0  0  0  0  0  0  0
    0.0020    1.4010   -0.0014 C   0  0  0  0  0  0  0  0  0  0  0  0
   -1.1997    0.6948    0.0012 C   0  0  0  0  0  0  0  0  0  0  0  0
   -2.0635    1.1844    0.0027 H   0  0  0  0  0  0  0  0  0  0  0  0
   -1.2048   -0.7001    0.0000 C   0  0  0  0  0  0  0  0  0  0  0  0
   -2.0800   -1.1921    0.0018 H   0  0  0  0  0  0  0  0  0  0  0  0
   -0.0007   -1.3946   -0.0019 C   0  0  0  0  0  0  0  0  0  0  0  0
   -0.0003   -2.3921   -0.0053 H   0  0  0  0  0  0  0  0  0  0  0  0
    1.2048   -0.6923    0.0000 C   0  0  0  0  0  0  0  0  0  0  0  0
    2.0841   -1.1942    0.0012 H   0  0  0  0  0  0  0  0  0  0  0  0
    1.1984    0.6912    0.0021 C   0  0  0  0  0  0  0  0  0  0  0  0
    2.0660    1.1922    0.0052 H   0  0  0  0  0  0  0  0  0  0  0  0
  1  5  1  0
  5  6  1  0
  5  7  2  0
  1  2  1  0
  1  3  1  0
  1  4  1  0
  8 12  1  0
 12 13  2  0
 13 15  1  0
 15 17  2  0
 17 19  1  0
 19 21  2  0
 21 12  1  0
  8  9  1  0
  8 10  1  0
  8 11  1  0
 13 14  1  0
 15 16  1  0
 17 18  1  0
 19 20  1  0
 21 22  1  0
M  CHG  1   6  -1
M  END
>  <PDB_ID>  (308) 
pdb1et6

>  <RESIDUE_NAME>  (308) 
GLU   PHE

>  <FRAG_NAME>  (308) 
ACET   MBZ

>  <FRAG_ATOM_NUM>  (308) 
fragi: 7  fragj: 15

>  <atom.prop.CHAIN_ID>  (308) 
A A A A A A A Z Z Z Z Z Z Z Z Z Z Z Z Z Z Z

>  <atom.prop.IS_HEAVY_ATOM>  (308) 
1 0 0 0 1 1 1 1 0 0 0 1 1 0 1 0 1 0 1 0 1 0

>  <DIFUSE_FUNC_ATOM>  (308) 
atom 6   atom 7   

>  <FINAL_SINGLE_POINT_ENERGY>  (308) 
0

>  <NONCOV_INTER_ENERGY_QM>  (308) 
0

>  <FF_Energy>  (308) 
2.95

>  <QM_Energy>  (308) 
-3.49

>  <source>  (308) 
ACET_MBZ_00

>  <Index>  (308) 
10841

$$$$
ACET-pdb1et6-A-GLU-120:MBZ-pdb1et6-A-PHE-140
     RDKit          3D

 22 21  0  0  0  0  0  0  0  0999 V2000
   -0.5484    0.3097   -3.3520 C   0  0  0  0  0  0  0  0  0  0  0  0
   -0.1917   -0.3450   -2.7173 H   0  0  0  0  0  0  0  0  0  0  0  0
   -0.1493    1.1979   -3.2490 H   0  0  0  0  0  0  0  0  0  0  0  0
   -0.3522   -0.0455   -4.3636 H   0  0  0  0  0  0  0  0  0  0  0  0
   -2.0294    0.4408   -3.0918 C   0  0  0  0  0  0  0  0  0  0  0  0
   -2.7322   -0.5822   -3.2264 O   0  0  0  0  0  1  0  0  0  0  0  0
   -2.4899    1.5551   -2.7587 O   0  0  0  0  0  0  0  0  0  0  0  0
    0.0132    2.9123   -0.0344 C   0  0  0  0  0  0  0  0  0  0  0  0
   -0.4587    3.2045   -0.8539 H   0  0  0  0  0  0  0  0  0  0  0  0
    0.9567    3.2113   -0.0401 H   0  0  0  0  0  0  0  0  0  0  0  0
   -0.4786    3.3843    0.8162 H   0  0  0  0  0  0  0  0  0  0  0  0
    0.0017    1.4063   -0.0007 C   0  0  0  0  0  0  0  0  0  0  0  0
   -1.1954    0.6999    0.0008 C   0  0  0  0  0  0  0  0  0  0  0  0
   -2.0622    1.1876    0.0017 H   0  0  0  0  0  0  0  0  0  0  0  0
   -1.2036   -0.6991   -0.0000 C   0  0  0  0  0  0  0  0  0  0  0  0
   -2.0825   -1.1865    0.0021 H   0  0  0  0  0  0  0  0  0  0  0  0
   -0.0040   -1.3999   -0.0010 C   0  0  0  0  0  0  0  0  0  0  0  0
   -0.0076   -2.3963   -0.0030 H   0  0  0  0  0  0  0  0  0  0  0  0
    1.2036   -0.7024   -0.0000 C   0  0  0  0  0  0  0  0  0  0  0  0
    2.0820   -1.1982    0.0015 H   0  0  0  0  0  0  0  0  0  0  0  0
    1.1977    0.6952    0.0010 C   0  0  0  0  0  0  0  0  0  0  0  0
    2.0674    1.1889    0.0015 H   0  0  0  0  0  0  0  0  0  0  0  0
  1  5  1  0
  5  6  1  0
  5  7  2  0
  1  2  1  0
  1  3  1  0
  1  4  1  0
  8 12  1  0
 12 13  2  0
 13 15  1  0
 15 17  2  0
 17 19  1  0
 19 21  2  0
 21 12  1  0
  8  9  1  0
  8 10  1  0
  8 11  1  0
 13 14  1  0
 15 16  1  0
 17 18  1  0
 19 20  1  0
 21 22  1  0
M  CHG  1   6  -1
M  END
>  <PDB_ID>  (309) 
pdb1et6

>  <RESIDUE_NAME>  (309) 
GLU   PHE

>  <FRAG_NAME>  (309) 
ACET   MBZ

>  <FRAG_ATOM_NUM>  (309) 
fragi: 7  fragj: 15

>  <atom.prop.CHAIN_ID>  (309) 
A A A A A A A Z Z Z Z Z Z Z Z Z Z Z Z Z Z Z

>  <atom.prop.IS_HEAVY_ATOM>  (309) 
1 0 0 0 1 1 1 1 0 0 0 1 1 0 1 0 1 0 1 0 1 0

>  <DIFUSE_FUNC_ATOM>  (309) 
atom 6   atom 7   

>  <FINAL_SINGLE_POINT_ENERGY>  (309) 
0

>  <NONCOV_INTER_ENERGY_QM>  (309) 
0

>  <FF_Energy>  (309) 
-2.62

>  <QM_Energy>  (309) 
-5.78

>  <source>  (309) 
ACET_MBZ_00

>  <Index>  (309) 
10893

$$$$
ACET-pdb2flo-B-GLU-400:MBZ-pdb2flo-B-PHE-424
     RDKit          3D

 22 21  0  0  0  0  0  0  0  0999 V2000
   -5.2456    2.5496   -1.5879 C   0  0  0  0  0  0  0  0  0  0  0  0
   -5.0188    1.7807   -2.1605 H   0  0  0  0  0  0  0  0  0  0  0  0
   -6.0140    3.0564   -1.9398 H   0  0  0  0  0  0  0  0  0  0  0  0
   -5.5111    2.1701   -0.6012 H   0  0  0  0  0  0  0  0  0  0  0  0
   -4.0328    3.4988   -1.5976 C   0  0  0  0  0  0  0  0  0  0  0  0
   -3.1691    3.4072   -0.6925 O   0  0  0  0  0  1  0  0  0  0  0  0
   -3.9432    4.3327   -2.5338 O   0  0  0  0  0  0  0  0  0  0  0  0
    0.0089    2.9126   -0.0218 C   0  0  0  0  0  0  0  0  0  0  0  0
    0.7977    3.2236    0.4818 H   0  0  0  0  0  0  0  0  0  0  0  0
   -0.8319    3.2285    0.3868 H   0  0  0  0  0  0  0  0  0  0  0  0
    0.0687    3.3370   -1.0240 H   0  0  0  0  0  0  0  0  0  0  0  0
    0.0034    1.4052   -0.0007 C   0  0  0  0  0  0  0  0  0  0  0  0
   -1.1971    0.7007   -0.0043 C   0  0  0  0  0  0  0  0  0  0  0  0
   -2.0619    1.1909   -0.0112 H   0  0  0  0  0  0  0  0  0  0  0  0
   -1.2034   -0.6951    0.0000 C   0  0  0  0  0  0  0  0  0  0  0  0
   -2.0827   -1.1850   -0.0005 H   0  0  0  0  0  0  0  0  0  0  0  0
   -0.0035   -1.3975    0.0062 C   0  0  0  0  0  0  0  0  0  0  0  0
   -0.0092   -2.3946    0.0142 H   0  0  0  0  0  0  0  0  0  0  0  0
    1.2034   -0.7020   -0.0000 C   0  0  0  0  0  0  0  0  0  0  0  0
    2.0810   -1.2011   -0.0017 H   0  0  0  0  0  0  0  0  0  0  0  0
    1.1972    0.6887   -0.0011 C   0  0  0  0  0  0  0  0  0  0  0  0
    2.0683    1.1848   -0.0026 H   0  0  0  0  0  0  0  0  0  0  0  0
  1  5  1  0
  5  6  1  0
  5  7  2  0
  1  2  1  0
  1  3  1  0
  1  4  1  0
  8 12  1  0
 12 13  2  0
 13 15  1  0
 15 17  2  0
 17 19  1  0
 19 21  2  0
 21 12  1  0
  8  9  1  0
  8 10  1  0
  8 11  1  0
 13 14  1  0
 15 16  1  0
 17 18  1  0
 19 20  1  0
 21 22  1  0
M  CHG  1   6  -1
M  END
>  <PDB_ID>  (310) 
pdb2flo

>  <RESIDUE_NAME>  (310) 
GLU   PHE

>  <FRAG_NAME>  (310) 
ACET   MBZ

>  <FRAG_ATOM_NUM>  (310) 
fragi: 7  fragj: 15

>  <atom.prop.CHAIN_ID>  (310) 
A A A A A A A Z Z Z Z Z Z Z Z Z Z Z Z Z Z Z

>  <atom.prop.IS_HEAVY_ATOM>  (310) 
1 0 0 0 1 1 1 1 0 0 0 1 1 0 1 0 1 0 1 0 1 0

>  <DIFUSE_FUNC_ATOM>  (310) 
atom 6   atom 7   

>  <FINAL_SINGLE_POINT_ENERGY>  (310) 
0

>  <NONCOV_INTER_ENERGY_QM>  (310) 
0

>  <FF_Energy>  (310) 
-1.85

>  <QM_Energy>  (310) 
-7.45

>  <source>  (310) 
ACET_MBZ_00

>  <Index>  (310) 
10951

$$$$
ACET-pdb2flo-B-GLU-505:MBZ-pdb2flo-B-PHE-476
     RDKit          3D

 22 21  0  0  0  0  0  0  0  0999 V2000
    4.4897    1.0746   -1.4836 C   0  0  0  0  0  0  0  0  0  0  0  0
    3.9577    0.7764   -2.2559 H   0  0  0  0  0  0  0  0  0  0  0  0
    4.3464    0.5038   -0.6939 H   0  0  0  0  0  0  0  0  0  0  0  0
    5.5436    1.0215   -1.7569 H   0  0  0  0  0  0  0  0  0  0  0  0
    4.0059    2.4894   -1.1159 C   0  0  0  0  0  0  0  0  0  0  0  0
    3.0724    2.9937   -1.7876 O   0  0  0  0  0  1  0  0  0  0  0  0
    4.5385    3.0889   -0.1527 O   0  0  0  0  0  0  0  0  0  0  0  0
    0.0002    2.8869    0.0050 C   0  0  0  0  0  0  0  0  0  0  0  0
    0.9392    3.1950    0.0563 H   0  0  0  0  0  0  0  0  0  0  0  0
   -0.5193    3.1923    0.7905 H   0  0  0  0  0  0  0  0  0  0  0  0
   -0.4495    3.3243   -0.8864 H   0  0  0  0  0  0  0  0  0  0  0  0
    0.0003    1.3967   -0.0007 C   0  0  0  0  0  0  0  0  0  0  0  0
   -1.2050    0.6903   -0.0018 C   0  0  0  0  0  0  0  0  0  0  0  0
   -2.0664    1.1896   -0.0049 H   0  0  0  0  0  0  0  0  0  0  0  0
   -1.2119   -0.6904    0.0000 C   0  0  0  0  0  0  0  0  0  0  0  0
   -2.0809   -1.1931    0.0028 H   0  0  0  0  0  0  0  0  0  0  0  0
    0.0024   -1.3913    0.0005 C   0  0  0  0  0  0  0  0  0  0  0  0
   -0.0053   -2.3884    0.0005 H   0  0  0  0  0  0  0  0  0  0  0  0
    1.2119   -0.6955    0.0000 C   0  0  0  0  0  0  0  0  0  0  0  0
    2.0874   -1.1961    0.0001 H   0  0  0  0  0  0  0  0  0  0  0  0
    1.2023    0.6902    0.0020 C   0  0  0  0  0  0  0  0  0  0  0  0
    2.0668    1.1937    0.0051 H   0  0  0  0  0  0  0  0  0  0  0  0
  1  5  1  0
  5  6  1  0
  5  7  2  0
  1  2  1  0
  1  3  1  0
  1  4  1  0
  8 12  1  0
 12 13  2  0
 13 15  1  0
 15 17  2  0
 17 19  1  0
 19 21  2  0
 21 12  1  0
  8  9  1  0
  8 10  1  0
  8 11  1  0
 13 14  1  0
 15 16  1  0
 17 18  1  0
 19 20  1  0
 21 22  1  0
M  CHG  1   6  -1
M  END
>  <PDB_ID>  (311) 
pdb2flo

>  <RESIDUE_NAME>  (311) 
GLU   PHE

>  <FRAG_NAME>  (311) 
ACET   MBZ

>  <FRAG_ATOM_NUM>  (311) 
fragi: 7  fragj: 15

>  <atom.prop.CHAIN_ID>  (311) 
A A A A A A A Z Z Z Z Z Z Z Z Z Z Z Z Z Z Z

>  <atom.prop.IS_HEAVY_ATOM>  (311) 
1 0 0 0 1 1 1 1 0 0 0 1 1 0 1 0 1 0 1 0 1 0

>  <DIFUSE_FUNC_ATOM>  (311) 
atom 6   atom 7   

>  <FINAL_SINGLE_POINT_ENERGY>  (311) 
0

>  <NONCOV_INTER_ENERGY_QM>  (311) 
0

>  <FF_Energy>  (311) 
-1.55

>  <QM_Energy>  (311) 
-6.76

>  <source>  (311) 
ACET_MBZ_00

>  <Index>  (311) 
10955

$$$$
ACET-pdb1euz-B-GLU-39:MBZ-pdb1euz-B-PHE-57
     RDKit          3D

 22 21  0  0  0  0  0  0  0  0999 V2000
   -3.9724   -0.5379   -1.7390 C   0  0  0  0  0  0  0  0  0  0  0  0
   -4.0930   -0.4780   -2.7177 H   0  0  0  0  0  0  0  0  0  0  0  0
   -3.0424   -0.3271   -1.4771 H   0  0  0  0  0  0  0  0  0  0  0  0
   -4.6359    0.1870   -1.2673 H   0  0  0  0  0  0  0  0  0  0  0  0
   -4.2430   -1.9725   -1.3349 C   0  0  0  0  0  0  0  0  0  0  0  0
   -4.0094   -2.3025   -0.1526 O   0  0  0  0  0  1  0  0  0  0  0  0
   -4.6008   -2.7843   -2.2247 O   0  0  0  0  0  0  0  0  0  0  0  0
   -0.0047    2.8934    0.0838 C   0  0  0  0  0  0  0  0  0  0  0  0
    0.9356    3.2018    0.1300 H   0  0  0  0  0  0  0  0  0  0  0  0
   -0.5053    3.1552    0.8971 H   0  0  0  0  0  0  0  0  0  0  0  0
   -0.4746    3.3839   -0.7687 H   0  0  0  0  0  0  0  0  0  0  0  0
    0.0012    1.3943    0.0040 C   0  0  0  0  0  0  0  0  0  0  0  0
   -1.1900    0.6781   -0.0037 C   0  0  0  0  0  0  0  0  0  0  0  0
   -2.0598    1.1682   -0.0139 H   0  0  0  0  0  0  0  0  0  0  0  0
   -1.1906   -0.7050    0.0000 C   0  0  0  0  0  0  0  0  0  0  0  0
   -2.0701   -1.1992    0.0018 H   0  0  0  0  0  0  0  0  0  0  0  0
   -0.0015   -1.3814    0.0024 C   0  0  0  0  0  0  0  0  0  0  0  0
    0.0076   -2.3863    0.0056 H   0  0  0  0  0  0  0  0  0  0  0  0
    1.1906   -0.6828   -0.0000 C   0  0  0  0  0  0  0  0  0  0  0  0
    2.0762   -1.1841    0.0014 H   0  0  0  0  0  0  0  0  0  0  0  0
    1.1904    0.6969   -0.0028 C   0  0  0  0  0  0  0  0  0  0  0  0
    2.0591    1.1931   -0.0106 H   0  0  0  0  0  0  0  0  0  0  0  0
  1  5  1  0
  5  6  1  0
  5  7  2  0
  1  2  1  0
  1  3  1  0
  1  4  1  0
  8 12  1  0
 12 13  2  0
 13 15  1  0
 15 17  2  0
 17 19  1  0
 19 21  2  0
 21 12  1  0
  8  9  1  0
  8 10  1  0
  8 11  1  0
 13 14  1  0
 15 16  1  0
 17 18  1  0
 19 20  1  0
 21 22  1  0
M  CHG  1   6  -1
M  END
>  <PDB_ID>  (312) 
pdb1euz

>  <RESIDUE_NAME>  (312) 
GLU   PHE

>  <FRAG_NAME>  (312) 
ACET   MBZ

>  <FRAG_ATOM_NUM>  (312) 
fragi: 7  fragj: 15

>  <atom.prop.CHAIN_ID>  (312) 
A A A A A A A Z Z Z Z Z Z Z Z Z Z Z Z Z Z Z

>  <atom.prop.IS_HEAVY_ATOM>  (312) 
1 0 0 0 1 1 1 1 0 0 0 1 1 0 1 0 1 0 1 0 1 0

>  <DIFUSE_FUNC_ATOM>  (312) 
atom 6   atom 7   

>  <FINAL_SINGLE_POINT_ENERGY>  (312) 
0

>  <NONCOV_INTER_ENERGY_QM>  (312) 
0

>  <FF_Energy>  (312) 
2.63

>  <QM_Energy>  (312) 
-4.2

>  <source>  (312) 
ACET_MBZ_00

>  <Index>  (312) 
11003

$$$$
ACET-pdb1euz-F-GLU-259:MBZ-pdb1euz-F-PHE-273
     RDKit          3D

 22 21  0  0  0  0  0  0  0  0999 V2000
   -0.7975   -4.5524   -0.9415 C   0  0  0  0  0  0  0  0  0  0  0  0
   -0.2864   -5.0817   -1.5928 H   0  0  0  0  0  0  0  0  0  0  0  0
   -0.8583   -3.6054   -1.1980 H   0  0  0  0  0  0  0  0  0  0  0  0
   -1.8079   -4.9580   -0.8916 H   0  0  0  0  0  0  0  0  0  0  0  0
   -0.0399   -4.6160    0.3937 C   0  0  0  0  0  0  0  0  0  0  0  0
    1.1582   -4.9840    0.3806 O   0  0  0  0  0  1  0  0  0  0  0  0
   -0.6122   -4.2237    1.4408 O   0  0  0  0  0  0  0  0  0  0  0  0
    0.0021    2.8812    0.0990 C   0  0  0  0  0  0  0  0  0  0  0  0
   -0.6677    3.2373   -0.5374 H   0  0  0  0  0  0  0  0  0  0  0  0
    0.9112    3.2077   -0.1182 H   0  0  0  0  0  0  0  0  0  0  0  0
   -0.2534    3.2592    1.0890 H   0  0  0  0  0  0  0  0  0  0  0  0
    0.0001    1.3934    0.0010 C   0  0  0  0  0  0  0  0  0  0  0  0
   -1.1965    0.6908   -0.0030 C   0  0  0  0  0  0  0  0  0  0  0  0
   -2.0610    1.1861   -0.0096 H   0  0  0  0  0  0  0  0  0  0  0  0
   -1.2013   -0.6905    0.0000 C   0  0  0  0  0  0  0  0  0  0  0  0
   -2.0764   -1.1888    0.0005 H   0  0  0  0  0  0  0  0  0  0  0  0
    0.0011   -1.3846    0.0043 C   0  0  0  0  0  0  0  0  0  0  0  0
   -0.0062   -2.3874    0.0100 H   0  0  0  0  0  0  0  0  0  0  0  0
    1.2013   -0.6965   -0.0000 C   0  0  0  0  0  0  0  0  0  0  0  0
    2.0807   -1.1965    0.0002 H   0  0  0  0  0  0  0  0  0  0  0  0
    1.1953    0.6874   -0.0022 C   0  0  0  0  0  0  0  0  0  0  0  0
    2.0635    1.1869   -0.0068 H   0  0  0  0  0  0  0  0  0  0  0  0
  1  5  1  0
  5  6  1  0
  5  7  2  0
  1  2  1  0
  1  3  1  0
  1  4  1  0
  8 12  1  0
 12 13  2  0
 13 15  1  0
 15 17  2  0
 17 19  1  0
 19 21  2  0
 21 12  1  0
  8  9  1  0
  8 10  1  0
  8 11  1  0
 13 14  1  0
 15 16  1  0
 17 18  1  0
 19 20  1  0
 21 22  1  0
M  CHG  1   6  -1
M  END
>  <PDB_ID>  (313) 
pdb1euz

>  <RESIDUE_NAME>  (313) 
GLU   PHE

>  <FRAG_NAME>  (313) 
ACET   MBZ

>  <FRAG_ATOM_NUM>  (313) 
fragi: 7  fragj: 15

>  <atom.prop.CHAIN_ID>  (313) 
A A A A A A A Z Z Z Z Z Z Z Z Z Z Z Z Z Z Z

>  <atom.prop.IS_HEAVY_ATOM>  (313) 
1 0 0 0 1 1 1 1 0 0 0 1 1 0 1 0 1 0 1 0 1 0

>  <DIFUSE_FUNC_ATOM>  (313) 
atom 6   atom 7   

>  <FINAL_SINGLE_POINT_ENERGY>  (313) 
0

>  <NONCOV_INTER_ENERGY_QM>  (313) 
0

>  <FF_Energy>  (313) 
5.39

>  <QM_Energy>  (313) 
-2.73

>  <source>  (313) 
ACET_MBZ_00

>  <Index>  (313) 
11013

$$$$
ACET-pdb2fn0-A-GLU-30:MBZ-pdb2fn0-A-PHE-27
     RDKit          3D

 22 21  0  0  0  0  0  0  0  0999 V2000
    1.4680    2.4881   -4.3600 C   0  0  0  0  0  0  0  0  0  0  0  0
    0.5991    2.6612   -4.7803 H   0  0  0  0  0  0  0  0  0  0  0  0
    2.1637    2.2606   -5.0129 H   0  0  0  0  0  0  0  0  0  0  0  0
    1.7766    3.3700   -3.7986 H   0  0  0  0  0  0  0  0  0  0  0  0
    1.2970    1.2914   -3.4526 C   0  0  0  0  0  0  0  0  0  0  0  0
    1.8386    1.3236   -2.3284 O   0  0  0  0  0  1  0  0  0  0  0  0
    0.6165    0.3238   -3.8511 O   0  0  0  0  0  0  0  0  0  0  0  0
   -0.0091    2.8930   -0.0243 C   0  0  0  0  0  0  0  0  0  0  0  0
   -0.8944    3.1990    0.3371 H   0  0  0  0  0  0  0  0  0  0  0  0
    0.0689    3.1913   -0.9804 H   0  0  0  0  0  0  0  0  0  0  0  0
    0.7689    3.4056    0.5415 H   0  0  0  0  0  0  0  0  0  0  0  0
    0.0019    1.3983   -0.0077 C   0  0  0  0  0  0  0  0  0  0  0  0
   -1.1984    0.6935   -0.0083 C   0  0  0  0  0  0  0  0  0  0  0  0
   -2.0631    1.1942   -0.0160 H   0  0  0  0  0  0  0  0  0  0  0  0
   -1.2195   -0.6926   -0.0000 C   0  0  0  0  0  0  0  0  0  0  0  0
   -2.0877   -1.1855   -0.0100 H   0  0  0  0  0  0  0  0  0  0  0  0
   -0.0067   -1.3903    0.0252 C   0  0  0  0  0  0  0  0  0  0  0  0
   -0.0119   -2.3899    0.0610 H   0  0  0  0  0  0  0  0  0  0  0  0
    1.2195   -0.7014    0.0000 C   0  0  0  0  0  0  0  0  0  0  0  0
    2.0846   -1.2011   -0.0104 H   0  0  0  0  0  0  0  0  0  0  0  0
    1.2031    0.6926   -0.0093 C   0  0  0  0  0  0  0  0  0  0  0  0
    2.0698    1.1947   -0.0185 H   0  0  0  0  0  0  0  0  0  0  0  0
  1  5  1  0
  5  6  1  0
  5  7  2  0
  1  2  1  0
  1  3  1  0
  1  4  1  0
  8 12  1  0
 12 13  2  0
 13 15  1  0
 15 17  2  0
 17 19  1  0
 19 21  2  0
 21 12  1  0
  8  9  1  0
  8 10  1  0
  8 11  1  0
 13 14  1  0
 15 16  1  0
 17 18  1  0
 19 20  1  0
 21 22  1  0
M  CHG  1   6  -1
M  END
>  <PDB_ID>  (314) 
pdb2fn0

>  <RESIDUE_NAME>  (314) 
GLU   PHE

>  <FRAG_NAME>  (314) 
ACET   MBZ

>  <FRAG_ATOM_NUM>  (314) 
fragi: 7  fragj: 15

>  <atom.prop.CHAIN_ID>  (314) 
A A A A A A A Z Z Z Z Z Z Z Z Z Z Z Z Z Z Z

>  <atom.prop.IS_HEAVY_ATOM>  (314) 
1 0 0 0 1 1 1 1 0 0 0 1 1 0 1 0 1 0 1 0 1 0

>  <DIFUSE_FUNC_ATOM>  (314) 
atom 6   atom 7   

>  <FINAL_SINGLE_POINT_ENERGY>  (314) 
0

>  <NONCOV_INTER_ENERGY_QM>  (314) 
0

>  <FF_Energy>  (314) 
14.24

>  <QM_Energy>  (314) 
1.33

>  <source>  (314) 
ACET_MBZ_00

>  <Index>  (314) 
11046

$$$$
ACET-pdb1ew4-A-GLU-55:MBZ-pdb1ew4-A-PHE-6
     RDKit          3D

 22 21  0  0  0  0  0  0  0  0999 V2000
    4.9168   -0.1747   -2.6191 C   0  0  0  0  0  0  0  0  0  0  0  0
    5.8917   -0.1245   -2.5798 H   0  0  0  0  0  0  0  0  0  0  0  0
    4.5011    0.6330   -2.9794 H   0  0  0  0  0  0  0  0  0  0  0  0
    4.6331   -1.0249   -3.2393 H   0  0  0  0  0  0  0  0  0  0  0  0
    4.4112   -0.3638   -1.2202 C   0  0  0  0  0  0  0  0  0  0  0  0
    4.0775    0.6335   -0.5573 O   0  0  0  0  0  1  0  0  0  0  0  0
    4.3491   -1.5322   -0.7861 O   0  0  0  0  0  0  0  0  0  0  0  0
    0.0061    2.9046    0.0551 C   0  0  0  0  0  0  0  0  0  0  0  0
   -0.6231    3.2343   -0.6278 H   0  0  0  0  0  0  0  0  0  0  0  0
    0.9265    3.2153   -0.1109 H   0  0  0  0  0  0  0  0  0  0  0  0
   -0.3118    3.2951    1.0219 H   0  0  0  0  0  0  0  0  0  0  0  0
    0.0065    1.4000   -0.0005 C   0  0  0  0  0  0  0  0  0  0  0  0
   -1.1967    0.6869   -0.0002 C   0  0  0  0  0  0  0  0  0  0  0  0
   -2.0617    1.1778   -0.0012 H   0  0  0  0  0  0  0  0  0  0  0  0
   -1.2033   -0.7095    0.0000 C   0  0  0  0  0  0  0  0  0  0  0  0
   -2.0791   -1.1976   -0.0002 H   0  0  0  0  0  0  0  0  0  0  0  0
   -0.0062   -1.3900    0.0028 C   0  0  0  0  0  0  0  0  0  0  0  0
    0.0041   -2.3922    0.0057 H   0  0  0  0  0  0  0  0  0  0  0  0
    1.2033   -0.6883   -0.0000 C   0  0  0  0  0  0  0  0  0  0  0  0
    2.0808   -1.1890    0.0012 H   0  0  0  0  0  0  0  0  0  0  0  0
    1.1963    0.7010   -0.0020 C   0  0  0  0  0  0  0  0  0  0  0  0
    2.0664    1.1968   -0.0057 H   0  0  0  0  0  0  0  0  0  0  0  0
  1  5  1  0
  5  6  1  0
  5  7  2  0
  1  2  1  0
  1  3  1  0
  1  4  1  0
  8 12  1  0
 12 13  2  0
 13 15  1  0
 15 17  2  0
 17 19  1  0
 19 21  2  0
 21 12  1  0
  8  9  1  0
  8 10  1  0
  8 11  1  0
 13 14  1  0
 15 16  1  0
 17 18  1  0
 19 20  1  0
 21 22  1  0
M  CHG  1   6  -1
M  END
>  <PDB_ID>  (315) 
pdb1ew4

>  <RESIDUE_NAME>  (315) 
GLU   PHE

>  <FRAG_NAME>  (315) 
ACET   MBZ

>  <FRAG_ATOM_NUM>  (315) 
fragi: 7  fragj: 15

>  <atom.prop.CHAIN_ID>  (315) 
A A A A A A A Z Z Z Z Z Z Z Z Z Z Z Z Z Z Z

>  <atom.prop.IS_HEAVY_ATOM>  (315) 
1 0 0 0 1 1 1 1 0 0 0 1 1 0 1 0 1 0 1 0 1 0

>  <DIFUSE_FUNC_ATOM>  (315) 
atom 6   atom 7   

>  <FINAL_SINGLE_POINT_ENERGY>  (315) 
0

>  <NONCOV_INTER_ENERGY_QM>  (315) 
0

>  <FF_Energy>  (315) 
0.07

>  <QM_Energy>  (315) 
-8.4

>  <source>  (315) 
ACET_MBZ_00

>  <Index>  (315) 
11076

$$$$
ACET-pdb2fn7-A-ASP-65:MBZ-pdb2fn7-B-PHE-248
     RDKit          3D

 22 21  0  0  0  0  0  0  0  0999 V2000
   -4.2504    3.9080   -0.5598 C   0  0  0  0  0  0  0  0  0  0  0  0
   -5.1485    3.8451   -0.1334 H   0  0  0  0  0  0  0  0  0  0  0  0
   -3.9937    3.0261   -0.9448 H   0  0  0  0  0  0  0  0  0  0  0  0
   -4.3352    4.6104   -1.3890 H   0  0  0  0  0  0  0  0  0  0  0  0
   -3.2372    4.3176    0.4703 C   0  0  0  0  0  0  0  0  0  0  0  0
   -2.7721    5.4711    0.5274 O   0  0  0  0  0  1  0  0  0  0  0  0
   -2.8854    3.4584    1.2872 O   0  0  0  0  0  0  0  0  0  0  0  0
   -0.0191    2.9759   -0.0434 C   0  0  0  0  0  0  0  0  0  0  0  0
   -0.9502    3.2695   -0.0947 H   0  0  0  0  0  0  0  0  0  0  0  0
    0.5168    3.2514   -0.8137 H   0  0  0  0  0  0  0  0  0  0  0  0
    0.4244    3.4144    0.8505 H   0  0  0  0  0  0  0  0  0  0  0  0
   -0.0176    1.4428   -0.0015 C   0  0  0  0  0  0  0  0  0  0  0  0
   -1.2314    0.7012    0.0037 C   0  0  0  0  0  0  0  0  0  0  0  0
   -2.0981    1.1834    0.0094 H   0  0  0  0  0  0  0  0  0  0  0  0
   -1.2413   -0.7254    0.0000 C   0  0  0  0  0  0  0  0  0  0  0  0
   -2.0857   -1.2264    0.0031 H   0  0  0  0  0  0  0  0  0  0  0  0
    0.0330   -1.4452   -0.0065 C   0  0  0  0  0  0  0  0  0  0  0  0
    0.0201   -2.4241   -0.0157 H   0  0  0  0  0  0  0  0  0  0  0  0
    1.2413   -0.7140   -0.0000 C   0  0  0  0  0  0  0  0  0  0  0  0
    2.1281   -1.1745    0.0034 H   0  0  0  0  0  0  0  0  0  0  0  0
    1.2161    0.7406    0.0043 C   0  0  0  0  0  0  0  0  0  0  0  0
    2.0709    1.2277    0.0104 H   0  0  0  0  0  0  0  0  0  0  0  0
  1  5  1  0
  5  6  1  0
  5  7  2  0
  1  2  1  0
  1  3  1  0
  1  4  1  0
  8 12  1  0
 12 13  2  0
 13 15  1  0
 15 17  2  0
 17 19  1  0
 19 21  2  0
 21 12  1  0
  8  9  1  0
  8 10  1  0
  8 11  1  0
 13 14  1  0
 15 16  1  0
 17 18  1  0
 19 20  1  0
 21 22  1  0
M  CHG  1   6  -1
M  END
>  <PDB_ID>  (316) 
pdb2fn7

>  <RESIDUE_NAME>  (316) 
ASP   PHE

>  <FRAG_NAME>  (316) 
ACET   MBZ

>  <FRAG_ATOM_NUM>  (316) 
fragi: 7  fragj: 15

>  <atom.prop.CHAIN_ID>  (316) 
A A A A A A A Z Z Z Z Z Z Z Z Z Z Z Z Z Z Z

>  <atom.prop.IS_HEAVY_ATOM>  (316) 
1 0 0 0 1 1 1 1 0 0 0 1 1 0 1 0 1 0 1 0 1 0

>  <DIFUSE_FUNC_ATOM>  (316) 
atom 6   atom 7   

>  <FINAL_SINGLE_POINT_ENERGY>  (316) 
0

>  <NONCOV_INTER_ENERGY_QM>  (316) 
0

>  <FF_Energy>  (316) 
-0.93

>  <QM_Energy>  (316) 
-7.39

>  <source>  (316) 
ACET_MBZ_00

>  <Index>  (316) 
11079

$$$$
ACET-pdb1ex6-B-GLU-244:MBZ-pdb1ex6-B-PHE-252
     RDKit          3D

 22 21  0  0  0  0  0  0  0  0999 V2000
   -0.2263   -5.3628   -1.8867 C   0  0  0  0  0  0  0  0  0  0  0  0
   -0.7514   -6.1858   -1.7600 H   0  0  0  0  0  0  0  0  0  0  0  0
    0.5161   -5.4932   -2.5204 H   0  0  0  0  0  0  0  0  0  0  0  0
   -0.8875   -4.5945   -2.2874 H   0  0  0  0  0  0  0  0  0  0  0  0
    0.3745   -4.9920   -0.5473 C   0  0  0  0  0  0  0  0  0  0  0  0
   -0.2988   -4.3484    0.2818 O   0  0  0  0  0  1  0  0  0  0  0  0
    1.5467   -5.3489   -0.3091 O   0  0  0  0  0  0  0  0  0  0  0  0
    0.0120    2.9217    0.0185 C   0  0  0  0  0  0  0  0  0  0  0  0
   -0.7757    3.2233   -0.4673 H   0  0  0  0  0  0  0  0  0  0  0  0
    0.8546    3.2166   -0.3696 H   0  0  0  0  0  0  0  0  0  0  0  0
   -0.0471    3.2979    1.0398 H   0  0  0  0  0  0  0  0  0  0  0  0
    0.0066    1.3927    0.0039 C   0  0  0  0  0  0  0  0  0  0  0  0
   -1.1917    0.6993   -0.0011 C   0  0  0  0  0  0  0  0  0  0  0  0
   -2.0544    1.1975   -0.0070 H   0  0  0  0  0  0  0  0  0  0  0  0
   -1.2012   -0.6805   -0.0000 C   0  0  0  0  0  0  0  0  0  0  0  0
   -2.0817   -1.1743    0.0046 H   0  0  0  0  0  0  0  0  0  0  0  0
   -0.0076   -1.3828   -0.0035 C   0  0  0  0  0  0  0  0  0  0  0  0
   -0.0228   -2.3858   -0.0086 H   0  0  0  0  0  0  0  0  0  0  0  0
    1.2012   -0.7073    0.0000 C   0  0  0  0  0  0  0  0  0  0  0  0
    2.0739   -1.2083    0.0035 H   0  0  0  0  0  0  0  0  0  0  0  0
    1.1927    0.6786    0.0007 C   0  0  0  0  0  0  0  0  0  0  0  0
    2.0668    1.1755   -0.0021 H   0  0  0  0  0  0  0  0  0  0  0  0
  1  5  1  0
  5  6  1  0
  5  7  2  0
  1  2  1  0
  1  3  1  0
  1  4  1  0
  8 12  1  0
 12 13  2  0
 13 15  1  0
 15 17  2  0
 17 19  1  0
 19 21  2  0
 21 12  1  0
  8  9  1  0
  8 10  1  0
  8 11  1  0
 13 14  1  0
 15 16  1  0
 17 18  1  0
 19 20  1  0
 21 22  1  0
M  CHG  1   6  -1
M  END
>  <PDB_ID>  (317) 
pdb1ex6

>  <RESIDUE_NAME>  (317) 
GLU   PHE

>  <FRAG_NAME>  (317) 
ACET   MBZ

>  <FRAG_ATOM_NUM>  (317) 
fragi: 7  fragj: 15

>  <atom.prop.CHAIN_ID>  (317) 
A A A A A A A Z Z Z Z Z Z Z Z Z Z Z Z Z Z Z

>  <atom.prop.IS_HEAVY_ATOM>  (317) 
1 0 0 0 1 1 1 1 0 0 0 1 1 0 1 0 1 0 1 0 1 0

>  <DIFUSE_FUNC_ATOM>  (317) 
atom 6   atom 7   

>  <FINAL_SINGLE_POINT_ENERGY>  (317) 
0

>  <NONCOV_INTER_ENERGY_QM>  (317) 
0

>  <FF_Energy>  (317) 
4.71

>  <QM_Energy>  (317) 
-5.52

>  <source>  (317) 
ACET_MBZ_00

>  <Index>  (317) 
11128

$$$$
ACET-pdb1exn-A-GLU-250:MBZ-pdb1exn-A-PHE-254
     RDKit          3D

 22 21  0  0  0  0  0  0  0  0999 V2000
    4.2461   -1.9390   -0.9882 C   0  0  0  0  0  0  0  0  0  0  0  0
    3.7267   -1.5149   -0.2646 H   0  0  0  0  0  0  0  0  0  0  0  0
    3.6921   -2.0980   -1.7892 H   0  0  0  0  0  0  0  0  0  0  0  0
    5.0733   -1.2820   -1.2568 H   0  0  0  0  0  0  0  0  0  0  0  0
    4.6909   -3.3100   -0.4748 C   0  0  0  0  0  0  0  0  0  0  0  0
    5.8185   -3.7508   -0.8019 O   0  0  0  0  0  1  0  0  0  0  0  0
    3.8963   -3.9613    0.2350 O   0  0  0  0  0  0  0  0  0  0  0  0
    0.0044    2.8882    0.0485 C   0  0  0  0  0  0  0  0  0  0  0  0
    0.9164    3.1883    0.2951 H   0  0  0  0  0  0  0  0  0  0  0  0
   -0.6602    3.1803    0.7226 H   0  0  0  0  0  0  0  0  0  0  0  0
   -0.2549    3.3616   -0.8985 H   0  0  0  0  0  0  0  0  0  0  0  0
   -0.0011    1.3978    0.0014 C   0  0  0  0  0  0  0  0  0  0  0  0
   -1.1996    0.7010   -0.0031 C   0  0  0  0  0  0  0  0  0  0  0  0
   -2.0630    1.1926   -0.0105 H   0  0  0  0  0  0  0  0  0  0  0  0
   -1.2047   -0.6879   -0.0000 C   0  0  0  0  0  0  0  0  0  0  0  0
   -2.0793   -1.1842    0.0023 H   0  0  0  0  0  0  0  0  0  0  0  0
    0.0029   -1.3946    0.0014 C   0  0  0  0  0  0  0  0  0  0  0  0
   -0.0099   -2.3909    0.0025 H   0  0  0  0  0  0  0  0  0  0  0  0
    1.2047   -0.7010   -0.0000 C   0  0  0  0  0  0  0  0  0  0  0  0
    2.0844   -1.2010    0.0005 H   0  0  0  0  0  0  0  0  0  0  0  0
    1.1979    0.6848    0.0003 C   0  0  0  0  0  0  0  0  0  0  0  0
    2.0656    1.1856   -0.0016 H   0  0  0  0  0  0  0  0  0  0  0  0
  1  5  1  0
  5  6  1  0
  5  7  2  0
  1  2  1  0
  1  3  1  0
  1  4  1  0
  8 12  1  0
 12 13  2  0
 13 15  1  0
 15 17  2  0
 17 19  1  0
 19 21  2  0
 21 12  1  0
  8  9  1  0
  8 10  1  0
  8 11  1  0
 13 14  1  0
 15 16  1  0
 17 18  1  0
 19 20  1  0
 21 22  1  0
M  CHG  1   6  -1
M  END
>  <PDB_ID>  (318) 
pdb1exn

>  <RESIDUE_NAME>  (318) 
GLU   PHE

>  <FRAG_NAME>  (318) 
ACET   MBZ

>  <FRAG_ATOM_NUM>  (318) 
fragi: 7  fragj: 15

>  <atom.prop.CHAIN_ID>  (318) 
A A A A A A A Z Z Z Z Z Z Z Z Z Z Z Z Z Z Z

>  <atom.prop.IS_HEAVY_ATOM>  (318) 
1 0 0 0 1 1 1 1 0 0 0 1 1 0 1 0 1 0 1 0 1 0

>  <DIFUSE_FUNC_ATOM>  (318) 
atom 6   atom 7   

>  <FINAL_SINGLE_POINT_ENERGY>  (318) 
0

>  <NONCOV_INTER_ENERGY_QM>  (318) 
0

>  <FF_Energy>  (318) 
6.05

>  <QM_Energy>  (318) 
-0.82

>  <source>  (318) 
ACET_MBZ_00

>  <Index>  (318) 
11180

$$$$
ACET-pdb1exz-D-GLU-647:MBZ-pdb1exz-D-PHE-702
     RDKit          3D

 22 21  0  0  0  0  0  0  0  0999 V2000
    1.5738    1.3094   -2.4486 C   0  0  0  0  0  0  0  0  0  0  0  0
    1.4828    1.9252   -1.6880 H   0  0  0  0  0  0  0  0  0  0  0  0
    2.4734    1.3348   -2.8430 H   0  0  0  0  0  0  0  0  0  0  0  0
    1.3826    0.2968   -2.0934 H   0  0  0  0  0  0  0  0  0  0  0  0
    0.5916    1.7602   -3.5218 C   0  0  0  0  0  0  0  0  0  0  0  0
   -0.6263    1.8058   -3.2396 O   0  0  0  0  0  1  0  0  0  0  0  0
    1.0417    2.0728   -4.6449 O   0  0  0  0  0  0  0  0  0  0  0  0
   -0.0084    2.8936   -0.0243 C   0  0  0  0  0  0  0  0  0  0  0  0
   -0.8180    3.1910   -0.5378 H   0  0  0  0  0  0  0  0  0  0  0  0
    0.8148    3.2019   -0.5077 H   0  0  0  0  0  0  0  0  0  0  0  0
   -0.0296    3.4007    0.9404 H   0  0  0  0  0  0  0  0  0  0  0  0
    0.0017    1.3988   -0.0077 C   0  0  0  0  0  0  0  0  0  0  0  0
   -1.1981    0.6930   -0.0084 C   0  0  0  0  0  0  0  0  0  0  0  0
   -2.0631    1.1946   -0.0170 H   0  0  0  0  0  0  0  0  0  0  0  0
   -1.2196   -0.6922    0.0000 C   0  0  0  0  0  0  0  0  0  0  0  0
   -2.0886   -1.1848   -0.0112 H   0  0  0  0  0  0  0  0  0  0  0  0
   -0.0070   -1.3908    0.0248 C   0  0  0  0  0  0  0  0  0  0  0  0
   -0.0122   -2.3896    0.0613 H   0  0  0  0  0  0  0  0  0  0  0  0
    1.2196   -0.7013   -0.0000 C   0  0  0  0  0  0  0  0  0  0  0  0
    2.0850   -1.2014   -0.0102 H   0  0  0  0  0  0  0  0  0  0  0  0
    1.2034    0.6924   -0.0087 C   0  0  0  0  0  0  0  0  0  0  0  0
    2.0694    1.1935   -0.0182 H   0  0  0  0  0  0  0  0  0  0  0  0
  1  5  1  0
  5  6  1  0
  5  7  2  0
  1  2  1  0
  1  3  1  0
  1  4  1  0
  8 12  1  0
 12 13  2  0
 13 15  1  0
 15 17  2  0
 17 19  1  0
 19 21  2  0
 21 12  1  0
  8  9  1  0
  8 10  1  0
  8 11  1  0
 13 14  1  0
 15 16  1  0
 17 18  1  0
 19 20  1  0
 21 22  1  0
M  CHG  1   6  -1
M  END
>  <PDB_ID>  (319) 
pdb1exz

>  <RESIDUE_NAME>  (319) 
GLU   PHE

>  <FRAG_NAME>  (319) 
ACET   MBZ

>  <FRAG_ATOM_NUM>  (319) 
fragi: 7  fragj: 15

>  <atom.prop.CHAIN_ID>  (319) 
A A A A A A A Z Z Z Z Z Z Z Z Z Z Z Z Z Z Z

>  <atom.prop.IS_HEAVY_ATOM>  (319) 
1 0 0 0 1 1 1 1 0 0 0 1 1 0 1 0 1 0 1 0 1 0

>  <DIFUSE_FUNC_ATOM>  (319) 
atom 6   atom 7   

>  <FINAL_SINGLE_POINT_ENERGY>  (319) 
0

>  <NONCOV_INTER_ENERGY_QM>  (319) 
0

>  <FF_Energy>  (319) 
49.09

>  <QM_Energy>  (319) 
15.04

>  <source>  (319) 
ACET_MBZ_00

>  <Index>  (319) 
11209

$$$$
ACET-pdb1eyz-B-GLU-115:MBZ-pdb1eyz-B-PHE-134
     RDKit          3D

 22 21  0  0  0  0  0  0  0  0999 V2000
   -1.1754   -0.9573    2.9618 C   0  0  0  0  0  0  0  0  0  0  0  0
   -0.2386   -1.2122    3.1625 H   0  0  0  0  0  0  0  0  0  0  0  0
   -1.3024   -0.8212    1.9878 H   0  0  0  0  0  0  0  0  0  0  0  0
   -1.8143   -1.7863    3.2662 H   0  0  0  0  0  0  0  0  0  0  0  0
   -1.4685    0.3274    3.6539 C   0  0  0  0  0  0  0  0  0  0  0  0
   -0.5913    1.1189    3.9322 O   0  0  0  0  0  1  0  0  0  0  0  0
   -2.7407    0.4993    3.9068 O   0  0  0  0  0  0  0  0  0  0  0  0
   -0.0105    2.8733   -0.0279 C   0  0  0  0  0  0  0  0  0  0  0  0
    0.8045    3.2026    0.3907 H   0  0  0  0  0  0  0  0  0  0  0  0
   -0.8277    3.1910    0.3959 H   0  0  0  0  0  0  0  0  0  0  0  0
   -0.0160    3.2140   -1.0632 H   0  0  0  0  0  0  0  0  0  0  0  0
    0.0002    1.3938    0.0026 C   0  0  0  0  0  0  0  0  0  0  0  0
   -1.2088    0.6952   -0.0038 C   0  0  0  0  0  0  0  0  0  0  0  0
   -2.0674    1.1873   -0.0127 H   0  0  0  0  0  0  0  0  0  0  0  0
   -1.2103   -0.6973   -0.0000 C   0  0  0  0  0  0  0  0  0  0  0  0
   -2.0807   -1.1952   -0.0063 H   0  0  0  0  0  0  0  0  0  0  0  0
    0.0011   -1.3878    0.0139 C   0  0  0  0  0  0  0  0  0  0  0  0
   -0.0031   -2.3902    0.0337 H   0  0  0  0  0  0  0  0  0  0  0  0
    1.2103   -0.6977    0.0000 C   0  0  0  0  0  0  0  0  0  0  0  0
    2.0861   -1.1993    0.0003 H   0  0  0  0  0  0  0  0  0  0  0  0
    1.2075    0.6937   -0.0127 C   0  0  0  0  0  0  0  0  0  0  0  0
    2.0677    1.1929   -0.0341 H   0  0  0  0  0  0  0  0  0  0  0  0
  1  5  1  0
  5  6  1  0
  5  7  2  0
  1  2  1  0
  1  3  1  0
  1  4  1  0
  8 12  1  0
 12 13  2  0
 13 15  1  0
 15 17  2  0
 17 19  1  0
 19 21  2  0
 21 12  1  0
  8  9  1  0
  8 10  1  0
  8 11  1  0
 13 14  1  0
 15 16  1  0
 17 18  1  0
 19 20  1  0
 21 22  1  0
M  CHG  1   6  -1
M  END
>  <PDB_ID>  (320) 
pdb1eyz

>  <RESIDUE_NAME>  (320) 
GLU   PHE

>  <FRAG_NAME>  (320) 
ACET   MBZ

>  <FRAG_ATOM_NUM>  (320) 
fragi: 7  fragj: 15

>  <atom.prop.CHAIN_ID>  (320) 
A A A A A A A Z Z Z Z Z Z Z Z Z Z Z Z Z Z Z

>  <atom.prop.IS_HEAVY_ATOM>  (320) 
1 0 0 0 1 1 1 1 0 0 0 1 1 0 1 0 1 0 1 0 1 0

>  <DIFUSE_FUNC_ATOM>  (320) 
atom 6   atom 7   

>  <FINAL_SINGLE_POINT_ENERGY>  (320) 
0

>  <NONCOV_INTER_ENERGY_QM>  (320) 
0

>  <FF_Energy>  (320) 
23.2

>  <QM_Energy>  (320) 
5.17

>  <source>  (320) 
ACET_MBZ_00

>  <Index>  (320) 
11270

$$$$
ACET-pdb1ezf-B-ASP-223:MBZ-pdb1ezf-B-PHE-230
     RDKit          3D

 22 21  0  0  0  0  0  0  0  0999 V2000
    5.9811    0.8581   -0.9036 C   0  0  0  0  0  0  0  0  0  0  0  0
    6.2498    1.8120   -0.9506 H   0  0  0  0  0  0  0  0  0  0  0  0
    5.3333    0.6402   -1.6226 H   0  0  0  0  0  0  0  0  0  0  0  0
    6.8720    0.2488   -1.0566 H   0  0  0  0  0  0  0  0  0  0  0  0
    5.3229    0.6018    0.4420 C   0  0  0  0  0  0  0  0  0  0  0  0
    5.9854    0.0689    1.3528 O   0  0  0  0  0  1  0  0  0  0  0  0
    4.1347    0.9386    0.5932 O   0  0  0  0  0  0  0  0  0  0  0  0
   -0.0037    2.9020   -0.0869 C   0  0  0  0  0  0  0  0  0  0  0  0
    0.8850    3.2269    0.1914 H   0  0  0  0  0  0  0  0  0  0  0  0
   -0.7177    3.2415    0.5033 H   0  0  0  0  0  0  0  0  0  0  0  0
   -0.1959    3.2778   -1.0918 H   0  0  0  0  0  0  0  0  0  0  0  0
   -0.0004    1.4017   -0.0017 C   0  0  0  0  0  0  0  0  0  0  0  0
   -1.1976    0.6914    0.0026 C   0  0  0  0  0  0  0  0  0  0  0  0
   -2.0646    1.1831    0.0060 H   0  0  0  0  0  0  0  0  0  0  0  0
   -1.2033   -0.6980   -0.0000 C   0  0  0  0  0  0  0  0  0  0  0  0
   -2.0760   -1.1939    0.0019 H   0  0  0  0  0  0  0  0  0  0  0  0
    0.0038   -1.3943   -0.0034 C   0  0  0  0  0  0  0  0  0  0  0  0
   -0.0002   -2.3924   -0.0087 H   0  0  0  0  0  0  0  0  0  0  0  0
    1.2033   -0.6955    0.0000 C   0  0  0  0  0  0  0  0  0  0  0  0
    2.0852   -1.1911    0.0024 H   0  0  0  0  0  0  0  0  0  0  0  0
    1.1942    0.6947    0.0024 C   0  0  0  0  0  0  0  0  0  0  0  0
    2.0639    1.1923    0.0067 H   0  0  0  0  0  0  0  0  0  0  0  0
  1  5  1  0
  5  6  1  0
  5  7  2  0
  1  2  1  0
  1  3  1  0
  1  4  1  0
  8 12  1  0
 12 13  2  0
 13 15  1  0
 15 17  2  0
 17 19  1  0
 19 21  2  0
 21 12  1  0
  8  9  1  0
  8 10  1  0
  8 11  1  0
 13 14  1  0
 15 16  1  0
 17 18  1  0
 19 20  1  0
 21 22  1  0
M  CHG  1   6  -1
M  END
>  <PDB_ID>  (321) 
pdb1ezf

>  <RESIDUE_NAME>  (321) 
ASP   PHE

>  <FRAG_NAME>  (321) 
ACET   MBZ

>  <FRAG_ATOM_NUM>  (321) 
fragi: 7  fragj: 15

>  <atom.prop.CHAIN_ID>  (321) 
A A A A A A A Z Z Z Z Z Z Z Z Z Z Z Z Z Z Z

>  <atom.prop.IS_HEAVY_ATOM>  (321) 
1 0 0 0 1 1 1 1 0 0 0 1 1 0 1 0 1 0 1 0 1 0

>  <DIFUSE_FUNC_ATOM>  (321) 
atom 6   atom 7   

>  <FINAL_SINGLE_POINT_ENERGY>  (321) 
0

>  <NONCOV_INTER_ENERGY_QM>  (321) 
0

>  <FF_Energy>  (321) 
0.13

>  <QM_Energy>  (321) 
-6.5

>  <source>  (321) 
ACET_MBZ_00

>  <Index>  (321) 
11306

$$$$
ACET-pdb1f0y-A-ASP-233:MBZ-pdb1f0y-A-PHE-247
     RDKit          3D

 22 21  0  0  0  0  0  0  0  0999 V2000
    5.2060    4.2114    0.0519 C   0  0  0  0  0  0  0  0  0  0  0  0
    5.3888    4.1405    1.0256 H   0  0  0  0  0  0  0  0  0  0  0  0
    5.4583    5.1096   -0.2863 H   0  0  0  0  0  0  0  0  0  0  0  0
    5.8273    3.4758   -0.4589 H   0  0  0  0  0  0  0  0  0  0  0  0
    3.7136    4.0005   -0.1823 C   0  0  0  0  0  0  0  0  0  0  0  0
    3.3352    3.3371   -1.1682 O   0  0  0  0  0  1  0  0  0  0  0  0
    2.9106    4.5384    0.6090 O   0  0  0  0  0  0  0  0  0  0  0  0
   -0.0106    2.8999   -0.1155 C   0  0  0  0  0  0  0  0  0  0  0  0
    0.8932    3.2303    0.0951 H   0  0  0  0  0  0  0  0  0  0  0  0
   -0.6866    3.2512    0.5094 H   0  0  0  0  0  0  0  0  0  0  0  0
   -0.2683    3.2465   -1.1163 H   0  0  0  0  0  0  0  0  0  0  0  0
   -0.0008    1.4042   -0.0013 C   0  0  0  0  0  0  0  0  0  0  0  0
   -1.1984    0.6902    0.0013 C   0  0  0  0  0  0  0  0  0  0  0  0
   -2.0661    1.1809    0.0033 H   0  0  0  0  0  0  0  0  0  0  0  0
   -1.2053   -0.7031    0.0000 C   0  0  0  0  0  0  0  0  0  0  0  0
   -2.0784   -1.1963    0.0024 H   0  0  0  0  0  0  0  0  0  0  0  0
    0.0015   -1.3987   -0.0025 C   0  0  0  0  0  0  0  0  0  0  0  0
    0.0019   -2.3946   -0.0061 H   0  0  0  0  0  0  0  0  0  0  0  0
    1.2053   -0.6938    0.0000 C   0  0  0  0  0  0  0  0  0  0  0  0
    2.0865   -1.1887    0.0012 H   0  0  0  0  0  0  0  0  0  0  0  0
    1.1977    0.7013    0.0024 C   0  0  0  0  0  0  0  0  0  0  0  0
    2.0647    1.1973    0.0061 H   0  0  0  0  0  0  0  0  0  0  0  0
  1  5  1  0
  5  6  1  0
  5  7  2  0
  1  2  1  0
  1  3  1  0
  1  4  1  0
  8 12  1  0
 12 13  2  0
 13 15  1  0
 15 17  2  0
 17 19  1  0
 19 21  2  0
 21 12  1  0
  8  9  1  0
  8 10  1  0
  8 11  1  0
 13 14  1  0
 15 16  1  0
 17 18  1  0
 19 20  1  0
 21 22  1  0
M  CHG  1   6  -1
M  END
>  <PDB_ID>  (322) 
pdb1f0y

>  <RESIDUE_NAME>  (322) 
ASP   PHE

>  <FRAG_NAME>  (322) 
ACET   MBZ

>  <FRAG_ATOM_NUM>  (322) 
fragi: 7  fragj: 15

>  <atom.prop.CHAIN_ID>  (322) 
A A A A A A A Z Z Z Z Z Z Z Z Z Z Z Z Z Z Z

>  <atom.prop.IS_HEAVY_ATOM>  (322) 
1 0 0 0 1 1 1 1 0 0 0 1 1 0 1 0 1 0 1 0 1 0

>  <DIFUSE_FUNC_ATOM>  (322) 
atom 6   atom 7   

>  <FINAL_SINGLE_POINT_ENERGY>  (322) 
0

>  <NONCOV_INTER_ENERGY_QM>  (322) 
0

>  <FF_Energy>  (322) 
-2.22

>  <QM_Energy>  (322) 
-8.62

>  <source>  (322) 
ACET_MBZ_00

>  <Index>  (322) 
11397

$$$$
ACET-pdb1f0x-B-GLU-1403:MBZ-pdb1f0x-B-PHE-1300
     RDKit          3D

 22 21  0  0  0  0  0  0  0  0999 V2000
   -0.4566    0.3336   -3.8119 C   0  0  0  0  0  0  0  0  0  0  0  0
   -0.3061   -0.1445   -2.9694 H   0  0  0  0  0  0  0  0  0  0  0  0
    0.2669    0.1958   -4.4597 H   0  0  0  0  0  0  0  0  0  0  0  0
   -1.3941   -0.0091   -4.2498 H   0  0  0  0  0  0  0  0  0  0  0  0
   -0.4894    1.8236   -3.4843 C   0  0  0  0  0  0  0  0  0  0  0  0
   -1.5573    2.2762   -2.9867 O   0  0  0  0  0  1  0  0  0  0  0  0
    0.5143    2.5322   -3.7248 O   0  0  0  0  0  0  0  0  0  0  0  0
    0.0170    2.9055    0.0861 C   0  0  0  0  0  0  0  0  0  0  0  0
    0.0233    3.1598    1.0403 H   0  0  0  0  0  0  0  0  0  0  0  0
   -0.7891    3.2434   -0.3741 H   0  0  0  0  0  0  0  0  0  0  0  0
    0.8838    3.3700   -0.3841 H   0  0  0  0  0  0  0  0  0  0  0  0
    0.0092    1.4018    0.0018 C   0  0  0  0  0  0  0  0  0  0  0  0
   -1.2018    0.7006   -0.0051 C   0  0  0  0  0  0  0  0  0  0  0  0
   -2.0614    1.1909   -0.0152 H   0  0  0  0  0  0  0  0  0  0  0  0
   -1.2112   -0.7043    0.0000 C   0  0  0  0  0  0  0  0  0  0  0  0
   -2.0890   -1.1877   -0.0013 H   0  0  0  0  0  0  0  0  0  0  0  0
   -0.0128   -1.3960    0.0088 C   0  0  0  0  0  0  0  0  0  0  0  0
   -0.0041   -2.3939    0.0208 H   0  0  0  0  0  0  0  0  0  0  0  0
    1.2112   -0.6921    0.0000 C   0  0  0  0  0  0  0  0  0  0  0  0
    2.0803   -1.2023   -0.0003 H   0  0  0  0  0  0  0  0  0  0  0  0
    1.2054    0.6900   -0.0056 C   0  0  0  0  0  0  0  0  0  0  0  0
    2.0739    1.1913   -0.0158 H   0  0  0  0  0  0  0  0  0  0  0  0
  1  5  1  0
  5  6  1  0
  5  7  2  0
  1  2  1  0
  1  3  1  0
  1  4  1  0
  8 12  1  0
 12 13  2  0
 13 15  1  0
 15 17  2  0
 17 19  1  0
 19 21  2  0
 21 12  1  0
  8  9  1  0
  8 10  1  0
  8 11  1  0
 13 14  1  0
 15 16  1  0
 17 18  1  0
 19 20  1  0
 21 22  1  0
M  CHG  1   6  -1
M  END
>  <PDB_ID>  (323) 
pdb1f0x

>  <RESIDUE_NAME>  (323) 
GLU   PHE

>  <FRAG_NAME>  (323) 
ACET   MBZ

>  <FRAG_ATOM_NUM>  (323) 
fragi: 7  fragj: 15

>  <atom.prop.CHAIN_ID>  (323) 
A A A A A A A Z Z Z Z Z Z Z Z Z Z Z Z Z Z Z

>  <atom.prop.IS_HEAVY_ATOM>  (323) 
1 0 0 0 1 1 1 1 0 0 0 1 1 0 1 0 1 0 1 0 1 0

>  <DIFUSE_FUNC_ATOM>  (323) 
atom 6   atom 7   

>  <FINAL_SINGLE_POINT_ENERGY>  (323) 
0

>  <NONCOV_INTER_ENERGY_QM>  (323) 
0

>  <FF_Energy>  (323) 
-0.03

>  <QM_Energy>  (323) 
-5.49

>  <source>  (323) 
ACET_MBZ_00

>  <Index>  (323) 
11412

$$$$
ACET-pdb1f1s-A-ASP-751:MBZ-pdb1f1s-A-PHE-735
     RDKit          3D

 22 21  0  0  0  0  0  0  0  0999 V2000
    3.2757    4.7766   -1.0545 C   0  0  0  0  0  0  0  0  0  0  0  0
    2.6308    4.9615   -0.3223 H   0  0  0  0  0  0  0  0  0  0  0  0
    3.3639    5.5678   -1.6489 H   0  0  0  0  0  0  0  0  0  0  0  0
    4.2492    4.5811   -0.6049 H   0  0  0  0  0  0  0  0  0  0  0  0
    2.7605    3.6060   -1.8737 C   0  0  0  0  0  0  0  0  0  0  0  0
    3.4355    2.5502   -1.9114 O   0  0  0  0  0  1  0  0  0  0  0  0
    1.6773    3.7464   -2.4798 O   0  0  0  0  0  0  0  0  0  0  0  0
   -0.0042    2.8960    0.0378 C   0  0  0  0  0  0  0  0  0  0  0  0
   -0.6413    3.2199   -0.6448 H   0  0  0  0  0  0  0  0  0  0  0  0
    0.9143    3.2107   -0.1477 H   0  0  0  0  0  0  0  0  0  0  0  0
   -0.3093    3.3061    1.0005 H   0  0  0  0  0  0  0  0  0  0  0  0
   -0.0004    1.3995    0.0006 C   0  0  0  0  0  0  0  0  0  0  0  0
   -1.2002    0.6919   -0.0002 C   0  0  0  0  0  0  0  0  0  0  0  0
   -2.0647    1.1860   -0.0027 H   0  0  0  0  0  0  0  0  0  0  0  0
   -1.2070   -0.6957   -0.0000 C   0  0  0  0  0  0  0  0  0  0  0  0
   -2.0800   -1.1922    0.0006 H   0  0  0  0  0  0  0  0  0  0  0  0
    0.0005   -1.3926    0.0006 C   0  0  0  0  0  0  0  0  0  0  0  0
   -0.0039   -2.3915    0.0013 H   0  0  0  0  0  0  0  0  0  0  0  0
    1.2070   -0.6966    0.0000 C   0  0  0  0  0  0  0  0  0  0  0  0
    2.0855   -1.1954    0.0019 H   0  0  0  0  0  0  0  0  0  0  0  0
    1.2002    0.6934   -0.0010 C   0  0  0  0  0  0  0  0  0  0  0  0
    2.0660    1.1927   -0.0038 H   0  0  0  0  0  0  0  0  0  0  0  0
  1  5  1  0
  5  6  1  0
  5  7  2  0
  1  2  1  0
  1  3  1  0
  1  4  1  0
  8 12  1  0
 12 13  2  0
 13 15  1  0
 15 17  2  0
 17 19  1  0
 19 21  2  0
 21 12  1  0
  8  9  1  0
  8 10  1  0
  8 11  1  0
 13 14  1  0
 15 16  1  0
 17 18  1  0
 19 20  1  0
 21 22  1  0
M  CHG  1   6  -1
M  END
>  <PDB_ID>  (324) 
pdb1f1s

>  <RESIDUE_NAME>  (324) 
ASP   PHE

>  <FRAG_NAME>  (324) 
ACET   MBZ

>  <FRAG_ATOM_NUM>  (324) 
fragi: 7  fragj: 15

>  <atom.prop.CHAIN_ID>  (324) 
A A A A A A A Z Z Z Z Z Z Z Z Z Z Z Z Z Z Z

>  <atom.prop.IS_HEAVY_ATOM>  (324) 
1 0 0 0 1 1 1 1 0 0 0 1 1 0 1 0 1 0 1 0 1 0

>  <DIFUSE_FUNC_ATOM>  (324) 
atom 6   atom 7   

>  <FINAL_SINGLE_POINT_ENERGY>  (324) 
0

>  <NONCOV_INTER_ENERGY_QM>  (324) 
0

>  <FF_Energy>  (324) 
0.01

>  <QM_Energy>  (324) 
-5.73

>  <source>  (324) 
ACET_MBZ_00

>  <Index>  (324) 
11479

$$$$
ACET-pdb1f32-A-GLU-115:MBZ-pdb1f32-A-PHE-2
     RDKit          3D

 22 21  0  0  0  0  0  0  0  0999 V2000
    0.2905   -6.0111   -1.4036 C   0  0  0  0  0  0  0  0  0  0  0  0
    0.9244   -5.8001   -2.1231 H   0  0  0  0  0  0  0  0  0  0  0  0
   -0.6409   -6.0213   -1.7152 H   0  0  0  0  0  0  0  0  0  0  0  0
    0.5331   -6.9990   -1.0121 H   0  0  0  0  0  0  0  0  0  0  0  0
    0.4117   -4.9332   -0.3532 C   0  0  0  0  0  0  0  0  0  0  0  0
    1.5545   -4.6136    0.0396 O   0  0  0  0  0  1  0  0  0  0  0  0
   -0.6379   -4.4136    0.0860 O   0  0  0  0  0  0  0  0  0  0  0  0
   -0.0051    2.9045   -0.0006 C   0  0  0  0  0  0  0  0  0  0  0  0
   -0.5409    3.2104   -0.7728 H   0  0  0  0  0  0  0  0  0  0  0  0
    0.9319    3.2144   -0.0678 H   0  0  0  0  0  0  0  0  0  0  0  0
   -0.4369    3.3432    0.8990 H   0  0  0  0  0  0  0  0  0  0  0  0
   -0.0011    1.4049   -0.0003 C   0  0  0  0  0  0  0  0  0  0  0  0
   -1.1998    0.6954   -0.0001 C   0  0  0  0  0  0  0  0  0  0  0  0
   -2.0662    1.1851   -0.0016 H   0  0  0  0  0  0  0  0  0  0  0  0
   -1.2062   -0.6992    0.0000 C   0  0  0  0  0  0  0  0  0  0  0  0
   -2.0799   -1.1925    0.0009 H   0  0  0  0  0  0  0  0  0  0  0  0
    0.0019   -1.3977    0.0004 C   0  0  0  0  0  0  0  0  0  0  0  0
   -0.0038   -2.3954    0.0004 H   0  0  0  0  0  0  0  0  0  0  0  0
    1.2062   -0.7000   -0.0000 C   0  0  0  0  0  0  0  0  0  0  0  0
    2.0861   -1.1947    0.0010 H   0  0  0  0  0  0  0  0  0  0  0  0
    1.1991    0.6966    0.0001 C   0  0  0  0  0  0  0  0  0  0  0  0
    2.0667    1.1926   -0.0005 H   0  0  0  0  0  0  0  0  0  0  0  0
  1  5  1  0
  5  6  1  0
  5  7  2  0
  1  2  1  0
  1  3  1  0
  1  4  1  0
  8 12  1  0
 12 13  2  0
 13 15  1  0
 15 17  2  0
 17 19  1  0
 19 21  2  0
 21 12  1  0
  8  9  1  0
  8 10  1  0
  8 11  1  0
 13 14  1  0
 15 16  1  0
 17 18  1  0
 19 20  1  0
 21 22  1  0
M  CHG  1   6  -1
M  END
>  <PDB_ID>  (325) 
pdb1f32

>  <RESIDUE_NAME>  (325) 
GLU   PHE

>  <FRAG_NAME>  (325) 
ACET   MBZ

>  <FRAG_ATOM_NUM>  (325) 
fragi: 7  fragj: 15

>  <atom.prop.CHAIN_ID>  (325) 
A A A A A A A Z Z Z Z Z Z Z Z Z Z Z Z Z Z Z

>  <atom.prop.IS_HEAVY_ATOM>  (325) 
1 0 0 0 1 1 1 1 0 0 0 1 1 0 1 0 1 0 1 0 1 0

>  <DIFUSE_FUNC_ATOM>  (325) 
atom 6   atom 7   

>  <FINAL_SINGLE_POINT_ENERGY>  (325) 
0

>  <NONCOV_INTER_ENERGY_QM>  (325) 
0

>  <FF_Energy>  (325) 
0.44

>  <QM_Energy>  (325) 
-7.2

>  <source>  (325) 
ACET_MBZ_00

>  <Index>  (325) 
11603

$$$$
ACET-pdb1f3a-B-GLU-136:MBZ-pdb1f3a-B-PHE-177
     RDKit          3D

 22 21  0  0  0  0  0  0  0  0999 V2000
   -4.4359    2.8583    0.6631 C   0  0  0  0  0  0  0  0  0  0  0  0
   -4.3030    2.2094   -0.0623 H   0  0  0  0  0  0  0  0  0  0  0  0
   -5.3556    3.2032    0.6924 H   0  0  0  0  0  0  0  0  0  0  0  0
   -4.2459    2.3432    1.6048 H   0  0  0  0  0  0  0  0  0  0  0  0
   -3.5013    4.0444    0.4048 C   0  0  0  0  0  0  0  0  0  0  0  0
   -2.5562    4.2546    1.1916 O   0  0  0  0  0  1  0  0  0  0  0  0
   -3.7047    4.7625   -0.6058 O   0  0  0  0  0  0  0  0  0  0  0  0
    0.0218    2.9241    0.0011 C   0  0  0  0  0  0  0  0  0  0  0  0
    0.8968    3.2242    0.3365 H   0  0  0  0  0  0  0  0  0  0  0  0
   -0.7191    3.2323    0.5704 H   0  0  0  0  0  0  0  0  0  0  0  0
   -0.1199    3.3510   -0.9917 H   0  0  0  0  0  0  0  0  0  0  0  0
    0.0142    1.4133    0.0011 C   0  0  0  0  0  0  0  0  0  0  0  0
   -1.1875    0.7031   -0.0034 C   0  0  0  0  0  0  0  0  0  0  0  0
   -2.0538    1.1931   -0.0108 H   0  0  0  0  0  0  0  0  0  0  0  0
   -1.2052   -0.7039   -0.0000 C   0  0  0  0  0  0  0  0  0  0  0  0
   -2.1003   -1.1723    0.0045 H   0  0  0  0  0  0  0  0  0  0  0  0
   -0.0348   -1.4091   -0.0016 C   0  0  0  0  0  0  0  0  0  0  0  0
   -0.0234   -2.4017   -0.0045 H   0  0  0  0  0  0  0  0  0  0  0  0
    1.2052   -0.7045    0.0000 C   0  0  0  0  0  0  0  0  0  0  0  0
    2.0685   -1.2125    0.0001 H   0  0  0  0  0  0  0  0  0  0  0  0
    1.2081    0.7012    0.0039 C   0  0  0  0  0  0  0  0  0  0  0  0
    2.0792    1.1865    0.0075 H   0  0  0  0  0  0  0  0  0  0  0  0
  1  5  1  0
  5  6  1  0
  5  7  2  0
  1  2  1  0
  1  3  1  0
  1  4  1  0
  8 12  1  0
 12 13  2  0
 13 15  1  0
 15 17  2  0
 17 19  1  0
 19 21  2  0
 21 12  1  0
  8  9  1  0
  8 10  1  0
  8 11  1  0
 13 14  1  0
 15 16  1  0
 17 18  1  0
 19 20  1  0
 21 22  1  0
M  CHG  1   6  -1
M  END
>  <PDB_ID>  (326) 
pdb1f3a

>  <RESIDUE_NAME>  (326) 
GLU   PHE

>  <FRAG_NAME>  (326) 
ACET   MBZ

>  <FRAG_ATOM_NUM>  (326) 
fragi: 7  fragj: 15

>  <atom.prop.CHAIN_ID>  (326) 
A A A A A A A Z Z Z Z Z Z Z Z Z Z Z Z Z Z Z

>  <atom.prop.IS_HEAVY_ATOM>  (326) 
1 0 0 0 1 1 1 1 0 0 0 1 1 0 1 0 1 0 1 0 1 0

>  <DIFUSE_FUNC_ATOM>  (326) 
atom 6   atom 7   

>  <FINAL_SINGLE_POINT_ENERGY>  (326) 
0

>  <NONCOV_INTER_ENERGY_QM>  (326) 
0

>  <FF_Energy>  (326) 
-0.31

>  <QM_Energy>  (326) 
-6.76

>  <source>  (326) 
ACET_MBZ_00

>  <Index>  (326) 
11630

$$$$
ACET-pdb2fyf-B-GLU-153:MBZ-pdb2fyf-B-PHE-108
     RDKit          3D

 22 21  0  0  0  0  0  0  0  0999 V2000
    5.4096    3.9869   -1.3392 C   0  0  0  0  0  0  0  0  0  0  0  0
    5.7097    4.5411   -2.0930 H   0  0  0  0  0  0  0  0  0  0  0  0
    5.7874    3.0803   -1.3683 H   0  0  0  0  0  0  0  0  0  0  0  0
    5.7411    4.4636   -0.4167 H   0  0  0  0  0  0  0  0  0  0  0  0
    3.9174    3.8712   -1.4117 C   0  0  0  0  0  0  0  0  0  0  0  0
    3.2015    4.8905   -1.5572 O   0  0  0  0  0  1  0  0  0  0  0  0
    3.4439    2.7233   -1.3093 O   0  0  0  0  0  0  0  0  0  0  0  0
   -0.0253    2.9014   -0.0643 C   0  0  0  0  0  0  0  0  0  0  0  0
    0.8697    3.2365    0.1365 H   0  0  0  0  0  0  0  0  0  0  0  0
   -0.7100    3.2271    0.5510 H   0  0  0  0  0  0  0  0  0  0  0  0
   -0.2901    3.2438   -1.0647 H   0  0  0  0  0  0  0  0  0  0  0  0
    0.0026    1.4002    0.0069 C   0  0  0  0  0  0  0  0  0  0  0  0
   -1.1840    0.6991   -0.0074 C   0  0  0  0  0  0  0  0  0  0  0  0
   -2.0533    1.1878   -0.0244 H   0  0  0  0  0  0  0  0  0  0  0  0
   -1.1861   -0.6847    0.0000 C   0  0  0  0  0  0  0  0  0  0  0  0
   -2.0755   -1.1747    0.0110 H   0  0  0  0  0  0  0  0  0  0  0  0
   -0.0068   -1.3853   -0.0061 C   0  0  0  0  0  0  0  0  0  0  0  0
   -0.0181   -2.3871   -0.0159 H   0  0  0  0  0  0  0  0  0  0  0  0
    1.1861   -0.7045    0.0000 C   0  0  0  0  0  0  0  0  0  0  0  0
    2.0685   -1.2074    0.0017 H   0  0  0  0  0  0  0  0  0  0  0  0
    1.1882    0.6751    0.0066 C   0  0  0  0  0  0  0  0  0  0  0  0
    2.0638    1.1705    0.0104 H   0  0  0  0  0  0  0  0  0  0  0  0
  1  5  1  0
  5  6  1  0
  5  7  2  0
  1  2  1  0
  1  3  1  0
  1  4  1  0
  8 12  1  0
 12 13  2  0
 13 15  1  0
 15 17  2  0
 17 19  1  0
 19 21  2  0
 21 12  1  0
  8  9  1  0
  8 10  1  0
  8 11  1  0
 13 14  1  0
 15 16  1  0
 17 18  1  0
 19 20  1  0
 21 22  1  0
M  CHG  1   6  -1
M  END
>  <PDB_ID>  (327) 
pdb2fyf

>  <RESIDUE_NAME>  (327) 
GLU   PHE

>  <FRAG_NAME>  (327) 
ACET   MBZ

>  <FRAG_ATOM_NUM>  (327) 
fragi: 7  fragj: 15

>  <atom.prop.CHAIN_ID>  (327) 
A A A A A A A Z Z Z Z Z Z Z Z Z Z Z Z Z Z Z

>  <atom.prop.IS_HEAVY_ATOM>  (327) 
1 0 0 0 1 1 1 1 0 0 0 1 1 0 1 0 1 0 1 0 1 0

>  <DIFUSE_FUNC_ATOM>  (327) 
atom 6   atom 7   

>  <FINAL_SINGLE_POINT_ENERGY>  (327) 
0

>  <NONCOV_INTER_ENERGY_QM>  (327) 
0

>  <FF_Energy>  (327) 
-1.86

>  <QM_Energy>  (327) 
-7.42

>  <source>  (327) 
ACET_MBZ_00

>  <Index>  (327) 
11663

$$$$
ACET-pdb2fys-A-ASP-249:MBZ-pdb2fys-A-PHE-294
     RDKit          3D

 22 21  0  0  0  0  0  0  0  0999 V2000
    3.4076    2.8810   -3.8935 C   0  0  0  0  0  0  0  0  0  0  0  0
    3.4730    3.2621   -4.8098 H   0  0  0  0  0  0  0  0  0  0  0  0
    3.2106    1.9073   -3.9366 H   0  0  0  0  0  0  0  0  0  0  0  0
    4.3761    3.0057   -3.4091 H   0  0  0  0  0  0  0  0  0  0  0  0
    2.2792    3.5770   -3.1546 C   0  0  0  0  0  0  0  0  0  0  0  0
    2.3057    3.6166   -1.9064 O   0  0  0  0  0  1  0  0  0  0  0  0
    1.3500    4.0723   -3.8315 O   0  0  0  0  0  0  0  0  0  0  0  0
   -0.0050    2.8970    0.0665 C   0  0  0  0  0  0  0  0  0  0  0  0
   -0.8502    3.2215   -0.3282 H   0  0  0  0  0  0  0  0  0  0  0  0
    0.7790    3.2325   -0.4327 H   0  0  0  0  0  0  0  0  0  0  0  0
    0.0571    3.2877    1.0821 H   0  0  0  0  0  0  0  0  0  0  0  0
    0.0011    1.4030    0.0010 C   0  0  0  0  0  0  0  0  0  0  0  0
   -1.1994    0.6944   -0.0007 C   0  0  0  0  0  0  0  0  0  0  0  0
   -2.0647    1.1858   -0.0035 H   0  0  0  0  0  0  0  0  0  0  0  0
   -1.2073   -0.7009    0.0000 C   0  0  0  0  0  0  0  0  0  0  0  0
   -2.0834   -1.1914    0.0010 H   0  0  0  0  0  0  0  0  0  0  0  0
   -0.0035   -1.3990    0.0010 C   0  0  0  0  0  0  0  0  0  0  0  0
   -0.0030   -2.3947    0.0017 H   0  0  0  0  0  0  0  0  0  0  0  0
    1.2073   -0.6954   -0.0000 C   0  0  0  0  0  0  0  0  0  0  0  0
    2.0852   -1.1953    0.0017 H   0  0  0  0  0  0  0  0  0  0  0  0
    1.2018    0.6979   -0.0013 C   0  0  0  0  0  0  0  0  0  0  0  0
    2.0669    1.1948   -0.0050 H   0  0  0  0  0  0  0  0  0  0  0  0
  1  5  1  0
  5  6  1  0
  5  7  2  0
  1  2  1  0
  1  3  1  0
  1  4  1  0
  8 12  1  0
 12 13  2  0
 13 15  1  0
 15 17  2  0
 17 19  1  0
 19 21  2  0
 21 12  1  0
  8  9  1  0
  8 10  1  0
  8 11  1  0
 13 14  1  0
 15 16  1  0
 17 18  1  0
 19 20  1  0
 21 22  1  0
M  CHG  1   6  -1
M  END
>  <PDB_ID>  (328) 
pdb2fys

>  <RESIDUE_NAME>  (328) 
ASP   PHE

>  <FRAG_NAME>  (328) 
ACET   MBZ

>  <FRAG_ATOM_NUM>  (328) 
fragi: 7  fragj: 15

>  <atom.prop.CHAIN_ID>  (328) 
A A A A A A A Z Z Z Z Z Z Z Z Z Z Z Z Z Z Z

>  <atom.prop.IS_HEAVY_ATOM>  (328) 
1 0 0 0 1 1 1 1 0 0 0 1 1 0 1 0 1 0 1 0 1 0

>  <DIFUSE_FUNC_ATOM>  (328) 
atom 6   atom 7   

>  <FINAL_SINGLE_POINT_ENERGY>  (328) 
0

>  <NONCOV_INTER_ENERGY_QM>  (328) 
0

>  <FF_Energy>  (328) 
1.4

>  <QM_Energy>  (328) 
-6.54

>  <source>  (328) 
ACET_MBZ_00

>  <Index>  (328) 
11674

$$$$
ACET-pdb2g18-K-ASP-95:MBZ-pdb2g18-G-PHE-0
     RDKit          3D

 22 21  0  0  0  0  0  0  0  0999 V2000
    5.8218    0.7053    0.9674 C   0  0  0  0  0  0  0  0  0  0  0  0
    6.0729    1.5384    1.4514 H   0  0  0  0  0  0  0  0  0  0  0  0
    5.6096    0.9096    0.0175 H   0  0  0  0  0  0  0  0  0  0  0  0
    6.6788    0.0319    0.9855 H   0  0  0  0  0  0  0  0  0  0  0  0
    4.6187    0.1047    1.6201 C   0  0  0  0  0  0  0  0  0  0  0  0
    4.7973   -0.7199    2.5199 O   0  0  0  0  0  1  0  0  0  0  0  0
    3.4617    0.3891    1.2843 O   0  0  0  0  0  0  0  0  0  0  0  0
    0.0049    2.8973    0.0207 C   0  0  0  0  0  0  0  0  0  0  0  0
   -0.8411    3.2185   -0.3761 H   0  0  0  0  0  0  0  0  0  0  0  0
    0.7875    3.2170   -0.4921 H   0  0  0  0  0  0  0  0  0  0  0  0
    0.0767    3.3119    1.0262 H   0  0  0  0  0  0  0  0  0  0  0  0
    0.0016    1.4085   -0.0054 C   0  0  0  0  0  0  0  0  0  0  0  0
   -1.1932    0.7050   -0.0047 C   0  0  0  0  0  0  0  0  0  0  0  0
   -2.0614    1.1931   -0.0088 H   0  0  0  0  0  0  0  0  0  0  0  0
   -1.2008   -0.6911    0.0000 C   0  0  0  0  0  0  0  0  0  0  0  0
   -2.0839   -1.1782    0.0002 H   0  0  0  0  0  0  0  0  0  0  0  0
   -0.0079   -1.3979    0.0063 C   0  0  0  0  0  0  0  0  0  0  0  0
   -0.0250   -2.3991    0.0153 H   0  0  0  0  0  0  0  0  0  0  0  0
    1.2008   -0.7207    0.0000 C   0  0  0  0  0  0  0  0  0  0  0  0
    2.0773   -1.2097   -0.0058 H   0  0  0  0  0  0  0  0  0  0  0  0
    1.1995    0.6962    0.0038 C   0  0  0  0  0  0  0  0  0  0  0  0
    2.0699    1.1793    0.0122 H   0  0  0  0  0  0  0  0  0  0  0  0
  1  5  1  0
  5  6  1  0
  5  7  2  0
  1  2  1  0
  1  3  1  0
  1  4  1  0
  8 12  1  0
 12 13  2  0
 13 15  1  0
 15 17  2  0
 17 19  1  0
 19 21  2  0
 21 12  1  0
  8  9  1  0
  8 10  1  0
  8 11  1  0
 13 14  1  0
 15 16  1  0
 17 18  1  0
 19 20  1  0
 21 22  1  0
M  CHG  1   6  -1
M  END
>  <PDB_ID>  (329) 
pdb2g18

>  <RESIDUE_NAME>  (329) 
ASP   PHE

>  <FRAG_NAME>  (329) 
ACET   MBZ

>  <FRAG_ATOM_NUM>  (329) 
fragi: 7  fragj: 15

>  <atom.prop.CHAIN_ID>  (329) 
A A A A A A A Z Z Z Z Z Z Z Z Z Z Z Z Z Z Z

>  <atom.prop.IS_HEAVY_ATOM>  (329) 
1 0 0 0 1 1 1 1 0 0 0 1 1 0 1 0 1 0 1 0 1 0

>  <DIFUSE_FUNC_ATOM>  (329) 
atom 6   atom 7   

>  <FINAL_SINGLE_POINT_ENERGY>  (329) 
0

>  <NONCOV_INTER_ENERGY_QM>  (329) 
0

>  <FF_Energy>  (329) 
10.1

>  <QM_Energy>  (329) 
-2.63

>  <source>  (329) 
ACET_MBZ_00

>  <Index>  (329) 
11737

$$$$
ACET-pdb2g47-B-ASP-564:MBZ-pdb2g47-B-PHE-567
     RDKit          3D

 22 21  0  0  0  0  0  0  0  0999 V2000
   -5.3941    3.2570    0.5163 C   0  0  0  0  0  0  0  0  0  0  0  0
   -5.4972    2.7955   -0.3565 H   0  0  0  0  0  0  0  0  0  0  0  0
   -5.6738    4.2055    0.4470 H   0  0  0  0  0  0  0  0  0  0  0  0
   -6.0484    2.7650    1.2361 H   0  0  0  0  0  0  0  0  0  0  0  0
   -3.9337    3.2053    0.9268 C   0  0  0  0  0  0  0  0  0  0  0  0
   -3.4758    2.1418    1.4006 O   0  0  0  0  0  1  0  0  0  0  0  0
   -3.2437    4.2292    0.7683 O   0  0  0  0  0  0  0  0  0  0  0  0
   -0.0040    2.9045    0.0219 C   0  0  0  0  0  0  0  0  0  0  0  0
   -0.8951    3.2130   -0.2747 H   0  0  0  0  0  0  0  0  0  0  0  0
    0.7093    3.2263   -0.5818 H   0  0  0  0  0  0  0  0  0  0  0  0
    0.1821    3.3253    1.0101 H   0  0  0  0  0  0  0  0  0  0  0  0
    0.0040    1.4096    0.0007 C   0  0  0  0  0  0  0  0  0  0  0  0
   -1.1939    0.6986    0.0014 C   0  0  0  0  0  0  0  0  0  0  0  0
   -2.0612    1.1915    0.0022 H   0  0  0  0  0  0  0  0  0  0  0  0
   -1.2058   -0.6953    0.0000 C   0  0  0  0  0  0  0  0  0  0  0  0
   -2.0939   -1.1787    0.0024 H   0  0  0  0  0  0  0  0  0  0  0  0
   -0.0209   -1.4082   -0.0030 C   0  0  0  0  0  0  0  0  0  0  0  0
   -0.0222   -2.3998   -0.0080 H   0  0  0  0  0  0  0  0  0  0  0  0
    1.2058   -0.7079   -0.0000 C   0  0  0  0  0  0  0  0  0  0  0  0
    2.0767   -1.2095    0.0033 H   0  0  0  0  0  0  0  0  0  0  0  0
    1.2107    0.7032    0.0009 C   0  0  0  0  0  0  0  0  0  0  0  0
    2.0747    1.1891    0.0006 H   0  0  0  0  0  0  0  0  0  0  0  0
  1  5  1  0
  5  6  1  0
  5  7  2  0
  1  2  1  0
  1  3  1  0
  1  4  1  0
  8 12  1  0
 12 13  2  0
 13 15  1  0
 15 17  2  0
 17 19  1  0
 19 21  2  0
 21 12  1  0
  8  9  1  0
  8 10  1  0
  8 11  1  0
 13 14  1  0
 15 16  1  0
 17 18  1  0
 19 20  1  0
 21 22  1  0
M  CHG  1   6  -1
M  END
>  <PDB_ID>  (330) 
pdb2g47

>  <RESIDUE_NAME>  (330) 
ASP   PHE

>  <FRAG_NAME>  (330) 
ACET   MBZ

>  <FRAG_ATOM_NUM>  (330) 
fragi: 7  fragj: 15

>  <atom.prop.CHAIN_ID>  (330) 
A A A A A A A Z Z Z Z Z Z Z Z Z Z Z Z Z Z Z

>  <atom.prop.IS_HEAVY_ATOM>  (330) 
1 0 0 0 1 1 1 1 0 0 0 1 1 0 1 0 1 0 1 0 1 0

>  <DIFUSE_FUNC_ATOM>  (330) 
atom 6   atom 7   

>  <FINAL_SINGLE_POINT_ENERGY>  (330) 
0

>  <NONCOV_INTER_ENERGY_QM>  (330) 
0

>  <FF_Energy>  (330) 
-0.81

>  <QM_Energy>  (330) 
-7.69

>  <source>  (330) 
ACET_MBZ_00

>  <Index>  (330) 
11857

$$$$
ACET-pdb2g47-B-GLU-903:MBZ-pdb2g47-B-PHE-567
     RDKit          3D

 22 21  0  0  0  0  0  0  0  0999 V2000
   -3.3169   -4.6829    0.1354 C   0  0  0  0  0  0  0  0  0  0  0  0
   -4.1640   -5.0231   -0.2390 H   0  0  0  0  0  0  0  0  0  0  0  0
   -2.8580   -5.3675    0.6780 H   0  0  0  0  0  0  0  0  0  0  0  0
   -2.6640   -4.3981   -0.6895 H   0  0  0  0  0  0  0  0  0  0  0  0
   -3.6611   -3.5294    1.0602 C   0  0  0  0  0  0  0  0  0  0  0  0
   -4.1842   -3.7883    2.1570 O   0  0  0  0  0  1  0  0  0  0  0  0
   -3.4260   -2.3643    0.6994 O   0  0  0  0  0  0  0  0  0  0  0  0
   -0.0040    2.9045    0.0219 C   0  0  0  0  0  0  0  0  0  0  0  0
   -0.8951    3.2130   -0.2747 H   0  0  0  0  0  0  0  0  0  0  0  0
    0.7093    3.2263   -0.5818 H   0  0  0  0  0  0  0  0  0  0  0  0
    0.1821    3.3253    1.0101 H   0  0  0  0  0  0  0  0  0  0  0  0
    0.0040    1.4096    0.0007 C   0  0  0  0  0  0  0  0  0  0  0  0
   -1.1939    0.6986    0.0014 C   0  0  0  0  0  0  0  0  0  0  0  0
   -2.0612    1.1915    0.0022 H   0  0  0  0  0  0  0  0  0  0  0  0
   -1.2058   -0.6953    0.0000 C   0  0  0  0  0  0  0  0  0  0  0  0
   -2.0939   -1.1787    0.0024 H   0  0  0  0  0  0  0  0  0  0  0  0
   -0.0209   -1.4082   -0.0030 C   0  0  0  0  0  0  0  0  0  0  0  0
   -0.0222   -2.3998   -0.0080 H   0  0  0  0  0  0  0  0  0  0  0  0
    1.2058   -0.7079   -0.0000 C   0  0  0  0  0  0  0  0  0  0  0  0
    2.0767   -1.2095    0.0033 H   0  0  0  0  0  0  0  0  0  0  0  0
    1.2107    0.7032    0.0009 C   0  0  0  0  0  0  0  0  0  0  0  0
    2.0747    1.1891    0.0006 H   0  0  0  0  0  0  0  0  0  0  0  0
  1  5  1  0
  5  6  1  0
  5  7  2  0
  1  2  1  0
  1  3  1  0
  1  4  1  0
  8 12  1  0
 12 13  2  0
 13 15  1  0
 15 17  2  0
 17 19  1  0
 19 21  2  0
 21 12  1  0
  8  9  1  0
  8 10  1  0
  8 11  1  0
 13 14  1  0
 15 16  1  0
 17 18  1  0
 19 20  1  0
 21 22  1  0
M  CHG  1   6  -1
M  END
>  <PDB_ID>  (331) 
pdb2g47

>  <RESIDUE_NAME>  (331) 
GLU   PHE

>  <FRAG_NAME>  (331) 
ACET   MBZ

>  <FRAG_ATOM_NUM>  (331) 
fragi: 7  fragj: 15

>  <atom.prop.CHAIN_ID>  (331) 
A A A A A A A Z Z Z Z Z Z Z Z Z Z Z Z Z Z Z

>  <atom.prop.IS_HEAVY_ATOM>  (331) 
1 0 0 0 1 1 1 1 0 0 0 1 1 0 1 0 1 0 1 0 1 0

>  <DIFUSE_FUNC_ATOM>  (331) 
atom 6   atom 7   

>  <FINAL_SINGLE_POINT_ENERGY>  (331) 
0

>  <NONCOV_INTER_ENERGY_QM>  (331) 
0

>  <FF_Energy>  (331) 
11.73

>  <QM_Energy>  (331) 
-4.94

>  <source>  (331) 
ACET_MBZ_00

>  <Index>  (331) 
11874

$$$$
ACET-pdb2g49-B-ASP-564:MBZ-pdb2g49-B-PHE-567
     RDKit          3D

 22 21  0  0  0  0  0  0  0  0999 V2000
   -5.3598    3.4870    1.3573 C   0  0  0  0  0  0  0  0  0  0  0  0
   -5.6446    3.0565    0.5086 H   0  0  0  0  0  0  0  0  0  0  0  0
   -5.6448    4.4384    1.3773 H   0  0  0  0  0  0  0  0  0  0  0  0
   -5.8527    2.9693    2.1802 H   0  0  0  0  0  0  0  0  0  0  0  0
   -3.8475    3.4281    1.4498 C   0  0  0  0  0  0  0  0  0  0  0  0
   -3.2946    2.3549    1.7780 O   0  0  0  0  0  1  0  0  0  0  0  0
   -3.2031    4.4613    1.1754 O   0  0  0  0  0  0  0  0  0  0  0  0
    0.0032    2.8878    0.0383 C   0  0  0  0  0  0  0  0  0  0  0  0
   -0.9120    3.2050   -0.1291 H   0  0  0  0  0  0  0  0  0  0  0  0
    0.6398    3.2086   -0.6378 H   0  0  0  0  0  0  0  0  0  0  0  0
    0.3211    3.2656    1.0101 H   0  0  0  0  0  0  0  0  0  0  0  0
   -0.0047    1.3966    0.0025 C   0  0  0  0  0  0  0  0  0  0  0  0
   -1.2104    0.6883    0.0024 C   0  0  0  0  0  0  0  0  0  0  0  0
   -2.0706    1.1850    0.0024 H   0  0  0  0  0  0  0  0  0  0  0  0
   -1.2106   -0.6918   -0.0000 C   0  0  0  0  0  0  0  0  0  0  0  0
   -2.0792   -1.1973    0.0043 H   0  0  0  0  0  0  0  0  0  0  0  0
    0.0023   -1.3809   -0.0065 C   0  0  0  0  0  0  0  0  0  0  0  0
   -0.0067   -2.3867   -0.0169 H   0  0  0  0  0  0  0  0  0  0  0  0
    1.2106   -0.6995    0.0000 C   0  0  0  0  0  0  0  0  0  0  0  0
    2.0850   -1.2051    0.0047 H   0  0  0  0  0  0  0  0  0  0  0  0
    1.2128    0.6873    0.0016 C   0  0  0  0  0  0  0  0  0  0  0  0
    2.0684    1.1901    0.0016 H   0  0  0  0  0  0  0  0  0  0  0  0
  1  5  1  0
  5  6  1  0
  5  7  2  0
  1  2  1  0
  1  3  1  0
  1  4  1  0
  8 12  1  0
 12 13  2  0
 13 15  1  0
 15 17  2  0
 17 19  1  0
 19 21  2  0
 21 12  1  0
  8  9  1  0
  8 10  1  0
  8 11  1  0
 13 14  1  0
 15 16  1  0
 17 18  1  0
 19 20  1  0
 21 22  1  0
M  CHG  1   6  -1
M  END
>  <PDB_ID>  (332) 
pdb2g49

>  <RESIDUE_NAME>  (332) 
ASP   PHE

>  <FRAG_NAME>  (332) 
ACET   MBZ

>  <FRAG_ATOM_NUM>  (332) 
fragi: 7  fragj: 15

>  <atom.prop.CHAIN_ID>  (332) 
A A A A A A A Z Z Z Z Z Z Z Z Z Z Z Z Z Z Z

>  <atom.prop.IS_HEAVY_ATOM>  (332) 
1 0 0 0 1 1 1 1 0 0 0 1 1 0 1 0 1 0 1 0 1 0

>  <DIFUSE_FUNC_ATOM>  (332) 
atom 6   atom 7   

>  <FINAL_SINGLE_POINT_ENERGY>  (332) 
0

>  <NONCOV_INTER_ENERGY_QM>  (332) 
0

>  <FF_Energy>  (332) 
-1.57

>  <QM_Energy>  (332) 
-7.31

>  <source>  (332) 
ACET_MBZ_00

>  <Index>  (332) 
11891

$$$$
ACET-pdb1f75-B-GLU-153:MBZ-pdb1f75-B-PHE-185
     RDKit          3D

 22 21  0  0  0  0  0  0  0  0999 V2000
   -4.0532    1.4558    2.0987 C   0  0  0  0  0  0  0  0  0  0  0  0
   -4.3257    1.6641    3.0249 H   0  0  0  0  0  0  0  0  0  0  0  0
   -3.1351    1.0914    2.0658 H   0  0  0  0  0  0  0  0  0  0  0  0
   -4.7331    0.6977    1.7099 H   0  0  0  0  0  0  0  0  0  0  0  0
   -4.0673    2.7372    1.3142 C   0  0  0  0  0  0  0  0  0  0  0  0
   -5.1518    3.1751    0.8652 O   0  0  0  0  0  1  0  0  0  0  0  0
   -2.9770    3.3250    1.1644 O   0  0  0  0  0  0  0  0  0  0  0  0
   -0.0024    2.9076   -0.0483 C   0  0  0  0  0  0  0  0  0  0  0  0
   -0.9432    3.2070   -0.1307 H   0  0  0  0  0  0  0  0  0  0  0  0
    0.5288    3.1867   -0.8361 H   0  0  0  0  0  0  0  0  0  0  0  0
    0.4266    3.3862    0.8320 H   0  0  0  0  0  0  0  0  0  0  0  0
   -0.0000    1.4026    0.0007 C   0  0  0  0  0  0  0  0  0  0  0  0
   -1.1941    0.6943    0.0000 C   0  0  0  0  0  0  0  0  0  0  0  0
   -2.0624    1.1853   -0.0013 H   0  0  0  0  0  0  0  0  0  0  0  0
   -1.2020   -0.6967    0.0000 C   0  0  0  0  0  0  0  0  0  0  0  0
   -2.0796   -1.1878    0.0031 H   0  0  0  0  0  0  0  0  0  0  0  0
   -0.0026   -1.3943   -0.0020 C   0  0  0  0  0  0  0  0  0  0  0  0
   -0.0071   -2.3927   -0.0054 H   0  0  0  0  0  0  0  0  0  0  0  0
    1.2020   -0.6994   -0.0000 C   0  0  0  0  0  0  0  0  0  0  0  0
    2.0810   -1.1967    0.0021 H   0  0  0  0  0  0  0  0  0  0  0  0
    1.1967    0.6935    0.0013 C   0  0  0  0  0  0  0  0  0  0  0  0
    2.0646    1.1889    0.0020 H   0  0  0  0  0  0  0  0  0  0  0  0
  1  5  1  0
  5  6  1  0
  5  7  2  0
  1  2  1  0
  1  3  1  0
  1  4  1  0
  8 12  1  0
 12 13  2  0
 13 15  1  0
 15 17  2  0
 17 19  1  0
 19 21  2  0
 21 12  1  0
  8  9  1  0
  8 10  1  0
  8 11  1  0
 13 14  1  0
 15 16  1  0
 17 18  1  0
 19 20  1  0
 21 22  1  0
M  CHG  1   6  -1
M  END
>  <PDB_ID>  (333) 
pdb1f75

>  <RESIDUE_NAME>  (333) 
GLU   PHE

>  <FRAG_NAME>  (333) 
ACET   MBZ

>  <FRAG_ATOM_NUM>  (333) 
fragi: 7  fragj: 15

>  <atom.prop.CHAIN_ID>  (333) 
A A A A A A A Z Z Z Z Z Z Z Z Z Z Z Z Z Z Z

>  <atom.prop.IS_HEAVY_ATOM>  (333) 
1 0 0 0 1 1 1 1 0 0 0 1 1 0 1 0 1 0 1 0 1 0

>  <DIFUSE_FUNC_ATOM>  (333) 
atom 6   atom 7   

>  <FINAL_SINGLE_POINT_ENERGY>  (333) 
0

>  <NONCOV_INTER_ENERGY_QM>  (333) 
0

>  <FF_Energy>  (333) 
-1.66

>  <QM_Energy>  (333) 
-7.2

>  <source>  (333) 
ACET_MBZ_00

>  <Index>  (333) 
11915

$$$$
ACET-pdb2g5b-D-ASP-95:MBZ-pdb2g5b-D-PHE-100
     RDKit          3D

 22 21  0  0  0  0  0  0  0  0999 V2000
    5.1635   -0.7075   -0.9720 C   0  0  0  0  0  0  0  0  0  0  0  0
    4.5787   -0.8944   -1.7553 H   0  0  0  0  0  0  0  0  0  0  0  0
    6.0761   -1.0693   -1.1314 H   0  0  0  0  0  0  0  0  0  0  0  0
    5.2457    0.3742   -0.8657 H   0  0  0  0  0  0  0  0  0  0  0  0
    4.5757   -1.3806    0.2481 C   0  0  0  0  0  0  0  0  0  0  0  0
    3.9364   -2.4410    0.0835 O   0  0  0  0  0  1  0  0  0  0  0  0
    4.7572   -0.8694    1.3687 O   0  0  0  0  0  0  0  0  0  0  0  0
   -0.0077    2.9160   -0.0038 C   0  0  0  0  0  0  0  0  0  0  0  0
   -0.7653    3.2164    0.5544 H   0  0  0  0  0  0  0  0  0  0  0  0
   -0.1064    3.2162   -0.9400 H   0  0  0  0  0  0  0  0  0  0  0  0
    0.9016    3.3641    0.3968 H   0  0  0  0  0  0  0  0  0  0  0  0
    0.0005    1.4061    0.0000 C   0  0  0  0  0  0  0  0  0  0  0  0
   -1.1971    0.6940   -0.0000 C   0  0  0  0  0  0  0  0  0  0  0  0
   -2.0643    1.1833   -0.0010 H   0  0  0  0  0  0  0  0  0  0  0  0
   -1.2027   -0.7012   -0.0000 C   0  0  0  0  0  0  0  0  0  0  0  0
   -2.0798   -1.1925    0.0008 H   0  0  0  0  0  0  0  0  0  0  0  0
   -0.0010   -1.3976    0.0005 C   0  0  0  0  0  0  0  0  0  0  0  0
   -0.0026   -2.3954    0.0007 H   0  0  0  0  0  0  0  0  0  0  0  0
    1.2027   -0.6982   -0.0000 C   0  0  0  0  0  0  0  0  0  0  0  0
    2.0837   -1.1941    0.0015 H   0  0  0  0  0  0  0  0  0  0  0  0
    1.1976    0.6968   -0.0005 C   0  0  0  0  0  0  0  0  0  0  0  0
    2.0661    1.1918   -0.0021 H   0  0  0  0  0  0  0  0  0  0  0  0
  1  5  1  0
  5  6  1  0
  5  7  2  0
  1  2  1  0
  1  3  1  0
  1  4  1  0
  8 12  1  0
 12 13  2  0
 13 15  1  0
 15 17  2  0
 17 19  1  0
 19 21  2  0
 21 12  1  0
  8  9  1  0
  8 10  1  0
  8 11  1  0
 13 14  1  0
 15 16  1  0
 17 18  1  0
 19 20  1  0
 21 22  1  0
M  CHG  1   6  -1
M  END
>  <PDB_ID>  (334) 
pdb2g5b

>  <RESIDUE_NAME>  (334) 
ASP   PHE

>  <FRAG_NAME>  (334) 
ACET   MBZ

>  <FRAG_ATOM_NUM>  (334) 
fragi: 7  fragj: 15

>  <atom.prop.CHAIN_ID>  (334) 
A A A A A A A Z Z Z Z Z Z Z Z Z Z Z Z Z Z Z

>  <atom.prop.IS_HEAVY_ATOM>  (334) 
1 0 0 0 1 1 1 1 0 0 0 1 1 0 1 0 1 0 1 0 1 0

>  <DIFUSE_FUNC_ATOM>  (334) 
atom 6   atom 7   

>  <FINAL_SINGLE_POINT_ENERGY>  (334) 
0

>  <NONCOV_INTER_ENERGY_QM>  (334) 
0

>  <FF_Energy>  (334) 
-0.74

>  <QM_Energy>  (334) 
-5.99

>  <source>  (334) 
ACET_MBZ_00

>  <Index>  (334) 
11951

$$$$
ACET-pdb1f89-A-GLU-146:MBZ-pdb1f89-A-PHE-142
     RDKit          3D

 22 21  0  0  0  0  0  0  0  0999 V2000
    3.0483    6.3772    1.5017 C   0  0  0  0  0  0  0  0  0  0  0  0
    3.6223    6.5226    2.2860 H   0  0  0  0  0  0  0  0  0  0  0  0
    2.2084    6.8845    1.5554 H   0  0  0  0  0  0  0  0  0  0  0  0
    3.5914    6.7095    0.6170 H   0  0  0  0  0  0  0  0  0  0  0  0
    2.6874    4.8956    1.4659 C   0  0  0  0  0  0  0  0  0  0  0  0
    3.4790    4.0930    0.9165 O   0  0  0  0  0  1  0  0  0  0  0  0
    1.6142    4.5332    2.0021 O   0  0  0  0  0  0  0  0  0  0  0  0
    0.0067    2.9233   -0.0116 C   0  0  0  0  0  0  0  0  0  0  0  0
    0.9304    3.2243    0.1692 H   0  0  0  0  0  0  0  0  0  0  0  0
   -0.6184    3.2377    0.6862 H   0  0  0  0  0  0  0  0  0  0  0  0
   -0.3054    3.3660   -0.9575 H   0  0  0  0  0  0  0  0  0  0  0  0
   -0.0032    1.4132   -0.0010 C   0  0  0  0  0  0  0  0  0  0  0  0
   -1.2126    0.7016    0.0003 C   0  0  0  0  0  0  0  0  0  0  0  0
   -2.0739    1.1885   -0.0003 H   0  0  0  0  0  0  0  0  0  0  0  0
   -1.2134   -0.7023   -0.0000 C   0  0  0  0  0  0  0  0  0  0  0  0
   -2.0787   -1.2013    0.0008 H   0  0  0  0  0  0  0  0  0  0  0  0
    0.0151   -1.4070    0.0008 C   0  0  0  0  0  0  0  0  0  0  0  0
    0.0028   -2.4008    0.0014 H   0  0  0  0  0  0  0  0  0  0  0  0
    1.2134   -0.7050    0.0000 C   0  0  0  0  0  0  0  0  0  0  0  0
    2.0976   -1.1911    0.0011 H   0  0  0  0  0  0  0  0  0  0  0  0
    1.2007    0.6996   -0.0002 C   0  0  0  0  0  0  0  0  0  0  0  0
    2.0672    1.1957   -0.0001 H   0  0  0  0  0  0  0  0  0  0  0  0
  1  5  1  0
  5  6  1  0
  5  7  2  0
  1  2  1  0
  1  3  1  0
  1  4  1  0
  8 12  1  0
 12 13  2  0
 13 15  1  0
 15 17  2  0
 17 19  1  0
 19 21  2  0
 21 12  1  0
  8  9  1  0
  8 10  1  0
  8 11  1  0
 13 14  1  0
 15 16  1  0
 17 18  1  0
 19 20  1  0
 21 22  1  0
M  CHG  1   6  -1
M  END
>  <PDB_ID>  (335) 
pdb1f89

>  <RESIDUE_NAME>  (335) 
GLU   PHE

>  <FRAG_NAME>  (335) 
ACET   MBZ

>  <FRAG_ATOM_NUM>  (335) 
fragi: 7  fragj: 15

>  <atom.prop.CHAIN_ID>  (335) 
A A A A A A A Z Z Z Z Z Z Z Z Z Z Z Z Z Z Z

>  <atom.prop.IS_HEAVY_ATOM>  (335) 
1 0 0 0 1 1 1 1 0 0 0 1 1 0 1 0 1 0 1 0 1 0

>  <DIFUSE_FUNC_ATOM>  (335) 
atom 6   atom 7   

>  <FINAL_SINGLE_POINT_ENERGY>  (335) 
0

>  <NONCOV_INTER_ENERGY_QM>  (335) 
0

>  <FF_Energy>  (335) 
4.06

>  <QM_Energy>  (335) 
-6.67

>  <source>  (335) 
ACET_MBZ_00

>  <Index>  (335) 
11988

$$$$
ACET-pdb1f8n-A-GLU-731:MBZ-pdb1f8n-A-PHE-286
     RDKit          3D

 22 21  0  0  0  0  0  0  0  0999 V2000
    0.2780    0.2843   -3.6478 C   0  0  0  0  0  0  0  0  0  0  0  0
    0.4996   -0.2292   -2.8291 H   0  0  0  0  0  0  0  0  0  0  0  0
    0.7563   -0.0855   -4.4339 H   0  0  0  0  0  0  0  0  0  0  0  0
   -0.7942    0.2008   -3.8259 H   0  0  0  0  0  0  0  0  0  0  0  0
    0.7979    1.7098   -3.4373 C   0  0  0  0  0  0  0  0  0  0  0  0
   -0.0018    2.6738   -3.4048 O   0  0  0  0  0  1  0  0  0  0  0  0
    2.0287    1.8397   -3.2977 O   0  0  0  0  0  0  0  0  0  0  0  0
    0.0388    2.9568    0.0388 C   0  0  0  0  0  0  0  0  0  0  0  0
    0.5918    3.2579   -0.7257 H   0  0  0  0  0  0  0  0  0  0  0  0
    0.4497    3.2221    0.9003 H   0  0  0  0  0  0  0  0  0  0  0  0
   -0.9340    3.4429   -0.0358 H   0  0  0  0  0  0  0  0  0  0  0  0
    0.0049    1.4269    0.0024 C   0  0  0  0  0  0  0  0  0  0  0  0
   -1.1965    0.7173   -0.0006 C   0  0  0  0  0  0  0  0  0  0  0  0
   -2.0653    1.1861   -0.0037 H   0  0  0  0  0  0  0  0  0  0  0  0
   -1.2035   -0.7221   -0.0000 C   0  0  0  0  0  0  0  0  0  0  0  0
   -2.0881   -1.1881    0.0036 H   0  0  0  0  0  0  0  0  0  0  0  0
   -0.0107   -1.4174   -0.0025 C   0  0  0  0  0  0  0  0  0  0  0  0
   -0.0057   -2.4146   -0.0060 H   0  0  0  0  0  0  0  0  0  0  0  0
    1.2035   -0.7152    0.0000 C   0  0  0  0  0  0  0  0  0  0  0  0
    2.0824   -1.2025    0.0027 H   0  0  0  0  0  0  0  0  0  0  0  0
    1.2023    0.7105    0.0007 C   0  0  0  0  0  0  0  0  0  0  0  0
    2.0742    1.1887   -0.0009 H   0  0  0  0  0  0  0  0  0  0  0  0
  1  5  1  0
  5  6  1  0
  5  7  2  0
  1  2  1  0
  1  3  1  0
  1  4  1  0
  8 12  1  0
 12 13  2  0
 13 15  1  0
 15 17  2  0
 17 19  1  0
 19 21  2  0
 21 12  1  0
  8  9  1  0
  8 10  1  0
  8 11  1  0
 13 14  1  0
 15 16  1  0
 17 18  1  0
 19 20  1  0
 21 22  1  0
M  CHG  1   6  -1
M  END
>  <PDB_ID>  (336) 
pdb1f8n

>  <RESIDUE_NAME>  (336) 
GLU   PHE

>  <FRAG_NAME>  (336) 
ACET   MBZ

>  <FRAG_ATOM_NUM>  (336) 
fragi: 7  fragj: 15

>  <atom.prop.CHAIN_ID>  (336) 
A A A A A A A Z Z Z Z Z Z Z Z Z Z Z Z Z Z Z

>  <atom.prop.IS_HEAVY_ATOM>  (336) 
1 0 0 0 1 1 1 1 0 0 0 1 1 0 1 0 1 0 1 0 1 0

>  <DIFUSE_FUNC_ATOM>  (336) 
atom 6   atom 7   

>  <FINAL_SINGLE_POINT_ENERGY>  (336) 
0

>  <NONCOV_INTER_ENERGY_QM>  (336) 
0

>  <FF_Energy>  (336) 
-0.23

>  <QM_Energy>  (336) 
-5.78

>  <source>  (336) 
ACET_MBZ_00

>  <Index>  (336) 
12026

$$$$
ACET-pdb1f8r-A-ASP-181:MBZ-pdb1f8r-A-PHE-438
     RDKit          3D

 22 21  0  0  0  0  0  0  0  0999 V2000
    3.3845    4.5091    2.1246 C   0  0  0  0  0  0  0  0  0  0  0  0
    2.7506    3.9430    2.6405 H   0  0  0  0  0  0  0  0  0  0  0  0
    3.2791    5.4646    2.3750 H   0  0  0  0  0  0  0  0  0  0  0  0
    4.3978    4.2025    2.3842 H   0  0  0  0  0  0  0  0  0  0  0  0
    3.0807    4.3554    0.6442 C   0  0  0  0  0  0  0  0  0  0  0  0
    3.4346    3.3113    0.0519 O   0  0  0  0  0  1  0  0  0  0  0  0
    2.4737    5.2831    0.0756 O   0  0  0  0  0  0  0  0  0  0  0  0
   -0.0040    2.9152   -0.0137 C   0  0  0  0  0  0  0  0  0  0  0  0
    0.9064    3.2248    0.2127 H   0  0  0  0  0  0  0  0  0  0  0  0
   -0.6661    3.2245    0.6515 H   0  0  0  0  0  0  0  0  0  0  0  0
   -0.2727    3.3521   -0.9754 H   0  0  0  0  0  0  0  0  0  0  0  0
   -0.0005    1.4054   -0.0010 C   0  0  0  0  0  0  0  0  0  0  0  0
   -1.1995    0.6931   -0.0001 C   0  0  0  0  0  0  0  0  0  0  0  0
   -2.0657    1.1839   -0.0003 H   0  0  0  0  0  0  0  0  0  0  0  0
   -1.2060   -0.7005   -0.0000 C   0  0  0  0  0  0  0  0  0  0  0  0
   -2.0792   -1.1948    0.0014 H   0  0  0  0  0  0  0  0  0  0  0  0
    0.0026   -1.4008    0.0003 C   0  0  0  0  0  0  0  0  0  0  0  0
    0.0004   -2.3948    0.0003 H   0  0  0  0  0  0  0  0  0  0  0  0
    1.2060   -0.6957    0.0000 C   0  0  0  0  0  0  0  0  0  0  0  0
    2.0872   -1.1907    0.0010 H   0  0  0  0  0  0  0  0  0  0  0  0
    1.1973    0.6986    0.0007 C   0  0  0  0  0  0  0  0  0  0  0  0
    2.0648    1.1955    0.0019 H   0  0  0  0  0  0  0  0  0  0  0  0
  1  5  1  0
  5  6  1  0
  5  7  2  0
  1  2  1  0
  1  3  1  0
  1  4  1  0
  8 12  1  0
 12 13  2  0
 13 15  1  0
 15 17  2  0
 17 19  1  0
 19 21  2  0
 21 12  1  0
  8  9  1  0
  8 10  1  0
  8 11  1  0
 13 14  1  0
 15 16  1  0
 17 18  1  0
 19 20  1  0
 21 22  1  0
M  CHG  1   6  -1
M  END
>  <PDB_ID>  (337) 
pdb1f8r

>  <RESIDUE_NAME>  (337) 
ASP   PHE

>  <FRAG_NAME>  (337) 
ACET   MBZ

>  <FRAG_ATOM_NUM>  (337) 
fragi: 7  fragj: 15

>  <atom.prop.CHAIN_ID>  (337) 
A A A A A A A Z Z Z Z Z Z Z Z Z Z Z Z Z Z Z

>  <atom.prop.IS_HEAVY_ATOM>  (337) 
1 0 0 0 1 1 1 1 0 0 0 1 1 0 1 0 1 0 1 0 1 0

>  <DIFUSE_FUNC_ATOM>  (337) 
atom 6   atom 7   

>  <FINAL_SINGLE_POINT_ENERGY>  (337) 
0

>  <NONCOV_INTER_ENERGY_QM>  (337) 
0

>  <FF_Energy>  (337) 
-1.65

>  <QM_Energy>  (337) 
-8.42

>  <source>  (337) 
ACET_MBZ_00

>  <Index>  (337) 
12032

$$$$
ACET-pdb1f9f-C-ASP-311:MBZ-pdb1f9f-C-PHE-346
     RDKit          3D

 22 21  0  0  0  0  0  0  0  0999 V2000
   -4.3975    1.3465    1.6528 C   0  0  0  0  0  0  0  0  0  0  0  0
   -4.0801    1.4377    0.6928 H   0  0  0  0  0  0  0  0  0  0  0  0
   -3.8780    2.0217    2.2032 H   0  0  0  0  0  0  0  0  0  0  0  0
   -5.4594    1.5871    1.7013 H   0  0  0  0  0  0  0  0  0  0  0  0
   -3.9888   -0.0404    2.1348 C   0  0  0  0  0  0  0  0  0  0  0  0
   -4.8895   -0.8099    2.5521 O   0  0  0  0  0  1  0  0  0  0  0  0
   -2.8001   -0.3336    2.0728 O   0  0  0  0  0  0  0  0  0  0  0  0
    0.0179    2.9413    0.0060 C   0  0  0  0  0  0  0  0  0  0  0  0
   -0.8989    3.2330   -0.2172 H   0  0  0  0  0  0  0  0  0  0  0  0
    0.6656    3.2272   -0.6832 H   0  0  0  0  0  0  0  0  0  0  0  0
    0.3033    3.3877    0.9585 H   0  0  0  0  0  0  0  0  0  0  0  0
    0.0111    1.4010    0.0019 C   0  0  0  0  0  0  0  0  0  0  0  0
   -1.1978    0.6987   -0.0021 C   0  0  0  0  0  0  0  0  0  0  0  0
   -2.0567    1.1954   -0.0072 H   0  0  0  0  0  0  0  0  0  0  0  0
   -1.2054   -0.6898    0.0000 C   0  0  0  0  0  0  0  0  0  0  0  0
   -2.0907   -1.1786   -0.0002 H   0  0  0  0  0  0  0  0  0  0  0  0
   -0.0182   -1.3940    0.0045 C   0  0  0  0  0  0  0  0  0  0  0  0
   -0.0263   -2.3955    0.0103 H   0  0  0  0  0  0  0  0  0  0  0  0
    1.2054   -0.7124   -0.0000 C   0  0  0  0  0  0  0  0  0  0  0  0
    2.0735   -1.2112    0.0011 H   0  0  0  0  0  0  0  0  0  0  0  0
    1.2048    0.6966   -0.0043 C   0  0  0  0  0  0  0  0  0  0  0  0
    2.0755    1.1814   -0.0127 H   0  0  0  0  0  0  0  0  0  0  0  0
  1  5  1  0
  5  6  1  0
  5  7  2  0
  1  2  1  0
  1  3  1  0
  1  4  1  0
  8 12  1  0
 12 13  2  0
 13 15  1  0
 15 17  2  0
 17 19  1  0
 19 21  2  0
 21 12  1  0
  8  9  1  0
  8 10  1  0
  8 11  1  0
 13 14  1  0
 15 16  1  0
 17 18  1  0
 19 20  1  0
 21 22  1  0
M  CHG  1   6  -1
M  END
>  <PDB_ID>  (338) 
pdb1f9f

>  <RESIDUE_NAME>  (338) 
ASP   PHE

>  <FRAG_NAME>  (338) 
ACET   MBZ

>  <FRAG_ATOM_NUM>  (338) 
fragi: 7  fragj: 15

>  <atom.prop.CHAIN_ID>  (338) 
A A A A A A A Z Z Z Z Z Z Z Z Z Z Z Z Z Z Z

>  <atom.prop.IS_HEAVY_ATOM>  (338) 
1 0 0 0 1 1 1 1 0 0 0 1 1 0 1 0 1 0 1 0 1 0

>  <DIFUSE_FUNC_ATOM>  (338) 
atom 6   atom 7   

>  <FINAL_SINGLE_POINT_ENERGY>  (338) 
0

>  <NONCOV_INTER_ENERGY_QM>  (338) 
0

>  <FF_Energy>  (338) 
1.82

>  <QM_Energy>  (338) 
-0.22

>  <source>  (338) 
ACET_MBZ_00

>  <Index>  (338) 
12070

$$$$
ACET-pdb2g9i-B-ASP-239:MBZ-pdb2g9i-A-PHE-156
     RDKit          3D

 22 21  0  0  0  0  0  0  0  0999 V2000
   -6.3179    2.5384   -0.7790 C   0  0  0  0  0  0  0  0  0  0  0  0
   -6.2124    3.5065   -0.5768 H   0  0  0  0  0  0  0  0  0  0  0  0
   -6.7903    2.0791   -0.0354 H   0  0  0  0  0  0  0  0  0  0  0  0
   -6.9184    2.4395   -1.6833 H   0  0  0  0  0  0  0  0  0  0  0  0
   -4.9164    1.9213   -0.9095 C   0  0  0  0  0  0  0  0  0  0  0  0
   -4.7132    0.9557   -1.6886 O   0  0  0  0  0  1  0  0  0  0  0  0
   -4.0187    2.4195   -0.1725 O   0  0  0  0  0  0  0  0  0  0  0  0
   -0.0020    2.8837   -0.0181 C   0  0  0  0  0  0  0  0  0  0  0  0
    0.9287    3.1906   -0.1435 H   0  0  0  0  0  0  0  0  0  0  0  0
   -0.3737    3.2000    0.8406 H   0  0  0  0  0  0  0  0  0  0  0  0
   -0.6076    3.3003   -0.8229 H   0  0  0  0  0  0  0  0  0  0  0  0
    0.0042    1.3844    0.0052 C   0  0  0  0  0  0  0  0  0  0  0  0
   -1.2022    0.6668    0.0074 C   0  0  0  0  0  0  0  0  0  0  0  0
   -2.0613    1.1726    0.0137 H   0  0  0  0  0  0  0  0  0  0  0  0
   -1.1992   -0.6921    0.0000 C   0  0  0  0  0  0  0  0  0  0  0  0
   -2.0679   -1.2049   -0.0152 H   0  0  0  0  0  0  0  0  0  0  0  0
    0.0040   -1.3635    0.0148 C   0  0  0  0  0  0  0  0  0  0  0  0
    0.0025   -2.3756    0.0365 H   0  0  0  0  0  0  0  0  0  0  0  0
    1.1992   -0.6843   -0.0000 C   0  0  0  0  0  0  0  0  0  0  0  0
    2.0788   -1.1879    0.0103 H   0  0  0  0  0  0  0  0  0  0  0  0
    1.1940    0.6887   -0.0274 C   0  0  0  0  0  0  0  0  0  0  0  0
    2.0606    1.1904   -0.0725 H   0  0  0  0  0  0  0  0  0  0  0  0
  1  5  1  0
  5  6  1  0
  5  7  2  0
  1  2  1  0
  1  3  1  0
  1  4  1  0
  8 12  1  0
 12 13  2  0
 13 15  1  0
 15 17  2  0
 17 19  1  0
 19 21  2  0
 21 12  1  0
  8  9  1  0
  8 10  1  0
  8 11  1  0
 13 14  1  0
 15 16  1  0
 17 18  1  0
 19 20  1  0
 21 22  1  0
M  CHG  1   6  -1
M  END
>  <PDB_ID>  (339) 
pdb2g9i

>  <RESIDUE_NAME>  (339) 
ASP   PHE

>  <FRAG_NAME>  (339) 
ACET   MBZ

>  <FRAG_ATOM_NUM>  (339) 
fragi: 7  fragj: 15

>  <atom.prop.CHAIN_ID>  (339) 
A A A A A A A Z Z Z Z Z Z Z Z Z Z Z Z Z Z Z

>  <atom.prop.IS_HEAVY_ATOM>  (339) 
1 0 0 0 1 1 1 1 0 0 0 1 1 0 1 0 1 0 1 0 1 0

>  <DIFUSE_FUNC_ATOM>  (339) 
atom 6   atom 7   

>  <FINAL_SINGLE_POINT_ENERGY>  (339) 
0

>  <NONCOV_INTER_ENERGY_QM>  (339) 
0

>  <FF_Energy>  (339) 
-1.97

>  <QM_Energy>  (339) 
-7.6

>  <source>  (339) 
ACET_MBZ_00

>  <Index>  (339) 
12161

$$$$
ACET-pdb2g9i-A-ASP-239:MBZ-pdb2g9i-B-PHE-156
     RDKit          3D

 22 21  0  0  0  0  0  0  0  0999 V2000
   -6.2280    2.5554   -1.1697 C   0  0  0  0  0  0  0  0  0  0  0  0
   -6.1861    3.5057   -0.8921 H   0  0  0  0  0  0  0  0  0  0  0  0
   -6.6751    2.0036   -0.4802 H   0  0  0  0  0  0  0  0  0  0  0  0
   -6.8011    2.4882   -2.0945 H   0  0  0  0  0  0  0  0  0  0  0  0
   -4.7698    2.0402   -1.3194 C   0  0  0  0  0  0  0  0  0  0  0  0
   -4.4547    1.2460   -2.2453 O   0  0  0  0  0  1  0  0  0  0  0  0
   -3.9130    2.4446   -0.4957 O   0  0  0  0  0  0  0  0  0  0  0  0
   -0.0210    2.9169   -0.0563 C   0  0  0  0  0  0  0  0  0  0  0  0
    0.9191    3.2199   -0.0828 H   0  0  0  0  0  0  0  0  0  0  0  0
   -0.4766    3.2251    0.7646 H   0  0  0  0  0  0  0  0  0  0  0  0
   -0.5425    3.3355   -0.9171 H   0  0  0  0  0  0  0  0  0  0  0  0
   -0.0068    1.3947   -0.0243 C   0  0  0  0  0  0  0  0  0  0  0  0
   -1.1923    0.6673    0.0144 C   0  0  0  0  0  0  0  0  0  0  0  0
   -2.0643    1.1611    0.0519 H   0  0  0  0  0  0  0  0  0  0  0  0
   -1.1867   -0.6980    0.0000 C   0  0  0  0  0  0  0  0  0  0  0  0
   -2.0551   -1.2105   -0.0373 H   0  0  0  0  0  0  0  0  0  0  0  0
    0.0204   -1.3804    0.0386 C   0  0  0  0  0  0  0  0  0  0  0  0
    0.0083   -2.3852    0.0955 H   0  0  0  0  0  0  0  0  0  0  0  0
    1.1867   -0.6959   -0.0000 C   0  0  0  0  0  0  0  0  0  0  0  0
    2.0854   -1.1706   -0.0072 H   0  0  0  0  0  0  0  0  0  0  0  0
    1.1787    0.7122   -0.0287 C   0  0  0  0  0  0  0  0  0  0  0  0
    2.0503    1.1966   -0.0529 H   0  0  0  0  0  0  0  0  0  0  0  0
  1  5  1  0
  5  6  1  0
  5  7  2  0
  1  2  1  0
  1  3  1  0
  1  4  1  0
  8 12  1  0
 12 13  2  0
 13 15  1  0
 15 17  2  0
 17 19  1  0
 19 21  2  0
 21 12  1  0
  8  9  1  0
  8 10  1  0
  8 11  1  0
 13 14  1  0
 15 16  1  0
 17 18  1  0
 19 20  1  0
 21 22  1  0
M  CHG  1   6  -1
M  END
>  <PDB_ID>  (340) 
pdb2g9i

>  <RESIDUE_NAME>  (340) 
ASP   PHE

>  <FRAG_NAME>  (340) 
ACET   MBZ

>  <FRAG_ATOM_NUM>  (340) 
fragi: 7  fragj: 15

>  <atom.prop.CHAIN_ID>  (340) 
A A A A A A A Z Z Z Z Z Z Z Z Z Z Z Z Z Z Z

>  <atom.prop.IS_HEAVY_ATOM>  (340) 
1 0 0 0 1 1 1 1 0 0 0 1 1 0 1 0 1 0 1 0 1 0

>  <DIFUSE_FUNC_ATOM>  (340) 
atom 6   atom 7   

>  <FINAL_SINGLE_POINT_ENERGY>  (340) 
0

>  <NONCOV_INTER_ENERGY_QM>  (340) 
0

>  <FF_Energy>  (340) 
-1.47

>  <QM_Energy>  (340) 
-6.94

>  <source>  (340) 
ACET_MBZ_00

>  <Index>  (340) 
12163

$$$$
ACET-pdb2gb3-A-GLU-47:MBZ-pdb2gb3-A-PHE-50
     RDKit          3D

 22 21  0  0  0  0  0  0  0  0999 V2000
    4.7056    4.3166    1.9364 C   0  0  0  0  0  0  0  0  0  0  0  0
    5.2173    4.7185    2.6798 H   0  0  0  0  0  0  0  0  0  0  0  0
    4.3873    5.0067    1.3051 H   0  0  0  0  0  0  0  0  0  0  0  0
    5.3768    3.6513    1.3933 H   0  0  0  0  0  0  0  0  0  0  0  0
    3.4482    3.6500    2.5550 C   0  0  0  0  0  0  0  0  0  0  0  0
    2.8710    2.7055    1.9710 O   0  0  0  0  0  1  0  0  0  0  0  0
    3.0058    4.1207    3.6298 O   0  0  0  0  0  0  0  0  0  0  0  0
    0.0035    2.8909    0.0025 C   0  0  0  0  0  0  0  0  0  0  0  0
    0.8696    3.1966    0.3689 H   0  0  0  0  0  0  0  0  0  0  0  0
   -0.7518    3.2002    0.5619 H   0  0  0  0  0  0  0  0  0  0  0  0
   -0.1137    3.3287   -0.9888 H   0  0  0  0  0  0  0  0  0  0  0  0
    0.0002    1.3989   -0.0016 C   0  0  0  0  0  0  0  0  0  0  0  0
   -1.1953    0.6972    0.0025 C   0  0  0  0  0  0  0  0  0  0  0  0
   -2.0612    1.1861    0.0062 H   0  0  0  0  0  0  0  0  0  0  0  0
   -1.1986   -0.6943    0.0000 C   0  0  0  0  0  0  0  0  0  0  0  0
   -2.0767   -1.1872   -0.0000 H   0  0  0  0  0  0  0  0  0  0  0  0
   -0.0001   -1.3893   -0.0012 C   0  0  0  0  0  0  0  0  0  0  0  0
   -0.0064   -2.3903   -0.0030 H   0  0  0  0  0  0  0  0  0  0  0  0
    1.1986   -0.6985    0.0000 C   0  0  0  0  0  0  0  0  0  0  0  0
    2.0801   -1.1990    0.0027 H   0  0  0  0  0  0  0  0  0  0  0  0
    1.1951    0.6860    0.0003 C   0  0  0  0  0  0  0  0  0  0  0  0
    2.0649    1.1844    0.0013 H   0  0  0  0  0  0  0  0  0  0  0  0
  1  5  1  0
  5  6  1  0
  5  7  2  0
  1  2  1  0
  1  3  1  0
  1  4  1  0
  8 12  1  0
 12 13  2  0
 13 15  1  0
 15 17  2  0
 17 19  1  0
 19 21  2  0
 21 12  1  0
  8  9  1  0
  8 10  1  0
  8 11  1  0
 13 14  1  0
 15 16  1  0
 17 18  1  0
 19 20  1  0
 21 22  1  0
M  CHG  1   6  -1
M  END
>  <PDB_ID>  (341) 
pdb2gb3

>  <RESIDUE_NAME>  (341) 
GLU   PHE

>  <FRAG_NAME>  (341) 
ACET   MBZ

>  <FRAG_ATOM_NUM>  (341) 
fragi: 7  fragj: 15

>  <atom.prop.CHAIN_ID>  (341) 
A A A A A A A Z Z Z Z Z Z Z Z Z Z Z Z Z Z Z

>  <atom.prop.IS_HEAVY_ATOM>  (341) 
1 0 0 0 1 1 1 1 0 0 0 1 1 0 1 0 1 0 1 0 1 0

>  <DIFUSE_FUNC_ATOM>  (341) 
atom 6   atom 7   

>  <FINAL_SINGLE_POINT_ENERGY>  (341) 
0

>  <NONCOV_INTER_ENERGY_QM>  (341) 
0

>  <FF_Energy>  (341) 
-0.7

>  <QM_Energy>  (341) 
-6.24

>  <source>  (341) 
ACET_MBZ_00

>  <Index>  (341) 
12254

$$$$
ACET-pdb1fcg-A-GLU-104:MBZ-pdb1fcg-A-PHE-100
     RDKit          3D

 22 21  0  0  0  0  0  0  0  0999 V2000
    4.2460    4.4137   -0.4194 C   0  0  0  0  0  0  0  0  0  0  0  0
    5.2033    4.3119   -0.3010 H   0  0  0  0  0  0  0  0  0  0  0  0
    3.9446    5.3319   -0.5027 H   0  0  0  0  0  0  0  0  0  0  0  0
    3.9475    3.8675   -1.3142 H   0  0  0  0  0  0  0  0  0  0  0  0
    3.5629    3.8141    0.8066 C   0  0  0  0  0  0  0  0  0  0  0  0
    3.4188    2.5712    0.8063 O   0  0  0  0  0  1  0  0  0  0  0  0
    3.1572    4.5126    1.7493 O   0  0  0  0  0  0  0  0  0  0  0  0
   -0.0173    2.9117   -0.0214 C   0  0  0  0  0  0  0  0  0  0  0  0
   -0.7416    3.2065   -0.6404 H   0  0  0  0  0  0  0  0  0  0  0  0
    0.8670    3.2223   -0.3598 H   0  0  0  0  0  0  0  0  0  0  0  0
   -0.1895    3.3962    0.9397 H   0  0  0  0  0  0  0  0  0  0  0  0
   -0.0042    1.4040   -0.0104 C   0  0  0  0  0  0  0  0  0  0  0  0
   -1.1885    0.6787   -0.0014 C   0  0  0  0  0  0  0  0  0  0  0  0
   -2.0643    1.1658    0.0035 H   0  0  0  0  0  0  0  0  0  0  0  0
   -1.1910   -0.7074    0.0000 C   0  0  0  0  0  0  0  0  0  0  0  0
   -2.0675   -1.2039   -0.0068 H   0  0  0  0  0  0  0  0  0  0  0  0
    0.0090   -1.3984    0.0117 C   0  0  0  0  0  0  0  0  0  0  0  0
    0.0170   -2.3911    0.0280 H   0  0  0  0  0  0  0  0  0  0  0  0
    1.1910   -0.6788   -0.0000 C   0  0  0  0  0  0  0  0  0  0  0  0
    2.0853   -1.1736   -0.0070 H   0  0  0  0  0  0  0  0  0  0  0  0
    1.1838    0.7019    0.0000 C   0  0  0  0  0  0  0  0  0  0  0  0
    2.0551    1.2011    0.0071 H   0  0  0  0  0  0  0  0  0  0  0  0
  1  5  1  0
  5  6  1  0
  5  7  2  0
  1  2  1  0
  1  3  1  0
  1  4  1  0
  8 12  1  0
 12 13  2  0
 13 15  1  0
 15 17  2  0
 17 19  1  0
 19 21  2  0
 21 12  1  0
  8  9  1  0
  8 10  1  0
  8 11  1  0
 13 14  1  0
 15 16  1  0
 17 18  1  0
 19 20  1  0
 21 22  1  0
M  CHG  1   6  -1
M  END
>  <PDB_ID>  (342) 
pdb1fcg

>  <RESIDUE_NAME>  (342) 
GLU   PHE

>  <FRAG_NAME>  (342) 
ACET   MBZ

>  <FRAG_ATOM_NUM>  (342) 
fragi: 7  fragj: 15

>  <atom.prop.CHAIN_ID>  (342) 
A A A A A A A Z Z Z Z Z Z Z Z Z Z Z Z Z Z Z

>  <atom.prop.IS_HEAVY_ATOM>  (342) 
1 0 0 0 1 1 1 1 0 0 0 1 1 0 1 0 1 0 1 0 1 0

>  <DIFUSE_FUNC_ATOM>  (342) 
atom 6   atom 7   

>  <FINAL_SINGLE_POINT_ENERGY>  (342) 
0

>  <NONCOV_INTER_ENERGY_QM>  (342) 
0

>  <FF_Energy>  (342) 
1.75

>  <QM_Energy>  (342) 
-7.7

>  <source>  (342) 
ACET_MBZ_00

>  <Index>  (342) 
12261

$$$$
ACET-pdb2gb3-B-GLU-206:MBZ-pdb2gb3-B-PHE-284
     RDKit          3D

 22 21  0  0  0  0  0  0  0  0999 V2000
   -3.2534    0.7190    2.9495 C   0  0  0  0  0  0  0  0  0  0  0  0
   -3.5735    0.2710    3.7705 H   0  0  0  0  0  0  0  0  0  0  0  0
   -3.2368    0.0947    2.1828 H   0  0  0  0  0  0  0  0  0  0  0  0
   -3.9295    1.5415    2.7159 H   0  0  0  0  0  0  0  0  0  0  0  0
   -1.8377    1.1638    3.1996 C   0  0  0  0  0  0  0  0  0  0  0  0
   -1.5955    2.3527    3.4923 O   0  0  0  0  0  1  0  0  0  0  0  0
   -0.9543    0.3002    3.0757 O   0  0  0  0  0  0  0  0  0  0  0  0
   -0.0112    2.8933   -0.0132 C   0  0  0  0  0  0  0  0  0  0  0  0
    0.8818    3.2095    0.2614 H   0  0  0  0  0  0  0  0  0  0  0  0
   -0.7139    3.2023    0.6073 H   0  0  0  0  0  0  0  0  0  0  0  0
   -0.2265    3.3112   -0.9966 H   0  0  0  0  0  0  0  0  0  0  0  0
   -0.0019    1.3970   -0.0003 C   0  0  0  0  0  0  0  0  0  0  0  0
   -1.1945    0.6900    0.0010 C   0  0  0  0  0  0  0  0  0  0  0  0
   -2.0622    1.1812    0.0016 H   0  0  0  0  0  0  0  0  0  0  0  0
   -1.1972   -0.6928   -0.0000 C   0  0  0  0  0  0  0  0  0  0  0  0
   -2.0742   -1.1903   -0.0003 H   0  0  0  0  0  0  0  0  0  0  0  0
    0.0028   -1.3897    0.0014 C   0  0  0  0  0  0  0  0  0  0  0  0
   -0.0052   -2.3901    0.0032 H   0  0  0  0  0  0  0  0  0  0  0  0
    1.1972   -0.6986    0.0000 C   0  0  0  0  0  0  0  0  0  0  0  0
    2.0814   -1.1937    0.0018 H   0  0  0  0  0  0  0  0  0  0  0  0
    1.1936    0.6941   -0.0021 C   0  0  0  0  0  0  0  0  0  0  0  0
    2.0613    1.1887   -0.0055 H   0  0  0  0  0  0  0  0  0  0  0  0
  1  5  1  0
  5  6  1  0
  5  7  2  0
  1  2  1  0
  1  3  1  0
  1  4  1  0
  8 12  1  0
 12 13  2  0
 13 15  1  0
 15 17  2  0
 17 19  1  0
 19 21  2  0
 21 12  1  0
  8  9  1  0
  8 10  1  0
  8 11  1  0
 13 14  1  0
 15 16  1  0
 17 18  1  0
 19 20  1  0
 21 22  1  0
M  CHG  1   6  -1
M  END
>  <PDB_ID>  (343) 
pdb2gb3

>  <RESIDUE_NAME>  (343) 
GLU   PHE

>  <FRAG_NAME>  (343) 
ACET   MBZ

>  <FRAG_ATOM_NUM>  (343) 
fragi: 7  fragj: 15

>  <atom.prop.CHAIN_ID>  (343) 
A A A A A A A Z Z Z Z Z Z Z Z Z Z Z Z Z Z Z

>  <atom.prop.IS_HEAVY_ATOM>  (343) 
1 0 0 0 1 1 1 1 0 0 0 1 1 0 1 0 1 0 1 0 1 0

>  <DIFUSE_FUNC_ATOM>  (343) 
atom 6   atom 7   

>  <FINAL_SINGLE_POINT_ENERGY>  (343) 
0

>  <NONCOV_INTER_ENERGY_QM>  (343) 
0

>  <FF_Energy>  (343) 
3.86

>  <QM_Energy>  (343) 
-1.45

>  <source>  (343) 
ACET_MBZ_00

>  <Index>  (343) 
12263

$$$$
ACET-pdb2gcg-A-GLU-32:MBZ-pdb2gcg-A-PHE-10
     RDKit          3D

 22 21  0  0  0  0  0  0  0  0999 V2000
    4.3778    0.8785   -0.3124 C   0  0  0  0  0  0  0  0  0  0  0  0
    3.6182    1.3899    0.0554 H   0  0  0  0  0  0  0  0  0  0  0  0
    4.0741    0.1812   -0.9412 H   0  0  0  0  0  0  0  0  0  0  0  0
    5.0219    1.5702   -0.8554 H   0  0  0  0  0  0  0  0  0  0  0  0
    5.0641    0.1801    0.8470 C   0  0  0  0  0  0  0  0  0  0  0  0
    5.7094    0.8789    1.6565 O   0  0  0  0  0  1  0  0  0  0  0  0
    4.9457   -1.0831    0.9404 O   0  0  0  0  0  0  0  0  0  0  0  0
    0.0177    2.9407   -0.0009 C   0  0  0  0  0  0  0  0  0  0  0  0
    0.6457    3.2317    0.7012 H   0  0  0  0  0  0  0  0  0  0  0  0
   -0.9018    3.2478    0.1791 H   0  0  0  0  0  0  0  0  0  0  0  0
    0.3404    3.3817   -0.9441 H   0  0  0  0  0  0  0  0  0  0  0  0
    0.0026    1.4139   -0.0031 C   0  0  0  0  0  0  0  0  0  0  0  0
   -1.1991    0.7044    0.0066 C   0  0  0  0  0  0  0  0  0  0  0  0
   -2.0639    1.1934    0.0165 H   0  0  0  0  0  0  0  0  0  0  0  0
   -1.2043   -0.6924   -0.0000 C   0  0  0  0  0  0  0  0  0  0  0  0
   -2.0827   -1.1839   -0.0065 H   0  0  0  0  0  0  0  0  0  0  0  0
   -0.0004   -1.4065    0.0040 C   0  0  0  0  0  0  0  0  0  0  0  0
   -0.0125   -2.3989    0.0094 H   0  0  0  0  0  0  0  0  0  0  0  0
    1.2043   -0.7078    0.0000 C   0  0  0  0  0  0  0  0  0  0  0  0
    2.0839   -1.2029    0.0038 H   0  0  0  0  0  0  0  0  0  0  0  0
    1.1969    0.6885   -0.0075 C   0  0  0  0  0  0  0  0  0  0  0  0
    2.0699    1.1830   -0.0165 H   0  0  0  0  0  0  0  0  0  0  0  0
  1  5  1  0
  5  6  1  0
  5  7  2  0
  1  2  1  0
  1  3  1  0
  1  4  1  0
  8 12  1  0
 12 13  2  0
 13 15  1  0
 15 17  2  0
 17 19  1  0
 19 21  2  0
 21 12  1  0
  8  9  1  0
  8 10  1  0
  8 11  1  0
 13 14  1  0
 15 16  1  0
 17 18  1  0
 19 20  1  0
 21 22  1  0
M  CHG  1   6  -1
M  END
>  <PDB_ID>  (344) 
pdb2gcg

>  <RESIDUE_NAME>  (344) 
GLU   PHE

>  <FRAG_NAME>  (344) 
ACET   MBZ

>  <FRAG_ATOM_NUM>  (344) 
fragi: 7  fragj: 15

>  <atom.prop.CHAIN_ID>  (344) 
A A A A A A A Z Z Z Z Z Z Z Z Z Z Z Z Z Z Z

>  <atom.prop.IS_HEAVY_ATOM>  (344) 
1 0 0 0 1 1 1 1 0 0 0 1 1 0 1 0 1 0 1 0 1 0

>  <DIFUSE_FUNC_ATOM>  (344) 
atom 6   atom 7   

>  <FINAL_SINGLE_POINT_ENERGY>  (344) 
0

>  <NONCOV_INTER_ENERGY_QM>  (344) 
0

>  <FF_Energy>  (344) 
19.45

>  <QM_Energy>  (344) 
-0.17

>  <source>  (344) 
ACET_MBZ_00

>  <Index>  (344) 
12337

$$$$
ACET-pdb2gcl-A-GLU-374:MBZ-pdb2gcl-A-PHE-464
     RDKit          3D

 22 21  0  0  0  0  0  0  0  0999 V2000
    4.3212   -1.6070    0.6140 C   0  0  0  0  0  0  0  0  0  0  0  0
    4.1805   -2.3790    0.0225 H   0  0  0  0  0  0  0  0  0  0  0  0
    3.4754   -1.2311    0.9450 H   0  0  0  0  0  0  0  0  0  0  0  0
    4.9116   -1.9337    1.4699 H   0  0  0  0  0  0  0  0  0  0  0  0
    5.0092   -0.5183   -0.2149 C   0  0  0  0  0  0  0  0  0  0  0  0
    5.4662   -0.8093   -1.3445 O   0  0  0  0  0  1  0  0  0  0  0  0
    5.1013    0.6379    0.2609 O   0  0  0  0  0  0  0  0  0  0  0  0
    0.0014    2.9281   -0.0240 C   0  0  0  0  0  0  0  0  0  0  0  0
    0.6726    3.2348    0.6293 H   0  0  0  0  0  0  0  0  0  0  0  0
   -0.9066    3.2317    0.2132 H   0  0  0  0  0  0  0  0  0  0  0  0
    0.2567    3.3481   -0.9969 H   0  0  0  0  0  0  0  0  0  0  0  0
   -0.0017    1.4074    0.0003 C   0  0  0  0  0  0  0  0  0  0  0  0
   -1.2063    0.6990   -0.0035 C   0  0  0  0  0  0  0  0  0  0  0  0
   -2.0698    1.1805   -0.0103 H   0  0  0  0  0  0  0  0  0  0  0  0
   -1.2036   -0.7085    0.0000 C   0  0  0  0  0  0  0  0  0  0  0  0
   -2.0702   -1.2038   -0.0018 H   0  0  0  0  0  0  0  0  0  0  0  0
    0.0164   -1.3946    0.0082 C   0  0  0  0  0  0  0  0  0  0  0  0
    0.0128   -2.3948    0.0194 H   0  0  0  0  0  0  0  0  0  0  0  0
    1.2036   -0.6942    0.0000 C   0  0  0  0  0  0  0  0  0  0  0  0
    2.0920   -1.1854   -0.0007 H   0  0  0  0  0  0  0  0  0  0  0  0
    1.1915    0.6910   -0.0050 C   0  0  0  0  0  0  0  0  0  0  0  0
    2.0627    1.1922   -0.0136 H   0  0  0  0  0  0  0  0  0  0  0  0
  1  5  1  0
  5  6  1  0
  5  7  2  0
  1  2  1  0
  1  3  1  0
  1  4  1  0
  8 12  1  0
 12 13  2  0
 13 15  1  0
 15 17  2  0
 17 19  1  0
 19 21  2  0
 21 12  1  0
  8  9  1  0
  8 10  1  0
  8 11  1  0
 13 14  1  0
 15 16  1  0
 17 18  1  0
 19 20  1  0
 21 22  1  0
M  CHG  1   6  -1
M  END
>  <PDB_ID>  (345) 
pdb2gcl

>  <RESIDUE_NAME>  (345) 
GLU   PHE

>  <FRAG_NAME>  (345) 
ACET   MBZ

>  <FRAG_ATOM_NUM>  (345) 
fragi: 7  fragj: 15

>  <atom.prop.CHAIN_ID>  (345) 
A A A A A A A Z Z Z Z Z Z Z Z Z Z Z Z Z Z Z

>  <atom.prop.IS_HEAVY_ATOM>  (345) 
1 0 0 0 1 1 1 1 0 0 0 1 1 0 1 0 1 0 1 0 1 0

>  <DIFUSE_FUNC_ATOM>  (345) 
atom 6   atom 7   

>  <FINAL_SINGLE_POINT_ENERGY>  (345) 
0

>  <NONCOV_INTER_ENERGY_QM>  (345) 
0

>  <FF_Energy>  (345) 
8.83

>  <QM_Energy>  (345) 
-1.56

>  <source>  (345) 
ACET_MBZ_00

>  <Index>  (345) 
12338

$$$$
ACET-pdb2gcg-A-GLU-113:MBZ-pdb2gcg-B-PHE-175
     RDKit          3D

 22 21  0  0  0  0  0  0  0  0999 V2000
    5.0379    0.7514   -0.1993 C   0  0  0  0  0  0  0  0  0  0  0  0
    5.7483    0.6908   -0.8579 H   0  0  0  0  0  0  0  0  0  0  0  0
    4.2651    0.1959   -0.3921 H   0  0  0  0  0  0  0  0  0  0  0  0
    5.4300    0.5098    0.7886 H   0  0  0  0  0  0  0  0  0  0  0  0
    4.5404    2.2175   -0.2237 C   0  0  0  0  0  0  0  0  0  0  0  0
    4.9609    2.9223   -1.1613 O   0  0  0  0  0  1  0  0  0  0  0  0
    3.7530    2.6767    0.7040 O   0  0  0  0  0  0  0  0  0  0  0  0
    0.0093    2.9098   -0.0036 C   0  0  0  0  0  0  0  0  0  0  0  0
   -0.7152    3.2135   -0.6062 H   0  0  0  0  0  0  0  0  0  0  0  0
    0.8955    3.2003   -0.3358 H   0  0  0  0  0  0  0  0  0  0  0  0
   -0.1521    3.3567    0.9774 H   0  0  0  0  0  0  0  0  0  0  0  0
   -0.0036    1.3982    0.0004 C   0  0  0  0  0  0  0  0  0  0  0  0
   -1.2072    0.6964    0.0020 C   0  0  0  0  0  0  0  0  0  0  0  0
   -2.0693    1.1900    0.0036 H   0  0  0  0  0  0  0  0  0  0  0  0
   -1.2160   -0.6966    0.0000 C   0  0  0  0  0  0  0  0  0  0  0  0
   -2.0767   -1.1975    0.0021 H   0  0  0  0  0  0  0  0  0  0  0  0
    0.0144   -1.3936   -0.0029 C   0  0  0  0  0  0  0  0  0  0  0  0
    0.0110   -2.3873   -0.0079 H   0  0  0  0  0  0  0  0  0  0  0  0
    1.2160   -0.6830   -0.0000 C   0  0  0  0  0  0  0  0  0  0  0  0
    2.0956   -1.1884    0.0034 H   0  0  0  0  0  0  0  0  0  0  0  0
    1.1964    0.6786    0.0005 C   0  0  0  0  0  0  0  0  0  0  0  0
    2.0628    1.1975    0.0003 H   0  0  0  0  0  0  0  0  0  0  0  0
  1  5  1  0
  5  6  1  0
  5  7  2  0
  1  2  1  0
  1  3  1  0
  1  4  1  0
  8 12  1  0
 12 13  2  0
 13 15  1  0
 15 17  2  0
 17 19  1  0
 19 21  2  0
 21 12  1  0
  8  9  1  0
  8 10  1  0
  8 11  1  0
 13 14  1  0
 15 16  1  0
 17 18  1  0
 19 20  1  0
 21 22  1  0
M  CHG  1   6  -1
M  END
>  <PDB_ID>  (346) 
pdb2gcg

>  <RESIDUE_NAME>  (346) 
GLU   PHE

>  <FRAG_NAME>  (346) 
ACET   MBZ

>  <FRAG_ATOM_NUM>  (346) 
fragi: 7  fragj: 15

>  <atom.prop.CHAIN_ID>  (346) 
A A A A A A A Z Z Z Z Z Z Z Z Z Z Z Z Z Z Z

>  <atom.prop.IS_HEAVY_ATOM>  (346) 
1 0 0 0 1 1 1 1 0 0 0 1 1 0 1 0 1 0 1 0 1 0

>  <DIFUSE_FUNC_ATOM>  (346) 
atom 6   atom 7   

>  <FINAL_SINGLE_POINT_ENERGY>  (346) 
0

>  <NONCOV_INTER_ENERGY_QM>  (346) 
0

>  <FF_Energy>  (346) 
-1.77

>  <QM_Energy>  (346) 
-7.18

>  <source>  (346) 
ACET_MBZ_00

>  <Index>  (346) 
12341

$$$$
ACET-pdb1fea-B-GLU-252:MBZ-pdb1fea-B-PHE-269
     RDKit          3D

 22 21  0  0  0  0  0  0  0  0999 V2000
    1.9293    2.3082   -4.3428 C   0  0  0  0  0  0  0  0  0  0  0  0
    2.1041    2.7194   -5.2218 H   0  0  0  0  0  0  0  0  0  0  0  0
    1.6713    1.3606   -4.4267 H   0  0  0  0  0  0  0  0  0  0  0  0
    2.8365    2.3718   -3.7420 H   0  0  0  0  0  0  0  0  0  0  0  0
    0.7543    3.0426   -3.7260 C   0  0  0  0  0  0  0  0  0  0  0  0
    0.8313    3.4863   -2.5606 O   0  0  0  0  0  1  0  0  0  0  0  0
   -0.2424    3.2253   -4.4473 O   0  0  0  0  0  0  0  0  0  0  0  0
    0.0059    2.9268    0.0955 C   0  0  0  0  0  0  0  0  0  0  0  0
   -0.7896    3.2681   -0.3832 H   0  0  0  0  0  0  0  0  0  0  0  0
    0.8423    3.2509   -0.3221 H   0  0  0  0  0  0  0  0  0  0  0  0
   -0.0282    3.3185    1.1121 H   0  0  0  0  0  0  0  0  0  0  0  0
   -0.0065    1.4153    0.0018 C   0  0  0  0  0  0  0  0  0  0  0  0
   -1.2076    0.7153   -0.0018 C   0  0  0  0  0  0  0  0  0  0  0  0
   -2.0706    1.1954   -0.0068 H   0  0  0  0  0  0  0  0  0  0  0  0
   -1.2029   -0.6907    0.0000 C   0  0  0  0  0  0  0  0  0  0  0  0
   -2.0735   -1.1892   -0.0033 H   0  0  0  0  0  0  0  0  0  0  0  0
    0.0191   -1.4029    0.0078 C   0  0  0  0  0  0  0  0  0  0  0  0
   -0.0091   -2.4004    0.0183 H   0  0  0  0  0  0  0  0  0  0  0  0
    1.2029   -0.7193   -0.0000 C   0  0  0  0  0  0  0  0  0  0  0  0
    2.0918   -1.2036    0.0011 H   0  0  0  0  0  0  0  0  0  0  0  0
    1.1950    0.6823   -0.0078 C   0  0  0  0  0  0  0  0  0  0  0  0
    2.0659    1.1770   -0.0216 H   0  0  0  0  0  0  0  0  0  0  0  0
  1  5  1  0
  5  6  1  0
  5  7  2  0
  1  2  1  0
  1  3  1  0
  1  4  1  0
  8 12  1  0
 12 13  2  0
 13 15  1  0
 15 17  2  0
 17 19  1  0
 19 21  2  0
 21 12  1  0
  8  9  1  0
  8 10  1  0
  8 11  1  0
 13 14  1  0
 15 16  1  0
 17 18  1  0
 19 20  1  0
 21 22  1  0
M  CHG  1   6  -1
M  END
>  <PDB_ID>  (347) 
pdb1fea

>  <RESIDUE_NAME>  (347) 
GLU   PHE

>  <FRAG_NAME>  (347) 
ACET   MBZ

>  <FRAG_ATOM_NUM>  (347) 
fragi: 7  fragj: 15

>  <atom.prop.CHAIN_ID>  (347) 
A A A A A A A Z Z Z Z Z Z Z Z Z Z Z Z Z Z Z

>  <atom.prop.IS_HEAVY_ATOM>  (347) 
1 0 0 0 1 1 1 1 0 0 0 1 1 0 1 0 1 0 1 0 1 0

>  <DIFUSE_FUNC_ATOM>  (347) 
atom 6   atom 7   

>  <FINAL_SINGLE_POINT_ENERGY>  (347) 
0

>  <NONCOV_INTER_ENERGY_QM>  (347) 
0

>  <FF_Energy>  (347) 
3.32

>  <QM_Energy>  (347) 
-3.94

>  <source>  (347) 
ACET_MBZ_00

>  <Index>  (347) 
12375

$$$$
ACET-pdb1fea-C-GLU-252:MBZ-pdb1fea-C-PHE-269
     RDKit          3D

 22 21  0  0  0  0  0  0  0  0999 V2000
   -2.2493    1.0541    3.2487 C   0  0  0  0  0  0  0  0  0  0  0  0
   -1.6361    0.4264    3.6905 H   0  0  0  0  0  0  0  0  0  0  0  0
   -2.3119    0.8987    2.2813 H   0  0  0  0  0  0  0  0  0  0  0  0
   -3.2405    0.9470    3.6893 H   0  0  0  0  0  0  0  0  0  0  0  0
   -1.6799    2.4526    3.4429 C   0  0  0  0  0  0  0  0  0  0  0  0
   -0.9986    2.6568    4.4777 O   0  0  0  0  0  1  0  0  0  0  0  0
   -1.9129    3.3230    2.5546 O   0  0  0  0  0  0  0  0  0  0  0  0
    0.0057    2.8973   -0.0442 C   0  0  0  0  0  0  0  0  0  0  0  0
    0.8687    3.2106    0.3212 H   0  0  0  0  0  0  0  0  0  0  0  0
   -0.7556    3.2250    0.4938 H   0  0  0  0  0  0  0  0  0  0  0  0
   -0.0975    3.3007   -1.0516 H   0  0  0  0  0  0  0  0  0  0  0  0
   -0.0032    1.4006   -0.0003 C   0  0  0  0  0  0  0  0  0  0  0  0
   -1.2067    0.7042   -0.0017 C   0  0  0  0  0  0  0  0  0  0  0  0
   -2.0678    1.1964   -0.0046 H   0  0  0  0  0  0  0  0  0  0  0  0
   -1.2120   -0.6875   -0.0000 C   0  0  0  0  0  0  0  0  0  0  0  0
   -2.0811   -1.1877    0.0021 H   0  0  0  0  0  0  0  0  0  0  0  0
    0.0076   -1.3959    0.0009 C   0  0  0  0  0  0  0  0  0  0  0  0
   -0.0096   -2.3924    0.0019 H   0  0  0  0  0  0  0  0  0  0  0  0
    1.2120   -0.7063   -0.0000 C   0  0  0  0  0  0  0  0  0  0  0  0
    2.0900   -1.2026    0.0001 H   0  0  0  0  0  0  0  0  0  0  0  0
    1.2024    0.6849    0.0010 C   0  0  0  0  0  0  0  0  0  0  0  0
    2.0670    1.1872    0.0022 H   0  0  0  0  0  0  0  0  0  0  0  0
  1  5  1  0
  5  6  1  0
  5  7  2  0
  1  2  1  0
  1  3  1  0
  1  4  1  0
  8 12  1  0
 12 13  2  0
 13 15  1  0
 15 17  2  0
 17 19  1  0
 19 21  2  0
 21 12  1  0
  8  9  1  0
  8 10  1  0
  8 11  1  0
 13 14  1  0
 15 16  1  0
 17 18  1  0
 19 20  1  0
 21 22  1  0
M  CHG  1   6  -1
M  END
>  <PDB_ID>  (348) 
pdb1fea

>  <RESIDUE_NAME>  (348) 
GLU   PHE

>  <FRAG_NAME>  (348) 
ACET   MBZ

>  <FRAG_ATOM_NUM>  (348) 
fragi: 7  fragj: 15

>  <atom.prop.CHAIN_ID>  (348) 
A A A A A A A Z Z Z Z Z Z Z Z Z Z Z Z Z Z Z

>  <atom.prop.IS_HEAVY_ATOM>  (348) 
1 0 0 0 1 1 1 1 0 0 0 1 1 0 1 0 1 0 1 0 1 0

>  <DIFUSE_FUNC_ATOM>  (348) 
atom 6   atom 7   

>  <FINAL_SINGLE_POINT_ENERGY>  (348) 
0

>  <NONCOV_INTER_ENERGY_QM>  (348) 
0

>  <FF_Energy>  (348) 
0.51

>  <QM_Energy>  (348) 
-5.02

>  <source>  (348) 
ACET_MBZ_00

>  <Index>  (348) 
12378

$$$$
ACET-pdb1feu-A-GLU-119:MBZ-pdb1feu-A-PHE-104
     RDKit          3D

 22 21  0  0  0  0  0  0  0  0999 V2000
   -0.6281   -0.0206   -3.6791 C   0  0  0  0  0  0  0  0  0  0  0  0
    0.1346    0.0400   -3.0660 H   0  0  0  0  0  0  0  0  0  0  0  0
   -0.3834    0.1666   -4.6090 H   0  0  0  0  0  0  0  0  0  0  0  0
   -1.0336   -1.0309   -3.6250 H   0  0  0  0  0  0  0  0  0  0  0  0
   -1.6437    1.0249   -3.2531 C   0  0  0  0  0  0  0  0  0  0  0  0
   -1.3253    2.2320   -3.3206 O   0  0  0  0  0  1  0  0  0  0  0  0
   -2.7615    0.6369   -2.8491 O   0  0  0  0  0  0  0  0  0  0  0  0
    0.0106    2.8997    0.0295 C   0  0  0  0  0  0  0  0  0  0  0  0
   -0.8448    3.2200   -0.3469 H   0  0  0  0  0  0  0  0  0  0  0  0
    0.7806    3.2105   -0.5067 H   0  0  0  0  0  0  0  0  0  0  0  0
    0.1116    3.3167    1.0315 H   0  0  0  0  0  0  0  0  0  0  0  0
   -0.0010    1.3972   -0.0002 C   0  0  0  0  0  0  0  0  0  0  0  0
   -1.2004    0.6974    0.0010 C   0  0  0  0  0  0  0  0  0  0  0  0
   -2.0636    1.1897    0.0011 H   0  0  0  0  0  0  0  0  0  0  0  0
   -1.2042   -0.6901   -0.0000 C   0  0  0  0  0  0  0  0  0  0  0  0
   -2.0760   -1.1889   -0.0002 H   0  0  0  0  0  0  0  0  0  0  0  0
    0.0070   -1.3913    0.0004 C   0  0  0  0  0  0  0  0  0  0  0  0
   -0.0040   -2.3896   -0.0001 H   0  0  0  0  0  0  0  0  0  0  0  0
    1.2042   -0.6980    0.0000 C   0  0  0  0  0  0  0  0  0  0  0  0
    2.0860   -1.1952    0.0018 H   0  0  0  0  0  0  0  0  0  0  0  0
    1.1944    0.6848   -0.0013 C   0  0  0  0  0  0  0  0  0  0  0  0
    2.0631    1.1868   -0.0041 H   0  0  0  0  0  0  0  0  0  0  0  0
  1  5  1  0
  5  6  1  0
  5  7  2  0
  1  2  1  0
  1  3  1  0
  1  4  1  0
  8 12  1  0
 12 13  2  0
 13 15  1  0
 15 17  2  0
 17 19  1  0
 19 21  2  0
 21 12  1  0
  8  9  1  0
  8 10  1  0
  8 11  1  0
 13 14  1  0
 15 16  1  0
 17 18  1  0
 19 20  1  0
 21 22  1  0
M  CHG  1   6  -1
M  END
>  <PDB_ID>  (349) 
pdb1feu

>  <RESIDUE_NAME>  (349) 
GLU   PHE

>  <FRAG_NAME>  (349) 
ACET   MBZ

>  <FRAG_ATOM_NUM>  (349) 
fragi: 7  fragj: 15

>  <atom.prop.CHAIN_ID>  (349) 
A A A A A A A Z Z Z Z Z Z Z Z Z Z Z Z Z Z Z

>  <atom.prop.IS_HEAVY_ATOM>  (349) 
1 0 0 0 1 1 1 1 0 0 0 1 1 0 1 0 1 0 1 0 1 0

>  <DIFUSE_FUNC_ATOM>  (349) 
atom 6   atom 7   

>  <FINAL_SINGLE_POINT_ENERGY>  (349) 
0

>  <NONCOV_INTER_ENERGY_QM>  (349) 
0

>  <FF_Energy>  (349) 
-0.05

>  <QM_Energy>  (349) 
-5.46

>  <source>  (349) 
ACET_MBZ_00

>  <Index>  (349) 
12391

$$$$
ACET-pdb2gdq-A-GLU-204:MBZ-pdb2gdq-A-PHE-207
     RDKit          3D

 22 21  0  0  0  0  0  0  0  0999 V2000
    4.3056    4.0917   -2.3695 C   0  0  0  0  0  0  0  0  0  0  0  0
    5.2868    4.1828   -2.3274 H   0  0  0  0  0  0  0  0  0  0  0  0
    3.8966    4.8027   -2.9172 H   0  0  0  0  0  0  0  0  0  0  0  0
    4.0615    3.1243   -2.8083 H   0  0  0  0  0  0  0  0  0  0  0  0
    3.7778    4.2588   -0.9526 C   0  0  0  0  0  0  0  0  0  0  0  0
    3.4970    3.2457   -0.2584 O   0  0  0  0  0  1  0  0  0  0  0  0
    3.6398    5.4218   -0.5295 O   0  0  0  0  0  0  0  0  0  0  0  0
    0.0296    2.9232   -0.0197 C   0  0  0  0  0  0  0  0  0  0  0  0
    0.7824    3.2135   -0.5955 H   0  0  0  0  0  0  0  0  0  0  0  0
    0.1631    3.2240    0.9152 H   0  0  0  0  0  0  0  0  0  0  0  0
   -0.8774    3.3978   -0.3943 H   0  0  0  0  0  0  0  0  0  0  0  0
    0.0029    1.4106   -0.0204 C   0  0  0  0  0  0  0  0  0  0  0  0
   -1.2009    0.7079   -0.0068 C   0  0  0  0  0  0  0  0  0  0  0  0
   -2.0645    1.1902   -0.0030 H   0  0  0  0  0  0  0  0  0  0  0  0
   -1.2042   -0.7034   -0.0000 C   0  0  0  0  0  0  0  0  0  0  0  0
   -2.0856   -1.1852   -0.0156 H   0  0  0  0  0  0  0  0  0  0  0  0
   -0.0101   -1.3984    0.0300 C   0  0  0  0  0  0  0  0  0  0  0  0
   -0.0130   -2.3992    0.0731 H   0  0  0  0  0  0  0  0  0  0  0  0
    1.2042   -0.7109    0.0000 C   0  0  0  0  0  0  0  0  0  0  0  0
    2.0773   -1.2104   -0.0179 H   0  0  0  0  0  0  0  0  0  0  0  0
    1.2081    0.6942   -0.0028 C   0  0  0  0  0  0  0  0  0  0  0  0
    2.0740    1.1831    0.0066 H   0  0  0  0  0  0  0  0  0  0  0  0
  1  5  1  0
  5  6  1  0
  5  7  2  0
  1  2  1  0
  1  3  1  0
  1  4  1  0
  8 12  1  0
 12 13  2  0
 13 15  1  0
 15 17  2  0
 17 19  1  0
 19 21  2  0
 21 12  1  0
  8  9  1  0
  8 10  1  0
  8 11  1  0
 13 14  1  0
 15 16  1  0
 17 18  1  0
 19 20  1  0
 21 22  1  0
M  CHG  1   6  -1
M  END
>  <PDB_ID>  (350) 
pdb2gdq

>  <RESIDUE_NAME>  (350) 
GLU   PHE

>  <FRAG_NAME>  (350) 
ACET   MBZ

>  <FRAG_ATOM_NUM>  (350) 
fragi: 7  fragj: 15

>  <atom.prop.CHAIN_ID>  (350) 
A A A A A A A Z Z Z Z Z Z Z Z Z Z Z Z Z Z Z

>  <atom.prop.IS_HEAVY_ATOM>  (350) 
1 0 0 0 1 1 1 1 0 0 0 1 1 0 1 0 1 0 1 0 1 0

>  <DIFUSE_FUNC_ATOM>  (350) 
atom 6   atom 7   

>  <FINAL_SINGLE_POINT_ENERGY>  (350) 
0

>  <NONCOV_INTER_ENERGY_QM>  (350) 
0

>  <FF_Energy>  (350) 
-2.36

>  <QM_Energy>  (350) 
-7.88

>  <source>  (350) 
ACET_MBZ_00

>  <Index>  (350) 
12401

$$$$
ACET-pdb1ffy-A-GLU-540:MBZ-pdb1ffy-A-PHE-547
     RDKit          3D

 22 21  0  0  0  0  0  0  0  0999 V2000
   -1.5892    3.3199   -2.9243 C   0  0  0  0  0  0  0  0  0  0  0  0
   -0.8905    3.9074   -2.5537 H   0  0  0  0  0  0  0  0  0  0  0  0
   -2.0219    2.7772   -2.2260 H   0  0  0  0  0  0  0  0  0  0  0  0
   -2.3509    3.9512   -3.3818 H   0  0  0  0  0  0  0  0  0  0  0  0
   -0.9178    2.3636   -3.9000 C   0  0  0  0  0  0  0  0  0  0  0  0
   -0.6273    2.7729   -5.0420 O   0  0  0  0  0  1  0  0  0  0  0  0
   -0.6585    1.2068   -3.5163 O   0  0  0  0  0  0  0  0  0  0  0  0
   -0.0077    2.9050   -0.0127 C   0  0  0  0  0  0  0  0  0  0  0  0
   -0.3816    3.2011   -0.8749 H   0  0  0  0  0  0  0  0  0  0  0  0
    0.9190    3.2150    0.1129 H   0  0  0  0  0  0  0  0  0  0  0  0
   -0.6163    3.3351    0.7828 H   0  0  0  0  0  0  0  0  0  0  0  0
   -0.0010    1.3999   -0.0008 C   0  0  0  0  0  0  0  0  0  0  0  0
   -1.1975    0.6913    0.0017 C   0  0  0  0  0  0  0  0  0  0  0  0
   -2.0647    1.1813    0.0037 H   0  0  0  0  0  0  0  0  0  0  0  0
   -1.2053   -0.7028   -0.0000 C   0  0  0  0  0  0  0  0  0  0  0  0
   -2.0775   -1.1960    0.0017 H   0  0  0  0  0  0  0  0  0  0  0  0
    0.0032   -1.3966   -0.0019 C   0  0  0  0  0  0  0  0  0  0  0  0
    0.0057   -2.3920   -0.0052 H   0  0  0  0  0  0  0  0  0  0  0  0
    1.2053   -0.6882    0.0000 C   0  0  0  0  0  0  0  0  0  0  0  0
    2.0872   -1.1872    0.0021 H   0  0  0  0  0  0  0  0  0  0  0  0
    1.1953    0.6964    0.0009 C   0  0  0  0  0  0  0  0  0  0  0  0
    2.0628    1.1982    0.0023 H   0  0  0  0  0  0  0  0  0  0  0  0
  1  5  1  0
  5  6  1  0
  5  7  2  0
  1  2  1  0
  1  3  1  0
  1  4  1  0
  8 12  1  0
 12 13  2  0
 13 15  1  0
 15 17  2  0
 17 19  1  0
 19 21  2  0
 21 12  1  0
  8  9  1  0
  8 10  1  0
  8 11  1  0
 13 14  1  0
 15 16  1  0
 17 18  1  0
 19 20  1  0
 21 22  1  0
M  CHG  1   6  -1
M  END
>  <PDB_ID>  (351) 
pdb1ffy

>  <RESIDUE_NAME>  (351) 
GLU   PHE

>  <FRAG_NAME>  (351) 
ACET   MBZ

>  <FRAG_ATOM_NUM>  (351) 
fragi: 7  fragj: 15

>  <atom.prop.CHAIN_ID>  (351) 
A A A A A A A Z Z Z Z Z Z Z Z Z Z Z Z Z Z Z

>  <atom.prop.IS_HEAVY_ATOM>  (351) 
1 0 0 0 1 1 1 1 0 0 0 1 1 0 1 0 1 0 1 0 1 0

>  <DIFUSE_FUNC_ATOM>  (351) 
atom 6   atom 7   

>  <FINAL_SINGLE_POINT_ENERGY>  (351) 
0

>  <NONCOV_INTER_ENERGY_QM>  (351) 
0

>  <FF_Energy>  (351) 
5.93

>  <QM_Energy>  (351) 
0.66

>  <source>  (351) 
ACET_MBZ_00

>  <Index>  (351) 
12440

$$$$
ACET-pdb1fm6-U-ASP-273:MBZ-pdb1fm6-U-PHE-450
     RDKit          3D

 22 21  0  0  0  0  0  0  0  0999 V2000
    2.5276    5.5995    3.4639 C   0  0  0  0  0  0  0  0  0  0  0  0
    1.7583    6.0029    3.9445 H   0  0  0  0  0  0  0  0  0  0  0  0
    3.3276    6.1822    3.5302 H   0  0  0  0  0  0  0  0  0  0  0  0
    2.7614    4.6462    3.9380 H   0  0  0  0  0  0  0  0  0  0  0  0
    2.1592    5.4409    2.0025 C   0  0  0  0  0  0  0  0  0  0  0  0
    1.0015    5.0556    1.7225 O   0  0  0  0  0  1  0  0  0  0  0  0
    3.0302    5.6854    1.1378 O   0  0  0  0  0  0  0  0  0  0  0  0
   -0.0095    2.9335   -0.0111 C   0  0  0  0  0  0  0  0  0  0  0  0
    0.4046    3.2315   -0.8540 H   0  0  0  0  0  0  0  0  0  0  0  0
    0.4947    3.2429    0.7763 H   0  0  0  0  0  0  0  0  0  0  0  0
   -1.0097    3.3633    0.0414 H   0  0  0  0  0  0  0  0  0  0  0  0
    0.0007    1.4138   -0.0009 C   0  0  0  0  0  0  0  0  0  0  0  0
   -1.1966    0.6942   -0.0005 C   0  0  0  0  0  0  0  0  0  0  0  0
   -2.0665    1.1817   -0.0022 H   0  0  0  0  0  0  0  0  0  0  0  0
   -1.2067   -0.7088   -0.0000 C   0  0  0  0  0  0  0  0  0  0  0  0
   -2.0830   -1.1949    0.0009 H   0  0  0  0  0  0  0  0  0  0  0  0
   -0.0032   -1.4061    0.0008 C   0  0  0  0  0  0  0  0  0  0  0  0
    0.0007   -2.4006    0.0016 H   0  0  0  0  0  0  0  0  0  0  0  0
    1.2067   -0.6983    0.0000 C   0  0  0  0  0  0  0  0  0  0  0  0
    2.0858   -1.1917    0.0004 H   0  0  0  0  0  0  0  0  0  0  0  0
    1.1991    0.7052    0.0006 C   0  0  0  0  0  0  0  0  0  0  0  0
    2.0677    1.1975    0.0016 H   0  0  0  0  0  0  0  0  0  0  0  0
  1  5  1  0
  5  6  1  0
  5  7  2  0
  1  2  1  0
  1  3  1  0
  1  4  1  0
  8 12  1  0
 12 13  2  0
 13 15  1  0
 15 17  2  0
 17 19  1  0
 19 21  2  0
 21 12  1  0
  8  9  1  0
  8 10  1  0
  8 11  1  0
 13 14  1  0
 15 16  1  0
 17 18  1  0
 19 20  1  0
 21 22  1  0
M  CHG  1   6  -1
M  END
>  <PDB_ID>  (352) 
pdb1fm6

>  <RESIDUE_NAME>  (352) 
ASP   PHE

>  <FRAG_NAME>  (352) 
ACET   MBZ

>  <FRAG_ATOM_NUM>  (352) 
fragi: 7  fragj: 15

>  <atom.prop.CHAIN_ID>  (352) 
A A A A A A A Z Z Z Z Z Z Z Z Z Z Z Z Z Z Z

>  <atom.prop.IS_HEAVY_ATOM>  (352) 
1 0 0 0 1 1 1 1 0 0 0 1 1 0 1 0 1 0 1 0 1 0

>  <DIFUSE_FUNC_ATOM>  (352) 
atom 6   atom 7   

>  <FINAL_SINGLE_POINT_ENERGY>  (352) 
0

>  <NONCOV_INTER_ENERGY_QM>  (352) 
0

>  <FF_Energy>  (352) 
-0.64

>  <QM_Energy>  (352) 
-4.99

>  <source>  (352) 
ACET_MBZ_00

>  <Index>  (352) 
12673

$$$$
ACET-pdb2gmh-A-GLU-449:MBZ-pdb2gmh-A-PHE-441
     RDKit          3D

 22 21  0  0  0  0  0  0  0  0999 V2000
    2.8873    2.9528   -3.1186 C   0  0  0  0  0  0  0  0  0  0  0  0
    3.2177    3.2127   -2.2120 H   0  0  0  0  0  0  0  0  0  0  0  0
    3.3619    3.4896   -3.8142 H   0  0  0  0  0  0  0  0  0  0  0  0
    3.1679    1.9109   -3.2724 H   0  0  0  0  0  0  0  0  0  0  0  0
    1.4540    3.2380   -3.1990 C   0  0  0  0  0  0  0  0  0  0  0  0
    0.8308    2.8713   -4.2011 O   0  0  0  0  0  1  0  0  0  0  0  0
    0.9533    3.8575   -2.2582 O   0  0  0  0  0  0  0  0  0  0  0  0
   -0.0002    2.8828    0.0204 C   0  0  0  0  0  0  0  0  0  0  0  0
   -0.9145    3.1926   -0.1847 H   0  0  0  0  0  0  0  0  0  0  0  0
    0.6497    3.2010   -0.6507 H   0  0  0  0  0  0  0  0  0  0  0  0
    0.2857    3.2937    0.9886 H   0  0  0  0  0  0  0  0  0  0  0  0
    0.0022    1.3921   -0.0002 C   0  0  0  0  0  0  0  0  0  0  0  0
   -1.2085    0.6871   -0.0007 C   0  0  0  0  0  0  0  0  0  0  0  0
   -2.0659    1.1846   -0.0032 H   0  0  0  0  0  0  0  0  0  0  0  0
   -1.2098   -0.6955   -0.0000 C   0  0  0  0  0  0  0  0  0  0  0  0
   -2.0794   -1.1985   -0.0000 H   0  0  0  0  0  0  0  0  0  0  0  0
    0.0025   -1.3876    0.0020 C   0  0  0  0  0  0  0  0  0  0  0  0
    0.0008   -2.3875    0.0046 H   0  0  0  0  0  0  0  0  0  0  0  0
    1.2098   -0.6890   -0.0000 C   0  0  0  0  0  0  0  0  0  0  0  0
    2.0876   -1.1931    0.0007 H   0  0  0  0  0  0  0  0  0  0  0  0
    1.2038    0.6929   -0.0010 C   0  0  0  0  0  0  0  0  0  0  0  0
    2.0666    1.1959   -0.0031 H   0  0  0  0  0  0  0  0  0  0  0  0
  1  5  1  0
  5  6  1  0
  5  7  2  0
  1  2  1  0
  1  3  1  0
  1  4  1  0
  8 12  1  0
 12 13  2  0
 13 15  1  0
 15 17  2  0
 17 19  1  0
 19 21  2  0
 21 12  1  0
  8  9  1  0
  8 10  1  0
  8 11  1  0
 13 14  1  0
 15 16  1  0
 17 18  1  0
 19 20  1  0
 21 22  1  0
M  CHG  1   6  -1
M  END
>  <PDB_ID>  (353) 
pdb2gmh

>  <RESIDUE_NAME>  (353) 
GLU   PHE

>  <FRAG_NAME>  (353) 
ACET   MBZ

>  <FRAG_ATOM_NUM>  (353) 
fragi: 7  fragj: 15

>  <atom.prop.CHAIN_ID>  (353) 
A A A A A A A Z Z Z Z Z Z Z Z Z Z Z Z Z Z Z

>  <atom.prop.IS_HEAVY_ATOM>  (353) 
1 0 0 0 1 1 1 1 0 0 0 1 1 0 1 0 1 0 1 0 1 0

>  <DIFUSE_FUNC_ATOM>  (353) 
atom 6   atom 7   

>  <FINAL_SINGLE_POINT_ENERGY>  (353) 
0

>  <NONCOV_INTER_ENERGY_QM>  (353) 
0

>  <FF_Energy>  (353) 
38.16

>  <QM_Energy>  (353) 
-0.29

>  <source>  (353) 
ACET_MBZ_00

>  <Index>  (353) 
12899

$$$$
ACET-pdb2gms-A-GLU-158:MBZ-pdb2gms-A-PHE-176
     RDKit          3D

 22 21  0  0  0  0  0  0  0  0999 V2000
   -3.5805    5.5351   -1.8155 C   0  0  0  0  0  0  0  0  0  0  0  0
   -3.5564    5.3315   -2.7673 H   0  0  0  0  0  0  0  0  0  0  0  0
   -2.8391    6.0862   -1.5101 H   0  0  0  0  0  0  0  0  0  0  0  0
   -4.5043    6.0780   -1.6154 H   0  0  0  0  0  0  0  0  0  0  0  0
   -3.5619    4.2480   -1.0525 C   0  0  0  0  0  0  0  0  0  0  0  0
   -4.1815    3.2621   -1.4366 O   0  0  0  0  0  1  0  0  0  0  0  0
   -2.8787    4.3090    0.0665 O   0  0  0  0  0  0  0  0  0  0  0  0
    0.0285    2.9147   -0.0086 C   0  0  0  0  0  0  0  0  0  0  0  0
   -0.7687    3.2384   -0.4777 H   0  0  0  0  0  0  0  0  0  0  0  0
    0.8634    3.2081   -0.4281 H   0  0  0  0  0  0  0  0  0  0  0  0
    0.0054    3.3179    1.0038 H   0  0  0  0  0  0  0  0  0  0  0  0
    0.0010    1.4195   -0.0043 C   0  0  0  0  0  0  0  0  0  0  0  0
   -1.1941    0.6987    0.0059 C   0  0  0  0  0  0  0  0  0  0  0  0
   -2.0649    1.1848    0.0164 H   0  0  0  0  0  0  0  0  0  0  0  0
   -1.2011   -0.7018    0.0000 C   0  0  0  0  0  0  0  0  0  0  0  0
   -2.0798   -1.1902    0.0026 H   0  0  0  0  0  0  0  0  0  0  0  0
    0.0008   -1.4088   -0.0083 C   0  0  0  0  0  0  0  0  0  0  0  0
   -0.0044   -2.4002   -0.0204 H   0  0  0  0  0  0  0  0  0  0  0  0
    1.2011   -0.7030   -0.0000 C   0  0  0  0  0  0  0  0  0  0  0  0
    2.0849   -1.1945    0.0027 H   0  0  0  0  0  0  0  0  0  0  0  0
    1.1923    0.6954    0.0067 C   0  0  0  0  0  0  0  0  0  0  0  0
    2.0667    1.1884    0.0187 H   0  0  0  0  0  0  0  0  0  0  0  0
  1  5  1  0
  5  6  1  0
  5  7  2  0
  1  2  1  0
  1  3  1  0
  1  4  1  0
  8 12  1  0
 12 13  2  0
 13 15  1  0
 15 17  2  0
 17 19  1  0
 19 21  2  0
 21 12  1  0
  8  9  1  0
  8 10  1  0
  8 11  1  0
 13 14  1  0
 15 16  1  0
 17 18  1  0
 19 20  1  0
 21 22  1  0
M  CHG  1   6  -1
M  END
>  <PDB_ID>  (354) 
pdb2gms

>  <RESIDUE_NAME>  (354) 
GLU   PHE

>  <FRAG_NAME>  (354) 
ACET   MBZ

>  <FRAG_ATOM_NUM>  (354) 
fragi: 7  fragj: 15

>  <atom.prop.CHAIN_ID>  (354) 
A A A A A A A Z Z Z Z Z Z Z Z Z Z Z Z Z Z Z

>  <atom.prop.IS_HEAVY_ATOM>  (354) 
1 0 0 0 1 1 1 1 0 0 0 1 1 0 1 0 1 0 1 0 1 0

>  <DIFUSE_FUNC_ATOM>  (354) 
atom 6   atom 7   

>  <FINAL_SINGLE_POINT_ENERGY>  (354) 
0

>  <NONCOV_INTER_ENERGY_QM>  (354) 
0

>  <FF_Energy>  (354) 
-1.9

>  <QM_Energy>  (354) 
-7.45

>  <source>  (354) 
ACET_MBZ_00

>  <Index>  (354) 
12906

$$$$
ACET-pdb1fsu-A-ASP-73:MBZ-pdb1fsu-A-PHE-62
     RDKit          3D

 22 21  0  0  0  0  0  0  0  0999 V2000
    4.6341    3.7071   -0.8493 C   0  0  0  0  0  0  0  0  0  0  0  0
    5.6153    3.8671   -0.8504 H   0  0  0  0  0  0  0  0  0  0  0  0
    4.1615    4.4447   -1.3168 H   0  0  0  0  0  0  0  0  0  0  0  0
    4.4421    2.7837   -1.3956 H   0  0  0  0  0  0  0  0  0  0  0  0
    4.1520    3.6572    0.5945 C   0  0  0  0  0  0  0  0  0  0  0  0
    3.4879    2.6702    0.9928 O   0  0  0  0  0  1  0  0  0  0  0  0
    4.4410    4.6197    1.3349 O   0  0  0  0  0  0  0  0  0  0  0  0
    0.0062    2.9140   -0.1053 C   0  0  0  0  0  0  0  0  0  0  0  0
   -0.7121    3.1797   -0.7350 H   0  0  0  0  0  0  0  0  0  0  0  0
    0.8950    3.1936   -0.4460 H   0  0  0  0  0  0  0  0  0  0  0  0
   -0.1672    3.4398    0.8336 H   0  0  0  0  0  0  0  0  0  0  0  0
    0.0011    1.4092   -0.0015 C   0  0  0  0  0  0  0  0  0  0  0  0
   -1.1970    0.6966    0.0018 C   0  0  0  0  0  0  0  0  0  0  0  0
   -2.0644    1.1834    0.0048 H   0  0  0  0  0  0  0  0  0  0  0  0
   -1.2024   -0.7035    0.0000 C   0  0  0  0  0  0  0  0  0  0  0  0
   -2.0804   -1.1914    0.0021 H   0  0  0  0  0  0  0  0  0  0  0  0
   -0.0030   -1.4000   -0.0030 C   0  0  0  0  0  0  0  0  0  0  0  0
   -0.0032   -2.3977   -0.0073 H   0  0  0  0  0  0  0  0  0  0  0  0
    1.2024   -0.7000   -0.0000 C   0  0  0  0  0  0  0  0  0  0  0  0
    2.0824   -1.1960    0.0017 H   0  0  0  0  0  0  0  0  0  0  0  0
    1.1988    0.6977    0.0028 C   0  0  0  0  0  0  0  0  0  0  0  0
    2.0677    1.1906    0.0074 H   0  0  0  0  0  0  0  0  0  0  0  0
  1  5  1  0
  5  6  1  0
  5  7  2  0
  1  2  1  0
  1  3  1  0
  1  4  1  0
  8 12  1  0
 12 13  2  0
 13 15  1  0
 15 17  2  0
 17 19  1  0
 19 21  2  0
 21 12  1  0
  8  9  1  0
  8 10  1  0
  8 11  1  0
 13 14  1  0
 15 16  1  0
 17 18  1  0
 19 20  1  0
 21 22  1  0
M  CHG  1   6  -1
M  END
>  <PDB_ID>  (355) 
pdb1fsu

>  <RESIDUE_NAME>  (355) 
ASP   PHE

>  <FRAG_NAME>  (355) 
ACET   MBZ

>  <FRAG_ATOM_NUM>  (355) 
fragi: 7  fragj: 15

>  <atom.prop.CHAIN_ID>  (355) 
A A A A A A A Z Z Z Z Z Z Z Z Z Z Z Z Z Z Z

>  <atom.prop.IS_HEAVY_ATOM>  (355) 
1 0 0 0 1 1 1 1 0 0 0 1 1 0 1 0 1 0 1 0 1 0

>  <DIFUSE_FUNC_ATOM>  (355) 
atom 6   atom 7   

>  <FINAL_SINGLE_POINT_ENERGY>  (355) 
0

>  <NONCOV_INTER_ENERGY_QM>  (355) 
0

>  <FF_Energy>  (355) 
-1.11

>  <QM_Energy>  (355) 
-7.09

>  <source>  (355) 
ACET_MBZ_00

>  <Index>  (355) 
12944

$$$$
ACET-pdb1ftj-B-GLU-97:MBZ-pdb1ftj-B-PHE-102
     RDKit          3D

 22 21  0  0  0  0  0  0  0  0999 V2000
    4.5615    1.4768    0.7471 C   0  0  0  0  0  0  0  0  0  0  0  0
    3.7870    0.9791    0.3943 H   0  0  0  0  0  0  0  0  0  0  0  0
    4.7022    1.3017    1.7069 H   0  0  0  0  0  0  0  0  0  0  0  0
    5.4522    1.1667    0.2008 H   0  0  0  0  0  0  0  0  0  0  0  0
    4.2592    2.9519    0.5959 C   0  0  0  0  0  0  0  0  0  0  0  0
    4.9046    3.6269   -0.2263 O   0  0  0  0  0  1  0  0  0  0  0  0
    3.3763    3.4367    1.3096 O   0  0  0  0  0  0  0  0  0  0  0  0
    0.0036    2.8819    0.0752 C   0  0  0  0  0  0  0  0  0  0  0  0
    0.9168    3.1881    0.3221 H   0  0  0  0  0  0  0  0  0  0  0  0
   -0.6559    3.1686    0.7622 H   0  0  0  0  0  0  0  0  0  0  0  0
   -0.2635    3.3831   -0.8552 H   0  0  0  0  0  0  0  0  0  0  0  0
    0.0016    1.4093    0.0004 C   0  0  0  0  0  0  0  0  0  0  0  0
   -1.1986    0.7024   -0.0017 C   0  0  0  0  0  0  0  0  0  0  0  0
   -2.0648    1.1811   -0.0055 H   0  0  0  0  0  0  0  0  0  0  0  0
   -1.1970   -0.7094   -0.0000 C   0  0  0  0  0  0  0  0  0  0  0  0
   -2.0771   -1.1942    0.0012 H   0  0  0  0  0  0  0  0  0  0  0  0
    0.0012   -1.4019    0.0021 C   0  0  0  0  0  0  0  0  0  0  0  0
    0.0003   -2.4007    0.0047 H   0  0  0  0  0  0  0  0  0  0  0  0
    1.1970   -0.7038    0.0000 C   0  0  0  0  0  0  0  0  0  0  0  0
    2.0832   -1.1929    0.0001 H   0  0  0  0  0  0  0  0  0  0  0  0
    1.1958    0.7035   -0.0009 C   0  0  0  0  0  0  0  0  0  0  0  0
    2.0660    1.1889   -0.0031 H   0  0  0  0  0  0  0  0  0  0  0  0
  1  5  1  0
  5  6  1  0
  5  7  2  0
  1  2  1  0
  1  3  1  0
  1  4  1  0
  8 12  1  0
 12 13  2  0
 13 15  1  0
 15 17  2  0
 17 19  1  0
 19 21  2  0
 21 12  1  0
  8  9  1  0
  8 10  1  0
  8 11  1  0
 13 14  1  0
 15 16  1  0
 17 18  1  0
 19 20  1  0
 21 22  1  0
M  CHG  1   6  -1
M  END
>  <PDB_ID>  (356) 
pdb1ftj

>  <RESIDUE_NAME>  (356) 
GLU   PHE

>  <FRAG_NAME>  (356) 
ACET   MBZ

>  <FRAG_ATOM_NUM>  (356) 
fragi: 7  fragj: 15

>  <atom.prop.CHAIN_ID>  (356) 
A A A A A A A Z Z Z Z Z Z Z Z Z Z Z Z Z Z Z

>  <atom.prop.IS_HEAVY_ATOM>  (356) 
1 0 0 0 1 1 1 1 0 0 0 1 1 0 1 0 1 0 1 0 1 0

>  <DIFUSE_FUNC_ATOM>  (356) 
atom 6   atom 7   

>  <FINAL_SINGLE_POINT_ENERGY>  (356) 
0

>  <NONCOV_INTER_ENERGY_QM>  (356) 
0

>  <FF_Energy>  (356) 
2.03

>  <QM_Energy>  (356) 
-5.08

>  <source>  (356) 
ACET_MBZ_00

>  <Index>  (356) 
12970

$$$$
ACET-pdb1ftj-C-ASP-139:MBZ-pdb1ftj-C-PHE-170
     RDKit          3D

 22 21  0  0  0  0  0  0  0  0999 V2000
   -1.7802    4.9532    4.1289 C   0  0  0  0  0  0  0  0  0  0  0  0
   -2.0400    5.8608    3.8161 H   0  0  0  0  0  0  0  0  0  0  0  0
   -1.5327    4.9766    5.0912 H   0  0  0  0  0  0  0  0  0  0  0  0
   -2.6487    4.3031    4.0233 H   0  0  0  0  0  0  0  0  0  0  0  0
   -0.5800    4.4826    3.3246 C   0  0  0  0  0  0  0  0  0  0  0  0
    0.2380    5.3421    2.9067 O   0  0  0  0  0  1  0  0  0  0  0  0
   -0.4405    3.2523    3.1399 O   0  0  0  0  0  0  0  0  0  0  0  0
   -0.0087    2.8964   -0.0166 C   0  0  0  0  0  0  0  0  0  0  0  0
    0.9158    3.2116    0.1436 H   0  0  0  0  0  0  0  0  0  0  0  0
   -0.6222    3.2093    0.6940 H   0  0  0  0  0  0  0  0  0  0  0  0
   -0.3482    3.3180   -0.9628 H   0  0  0  0  0  0  0  0  0  0  0  0
   -0.0006    1.4052   -0.0004 C   0  0  0  0  0  0  0  0  0  0  0  0
   -1.2018    0.6934   -0.0001 C   0  0  0  0  0  0  0  0  0  0  0  0
   -2.0670    1.1853   -0.0013 H   0  0  0  0  0  0  0  0  0  0  0  0
   -1.2096   -0.7014    0.0000 C   0  0  0  0  0  0  0  0  0  0  0  0
   -2.0838   -1.1942    0.0010 H   0  0  0  0  0  0  0  0  0  0  0  0
   -0.0013   -1.4016    0.0003 C   0  0  0  0  0  0  0  0  0  0  0  0
   -0.0036   -2.3974   -0.0002 H   0  0  0  0  0  0  0  0  0  0  0  0
    1.2096   -0.6996   -0.0000 C   0  0  0  0  0  0  0  0  0  0  0  0
    2.0874   -1.1939    0.0010 H   0  0  0  0  0  0  0  0  0  0  0  0
    1.2037    0.7039    0.0002 C   0  0  0  0  0  0  0  0  0  0  0  0
    2.0677    1.1970    0.0002 H   0  0  0  0  0  0  0  0  0  0  0  0
  1  5  1  0
  5  6  1  0
  5  7  2  0
  1  2  1  0
  1  3  1  0
  1  4  1  0
  8 12  1  0
 12 13  2  0
 13 15  1  0
 15 17  2  0
 17 19  1  0
 19 21  2  0
 21 12  1  0
  8  9  1  0
  8 10  1  0
  8 11  1  0
 13 14  1  0
 15 16  1  0
 17 18  1  0
 19 20  1  0
 21 22  1  0
M  CHG  1   6  -1
M  END
>  <PDB_ID>  (357) 
pdb1ftj

>  <RESIDUE_NAME>  (357) 
ASP   PHE

>  <FRAG_NAME>  (357) 
ACET   MBZ

>  <FRAG_ATOM_NUM>  (357) 
fragi: 7  fragj: 15

>  <atom.prop.CHAIN_ID>  (357) 
A A A A A A A Z Z Z Z Z Z Z Z Z Z Z Z Z Z Z

>  <atom.prop.IS_HEAVY_ATOM>  (357) 
1 0 0 0 1 1 1 1 0 0 0 1 1 0 1 0 1 0 1 0 1 0

>  <DIFUSE_FUNC_ATOM>  (357) 
atom 6   atom 7   

>  <FINAL_SINGLE_POINT_ENERGY>  (357) 
0

>  <NONCOV_INTER_ENERGY_QM>  (357) 
0

>  <FF_Energy>  (357) 
0.8

>  <QM_Energy>  (357) 
-4.79

>  <source>  (357) 
ACET_MBZ_00

>  <Index>  (357) 
12975

$$$$
ACET-pdb2go7-D-GLU-123:MBZ-pdb2go7-D-PHE-114
     RDKit          3D

 22 21  0  0  0  0  0  0  0  0999 V2000
   -5.6646    2.7492   -1.6449 C   0  0  0  0  0  0  0  0  0  0  0  0
   -6.5024    2.4729   -1.2019 H   0  0  0  0  0  0  0  0  0  0  0  0
   -5.2862    2.0202   -2.1934 H   0  0  0  0  0  0  0  0  0  0  0  0
   -5.9053    3.5746   -2.3150 H   0  0  0  0  0  0  0  0  0  0  0  0
   -4.6704    3.1073   -0.5891 C   0  0  0  0  0  0  0  0  0  0  0  0
   -4.6386    4.2728   -0.1344 O   0  0  0  0  0  1  0  0  0  0  0  0
   -3.9159    2.2171   -0.2081 O   0  0  0  0  0  0  0  0  0  0  0  0
   -0.0013    2.9037    0.0201 C   0  0  0  0  0  0  0  0  0  0  0  0
    0.8230    3.2063    0.4760 H   0  0  0  0  0  0  0  0  0  0  0  0
   -0.8096    3.2074    0.5049 H   0  0  0  0  0  0  0  0  0  0  0  0
   -0.0185    3.3654   -0.9671 H   0  0  0  0  0  0  0  0  0  0  0  0
   -0.0027    1.4034   -0.0015 C   0  0  0  0  0  0  0  0  0  0  0  0
   -1.1848    0.6982   -0.0027 C   0  0  0  0  0  0  0  0  0  0  0  0
   -2.0586    1.1787   -0.0063 H   0  0  0  0  0  0  0  0  0  0  0  0
   -1.1841   -0.6951    0.0000 C   0  0  0  0  0  0  0  0  0  0  0  0
   -2.0694   -1.1841    0.0116 H   0  0  0  0  0  0  0  0  0  0  0  0
    0.0007   -1.3874   -0.0110 C   0  0  0  0  0  0  0  0  0  0  0  0
   -0.0112   -2.3935   -0.0274 H   0  0  0  0  0  0  0  0  0  0  0  0
    1.1841   -0.7091   -0.0000 C   0  0  0  0  0  0  0  0  0  0  0  0
    2.0721   -1.1993   -0.0011 H   0  0  0  0  0  0  0  0  0  0  0  0
    1.1869    0.6899    0.0152 C   0  0  0  0  0  0  0  0  0  0  0  0
    2.0594    1.1761    0.0372 H   0  0  0  0  0  0  0  0  0  0  0  0
  1  5  1  0
  5  6  1  0
  5  7  2  0
  1  2  1  0
  1  3  1  0
  1  4  1  0
  8 12  1  0
 12 13  2  0
 13 15  1  0
 15 17  2  0
 17 19  1  0
 19 21  2  0
 21 12  1  0
  8  9  1  0
  8 10  1  0
  8 11  1  0
 13 14  1  0
 15 16  1  0
 17 18  1  0
 19 20  1  0
 21 22  1  0
M  CHG  1   6  -1
M  END
>  <PDB_ID>  (358) 
pdb2go7

>  <RESIDUE_NAME>  (358) 
GLU   PHE

>  <FRAG_NAME>  (358) 
ACET   MBZ

>  <FRAG_ATOM_NUM>  (358) 
fragi: 7  fragj: 15

>  <atom.prop.CHAIN_ID>  (358) 
A A A A A A A Z Z Z Z Z Z Z Z Z Z Z Z Z Z Z

>  <atom.prop.IS_HEAVY_ATOM>  (358) 
1 0 0 0 1 1 1 1 0 0 0 1 1 0 1 0 1 0 1 0 1 0

>  <DIFUSE_FUNC_ATOM>  (358) 
atom 6   atom 7   

>  <FINAL_SINGLE_POINT_ENERGY>  (358) 
0

>  <NONCOV_INTER_ENERGY_QM>  (358) 
0

>  <FF_Energy>  (358) 
0.26

>  <QM_Energy>  (358) 
-7.63

>  <source>  (358) 
ACET_MBZ_00

>  <Index>  (358) 
13029

$$$$
ACET-pdb1fvi-A-GLU-152:MBZ-pdb1fvi-A-PHE-190
     RDKit          3D

 22 21  0  0  0  0  0  0  0  0999 V2000
   -1.5705    0.5348   -3.7588 C   0  0  0  0  0  0  0  0  0  0  0  0
   -0.6825    0.5446   -3.3186 H   0  0  0  0  0  0  0  0  0  0  0  0
   -1.4962    0.7976   -4.7120 H   0  0  0  0  0  0  0  0  0  0  0  0
   -1.9377   -0.4911   -3.7297 H   0  0  0  0  0  0  0  0  0  0  0  0
   -2.4450    1.5800   -3.0586 C   0  0  0  0  0  0  0  0  0  0  0  0
   -1.9348    2.6858   -2.7926 O   0  0  0  0  0  1  0  0  0  0  0  0
   -3.6367    1.3283   -2.7964 O   0  0  0  0  0  0  0  0  0  0  0  0
   -0.0009    2.9061   -0.0913 C   0  0  0  0  0  0  0  0  0  0  0  0
   -0.0734    3.1581   -1.0453 H   0  0  0  0  0  0  0  0  0  0  0  0
    0.8433    3.2377    0.3043 H   0  0  0  0  0  0  0  0  0  0  0  0
   -0.8244    3.3838    0.4396 H   0  0  0  0  0  0  0  0  0  0  0  0
   -0.0030    1.4083   -0.0016 C   0  0  0  0  0  0  0  0  0  0  0  0
   -1.1953    0.7004    0.0033 C   0  0  0  0  0  0  0  0  0  0  0  0
   -2.0639    1.1876    0.0082 H   0  0  0  0  0  0  0  0  0  0  0  0
   -1.1999   -0.6922   -0.0000 C   0  0  0  0  0  0  0  0  0  0  0  0
   -2.0764   -1.1868    0.0018 H   0  0  0  0  0  0  0  0  0  0  0  0
    0.0061   -1.4024   -0.0034 C   0  0  0  0  0  0  0  0  0  0  0  0
   -0.0121   -2.3988   -0.0085 H   0  0  0  0  0  0  0  0  0  0  0  0
    1.1999   -0.7135   -0.0000 C   0  0  0  0  0  0  0  0  0  0  0  0
    2.0856   -1.1967    0.0026 H   0  0  0  0  0  0  0  0  0  0  0  0
    1.1922    0.6994    0.0017 C   0  0  0  0  0  0  0  0  0  0  0  0
    2.0635    1.1859    0.0041 H   0  0  0  0  0  0  0  0  0  0  0  0
  1  5  1  0
  5  6  1  0
  5  7  2  0
  1  2  1  0
  1  3  1  0
  1  4  1  0
  8 12  1  0
 12 13  2  0
 13 15  1  0
 15 17  2  0
 17 19  1  0
 19 21  2  0
 21 12  1  0
  8  9  1  0
  8 10  1  0
  8 11  1  0
 13 14  1  0
 15 16  1  0
 17 18  1  0
 19 20  1  0
 21 22  1  0
M  CHG  1   6  -1
M  END
>  <PDB_ID>  (359) 
pdb1fvi

>  <RESIDUE_NAME>  (359) 
GLU   PHE

>  <FRAG_NAME>  (359) 
ACET   MBZ

>  <FRAG_ATOM_NUM>  (359) 
fragi: 7  fragj: 15

>  <atom.prop.CHAIN_ID>  (359) 
A A A A A A A Z Z Z Z Z Z Z Z Z Z Z Z Z Z Z

>  <atom.prop.IS_HEAVY_ATOM>  (359) 
1 0 0 0 1 1 1 1 0 0 0 1 1 0 1 0 1 0 1 0 1 0

>  <DIFUSE_FUNC_ATOM>  (359) 
atom 6   atom 7   

>  <FINAL_SINGLE_POINT_ENERGY>  (359) 
0

>  <NONCOV_INTER_ENERGY_QM>  (359) 
0

>  <FF_Energy>  (359) 
-1.31

>  <QM_Energy>  (359) 
-6.94

>  <source>  (359) 
ACET_MBZ_00

>  <Index>  (359) 
13099

$$$$
ACET-pdb2gq3-B-GLU-23:MBZ-pdb2gq3-B-PHE-19
     RDKit          3D

 22 21  0  0  0  0  0  0  0  0999 V2000
   -3.7933    1.5349    3.0341 C   0  0  0  0  0  0  0  0  0  0  0  0
   -4.6444    1.1262    3.3193 H   0  0  0  0  0  0  0  0  0  0  0  0
   -3.6305    2.3932    3.4921 H   0  0  0  0  0  0  0  0  0  0  0  0
   -2.9817    0.8507    3.2816 H   0  0  0  0  0  0  0  0  0  0  0  0
   -3.8956    1.8184    1.5586 C   0  0  0  0  0  0  0  0  0  0  0  0
   -4.1144    0.8465    0.7891 O   0  0  0  0  0  1  0  0  0  0  0  0
   -3.7857    3.0247    1.1880 O   0  0  0  0  0  0  0  0  0  0  0  0
   -0.0184    2.8876    0.0367 C   0  0  0  0  0  0  0  0  0  0  0  0
   -0.7900    3.2018   -0.4957 H   0  0  0  0  0  0  0  0  0  0  0  0
    0.8358    3.2094   -0.3420 H   0  0  0  0  0  0  0  0  0  0  0  0
   -0.1150    3.3011    1.0406 H   0  0  0  0  0  0  0  0  0  0  0  0
   -0.0083    1.3949    0.0096 C   0  0  0  0  0  0  0  0  0  0  0  0
   -1.2070    0.6921    0.0121 C   0  0  0  0  0  0  0  0  0  0  0  0
   -2.0710    1.1908    0.0212 H   0  0  0  0  0  0  0  0  0  0  0  0
   -1.2177   -0.6892   -0.0000 C   0  0  0  0  0  0  0  0  0  0  0  0
   -2.0779   -1.1965    0.0052 H   0  0  0  0  0  0  0  0  0  0  0  0
    0.0155   -1.3999   -0.0178 C   0  0  0  0  0  0  0  0  0  0  0  0
    0.0044   -2.3892   -0.0432 H   0  0  0  0  0  0  0  0  0  0  0  0
    1.2177   -0.6896    0.0000 C   0  0  0  0  0  0  0  0  0  0  0  0
    2.0987   -1.1866    0.0169 H   0  0  0  0  0  0  0  0  0  0  0  0
    1.1998    0.6916   -0.0040 C   0  0  0  0  0  0  0  0  0  0  0  0
    2.0608    1.2031   -0.0179 H   0  0  0  0  0  0  0  0  0  0  0  0
  1  5  1  0
  5  6  1  0
  5  7  2  0
  1  2  1  0
  1  3  1  0
  1  4  1  0
  8 12  1  0
 12 13  2  0
 13 15  1  0
 15 17  2  0
 17 19  1  0
 19 21  2  0
 21 12  1  0
  8  9  1  0
  8 10  1  0
  8 11  1  0
 13 14  1  0
 15 16  1  0
 17 18  1  0
 19 20  1  0
 21 22  1  0
M  CHG  1   6  -1
M  END
>  <PDB_ID>  (360) 
pdb2gq3

>  <RESIDUE_NAME>  (360) 
GLU   PHE

>  <FRAG_NAME>  (360) 
ACET   MBZ

>  <FRAG_ATOM_NUM>  (360) 
fragi: 7  fragj: 15

>  <atom.prop.CHAIN_ID>  (360) 
A A A A A A A Z Z Z Z Z Z Z Z Z Z Z Z Z Z Z

>  <atom.prop.IS_HEAVY_ATOM>  (360) 
1 0 0 0 1 1 1 1 0 0 0 1 1 0 1 0 1 0 1 0 1 0

>  <DIFUSE_FUNC_ATOM>  (360) 
atom 6   atom 7   

>  <FINAL_SINGLE_POINT_ENERGY>  (360) 
0

>  <NONCOV_INTER_ENERGY_QM>  (360) 
0

>  <FF_Energy>  (360) 
0.26

>  <QM_Energy>  (360) 
-7.78

>  <source>  (360) 
ACET_MBZ_00

>  <Index>  (360) 
13107

$$$$
ACET-pdb1fw8-A-GLU-54:MBZ-pdb1fw8-A-PHE-76
     RDKit          3D

 22 21  0  0  0  0  0  0  0  0999 V2000
   -0.3121    2.4606   -3.2485 C   0  0  0  0  0  0  0  0  0  0  0  0
   -0.2533    1.5401   -2.8913 H   0  0  0  0  0  0  0  0  0  0  0  0
   -0.3730    3.1255   -2.5196 H   0  0  0  0  0  0  0  0  0  0  0  0
    0.5841    2.6647   -3.8344 H   0  0  0  0  0  0  0  0  0  0  0  0
   -1.5849    2.5533   -4.0507 C   0  0  0  0  0  0  0  0  0  0  0  0
   -1.9122    3.6530   -4.5251 O   0  0  0  0  0  1  0  0  0  0  0  0
   -2.2577    1.5195   -4.2001 O   0  0  0  0  0  0  0  0  0  0  0  0
   -0.0025    2.9093   -0.0634 C   0  0  0  0  0  0  0  0  0  0  0  0
   -0.6003    3.1829   -0.8050 H   0  0  0  0  0  0  0  0  0  0  0  0
    0.9274    3.2091   -0.2289 H   0  0  0  0  0  0  0  0  0  0  0  0
   -0.3540    3.3969    0.8459 H   0  0  0  0  0  0  0  0  0  0  0  0
    0.0006    1.4059   -0.0017 C   0  0  0  0  0  0  0  0  0  0  0  0
   -1.1922    0.6931   -0.0006 C   0  0  0  0  0  0  0  0  0  0  0  0
   -2.0617    1.1842   -0.0016 H   0  0  0  0  0  0  0  0  0  0  0  0
   -1.1988   -0.6959   -0.0000 C   0  0  0  0  0  0  0  0  0  0  0  0
   -2.0797   -1.1870    0.0019 H   0  0  0  0  0  0  0  0  0  0  0  0
   -0.0050   -1.3947   -0.0007 C   0  0  0  0  0  0  0  0  0  0  0  0
   -0.0131   -2.3958   -0.0028 H   0  0  0  0  0  0  0  0  0  0  0  0
    1.1988   -0.7081   -0.0000 C   0  0  0  0  0  0  0  0  0  0  0  0
    2.0785   -1.1991   -0.0002 H   0  0  0  0  0  0  0  0  0  0  0  0
    1.1967    0.6997    0.0029 C   0  0  0  0  0  0  0  0  0  0  0  0
    2.0664    1.1862    0.0079 H   0  0  0  0  0  0  0  0  0  0  0  0
  1  5  1  0
  5  6  1  0
  5  7  2  0
  1  2  1  0
  1  3  1  0
  1  4  1  0
  8 12  1  0
 12 13  2  0
 13 15  1  0
 15 17  2  0
 17 19  1  0
 19 21  2  0
 21 12  1  0
  8  9  1  0
  8 10  1  0
  8 11  1  0
 13 14  1  0
 15 16  1  0
 17 18  1  0
 19 20  1  0
 21 22  1  0
M  CHG  1   6  -1
M  END
>  <PDB_ID>  (361) 
pdb1fw8

>  <RESIDUE_NAME>  (361) 
GLU   PHE

>  <FRAG_NAME>  (361) 
ACET   MBZ

>  <FRAG_ATOM_NUM>  (361) 
fragi: 7  fragj: 15

>  <atom.prop.CHAIN_ID>  (361) 
A A A A A A A Z Z Z Z Z Z Z Z Z Z Z Z Z Z Z

>  <atom.prop.IS_HEAVY_ATOM>  (361) 
1 0 0 0 1 1 1 1 0 0 0 1 1 0 1 0 1 0 1 0 1 0

>  <DIFUSE_FUNC_ATOM>  (361) 
atom 6   atom 7   

>  <FINAL_SINGLE_POINT_ENERGY>  (361) 
0

>  <NONCOV_INTER_ENERGY_QM>  (361) 
0

>  <FF_Energy>  (361) 
6.21

>  <QM_Energy>  (361) 
0.67

>  <source>  (361) 
ACET_MBZ_00

>  <Index>  (361) 
13124

$$$$
ACET-pdb1fwx-B-GLU-435:MBZ-pdb1fwx-A-PHE-564
     RDKit          3D

 22 21  0  0  0  0  0  0  0  0999 V2000
    3.3183    6.0802    1.9008 C   0  0  0  0  0  0  0  0  0  0  0  0
    3.7882    5.4142    2.4626 H   0  0  0  0  0  0  0  0  0  0  0  0
    2.6178    6.5510    2.4173 H   0  0  0  0  0  0  0  0  0  0  0  0
    4.0456    6.8144    1.5539 H   0  0  0  0  0  0  0  0  0  0  0  0
    2.6575    5.3556    0.7886 C   0  0  0  0  0  0  0  0  0  0  0  0
    1.8576    5.9854    0.0698 O   0  0  0  0  0  1  0  0  0  0  0  0
    2.9450    4.1538    0.6452 O   0  0  0  0  0  0  0  0  0  0  0  0
   -0.0064    2.9232   -0.0244 C   0  0  0  0  0  0  0  0  0  0  0  0
    0.9189    3.2290    0.1212 H   0  0  0  0  0  0  0  0  0  0  0  0
   -0.6138    3.2343    0.6870 H   0  0  0  0  0  0  0  0  0  0  0  0
   -0.3546    3.3370   -0.9709 H   0  0  0  0  0  0  0  0  0  0  0  0
   -0.0024    1.4108   -0.0008 C   0  0  0  0  0  0  0  0  0  0  0  0
   -1.1972    0.7034   -0.0001 C   0  0  0  0  0  0  0  0  0  0  0  0
   -2.0658    1.1855   -0.0011 H   0  0  0  0  0  0  0  0  0  0  0  0
   -1.2022   -0.7023   -0.0000 C   0  0  0  0  0  0  0  0  0  0  0  0
   -2.0820   -1.1877    0.0009 H   0  0  0  0  0  0  0  0  0  0  0  0
   -0.0034   -1.4008    0.0009 C   0  0  0  0  0  0  0  0  0  0  0  0
   -0.0073   -2.3989    0.0013 H   0  0  0  0  0  0  0  0  0  0  0  0
    1.2022   -0.7051    0.0000 C   0  0  0  0  0  0  0  0  0  0  0  0
    2.0819   -1.2031    0.0006 H   0  0  0  0  0  0  0  0  0  0  0  0
    1.2030    0.6941    0.0000 C   0  0  0  0  0  0  0  0  0  0  0  0
    2.0683    1.1877   -0.0006 H   0  0  0  0  0  0  0  0  0  0  0  0
  1  5  1  0
  5  6  1  0
  5  7  2  0
  1  2  1  0
  1  3  1  0
  1  4  1  0
  8 12  1  0
 12 13  2  0
 13 15  1  0
 15 17  2  0
 17 19  1  0
 19 21  2  0
 21 12  1  0
  8  9  1  0
  8 10  1  0
  8 11  1  0
 13 14  1  0
 15 16  1  0
 17 18  1  0
 19 20  1  0
 21 22  1  0
M  CHG  1   6  -1
M  END
>  <PDB_ID>  (362) 
pdb1fwx

>  <RESIDUE_NAME>  (362) 
GLU   PHE

>  <FRAG_NAME>  (362) 
ACET   MBZ

>  <FRAG_ATOM_NUM>  (362) 
fragi: 7  fragj: 15

>  <atom.prop.CHAIN_ID>  (362) 
A A A A A A A Z Z Z Z Z Z Z Z Z Z Z Z Z Z Z

>  <atom.prop.IS_HEAVY_ATOM>  (362) 
1 0 0 0 1 1 1 1 0 0 0 1 1 0 1 0 1 0 1 0 1 0

>  <DIFUSE_FUNC_ATOM>  (362) 
atom 6   atom 7   

>  <FINAL_SINGLE_POINT_ENERGY>  (362) 
0

>  <NONCOV_INTER_ENERGY_QM>  (362) 
0

>  <FF_Energy>  (362) 
-1.16

>  <QM_Energy>  (362) 
-7.68

>  <source>  (362) 
ACET_MBZ_00

>  <Index>  (362) 
13162

$$$$
ACET-pdb1fwx-A-GLU-435:MBZ-pdb1fwx-B-PHE-564
     RDKit          3D

 22 21  0  0  0  0  0  0  0  0999 V2000
    3.1663    6.0975    1.7957 C   0  0  0  0  0  0  0  0  0  0  0  0
    3.6429    5.4127    2.3198 H   0  0  0  0  0  0  0  0  0  0  0  0
    2.4621    6.5400    2.3241 H   0  0  0  0  0  0  0  0  0  0  0  0
    3.8864    6.8506    1.4756 H   0  0  0  0  0  0  0  0  0  0  0  0
    2.5175    5.4239    0.6402 C   0  0  0  0  0  0  0  0  0  0  0  0
    1.7533    6.0961   -0.0769 O   0  0  0  0  0  1  0  0  0  0  0  0
    2.7863    4.2211    0.4500 O   0  0  0  0  0  0  0  0  0  0  0  0
   -0.0031    2.9103   -0.0620 C   0  0  0  0  0  0  0  0  0  0  0  0
    0.9233    3.2222    0.0648 H   0  0  0  0  0  0  0  0  0  0  0  0
   -0.6023    3.2420    0.6462 H   0  0  0  0  0  0  0  0  0  0  0  0
   -0.3619    3.2958   -1.0163 H   0  0  0  0  0  0  0  0  0  0  0  0
    0.0006    1.4057    0.0009 C   0  0  0  0  0  0  0  0  0  0  0  0
   -1.1957    0.7021    0.0016 C   0  0  0  0  0  0  0  0  0  0  0  0
   -2.0633    1.1880    0.0024 H   0  0  0  0  0  0  0  0  0  0  0  0
   -1.2043   -0.7011   -0.0000 C   0  0  0  0  0  0  0  0  0  0  0  0
   -2.0817   -1.1877    0.0031 H   0  0  0  0  0  0  0  0  0  0  0  0
   -0.0023   -1.3996   -0.0037 C   0  0  0  0  0  0  0  0  0  0  0  0
   -0.0058   -2.3975   -0.0096 H   0  0  0  0  0  0  0  0  0  0  0  0
    1.2043   -0.7028   -0.0000 C   0  0  0  0  0  0  0  0  0  0  0  0
    2.0828   -1.1976    0.0034 H   0  0  0  0  0  0  0  0  0  0  0  0
    1.1974    0.6956    0.0012 C   0  0  0  0  0  0  0  0  0  0  0  0
    2.0665    1.1891    0.0014 H   0  0  0  0  0  0  0  0  0  0  0  0
  1  5  1  0
  5  6  1  0
  5  7  2  0
  1  2  1  0
  1  3  1  0
  1  4  1  0
  8 12  1  0
 12 13  2  0
 13 15  1  0
 15 17  2  0
 17 19  1  0
 19 21  2  0
 21 12  1  0
  8  9  1  0
  8 10  1  0
  8 11  1  0
 13 14  1  0
 15 16  1  0
 17 18  1  0
 19 20  1  0
 21 22  1  0
M  CHG  1   6  -1
M  END
>  <PDB_ID>  (363) 
pdb1fwx

>  <RESIDUE_NAME>  (363) 
GLU   PHE

>  <FRAG_NAME>  (363) 
ACET   MBZ

>  <FRAG_ATOM_NUM>  (363) 
fragi: 7  fragj: 15

>  <atom.prop.CHAIN_ID>  (363) 
A A A A A A A Z Z Z Z Z Z Z Z Z Z Z Z Z Z Z

>  <atom.prop.IS_HEAVY_ATOM>  (363) 
1 0 0 0 1 1 1 1 0 0 0 1 1 0 1 0 1 0 1 0 1 0

>  <DIFUSE_FUNC_ATOM>  (363) 
atom 6   atom 7   

>  <FINAL_SINGLE_POINT_ENERGY>  (363) 
0

>  <NONCOV_INTER_ENERGY_QM>  (363) 
0

>  <FF_Energy>  (363) 
0.51

>  <QM_Energy>  (363) 
-7.27

>  <source>  (363) 
ACET_MBZ_00

>  <Index>  (363) 
13166

$$$$
ACET-pdb1fwx-D-GLU-435:MBZ-pdb1fwx-C-PHE-564
     RDKit          3D

 22 21  0  0  0  0  0  0  0  0999 V2000
    2.6149    6.3940    1.8077 C   0  0  0  0  0  0  0  0  0  0  0  0
    2.5964    5.8176    2.6021 H   0  0  0  0  0  0  0  0  0  0  0  0
    1.9790    7.1402    1.8715 H   0  0  0  0  0  0  0  0  0  0  0  0
    3.6207    6.7975    1.6902 H   0  0  0  0  0  0  0  0  0  0  0  0
    2.2359    5.5681    0.6330 C   0  0  0  0  0  0  0  0  0  0  0  0
    2.8794    4.5170    0.4252 O   0  0  0  0  0  1  0  0  0  0  0  0
    1.3043    5.9794   -0.0837 O   0  0  0  0  0  0  0  0  0  0  0  0
   -0.0002    2.9035   -0.0153 C   0  0  0  0  0  0  0  0  0  0  0  0
    0.9338    3.2108    0.0737 H   0  0  0  0  0  0  0  0  0  0  0  0
   -0.5585    3.2185    0.7363 H   0  0  0  0  0  0  0  0  0  0  0  0
   -0.4055    3.3280   -0.9338 H   0  0  0  0  0  0  0  0  0  0  0  0
   -0.0008    1.4023    0.0012 C   0  0  0  0  0  0  0  0  0  0  0  0
   -1.1963    0.6972    0.0001 C   0  0  0  0  0  0  0  0  0  0  0  0
   -2.0629    1.1875   -0.0022 H   0  0  0  0  0  0  0  0  0  0  0  0
   -1.2032   -0.6951    0.0000 C   0  0  0  0  0  0  0  0  0  0  0  0
   -2.0793   -1.1880    0.0019 H   0  0  0  0  0  0  0  0  0  0  0  0
    0.0008   -1.3953   -0.0012 C   0  0  0  0  0  0  0  0  0  0  0  0
   -0.0075   -2.3935   -0.0038 H   0  0  0  0  0  0  0  0  0  0  0  0
    1.2032   -0.7028   -0.0000 C   0  0  0  0  0  0  0  0  0  0  0  0
    2.0837   -1.1973    0.0025 H   0  0  0  0  0  0  0  0  0  0  0  0
    1.1963    0.6937   -0.0001 C   0  0  0  0  0  0  0  0  0  0  0  0
    2.0645    1.1885   -0.0016 H   0  0  0  0  0  0  0  0  0  0  0  0
  1  5  1  0
  5  6  1  0
  5  7  2  0
  1  2  1  0
  1  3  1  0
  1  4  1  0
  8 12  1  0
 12 13  2  0
 13 15  1  0
 15 17  2  0
 17 19  1  0
 19 21  2  0
 21 12  1  0
  8  9  1  0
  8 10  1  0
  8 11  1  0
 13 14  1  0
 15 16  1  0
 17 18  1  0
 19 20  1  0
 21 22  1  0
M  CHG  1   6  -1
M  END
>  <PDB_ID>  (364) 
pdb1fwx

>  <RESIDUE_NAME>  (364) 
GLU   PHE

>  <FRAG_NAME>  (364) 
ACET   MBZ

>  <FRAG_ATOM_NUM>  (364) 
fragi: 7  fragj: 15

>  <atom.prop.CHAIN_ID>  (364) 
A A A A A A A Z Z Z Z Z Z Z Z Z Z Z Z Z Z Z

>  <atom.prop.IS_HEAVY_ATOM>  (364) 
1 0 0 0 1 1 1 1 0 0 0 1 1 0 1 0 1 0 1 0 1 0

>  <DIFUSE_FUNC_ATOM>  (364) 
atom 6   atom 7   

>  <FINAL_SINGLE_POINT_ENERGY>  (364) 
0

>  <NONCOV_INTER_ENERGY_QM>  (364) 
0

>  <FF_Energy>  (364) 
-1.36

>  <QM_Energy>  (364) 
-7.37

>  <source>  (364) 
ACET_MBZ_00

>  <Index>  (364) 
13170

$$$$
ACET-pdb1fx9-A-ASP-99:MBZ-pdb1fx9-A-PHE-5
     RDKit          3D

 22 21  0  0  0  0  0  0  0  0999 V2000
   -2.6062    1.9432   -3.1348 C   0  0  0  0  0  0  0  0  0  0  0  0
   -3.1848    2.5337   -3.7021 H   0  0  0  0  0  0  0  0  0  0  0  0
   -2.8198    2.1049   -2.1696 H   0  0  0  0  0  0  0  0  0  0  0  0
   -2.8573    0.9078   -3.3647 H   0  0  0  0  0  0  0  0  0  0  0  0
   -1.1530    2.3163   -3.3770 C   0  0  0  0  0  0  0  0  0  0  0  0
   -0.8264    3.4769   -3.0558 O   0  0  0  0  0  1  0  0  0  0  0  0
   -0.3537    1.4939   -3.8557 O   0  0  0  0  0  0  0  0  0  0  0  0
    0.0600    2.9163   -0.0045 C   0  0  0  0  0  0  0  0  0  0  0  0
   -0.0070    3.2135   -0.9598 H   0  0  0  0  0  0  0  0  0  0  0  0
    0.9583    3.1790    0.3567 H   0  0  0  0  0  0  0  0  0  0  0  0
   -0.7010    3.4471    0.5675 H   0  0  0  0  0  0  0  0  0  0  0  0
    0.0033    1.3983   -0.0024 C   0  0  0  0  0  0  0  0  0  0  0  0
   -1.1874    0.6974    0.0013 C   0  0  0  0  0  0  0  0  0  0  0  0
   -2.0570    1.1936    0.0036 H   0  0  0  0  0  0  0  0  0  0  0  0
   -1.2049   -0.6893   -0.0000 C   0  0  0  0  0  0  0  0  0  0  0  0
   -2.0815   -1.1780   -0.0052 H   0  0  0  0  0  0  0  0  0  0  0  0
   -0.0062   -1.3832    0.0077 C   0  0  0  0  0  0  0  0  0  0  0  0
   -0.0137   -2.3871    0.0176 H   0  0  0  0  0  0  0  0  0  0  0  0
    1.2049   -0.7011   -0.0000 C   0  0  0  0  0  0  0  0  0  0  0  0
    2.0761   -1.2038    0.0008 H   0  0  0  0  0  0  0  0  0  0  0  0
    1.1903    0.6779   -0.0066 C   0  0  0  0  0  0  0  0  0  0  0  0
    2.0657    1.1816   -0.0156 H   0  0  0  0  0  0  0  0  0  0  0  0
  1  5  1  0
  5  6  1  0
  5  7  2  0
  1  2  1  0
  1  3  1  0
  1  4  1  0
  8 12  1  0
 12 13  2  0
 13 15  1  0
 15 17  2  0
 17 19  1  0
 19 21  2  0
 21 12  1  0
  8  9  1  0
  8 10  1  0
  8 11  1  0
 13 14  1  0
 15 16  1  0
 17 18  1  0
 19 20  1  0
 21 22  1  0
M  CHG  1   6  -1
M  END
>  <PDB_ID>  (365) 
pdb1fx9

>  <RESIDUE_NAME>  (365) 
ASP   PHE

>  <FRAG_NAME>  (365) 
ACET   MBZ

>  <FRAG_ATOM_NUM>  (365) 
fragi: 7  fragj: 15

>  <atom.prop.CHAIN_ID>  (365) 
A A A A A A A Z Z Z Z Z Z Z Z Z Z Z Z Z Z Z

>  <atom.prop.IS_HEAVY_ATOM>  (365) 
1 0 0 0 1 1 1 1 0 0 0 1 1 0 1 0 1 0 1 0 1 0

>  <DIFUSE_FUNC_ATOM>  (365) 
atom 6   atom 7   

>  <FINAL_SINGLE_POINT_ENERGY>  (365) 
0

>  <NONCOV_INTER_ENERGY_QM>  (365) 
0

>  <FF_Energy>  (365) 
1.69

>  <QM_Energy>  (365) 
-4.55

>  <source>  (365) 
ACET_MBZ_00

>  <Index>  (365) 
13181

$$$$
ACET-pdb1fvr-B-ASP-923:MBZ-pdb1fvr-B-PHE-926
     RDKit          3D

 22 21  0  0  0  0  0  0  0  0999 V2000
    1.4522    5.2538   -3.1301 C   0  0  0  0  0  0  0  0  0  0  0  0
    1.3478    5.3371   -4.1152 H   0  0  0  0  0  0  0  0  0  0  0  0
    1.9366    4.4159   -2.9037 H   0  0  0  0  0  0  0  0  0  0  0  0
    2.0553    6.0937   -2.7852 H   0  0  0  0  0  0  0  0  0  0  0  0
    0.0758    5.2109   -2.4944 C   0  0  0  0  0  0  0  0  0  0  0  0
   -0.3325    6.2061   -1.8557 O   0  0  0  0  0  1  0  0  0  0  0  0
   -0.6048    4.1715   -2.6472 O   0  0  0  0  0  0  0  0  0  0  0  0
    0.0025    2.9135   -0.0113 C   0  0  0  0  0  0  0  0  0  0  0  0
   -0.7154    3.2129   -0.6218 H   0  0  0  0  0  0  0  0  0  0  0  0
    0.8904    3.2154   -0.3253 H   0  0  0  0  0  0  0  0  0  0  0  0
   -0.1778    3.3641    0.9646 H   0  0  0  0  0  0  0  0  0  0  0  0
    0.0020    1.4055   -0.0003 C   0  0  0  0  0  0  0  0  0  0  0  0
   -1.1988    0.6943    0.0010 C   0  0  0  0  0  0  0  0  0  0  0  0
   -2.0641    1.1860    0.0015 H   0  0  0  0  0  0  0  0  0  0  0  0
   -1.2055   -0.6988    0.0000 C   0  0  0  0  0  0  0  0  0  0  0  0
   -2.0814   -1.1911    0.0006 H   0  0  0  0  0  0  0  0  0  0  0  0
   -0.0027   -1.3976   -0.0009 C   0  0  0  0  0  0  0  0  0  0  0  0
   -0.0064   -2.3949   -0.0030 H   0  0  0  0  0  0  0  0  0  0  0  0
    1.2055   -0.7000    0.0000 C   0  0  0  0  0  0  0  0  0  0  0  0
    2.0836   -1.1970    0.0016 H   0  0  0  0  0  0  0  0  0  0  0  0
    1.1994    0.6966    0.0002 C   0  0  0  0  0  0  0  0  0  0  0  0
    2.0677    1.1915    0.0003 H   0  0  0  0  0  0  0  0  0  0  0  0
  1  5  1  0
  5  6  1  0
  5  7  2  0
  1  2  1  0
  1  3  1  0
  1  4  1  0
  8 12  1  0
 12 13  2  0
 13 15  1  0
 15 17  2  0
 17 19  1  0
 19 21  2  0
 21 12  1  0
  8  9  1  0
  8 10  1  0
  8 11  1  0
 13 14  1  0
 15 16  1  0
 17 18  1  0
 19 20  1  0
 21 22  1  0
M  CHG  1   6  -1
M  END
>  <PDB_ID>  (366) 
pdb1fvr

>  <RESIDUE_NAME>  (366) 
ASP   PHE

>  <FRAG_NAME>  (366) 
ACET   MBZ

>  <FRAG_ATOM_NUM>  (366) 
fragi: 7  fragj: 15

>  <atom.prop.CHAIN_ID>  (366) 
A A A A A A A Z Z Z Z Z Z Z Z Z Z Z Z Z Z Z

>  <atom.prop.IS_HEAVY_ATOM>  (366) 
1 0 0 0 1 1 1 1 0 0 0 1 1 0 1 0 1 0 1 0 1 0

>  <DIFUSE_FUNC_ATOM>  (366) 
atom 6   atom 7   

>  <FINAL_SINGLE_POINT_ENERGY>  (366) 
0

>  <NONCOV_INTER_ENERGY_QM>  (366) 
0

>  <FF_Energy>  (366) 
1.31

>  <QM_Energy>  (366) 
-4.8

>  <source>  (366) 
ACET_MBZ_00

>  <Index>  (366) 
13225

$$$$
ACET-pdb1fxw-A-GLU-88:MBZ-pdb1fxw-A-PHE-30
     RDKit          3D

 22 21  0  0  0  0  0  0  0  0999 V2000
   -3.1370    4.8822   -0.6779 C   0  0  0  0  0  0  0  0  0  0  0  0
   -2.1545    4.8273   -0.7629 H   0  0  0  0  0  0  0  0  0  0  0  0
   -3.4031    5.4059    0.1159 H   0  0  0  0  0  0  0  0  0  0  0  0
   -3.5219    5.3905   -1.5619 H   0  0  0  0  0  0  0  0  0  0  0  0
   -3.6636    3.4722   -0.4957 C   0  0  0  0  0  0  0  0  0  0  0  0
   -3.7980    2.7570   -1.5046 O   0  0  0  0  0  1  0  0  0  0  0  0
   -3.9398    3.0810    0.6621 O   0  0  0  0  0  0  0  0  0  0  0  0
   -0.0085    2.9123   -0.0002 C   0  0  0  0  0  0  0  0  0  0  0  0
   -0.6729    3.2130    0.6668 H   0  0  0  0  0  0  0  0  0  0  0  0
   -0.2490    3.2153   -0.9098 H   0  0  0  0  0  0  0  0  0  0  0  0
    0.9501    3.3624    0.2581 H   0  0  0  0  0  0  0  0  0  0  0  0
   -0.0001    1.4040    0.0001 C   0  0  0  0  0  0  0  0  0  0  0  0
   -1.1942    0.6920   -0.0014 C   0  0  0  0  0  0  0  0  0  0  0  0
   -2.0633    1.1801   -0.0044 H   0  0  0  0  0  0  0  0  0  0  0  0
   -1.1989   -0.7010   -0.0000 C   0  0  0  0  0  0  0  0  0  0  0  0
   -2.0766   -1.1923    0.0008 H   0  0  0  0  0  0  0  0  0  0  0  0
   -0.0008   -1.3935    0.0016 C   0  0  0  0  0  0  0  0  0  0  0  0
   -0.0022   -2.3937    0.0038 H   0  0  0  0  0  0  0  0  0  0  0  0
    1.1989   -0.6970   -0.0000 C   0  0  0  0  0  0  0  0  0  0  0  0
    2.0813   -1.1937    0.0002 H   0  0  0  0  0  0  0  0  0  0  0  0
    1.1951    0.6954   -0.0004 C   0  0  0  0  0  0  0  0  0  0  0  0
    2.0644    1.1901   -0.0018 H   0  0  0  0  0  0  0  0  0  0  0  0
  1  5  1  0
  5  6  1  0
  5  7  2  0
  1  2  1  0
  1  3  1  0
  1  4  1  0
  8 12  1  0
 12 13  2  0
 13 15  1  0
 15 17  2  0
 17 19  1  0
 19 21  2  0
 21 12  1  0
  8  9  1  0
  8 10  1  0
  8 11  1  0
 13 14  1  0
 15 16  1  0
 17 18  1  0
 19 20  1  0
 21 22  1  0
M  CHG  1   6  -1
M  END
>  <PDB_ID>  (367) 
pdb1fxw

>  <RESIDUE_NAME>  (367) 
GLU   PHE

>  <FRAG_NAME>  (367) 
ACET   MBZ

>  <FRAG_ATOM_NUM>  (367) 
fragi: 7  fragj: 15

>  <atom.prop.CHAIN_ID>  (367) 
A A A A A A A Z Z Z Z Z Z Z Z Z Z Z Z Z Z Z

>  <atom.prop.IS_HEAVY_ATOM>  (367) 
1 0 0 0 1 1 1 1 0 0 0 1 1 0 1 0 1 0 1 0 1 0

>  <DIFUSE_FUNC_ATOM>  (367) 
atom 6   atom 7   

>  <FINAL_SINGLE_POINT_ENERGY>  (367) 
0

>  <NONCOV_INTER_ENERGY_QM>  (367) 
0

>  <FF_Energy>  (367) 
-2.71

>  <QM_Energy>  (367) 
-7.79

>  <source>  (367) 
ACET_MBZ_00

>  <Index>  (367) 
13233

$$$$
ACET-pdb1fxw-F-GLU-89:MBZ-pdb1fxw-F-PHE-31
     RDKit          3D

 22 21  0  0  0  0  0  0  0  0999 V2000
   -3.1292    4.8975   -1.0117 C   0  0  0  0  0  0  0  0  0  0  0  0
   -2.1670    4.9065   -0.8067 H   0  0  0  0  0  0  0  0  0  0  0  0
   -3.6547    5.3983   -0.3482 H   0  0  0  0  0  0  0  0  0  0  0  0
   -3.2719    5.3705   -1.9832 H   0  0  0  0  0  0  0  0  0  0  0  0
   -3.5957    3.4610   -0.9828 C   0  0  0  0  0  0  0  0  0  0  0  0
   -3.4616    2.7779   -2.0182 O   0  0  0  0  0  1  0  0  0  0  0  0
   -4.0699    3.0065    0.0815 O   0  0  0  0  0  0  0  0  0  0  0  0
    0.0160    2.8956    0.0324 C   0  0  0  0  0  0  0  0  0  0  0  0
   -0.7430    3.1993    0.5854 H   0  0  0  0  0  0  0  0  0  0  0  0
   -0.0546    3.2229   -0.8960 H   0  0  0  0  0  0  0  0  0  0  0  0
    0.9294    3.3054    0.4634 H   0  0  0  0  0  0  0  0  0  0  0  0
    0.0008    1.3983    0.0008 C   0  0  0  0  0  0  0  0  0  0  0  0
   -1.1972    0.6978   -0.0029 C   0  0  0  0  0  0  0  0  0  0  0  0
   -2.0622    1.1886   -0.0086 H   0  0  0  0  0  0  0  0  0  0  0  0
   -1.2036   -0.6930    0.0000 C   0  0  0  0  0  0  0  0  0  0  0  0
   -2.0795   -1.1869    0.0020 H   0  0  0  0  0  0  0  0  0  0  0  0
   -0.0007   -1.3915    0.0022 C   0  0  0  0  0  0  0  0  0  0  0  0
   -0.0051   -2.3896    0.0049 H   0  0  0  0  0  0  0  0  0  0  0  0
    1.2036   -0.6959    0.0000 C   0  0  0  0  0  0  0  0  0  0  0  0
    2.0818   -1.1988   -0.0000 H   0  0  0  0  0  0  0  0  0  0  0  0
    1.1971    0.6843   -0.0002 C   0  0  0  0  0  0  0  0  0  0  0  0
    2.0653    1.1867   -0.0015 H   0  0  0  0  0  0  0  0  0  0  0  0
  1  5  1  0
  5  6  1  0
  5  7  2  0
  1  2  1  0
  1  3  1  0
  1  4  1  0
  8 12  1  0
 12 13  2  0
 13 15  1  0
 15 17  2  0
 17 19  1  0
 19 21  2  0
 21 12  1  0
  8  9  1  0
  8 10  1  0
  8 11  1  0
 13 14  1  0
 15 16  1  0
 17 18  1  0
 19 20  1  0
 21 22  1  0
M  CHG  1   6  -1
M  END
>  <PDB_ID>  (368) 
pdb1fxw

>  <RESIDUE_NAME>  (368) 
GLU   PHE

>  <FRAG_NAME>  (368) 
ACET   MBZ

>  <FRAG_ATOM_NUM>  (368) 
fragi: 7  fragj: 15

>  <atom.prop.CHAIN_ID>  (368) 
A A A A A A A Z Z Z Z Z Z Z Z Z Z Z Z Z Z Z

>  <atom.prop.IS_HEAVY_ATOM>  (368) 
1 0 0 0 1 1 1 1 0 0 0 1 1 0 1 0 1 0 1 0 1 0

>  <DIFUSE_FUNC_ATOM>  (368) 
atom 6   atom 7   

>  <FINAL_SINGLE_POINT_ENERGY>  (368) 
0

>  <NONCOV_INTER_ENERGY_QM>  (368) 
0

>  <FF_Energy>  (368) 
-2.52

>  <QM_Energy>  (368) 
-7.56

>  <source>  (368) 
ACET_MBZ_00

>  <Index>  (368) 
13238

$$$$
ACET-pdb2gt1-B-GLU-245:MBZ-pdb2gt1-B-PHE-169
     RDKit          3D

 22 21  0  0  0  0  0  0  0  0999 V2000
   -5.0556   -3.4058   -0.8451 C   0  0  0  0  0  0  0  0  0  0  0  0
   -5.8878   -3.5029   -1.3604 H   0  0  0  0  0  0  0  0  0  0  0  0
   -5.1262   -2.7068   -0.1561 H   0  0  0  0  0  0  0  0  0  0  0  0
   -4.8493   -4.3549   -0.3504 H   0  0  0  0  0  0  0  0  0  0  0  0
   -3.9650   -2.9957   -1.8053 C   0  0  0  0  0  0  0  0  0  0  0  0
   -2.8451   -2.7059   -1.3447 O   0  0  0  0  0  1  0  0  0  0  0  0
   -4.2298   -2.9642   -3.0276 O   0  0  0  0  0  0  0  0  0  0  0  0
    0.0025    2.9000   -0.0019 C   0  0  0  0  0  0  0  0  0  0  0  0
    0.8946    3.2055    0.2975 H   0  0  0  0  0  0  0  0  0  0  0  0
   -0.7076    3.2084    0.6148 H   0  0  0  0  0  0  0  0  0  0  0  0
   -0.1900    3.3434   -0.9789 H   0  0  0  0  0  0  0  0  0  0  0  0
   -0.0005    1.4005   -0.0025 C   0  0  0  0  0  0  0  0  0  0  0  0
   -1.1973    0.6954   -0.0009 C   0  0  0  0  0  0  0  0  0  0  0  0
   -2.0632    1.1857   -0.0016 H   0  0  0  0  0  0  0  0  0  0  0  0
   -1.2030   -0.6954    0.0000 C   0  0  0  0  0  0  0  0  0  0  0  0
   -2.0783   -1.1894    0.0002 H   0  0  0  0  0  0  0  0  0  0  0  0
    0.0009   -1.3943    0.0030 C   0  0  0  0  0  0  0  0  0  0  0  0
   -0.0043   -2.3923    0.0068 H   0  0  0  0  0  0  0  0  0  0  0  0
    1.2030   -0.6975    0.0000 C   0  0  0  0  0  0  0  0  0  0  0  0
    2.0836   -1.1957   -0.0007 H   0  0  0  0  0  0  0  0  0  0  0  0
    1.1969    0.6914    0.0004 C   0  0  0  0  0  0  0  0  0  0  0  0
    2.0645    1.1892    0.0022 H   0  0  0  0  0  0  0  0  0  0  0  0
  1  5  1  0
  5  6  1  0
  5  7  2  0
  1  2  1  0
  1  3  1  0
  1  4  1  0
  8 12  1  0
 12 13  2  0
 13 15  1  0
 15 17  2  0
 17 19  1  0
 19 21  2  0
 21 12  1  0
  8  9  1  0
  8 10  1  0
  8 11  1  0
 13 14  1  0
 15 16  1  0
 17 18  1  0
 19 20  1  0
 21 22  1  0
M  CHG  1   6  -1
M  END
>  <PDB_ID>  (369) 
pdb2gt1

>  <RESIDUE_NAME>  (369) 
GLU   PHE

>  <FRAG_NAME>  (369) 
ACET   MBZ

>  <FRAG_ATOM_NUM>  (369) 
fragi: 7  fragj: 15

>  <atom.prop.CHAIN_ID>  (369) 
A A A A A A A Z Z Z Z Z Z Z Z Z Z Z Z Z Z Z

>  <atom.prop.IS_HEAVY_ATOM>  (369) 
1 0 0 0 1 1 1 1 0 0 0 1 1 0 1 0 1 0 1 0 1 0

>  <DIFUSE_FUNC_ATOM>  (369) 
atom 6   atom 7   

>  <FINAL_SINGLE_POINT_ENERGY>  (369) 
0

>  <NONCOV_INTER_ENERGY_QM>  (369) 
0

>  <FF_Energy>  (369) 
1.3

>  <QM_Energy>  (369) 
-4.44

>  <source>  (369) 
ACET_MBZ_00

>  <Index>  (369) 
13303

$$$$
ACET-pdb1fzc-C-ASP-288:MBZ-pdb1fzc-C-PHE-281
     RDKit          3D

 22 21  0  0  0  0  0  0  0  0999 V2000
   -0.7872    0.8058   -3.4403 C   0  0  0  0  0  0  0  0  0  0  0  0
   -0.2934    0.5351   -2.6288 H   0  0  0  0  0  0  0  0  0  0  0  0
   -0.2319    0.7109   -4.2511 H   0  0  0  0  0  0  0  0  0  0  0  0
   -1.6504    0.1482   -3.5439 H   0  0  0  0  0  0  0  0  0  0  0  0
   -1.1963    2.2773   -3.2952 C   0  0  0  0  0  0  0  0  0  0  0  0
   -2.3888    2.6651   -3.3695 O   0  0  0  0  0  1  0  0  0  0  0  0
   -0.2726    3.0902   -3.1052 O   0  0  0  0  0  0  0  0  0  0  0  0
    0.0505    2.9169    0.0603 C   0  0  0  0  0  0  0  0  0  0  0  0
   -0.6322    3.2569   -0.5810 H   0  0  0  0  0  0  0  0  0  0  0  0
    0.9605    3.2056   -0.2231 H   0  0  0  0  0  0  0  0  0  0  0  0
   -0.1519    3.3760    1.0279 H   0  0  0  0  0  0  0  0  0  0  0  0
    0.0098    1.4135    0.0276 C   0  0  0  0  0  0  0  0  0  0  0  0
   -1.1922    0.7197   -0.0080 C   0  0  0  0  0  0  0  0  0  0  0  0
   -2.0527    1.2161   -0.0402 H   0  0  0  0  0  0  0  0  0  0  0  0
   -1.2017   -0.6668   -0.0000 C   0  0  0  0  0  0  0  0  0  0  0  0
   -2.0992   -1.1526    0.0317 H   0  0  0  0  0  0  0  0  0  0  0  0
   -0.0246   -1.4143   -0.0320 C   0  0  0  0  0  0  0  0  0  0  0  0
   -0.0509   -2.3977   -0.0768 H   0  0  0  0  0  0  0  0  0  0  0  0
    1.2017   -0.7283    0.0000 C   0  0  0  0  0  0  0  0  0  0  0  0
    2.0691   -1.2335    0.0157 H   0  0  0  0  0  0  0  0  0  0  0  0
    1.2071    0.6762    0.0124 C   0  0  0  0  0  0  0  0  0  0  0  0
    2.0808    1.1622    0.0098 H   0  0  0  0  0  0  0  0  0  0  0  0
  1  5  1  0
  5  6  1  0
  5  7  2  0
  1  2  1  0
  1  3  1  0
  1  4  1  0
  8 12  1  0
 12 13  2  0
 13 15  1  0
 15 17  2  0
 17 19  1  0
 19 21  2  0
 21 12  1  0
  8  9  1  0
  8 10  1  0
  8 11  1  0
 13 14  1  0
 15 16  1  0
 17 18  1  0
 19 20  1  0
 21 22  1  0
M  CHG  1   6  -1
M  END
>  <PDB_ID>  (370) 
pdb1fzc

>  <RESIDUE_NAME>  (370) 
ASP   PHE

>  <FRAG_NAME>  (370) 
ACET   MBZ

>  <FRAG_ATOM_NUM>  (370) 
fragi: 7  fragj: 15

>  <atom.prop.CHAIN_ID>  (370) 
A A A A A A A Z Z Z Z Z Z Z Z Z Z Z Z Z Z Z

>  <atom.prop.IS_HEAVY_ATOM>  (370) 
1 0 0 0 1 1 1 1 0 0 0 1 1 0 1 0 1 0 1 0 1 0

>  <DIFUSE_FUNC_ATOM>  (370) 
atom 6   atom 7   

>  <FINAL_SINGLE_POINT_ENERGY>  (370) 
0

>  <NONCOV_INTER_ENERGY_QM>  (370) 
0

>  <FF_Energy>  (370) 
-0.22

>  <QM_Energy>  (370) 
-5.98

>  <source>  (370) 
ACET_MBZ_00

>  <Index>  (370) 
13326

$$$$
ACET-pdb2gtq-A-GLU-711:MBZ-pdb2gtq-A-PHE-737
     RDKit          3D

 22 21  0  0  0  0  0  0  0  0999 V2000
    3.3825   -4.8643    1.7919 C   0  0  0  0  0  0  0  0  0  0  0  0
    4.0400   -5.4975    1.4129 H   0  0  0  0  0  0  0  0  0  0  0  0
    2.5489   -5.3258    2.0569 H   0  0  0  0  0  0  0  0  0  0  0  0
    3.8174   -4.3833    2.6680 H   0  0  0  0  0  0  0  0  0  0  0  0
    3.0210   -3.8882    0.6957 C   0  0  0  0  0  0  0  0  0  0  0  0
    3.8952   -3.0866    0.2345 O   0  0  0  0  0  1  0  0  0  0  0  0
    1.8577   -3.9618    0.2554 O   0  0  0  0  0  0  0  0  0  0  0  0
   -0.0123    2.9403    0.0048 C   0  0  0  0  0  0  0  0  0  0  0  0
    0.8864    3.2387    0.2800 H   0  0  0  0  0  0  0  0  0  0  0  0
   -0.7039    3.2239    0.6487 H   0  0  0  0  0  0  0  0  0  0  0  0
   -0.2407    3.3896   -0.9617 H   0  0  0  0  0  0  0  0  0  0  0  0
   -0.0012    1.4116   -0.0100 C   0  0  0  0  0  0  0  0  0  0  0  0
   -1.2088    0.6948    0.0091 C   0  0  0  0  0  0  0  0  0  0  0  0
   -2.0716    1.1866    0.0281 H   0  0  0  0  0  0  0  0  0  0  0  0
   -1.2197   -0.7070   -0.0000 C   0  0  0  0  0  0  0  0  0  0  0  0
   -2.0854   -1.2006   -0.0110 H   0  0  0  0  0  0  0  0  0  0  0  0
    0.0049   -1.4114    0.0083 C   0  0  0  0  0  0  0  0  0  0  0  0
    0.0039   -2.4010    0.0194 H   0  0  0  0  0  0  0  0  0  0  0  0
    1.2197   -0.6978    0.0000 C   0  0  0  0  0  0  0  0  0  0  0  0
    2.0973   -1.1880    0.0003 H   0  0  0  0  0  0  0  0  0  0  0  0
    1.2051    0.7098   -0.0074 C   0  0  0  0  0  0  0  0  0  0  0  0
    2.0692    1.2062   -0.0110 H   0  0  0  0  0  0  0  0  0  0  0  0
  1  5  1  0
  5  6  1  0
  5  7  2  0
  1  2  1  0
  1  3  1  0
  1  4  1  0
  8 12  1  0
 12 13  2  0
 13 15  1  0
 15 17  2  0
 17 19  1  0
 19 21  2  0
 21 12  1  0
  8  9  1  0
  8 10  1  0
  8 11  1  0
 13 14  1  0
 15 16  1  0
 17 18  1  0
 19 20  1  0
 21 22  1  0
M  CHG  1   6  -1
M  END
>  <PDB_ID>  (371) 
pdb2gtq

>  <RESIDUE_NAME>  (371) 
GLU   PHE

>  <FRAG_NAME>  (371) 
ACET   MBZ

>  <FRAG_ATOM_NUM>  (371) 
fragi: 7  fragj: 15

>  <atom.prop.CHAIN_ID>  (371) 
A A A A A A A Z Z Z Z Z Z Z Z Z Z Z Z Z Z Z

>  <atom.prop.IS_HEAVY_ATOM>  (371) 
1 0 0 0 1 1 1 1 0 0 0 1 1 0 1 0 1 0 1 0 1 0

>  <DIFUSE_FUNC_ATOM>  (371) 
atom 6   atom 7   

>  <FINAL_SINGLE_POINT_ENERGY>  (371) 
0

>  <NONCOV_INTER_ENERGY_QM>  (371) 
0

>  <FF_Energy>  (371) 
-3.25

>  <QM_Energy>  (371) 
-8.3

>  <source>  (371) 
ACET_MBZ_00

>  <Index>  (371) 
13375

$$$$
ACET-pdb1fyz-D-ASP-173:MBZ-pdb1fyz-D-PHE-96
     RDKit          3D

 22 21  0  0  0  0  0  0  0  0999 V2000
    5.8838   -0.9163    1.4545 C   0  0  0  0  0  0  0  0  0  0  0  0
    6.7103   -0.3805    1.3316 H   0  0  0  0  0  0  0  0  0  0  0  0
    6.0521   -1.8734    1.2549 H   0  0  0  0  0  0  0  0  0  0  0  0
    5.5882   -0.8395    2.5008 H   0  0  0  0  0  0  0  0  0  0  0  0
    4.8184   -0.3977    0.5171 C   0  0  0  0  0  0  0  0  0  0  0  0
    4.4777    0.8012    0.6069 O   0  0  0  0  0  1  0  0  0  0  0  0
    4.3116   -1.1922   -0.3065 O   0  0  0  0  0  0  0  0  0  0  0  0
    0.0003    2.9068    0.0349 C   0  0  0  0  0  0  0  0  0  0  0  0
   -0.7925    3.2273   -0.4606 H   0  0  0  0  0  0  0  0  0  0  0  0
    0.8389    3.2236   -0.3818 H   0  0  0  0  0  0  0  0  0  0  0  0
   -0.0477    3.3248    1.0404 H   0  0  0  0  0  0  0  0  0  0  0  0
   -0.0011    1.4043    0.0004 C   0  0  0  0  0  0  0  0  0  0  0  0
   -1.1979    0.6953   -0.0001 C   0  0  0  0  0  0  0  0  0  0  0  0
   -2.0651    1.1835   -0.0017 H   0  0  0  0  0  0  0  0  0  0  0  0
   -1.2029   -0.6999    0.0000 C   0  0  0  0  0  0  0  0  0  0  0  0
   -2.0780   -1.1925    0.0013 H   0  0  0  0  0  0  0  0  0  0  0  0
    0.0018   -1.3954    0.0007 C   0  0  0  0  0  0  0  0  0  0  0  0
   -0.0020   -2.3944    0.0012 H   0  0  0  0  0  0  0  0  0  0  0  0
    1.2029   -0.6982    0.0000 C   0  0  0  0  0  0  0  0  0  0  0  0
    2.0845   -1.1944    0.0013 H   0  0  0  0  0  0  0  0  0  0  0  0
    1.1972    0.6939   -0.0009 C   0  0  0  0  0  0  0  0  0  0  0  0
    2.0644    1.1909   -0.0035 H   0  0  0  0  0  0  0  0  0  0  0  0
  1  5  1  0
  5  6  1  0
  5  7  2  0
  1  2  1  0
  1  3  1  0
  1  4  1  0
  8 12  1  0
 12 13  2  0
 13 15  1  0
 15 17  2  0
 17 19  1  0
 19 21  2  0
 21 12  1  0
  8  9  1  0
  8 10  1  0
  8 11  1  0
 13 14  1  0
 15 16  1  0
 17 18  1  0
 19 20  1  0
 21 22  1  0
M  CHG  1   6  -1
M  END
>  <PDB_ID>  (372) 
pdb1fyz

>  <RESIDUE_NAME>  (372) 
ASP   PHE

>  <FRAG_NAME>  (372) 
ACET   MBZ

>  <FRAG_ATOM_NUM>  (372) 
fragi: 7  fragj: 15

>  <atom.prop.CHAIN_ID>  (372) 
A A A A A A A Z Z Z Z Z Z Z Z Z Z Z Z Z Z Z

>  <atom.prop.IS_HEAVY_ATOM>  (372) 
1 0 0 0 1 1 1 1 0 0 0 1 1 0 1 0 1 0 1 0 1 0

>  <DIFUSE_FUNC_ATOM>  (372) 
atom 6   atom 7   

>  <FINAL_SINGLE_POINT_ENERGY>  (372) 
0

>  <NONCOV_INTER_ENERGY_QM>  (372) 
0

>  <FF_Energy>  (372) 
-2.11

>  <QM_Energy>  (372) 
-8.72

>  <source>  (372) 
ACET_MBZ_00

>  <Index>  (372) 
13379

$$$$
ACET-pdb2gu2-A-GLU-7:MBZ-pdb2gu2-A-PHE-208
     RDKit          3D

 22 21  0  0  0  0  0  0  0  0999 V2000
    0.5101   -3.9035   -1.3639 C   0  0  0  0  0  0  0  0  0  0  0  0
    0.0188   -3.0481   -1.3602 H   0  0  0  0  0  0  0  0  0  0  0  0
    1.3347   -3.8505   -0.8245 H   0  0  0  0  0  0  0  0  0  0  0  0
   -0.1342   -4.6710   -0.9349 H   0  0  0  0  0  0  0  0  0  0  0  0
    0.9042   -4.2001   -2.7748 C   0  0  0  0  0  0  0  0  0  0  0  0
    0.1081   -4.8597   -3.4911 O   0  0  0  0  0  1  0  0  0  0  0  0
    2.0105   -3.7649   -3.1688 O   0  0  0  0  0  0  0  0  0  0  0  0
    0.0046    2.9241   -0.0214 C   0  0  0  0  0  0  0  0  0  0  0  0
   -0.7167    3.2220   -0.6143 H   0  0  0  0  0  0  0  0  0  0  0  0
    0.8895    3.2246   -0.3188 H   0  0  0  0  0  0  0  0  0  0  0  0
   -0.1776    3.3491    0.9657 H   0  0  0  0  0  0  0  0  0  0  0  0
    0.0048    1.4079   -0.0096 C   0  0  0  0  0  0  0  0  0  0  0  0
   -1.1920    0.7088   -0.0131 C   0  0  0  0  0  0  0  0  0  0  0  0
   -2.0605    1.1942   -0.0261 H   0  0  0  0  0  0  0  0  0  0  0  0
   -1.2129   -0.7071    0.0000 C   0  0  0  0  0  0  0  0  0  0  0  0
   -2.0916   -1.1805   -0.0006 H   0  0  0  0  0  0  0  0  0  0  0  0
   -0.0122   -1.4052    0.0150 C   0  0  0  0  0  0  0  0  0  0  0  0
   -0.0127   -2.4030    0.0358 H   0  0  0  0  0  0  0  0  0  0  0  0
    1.2129   -0.7107   -0.0000 C   0  0  0  0  0  0  0  0  0  0  0  0
    2.0829   -1.2001   -0.0143 H   0  0  0  0  0  0  0  0  0  0  0  0
    1.1994    0.7062    0.0077 C   0  0  0  0  0  0  0  0  0  0  0  0
    2.0699    1.1932    0.0251 H   0  0  0  0  0  0  0  0  0  0  0  0
  1  5  1  0
  5  6  1  0
  5  7  2  0
  1  2  1  0
  1  3  1  0
  1  4  1  0
  8 12  1  0
 12 13  2  0
 13 15  1  0
 15 17  2  0
 17 19  1  0
 19 21  2  0
 21 12  1  0
  8  9  1  0
  8 10  1  0
  8 11  1  0
 13 14  1  0
 15 16  1  0
 17 18  1  0
 19 20  1  0
 21 22  1  0
M  CHG  1   6  -1
M  END
>  <PDB_ID>  (373) 
pdb2gu2

>  <RESIDUE_NAME>  (373) 
GLU   PHE

>  <FRAG_NAME>  (373) 
ACET   MBZ

>  <FRAG_ATOM_NUM>  (373) 
fragi: 7  fragj: 15

>  <atom.prop.CHAIN_ID>  (373) 
A A A A A A A Z Z Z Z Z Z Z Z Z Z Z Z Z Z Z

>  <atom.prop.IS_HEAVY_ATOM>  (373) 
1 0 0 0 1 1 1 1 0 0 0 1 1 0 1 0 1 0 1 0 1 0

>  <DIFUSE_FUNC_ATOM>  (373) 
atom 6   atom 7   

>  <FINAL_SINGLE_POINT_ENERGY>  (373) 
0

>  <NONCOV_INTER_ENERGY_QM>  (373) 
0

>  <FF_Energy>  (373) 
42.62

>  <QM_Energy>  (373) 
7.99

>  <source>  (373) 
ACET_MBZ_00

>  <Index>  (373) 
13421

$$$$
ACET-pdb1g0z-B-ASP-94:MBZ-pdb1g0z-B-PHE-5
     RDKit          3D

 22 21  0  0  0  0  0  0  0  0999 V2000
   -3.1199    1.9562   -2.5681 C   0  0  0  0  0  0  0  0  0  0  0  0
   -3.8308    2.5566   -2.9152 H   0  0  0  0  0  0  0  0  0  0  0  0
   -3.1049    1.9706   -1.5762 H   0  0  0  0  0  0  0  0  0  0  0  0
   -3.3485    0.9399   -2.8890 H   0  0  0  0  0  0  0  0  0  0  0  0
   -1.7739    2.4498   -3.0828 C   0  0  0  0  0  0  0  0  0  0  0  0
   -0.9554    1.6154   -3.5445 O   0  0  0  0  0  1  0  0  0  0  0  0
   -1.5321    3.6770   -3.0130 O   0  0  0  0  0  0  0  0  0  0  0  0
    0.0024    2.9103    0.0228 C   0  0  0  0  0  0  0  0  0  0  0  0
   -0.1886    3.2310   -0.8924 H   0  0  0  0  0  0  0  0  0  0  0  0
    0.8900    3.2142    0.3330 H   0  0  0  0  0  0  0  0  0  0  0  0
   -0.7452    3.3437    0.6870 H   0  0  0  0  0  0  0  0  0  0  0  0
    0.0015    1.4083    0.0032 C   0  0  0  0  0  0  0  0  0  0  0  0
   -1.1951    0.6985   -0.0020 C   0  0  0  0  0  0  0  0  0  0  0  0
   -2.0628    1.1850   -0.0086 H   0  0  0  0  0  0  0  0  0  0  0  0
   -1.2022   -0.7028   -0.0000 C   0  0  0  0  0  0  0  0  0  0  0  0
   -2.0818   -1.1885    0.0033 H   0  0  0  0  0  0  0  0  0  0  0  0
   -0.0038   -1.4025   -0.0007 C   0  0  0  0  0  0  0  0  0  0  0  0
   -0.0052   -2.3985   -0.0028 H   0  0  0  0  0  0  0  0  0  0  0  0
    1.2022   -0.7018    0.0000 C   0  0  0  0  0  0  0  0  0  0  0  0
    2.0824   -1.1957    0.0028 H   0  0  0  0  0  0  0  0  0  0  0  0
    1.1974    0.7003   -0.0005 C   0  0  0  0  0  0  0  0  0  0  0  0
    2.0668    1.1915   -0.0045 H   0  0  0  0  0  0  0  0  0  0  0  0
  1  5  1  0
  5  6  1  0
  5  7  2  0
  1  2  1  0
  1  3  1  0
  1  4  1  0
  8 12  1  0
 12 13  2  0
 13 15  1  0
 15 17  2  0
 17 19  1  0
 19 21  2  0
 21 12  1  0
  8  9  1  0
  8 10  1  0
  8 11  1  0
 13 14  1  0
 15 16  1  0
 17 18  1  0
 19 20  1  0
 21 22  1  0
M  CHG  1   6  -1
M  END
>  <PDB_ID>  (374) 
pdb1g0z

>  <RESIDUE_NAME>  (374) 
ASP   PHE

>  <FRAG_NAME>  (374) 
ACET   MBZ

>  <FRAG_ATOM_NUM>  (374) 
fragi: 7  fragj: 15

>  <atom.prop.CHAIN_ID>  (374) 
A A A A A A A Z Z Z Z Z Z Z Z Z Z Z Z Z Z Z

>  <atom.prop.IS_HEAVY_ATOM>  (374) 
1 0 0 0 1 1 1 1 0 0 0 1 1 0 1 0 1 0 1 0 1 0

>  <DIFUSE_FUNC_ATOM>  (374) 
atom 6   atom 7   

>  <FINAL_SINGLE_POINT_ENERGY>  (374) 
0

>  <NONCOV_INTER_ENERGY_QM>  (374) 
0

>  <FF_Energy>  (374) 
1.63

>  <QM_Energy>  (374) 
-3.73

>  <source>  (374) 
ACET_MBZ_00

>  <Index>  (374) 
13429

$$$$
ACET-pdb2guz-N-GLU-90:MBZ-pdb2guz-L-PHE-95
     RDKit          3D

 22 21  0  0  0  0  0  0  0  0999 V2000
   -0.3028    0.1529   -3.3685 C   0  0  0  0  0  0  0  0  0  0  0  0
    0.1523   -0.0501   -2.5182 H   0  0  0  0  0  0  0  0  0  0  0  0
    0.1446   -0.2747   -4.1353 H   0  0  0  0  0  0  0  0  0  0  0  0
   -1.3250   -0.2211   -3.3107 H   0  0  0  0  0  0  0  0  0  0  0  0
   -0.2290    1.6506   -3.5779 C   0  0  0  0  0  0  0  0  0  0  0  0
    0.9311    2.1019   -3.7382 O   0  0  0  0  0  1  0  0  0  0  0  0
   -1.2727    2.3514   -3.6012 O   0  0  0  0  0  0  0  0  0  0  0  0
   -0.0316    2.8930   -0.0150 C   0  0  0  0  0  0  0  0  0  0  0  0
   -0.6586    3.1857   -0.7160 H   0  0  0  0  0  0  0  0  0  0  0  0
    0.8823    3.2218   -0.1795 H   0  0  0  0  0  0  0  0  0  0  0  0
   -0.3708    3.3124    0.9322 H   0  0  0  0  0  0  0  0  0  0  0  0
    0.0027    1.3933   -0.0134 C   0  0  0  0  0  0  0  0  0  0  0  0
   -1.1984    0.6789   -0.0039 C   0  0  0  0  0  0  0  0  0  0  0  0
   -2.0633    1.1798   -0.0018 H   0  0  0  0  0  0  0  0  0  0  0  0
   -1.2118   -0.7009    0.0000 C   0  0  0  0  0  0  0  0  0  0  0  0
   -2.0868   -1.1961   -0.0123 H   0  0  0  0  0  0  0  0  0  0  0  0
   -0.0115   -1.3960    0.0231 C   0  0  0  0  0  0  0  0  0  0  0  0
   -0.0067   -2.3931    0.0555 H   0  0  0  0  0  0  0  0  0  0  0  0
    1.2118   -0.6954   -0.0000 C   0  0  0  0  0  0  0  0  0  0  0  0
    2.0838   -1.1897   -0.0108 H   0  0  0  0  0  0  0  0  0  0  0  0
    1.2072    0.7202   -0.0058 C   0  0  0  0  0  0  0  0  0  0  0  0
    2.0668    1.2070   -0.0055 H   0  0  0  0  0  0  0  0  0  0  0  0
  1  5  1  0
  5  6  1  0
  5  7  2  0
  1  2  1  0
  1  3  1  0
  1  4  1  0
  8 12  1  0
 12 13  2  0
 13 15  1  0
 15 17  2  0
 17 19  1  0
 19 21  2  0
 21 12  1  0
  8  9  1  0
  8 10  1  0
  8 11  1  0
 13 14  1  0
 15 16  1  0
 17 18  1  0
 19 20  1  0
 21 22  1  0
M  CHG  1   6  -1
M  END
>  <PDB_ID>  (375) 
pdb2guz

>  <RESIDUE_NAME>  (375) 
GLU   PHE

>  <FRAG_NAME>  (375) 
ACET   MBZ

>  <FRAG_ATOM_NUM>  (375) 
fragi: 7  fragj: 15

>  <atom.prop.CHAIN_ID>  (375) 
A A A A A A A Z Z Z Z Z Z Z Z Z Z Z Z Z Z Z

>  <atom.prop.IS_HEAVY_ATOM>  (375) 
1 0 0 0 1 1 1 1 0 0 0 1 1 0 1 0 1 0 1 0 1 0

>  <DIFUSE_FUNC_ATOM>  (375) 
atom 6   atom 7   

>  <FINAL_SINGLE_POINT_ENERGY>  (375) 
0

>  <NONCOV_INTER_ENERGY_QM>  (375) 
0

>  <FF_Energy>  (375) 
0.38

>  <QM_Energy>  (375) 
-4.67

>  <source>  (375) 
ACET_MBZ_00

>  <Index>  (375) 
13496

$$$$
ACET-pdb1g0d-A-GLU-158:MBZ-pdb1g0d-A-PHE-180
     RDKit          3D

 22 21  0  0  0  0  0  0  0  0999 V2000
    3.2150    1.4893   -3.0638 C   0  0  0  0  0  0  0  0  0  0  0  0
    2.3708    1.3695   -3.5402 H   0  0  0  0  0  0  0  0  0  0  0  0
    3.4436    0.7349   -2.4857 H   0  0  0  0  0  0  0  0  0  0  0  0
    4.0083    1.6082   -3.8018 H   0  0  0  0  0  0  0  0  0  0  0  0
    3.0738    2.7226   -2.1762 C   0  0  0  0  0  0  0  0  0  0  0  0
    4.0299    3.0324   -1.4192 O   0  0  0  0  0  1  0  0  0  0  0  0
    2.0207    3.3912   -2.2478 O   0  0  0  0  0  0  0  0  0  0  0  0
   -0.0113    2.8834   -0.0674 C   0  0  0  0  0  0  0  0  0  0  0  0
    0.8825    3.1863   -0.3539 H   0  0  0  0  0  0  0  0  0  0  0  0
   -0.2471    3.2296    0.8251 H   0  0  0  0  0  0  0  0  0  0  0  0
   -0.7399    3.2709   -0.7795 H   0  0  0  0  0  0  0  0  0  0  0  0
    0.0015    1.3869   -0.0003 C   0  0  0  0  0  0  0  0  0  0  0  0
   -1.2005    0.6675    0.0040 C   0  0  0  0  0  0  0  0  0  0  0  0
   -2.0651    1.1723    0.0087 H   0  0  0  0  0  0  0  0  0  0  0  0
   -1.2105   -0.7029   -0.0000 C   0  0  0  0  0  0  0  0  0  0  0  0
   -2.0751   -1.2080    0.0004 H   0  0  0  0  0  0  0  0  0  0  0  0
    0.0027   -1.3791   -0.0026 C   0  0  0  0  0  0  0  0  0  0  0  0
    0.0163   -2.3803   -0.0069 H   0  0  0  0  0  0  0  0  0  0  0  0
    1.2105   -0.6697   -0.0000 C   0  0  0  0  0  0  0  0  0  0  0  0
    2.0875   -1.1774    0.0041 H   0  0  0  0  0  0  0  0  0  0  0  0
    1.1963    0.6974   -0.0012 C   0  0  0  0  0  0  0  0  0  0  0  0
    2.0604    1.2094   -0.0037 H   0  0  0  0  0  0  0  0  0  0  0  0
  1  5  1  0
  5  6  1  0
  5  7  2  0
  1  2  1  0
  1  3  1  0
  1  4  1  0
  8 12  1  0
 12 13  2  0
 13 15  1  0
 15 17  2  0
 17 19  1  0
 19 21  2  0
 21 12  1  0
  8  9  1  0
  8 10  1  0
  8 11  1  0
 13 14  1  0
 15 16  1  0
 17 18  1  0
 19 20  1  0
 21 22  1  0
M  CHG  1   6  -1
M  END
>  <PDB_ID>  (376) 
pdb1g0d

>  <RESIDUE_NAME>  (376) 
GLU   PHE

>  <FRAG_NAME>  (376) 
ACET   MBZ

>  <FRAG_ATOM_NUM>  (376) 
fragi: 7  fragj: 15

>  <atom.prop.CHAIN_ID>  (376) 
A A A A A A A Z Z Z Z Z Z Z Z Z Z Z Z Z Z Z

>  <atom.prop.IS_HEAVY_ATOM>  (376) 
1 0 0 0 1 1 1 1 0 0 0 1 1 0 1 0 1 0 1 0 1 0

>  <DIFUSE_FUNC_ATOM>  (376) 
atom 6   atom 7   

>  <FINAL_SINGLE_POINT_ENERGY>  (376) 
0

>  <NONCOV_INTER_ENERGY_QM>  (376) 
0

>  <FF_Energy>  (376) 
-0.03

>  <QM_Energy>  (376) 
-7.22

>  <source>  (376) 
ACET_MBZ_00

>  <Index>  (376) 
13501

$$$$
ACET-pdb2guz-B-GLU-57:MBZ-pdb2guz-A-PHE-104
     RDKit          3D

 22 21  0  0  0  0  0  0  0  0999 V2000
   -5.8512    2.5806    0.5550 C   0  0  0  0  0  0  0  0  0  0  0  0
   -5.9241    1.6595    0.9168 H   0  0  0  0  0  0  0  0  0  0  0  0
   -5.7224    2.5615   -0.4285 H   0  0  0  0  0  0  0  0  0  0  0  0
   -6.8092    3.0670    0.7385 H   0  0  0  0  0  0  0  0  0  0  0  0
   -4.6681    3.2458    1.1779 C   0  0  0  0  0  0  0  0  0  0  0  0
   -3.5330    2.7284    0.9775 O   0  0  0  0  0  1  0  0  0  0  0  0
   -4.8693    4.2248    1.9159 O   0  0  0  0  0  0  0  0  0  0  0  0
    0.0570    2.9064    0.0103 C   0  0  0  0  0  0  0  0  0  0  0  0
   -0.7869    3.2409   -0.3820 H   0  0  0  0  0  0  0  0  0  0  0  0
    0.8384    3.1850   -0.5279 H   0  0  0  0  0  0  0  0  0  0  0  0
    0.1613    3.3464    1.0021 H   0  0  0  0  0  0  0  0  0  0  0  0
    0.0066    1.4162    0.0253 C   0  0  0  0  0  0  0  0  0  0  0  0
   -1.1889    0.7325   -0.0154 C   0  0  0  0  0  0  0  0  0  0  0  0
   -2.0545    1.1773   -0.0553 H   0  0  0  0  0  0  0  0  0  0  0  0
   -1.1715   -0.7290   -0.0000 C   0  0  0  0  0  0  0  0  0  0  0  0
   -2.0608   -1.1905    0.0275 H   0  0  0  0  0  0  0  0  0  0  0  0
    0.0110   -1.3959   -0.0204 C   0  0  0  0  0  0  0  0  0  0  0  0
    0.0138   -2.4065   -0.0510 H   0  0  0  0  0  0  0  0  0  0  0  0
    1.1715   -0.7084   -0.0000 C   0  0  0  0  0  0  0  0  0  0  0  0
    2.0733   -1.1919    0.0100 H   0  0  0  0  0  0  0  0  0  0  0  0
    1.1713    0.6845    0.0105 C   0  0  0  0  0  0  0  0  0  0  0  0
    2.0605    1.1665    0.0068 H   0  0  0  0  0  0  0  0  0  0  0  0
  1  5  1  0
  5  6  1  0
  5  7  2  0
  1  2  1  0
  1  3  1  0
  1  4  1  0
  8 12  1  0
 12 13  2  0
 13 15  1  0
 15 17  2  0
 17 19  1  0
 19 21  2  0
 21 12  1  0
  8  9  1  0
  8 10  1  0
  8 11  1  0
 13 14  1  0
 15 16  1  0
 17 18  1  0
 19 20  1  0
 21 22  1  0
M  CHG  1   6  -1
M  END
>  <PDB_ID>  (377) 
pdb2guz

>  <RESIDUE_NAME>  (377) 
GLU   PHE

>  <FRAG_NAME>  (377) 
ACET   MBZ

>  <FRAG_ATOM_NUM>  (377) 
fragi: 7  fragj: 15

>  <atom.prop.CHAIN_ID>  (377) 
A A A A A A A Z Z Z Z Z Z Z Z Z Z Z Z Z Z Z

>  <atom.prop.IS_HEAVY_ATOM>  (377) 
1 0 0 0 1 1 1 1 0 0 0 1 1 0 1 0 1 0 1 0 1 0

>  <DIFUSE_FUNC_ATOM>  (377) 
atom 6   atom 7   

>  <FINAL_SINGLE_POINT_ENERGY>  (377) 
0

>  <NONCOV_INTER_ENERGY_QM>  (377) 
0

>  <FF_Energy>  (377) 
-1.24

>  <QM_Energy>  (377) 
-6.79

>  <source>  (377) 
ACET_MBZ_00

>  <Index>  (377) 
13509

$$$$
ACET-pdb2gx8-C-GLU-205:MBZ-pdb2gx8-B-PHE-143
     RDKit          3D

 22 21  0  0  0  0  0  0  0  0999 V2000
    1.3460   -5.5213   -2.2477 C   0  0  0  0  0  0  0  0  0  0  0  0
    2.2929   -5.2575   -2.3123 H   0  0  0  0  0  0  0  0  0  0  0  0
    0.7628   -4.9339   -2.7814 H   0  0  0  0  0  0  0  0  0  0  0  0
    1.2357   -6.5493   -2.5927 H   0  0  0  0  0  0  0  0  0  0  0  0
    0.9366   -5.3657   -0.8075 C   0  0  0  0  0  0  0  0  0  0  0  0
    1.3717   -6.1665    0.0350 O   0  0  0  0  0  1  0  0  0  0  0  0
    0.1815   -4.4263   -0.5061 O   0  0  0  0  0  0  0  0  0  0  0  0
   -0.0035    2.8973    0.0216 C   0  0  0  0  0  0  0  0  0  0  0  0
   -0.8288    3.2125   -0.4166 H   0  0  0  0  0  0  0  0  0  0  0  0
    0.8041    3.2152   -0.4469 H   0  0  0  0  0  0  0  0  0  0  0  0
    0.0147    3.3014    1.0338 H   0  0  0  0  0  0  0  0  0  0  0  0
   -0.0015    1.4024   -0.0062 C   0  0  0  0  0  0  0  0  0  0  0  0
   -1.1959    0.6883   -0.0006 C   0  0  0  0  0  0  0  0  0  0  0  0
   -2.0645    1.1763    0.0017 H   0  0  0  0  0  0  0  0  0  0  0  0
   -1.1945   -0.7010   -0.0000 C   0  0  0  0  0  0  0  0  0  0  0  0
   -2.0719   -1.1968    0.0000 H   0  0  0  0  0  0  0  0  0  0  0  0
    0.0044   -1.3910    0.0027 C   0  0  0  0  0  0  0  0  0  0  0  0
    0.0005   -2.3931    0.0065 H   0  0  0  0  0  0  0  0  0  0  0  0
    1.1945   -0.6976    0.0000 C   0  0  0  0  0  0  0  0  0  0  0  0
    2.0822   -1.1897   -0.0035 H   0  0  0  0  0  0  0  0  0  0  0  0
    1.1929    0.6989    0.0042 C   0  0  0  0  0  0  0  0  0  0  0  0
    2.0616    1.1905    0.0137 H   0  0  0  0  0  0  0  0  0  0  0  0
  1  5  1  0
  5  6  1  0
  5  7  2  0
  1  2  1  0
  1  3  1  0
  1  4  1  0
  8 12  1  0
 12 13  2  0
 13 15  1  0
 15 17  2  0
 17 19  1  0
 19 21  2  0
 21 12  1  0
  8  9  1  0
  8 10  1  0
  8 11  1  0
 13 14  1  0
 15 16  1  0
 17 18  1  0
 19 20  1  0
 21 22  1  0
M  CHG  1   6  -1
M  END
>  <PDB_ID>  (378) 
pdb2gx8

>  <RESIDUE_NAME>  (378) 
GLU   PHE

>  <FRAG_NAME>  (378) 
ACET   MBZ

>  <FRAG_ATOM_NUM>  (378) 
fragi: 7  fragj: 15

>  <atom.prop.CHAIN_ID>  (378) 
A A A A A A A Z Z Z Z Z Z Z Z Z Z Z Z Z Z Z

>  <atom.prop.IS_HEAVY_ATOM>  (378) 
1 0 0 0 1 1 1 1 0 0 0 1 1 0 1 0 1 0 1 0 1 0

>  <DIFUSE_FUNC_ATOM>  (378) 
atom 6   atom 7   

>  <FINAL_SINGLE_POINT_ENERGY>  (378) 
0

>  <NONCOV_INTER_ENERGY_QM>  (378) 
0

>  <FF_Energy>  (378) 
0.83

>  <QM_Energy>  (378) 
-5.7

>  <source>  (378) 
ACET_MBZ_00

>  <Index>  (378) 
13588

$$$$
ACET-pdb1g2x-A-ASP-94:MBZ-pdb1g2x-A-PHE-5
     RDKit          3D

 22 21  0  0  0  0  0  0  0  0999 V2000
   -3.1419    1.9594   -2.3840 C   0  0  0  0  0  0  0  0  0  0  0  0
   -3.8729    2.5451   -2.7116 H   0  0  0  0  0  0  0  0  0  0  0  0
   -3.1199    1.9452   -1.3928 H   0  0  0  0  0  0  0  0  0  0  0  0
   -3.3377    0.9456   -2.7332 H   0  0  0  0  0  0  0  0  0  0  0  0
   -1.8084    2.5170   -2.8923 C   0  0  0  0  0  0  0  0  0  0  0  0
   -0.9915    1.7338   -3.4324 O   0  0  0  0  0  1  0  0  0  0  0  0
   -1.5752    3.7407   -2.7383 O   0  0  0  0  0  0  0  0  0  0  0  0
   -0.0063    2.9198    0.0301 C   0  0  0  0  0  0  0  0  0  0  0  0
   -0.2284    3.2401   -0.8759 H   0  0  0  0  0  0  0  0  0  0  0  0
    0.8892    3.2217    0.3152 H   0  0  0  0  0  0  0  0  0  0  0  0
   -0.7360    3.3421    0.7210 H   0  0  0  0  0  0  0  0  0  0  0  0
   -0.0000    1.4080    0.0007 C   0  0  0  0  0  0  0  0  0  0  0  0
   -1.1931    0.6917   -0.0028 C   0  0  0  0  0  0  0  0  0  0  0  0
   -2.0638    1.1811   -0.0087 H   0  0  0  0  0  0  0  0  0  0  0  0
   -1.2009   -0.7005   -0.0000 C   0  0  0  0  0  0  0  0  0  0  0  0
   -2.0812   -1.1900    0.0016 H   0  0  0  0  0  0  0  0  0  0  0  0
   -0.0048   -1.4003    0.0023 C   0  0  0  0  0  0  0  0  0  0  0  0
   -0.0084   -2.3980    0.0048 H   0  0  0  0  0  0  0  0  0  0  0  0
    1.2009   -0.7036    0.0000 C   0  0  0  0  0  0  0  0  0  0  0  0
    2.0814   -1.1953    0.0002 H   0  0  0  0  0  0  0  0  0  0  0  0
    1.1979    0.7047   -0.0002 C   0  0  0  0  0  0  0  0  0  0  0  0
    2.0658    1.1923   -0.0018 H   0  0  0  0  0  0  0  0  0  0  0  0
  1  5  1  0
  5  6  1  0
  5  7  2  0
  1  2  1  0
  1  3  1  0
  1  4  1  0
  8 12  1  0
 12 13  2  0
 13 15  1  0
 15 17  2  0
 17 19  1  0
 19 21  2  0
 21 12  1  0
  8  9  1  0
  8 10  1  0
  8 11  1  0
 13 14  1  0
 15 16  1  0
 17 18  1  0
 19 20  1  0
 21 22  1  0
M  CHG  1   6  -1
M  END
>  <PDB_ID>  (379) 
pdb1g2x

>  <RESIDUE_NAME>  (379) 
ASP   PHE

>  <FRAG_NAME>  (379) 
ACET   MBZ

>  <FRAG_ATOM_NUM>  (379) 
fragi: 7  fragj: 15

>  <atom.prop.CHAIN_ID>  (379) 
A A A A A A A Z Z Z Z Z Z Z Z Z Z Z Z Z Z Z

>  <atom.prop.IS_HEAVY_ATOM>  (379) 
1 0 0 0 1 1 1 1 0 0 0 1 1 0 1 0 1 0 1 0 1 0

>  <DIFUSE_FUNC_ATOM>  (379) 
atom 6   atom 7   

>  <FINAL_SINGLE_POINT_ENERGY>  (379) 
0

>  <NONCOV_INTER_ENERGY_QM>  (379) 
0

>  <FF_Energy>  (379) 
3.82

>  <QM_Energy>  (379) 
-3.48

>  <source>  (379) 
ACET_MBZ_00

>  <Index>  (379) 
13623

$$$$
ACET-pdb1g2x-B-ASP-94:MBZ-pdb1g2x-B-PHE-5
     RDKit          3D

 22 21  0  0  0  0  0  0  0  0999 V2000
   -3.2607    2.0842   -2.1433 C   0  0  0  0  0  0  0  0  0  0  0  0
   -3.9745    2.7032   -2.4499 H   0  0  0  0  0  0  0  0  0  0  0  0
   -3.1879    2.0971   -1.1536 H   0  0  0  0  0  0  0  0  0  0  0  0
   -3.5412    1.0751   -2.4453 H   0  0  0  0  0  0  0  0  0  0  0  0
   -1.9419    2.5212   -2.7388 C   0  0  0  0  0  0  0  0  0  0  0  0
   -1.2101    1.6359   -3.2315 O   0  0  0  0  0  1  0  0  0  0  0  0
   -1.6332    3.7406   -2.7051 O   0  0  0  0  0  0  0  0  0  0  0  0
   -0.0024    2.9066    0.0264 C   0  0  0  0  0  0  0  0  0  0  0  0
   -0.3194    3.2287   -0.8525 H   0  0  0  0  0  0  0  0  0  0  0  0
    0.9187    3.2133    0.2125 H   0  0  0  0  0  0  0  0  0  0  0  0
   -0.6529    3.3341    0.7894 H   0  0  0  0  0  0  0  0  0  0  0  0
    0.0010    1.4048    0.0013 C   0  0  0  0  0  0  0  0  0  0  0  0
   -1.1947    0.6902   -0.0021 C   0  0  0  0  0  0  0  0  0  0  0  0
   -2.0634    1.1810   -0.0068 H   0  0  0  0  0  0  0  0  0  0  0  0
   -1.2021   -0.7014    0.0000 C   0  0  0  0  0  0  0  0  0  0  0  0
   -2.0802   -1.1927    0.0016 H   0  0  0  0  0  0  0  0  0  0  0  0
   -0.0035   -1.4007    0.0015 C   0  0  0  0  0  0  0  0  0  0  0  0
   -0.0038   -2.3955    0.0029 H   0  0  0  0  0  0  0  0  0  0  0  0
    1.2021   -0.6976   -0.0000 C   0  0  0  0  0  0  0  0  0  0  0  0
    2.0832   -1.1908    0.0007 H   0  0  0  0  0  0  0  0  0  0  0  0
    1.1972    0.7048   -0.0007 C   0  0  0  0  0  0  0  0  0  0  0  0
    2.0652    1.1954   -0.0038 H   0  0  0  0  0  0  0  0  0  0  0  0
  1  5  1  0
  5  6  1  0
  5  7  2  0
  1  2  1  0
  1  3  1  0
  1  4  1  0
  8 12  1  0
 12 13  2  0
 13 15  1  0
 15 17  2  0
 17 19  1  0
 19 21  2  0
 21 12  1  0
  8  9  1  0
  8 10  1  0
  8 11  1  0
 13 14  1  0
 15 16  1  0
 17 18  1  0
 19 20  1  0
 21 22  1  0
M  CHG  1   6  -1
M  END
>  <PDB_ID>  (380) 
pdb1g2x

>  <RESIDUE_NAME>  (380) 
ASP   PHE

>  <FRAG_NAME>  (380) 
ACET   MBZ

>  <FRAG_ATOM_NUM>  (380) 
fragi: 7  fragj: 15

>  <atom.prop.CHAIN_ID>  (380) 
A A A A A A A Z Z Z Z Z Z Z Z Z Z Z Z Z Z Z

>  <atom.prop.IS_HEAVY_ATOM>  (380) 
1 0 0 0 1 1 1 1 0 0 0 1 1 0 1 0 1 0 1 0 1 0

>  <DIFUSE_FUNC_ATOM>  (380) 
atom 6   atom 7   

>  <FINAL_SINGLE_POINT_ENERGY>  (380) 
0

>  <NONCOV_INTER_ENERGY_QM>  (380) 
0

>  <FF_Energy>  (380) 
-2.14

>  <QM_Energy>  (380) 
-3.0

>  <source>  (380) 
ACET_MBZ_00

>  <Index>  (380) 
13624

$$$$
ACET-pdb1g38-D-GLU-148:MBZ-pdb1g38-D-PHE-133
     RDKit          3D

 22 21  0  0  0  0  0  0  0  0999 V2000
   -4.1837    2.6586    2.2125 C   0  0  0  0  0  0  0  0  0  0  0  0
   -4.6491    1.9615    1.6982 H   0  0  0  0  0  0  0  0  0  0  0  0
   -4.8108    3.2832    2.6417 H   0  0  0  0  0  0  0  0  0  0  0  0
   -3.6079    2.1678    2.9971 H   0  0  0  0  0  0  0  0  0  0  0  0
   -3.3285    3.4581    1.2387 C   0  0  0  0  0  0  0  0  0  0  0  0
   -2.3129    4.0334    1.6695 O   0  0  0  0  0  1  0  0  0  0  0  0
   -3.6822    3.5240    0.0436 O   0  0  0  0  0  0  0  0  0  0  0  0
   -0.0119    2.9126   -0.0686 C   0  0  0  0  0  0  0  0  0  0  0  0
    0.9192    3.2210   -0.1516 H   0  0  0  0  0  0  0  0  0  0  0  0
   -0.4425    3.2506    0.7491 H   0  0  0  0  0  0  0  0  0  0  0  0
   -0.5702    3.2934   -0.9240 H   0  0  0  0  0  0  0  0  0  0  0  0
    0.0008    1.4059   -0.0008 C   0  0  0  0  0  0  0  0  0  0  0  0
   -1.1983    0.6930    0.0023 C   0  0  0  0  0  0  0  0  0  0  0  0
   -2.0651    1.1822    0.0050 H   0  0  0  0  0  0  0  0  0  0  0  0
   -1.2026   -0.7018    0.0000 C   0  0  0  0  0  0  0  0  0  0  0  0
   -2.0782   -1.1941    0.0009 H   0  0  0  0  0  0  0  0  0  0  0  0
    0.0008   -1.3986   -0.0017 C   0  0  0  0  0  0  0  0  0  0  0  0
   -0.0008   -2.3954   -0.0048 H   0  0  0  0  0  0  0  0  0  0  0  0
    1.2026   -0.6976    0.0000 C   0  0  0  0  0  0  0  0  0  0  0  0
    2.0849   -1.1926    0.0027 H   0  0  0  0  0  0  0  0  0  0  0  0
    1.1967    0.6992    0.0002 C   0  0  0  0  0  0  0  0  0  0  0  0
    2.0656    1.1934   -0.0000 H   0  0  0  0  0  0  0  0  0  0  0  0
  1  5  1  0
  5  6  1  0
  5  7  2  0
  1  2  1  0
  1  3  1  0
  1  4  1  0
  8 12  1  0
 12 13  2  0
 13 15  1  0
 15 17  2  0
 17 19  1  0
 19 21  2  0
 21 12  1  0
  8  9  1  0
  8 10  1  0
  8 11  1  0
 13 14  1  0
 15 16  1  0
 17 18  1  0
 19 20  1  0
 21 22  1  0
M  CHG  1   6  -1
M  END
>  <PDB_ID>  (381) 
pdb1g38

>  <RESIDUE_NAME>  (381) 
GLU   PHE

>  <FRAG_NAME>  (381) 
ACET   MBZ

>  <FRAG_ATOM_NUM>  (381) 
fragi: 7  fragj: 15

>  <atom.prop.CHAIN_ID>  (381) 
A A A A A A A Z Z Z Z Z Z Z Z Z Z Z Z Z Z Z

>  <atom.prop.IS_HEAVY_ATOM>  (381) 
1 0 0 0 1 1 1 1 0 0 0 1 1 0 1 0 1 0 1 0 1 0

>  <DIFUSE_FUNC_ATOM>  (381) 
atom 6   atom 7   

>  <FINAL_SINGLE_POINT_ENERGY>  (381) 
0

>  <NONCOV_INTER_ENERGY_QM>  (381) 
0

>  <FF_Energy>  (381) 
-0.83

>  <QM_Energy>  (381) 
-8.21

>  <source>  (381) 
ACET_MBZ_00

>  <Index>  (381) 
13644

$$$$
ACET-pdb2guz-F-GLU-57:MBZ-pdb2guz-E-PHE-104
     RDKit          3D

 22 21  0  0  0  0  0  0  0  0999 V2000
   -5.8522    2.8433    0.4516 C   0  0  0  0  0  0  0  0  0  0  0  0
   -5.9743    1.9753    0.9148 H   0  0  0  0  0  0  0  0  0  0  0  0
   -5.6312    2.7044   -0.5044 H   0  0  0  0  0  0  0  0  0  0  0  0
   -6.7835    3.4058    0.5170 H   0  0  0  0  0  0  0  0  0  0  0  0
   -4.6217    3.5197    1.0951 C   0  0  0  0  0  0  0  0  0  0  0  0
   -3.4834    3.0828    0.8066 O   0  0  0  0  0  1  0  0  0  0  0  0
   -4.8146    4.4375    1.9101 O   0  0  0  0  0  0  0  0  0  0  0  0
    0.0212    2.9179    0.0237 C   0  0  0  0  0  0  0  0  0  0  0  0
   -0.8473    3.2304   -0.3325 H   0  0  0  0  0  0  0  0  0  0  0  0
    0.7720    3.2257   -0.5415 H   0  0  0  0  0  0  0  0  0  0  0  0
    0.1512    3.3363    1.0218 H   0  0  0  0  0  0  0  0  0  0  0  0
    0.0141    1.4190    0.0014 C   0  0  0  0  0  0  0  0  0  0  0  0
   -1.1906    0.7083    0.0234 C   0  0  0  0  0  0  0  0  0  0  0  0
   -2.0583    1.1800    0.0542 H   0  0  0  0  0  0  0  0  0  0  0  0
   -1.2034   -0.7325    0.0000 C   0  0  0  0  0  0  0  0  0  0  0  0
   -2.0903   -1.1921    0.0073 H   0  0  0  0  0  0  0  0  0  0  0  0
   -0.0179   -1.4180   -0.0294 C   0  0  0  0  0  0  0  0  0  0  0  0
   -0.0019   -2.4156   -0.0720 H   0  0  0  0  0  0  0  0  0  0  0  0
    1.2034   -0.7111    0.0000 C   0  0  0  0  0  0  0  0  0  0  0  0
    2.0795   -1.1876    0.0197 H   0  0  0  0  0  0  0  0  0  0  0  0
    1.1944    0.7343    0.0046 C   0  0  0  0  0  0  0  0  0  0  0  0
    2.0723    1.1995    0.0096 H   0  0  0  0  0  0  0  0  0  0  0  0
  1  5  1  0
  5  6  1  0
  5  7  2  0
  1  2  1  0
  1  3  1  0
  1  4  1  0
  8 12  1  0
 12 13  2  0
 13 15  1  0
 15 17  2  0
 17 19  1  0
 19 21  2  0
 21 12  1  0
  8  9  1  0
  8 10  1  0
  8 11  1  0
 13 14  1  0
 15 16  1  0
 17 18  1  0
 19 20  1  0
 21 22  1  0
M  CHG  1   6  -1
M  END
>  <PDB_ID>  (382) 
pdb2guz

>  <RESIDUE_NAME>  (382) 
GLU   PHE

>  <FRAG_NAME>  (382) 
ACET   MBZ

>  <FRAG_ATOM_NUM>  (382) 
fragi: 7  fragj: 15

>  <atom.prop.CHAIN_ID>  (382) 
A A A A A A A Z Z Z Z Z Z Z Z Z Z Z Z Z Z Z

>  <atom.prop.IS_HEAVY_ATOM>  (382) 
1 0 0 0 1 1 1 1 0 0 0 1 1 0 1 0 1 0 1 0 1 0

>  <DIFUSE_FUNC_ATOM>  (382) 
atom 6   atom 7   

>  <FINAL_SINGLE_POINT_ENERGY>  (382) 
0

>  <NONCOV_INTER_ENERGY_QM>  (382) 
0

>  <FF_Energy>  (382) 
-1.88

>  <QM_Energy>  (382) 
-7.11

>  <source>  (382) 
ACET_MBZ_00

>  <Index>  (382) 
13665

$$$$
ACET-pdb2guz-H-GLU-57:MBZ-pdb2guz-G-PHE-104
     RDKit          3D

 22 21  0  0  0  0  0  0  0  0999 V2000
   -5.8212    2.8225    0.0717 C   0  0  0  0  0  0  0  0  0  0  0  0
   -5.9328    1.8740    0.3621 H   0  0  0  0  0  0  0  0  0  0  0  0
   -5.5642    2.8529   -0.8918 H   0  0  0  0  0  0  0  0  0  0  0  0
   -6.7925    3.3082    0.1663 H   0  0  0  0  0  0  0  0  0  0  0  0
   -4.7162    3.4249    0.8657 C   0  0  0  0  0  0  0  0  0  0  0  0
   -3.5458    3.0129    0.6557 O   0  0  0  0  0  1  0  0  0  0  0  0
   -4.9780    4.3005    1.7078 O   0  0  0  0  0  0  0  0  0  0  0  0
   -0.0005    2.8949    0.0234 C   0  0  0  0  0  0  0  0  0  0  0  0
   -0.8430    3.2148   -0.3678 H   0  0  0  0  0  0  0  0  0  0  0  0
    0.7870    3.2170   -0.4658 H   0  0  0  0  0  0  0  0  0  0  0  0
    0.0601    3.2799    1.0414 H   0  0  0  0  0  0  0  0  0  0  0  0
    0.0002    1.4025   -0.0104 C   0  0  0  0  0  0  0  0  0  0  0  0
   -1.1940    0.6957    0.0243 C   0  0  0  0  0  0  0  0  0  0  0  0
   -2.0595    1.1799    0.0650 H   0  0  0  0  0  0  0  0  0  0  0  0
   -1.1854   -0.6918   -0.0000 C   0  0  0  0  0  0  0  0  0  0  0  0
   -2.0675   -1.1896   -0.0193 H   0  0  0  0  0  0  0  0  0  0  0  0
    0.0075   -1.3884    0.0044 C   0  0  0  0  0  0  0  0  0  0  0  0
   -0.0082   -2.3922    0.0098 H   0  0  0  0  0  0  0  0  0  0  0  0
    1.1854   -0.7069   -0.0000 C   0  0  0  0  0  0  0  0  0  0  0  0
    2.0777   -1.1960    0.0110 H   0  0  0  0  0  0  0  0  0  0  0  0
    1.1863    0.6890   -0.0182 C   0  0  0  0  0  0  0  0  0  0  0  0
    2.0610    1.1765   -0.0375 H   0  0  0  0  0  0  0  0  0  0  0  0
  1  5  1  0
  5  6  1  0
  5  7  2  0
  1  2  1  0
  1  3  1  0
  1  4  1  0
  8 12  1  0
 12 13  2  0
 13 15  1  0
 15 17  2  0
 17 19  1  0
 19 21  2  0
 21 12  1  0
  8  9  1  0
  8 10  1  0
  8 11  1  0
 13 14  1  0
 15 16  1  0
 17 18  1  0
 19 20  1  0
 21 22  1  0
M  CHG  1   6  -1
M  END
>  <PDB_ID>  (383) 
pdb2guz

>  <RESIDUE_NAME>  (383) 
GLU   PHE

>  <FRAG_NAME>  (383) 
ACET   MBZ

>  <FRAG_ATOM_NUM>  (383) 
fragi: 7  fragj: 15

>  <atom.prop.CHAIN_ID>  (383) 
A A A A A A A Z Z Z Z Z Z Z Z Z Z Z Z Z Z Z

>  <atom.prop.IS_HEAVY_ATOM>  (383) 
1 0 0 0 1 1 1 1 0 0 0 1 1 0 1 0 1 0 1 0 1 0

>  <DIFUSE_FUNC_ATOM>  (383) 
atom 6   atom 7   

>  <FINAL_SINGLE_POINT_ENERGY>  (383) 
0

>  <NONCOV_INTER_ENERGY_QM>  (383) 
0

>  <FF_Energy>  (383) 
-1.89

>  <QM_Energy>  (383) 
-7.5

>  <source>  (383) 
ACET_MBZ_00

>  <Index>  (383) 
13689

$$$$
ACET-pdb1g57-A-GLU-48:MBZ-pdb1g57-A-PHE-166
     RDKit          3D

 22 21  0  0  0  0  0  0  0  0999 V2000
    4.9793    2.4075   -2.5147 C   0  0  0  0  0  0  0  0  0  0  0  0
    5.9390    2.4401   -2.4673 H   0  0  0  0  0  0  0  0  0  0  0  0
    4.5632    3.0380   -3.1098 H   0  0  0  0  0  0  0  0  0  0  0  0
    4.6730    1.3992   -2.7937 H   0  0  0  0  0  0  0  0  0  0  0  0
    4.4377    2.6455   -1.1354 C   0  0  0  0  0  0  0  0  0  0  0  0
    5.0096    2.3031   -0.1320 O   0  0  0  0  0  1  0  0  0  0  0  0
    3.3042    3.2732   -1.0930 O   0  0  0  0  0  0  0  0  0  0  0  0
    0.1070    2.9255    0.0008 C   0  0  0  0  0  0  0  0  0  0  0  0
   -0.7827    3.2772   -0.1652 H   0  0  0  0  0  0  0  0  0  0  0  0
    0.7751    3.2031   -0.6473 H   0  0  0  0  0  0  0  0  0  0  0  0
    0.4254    3.3034    0.9724 H   0  0  0  0  0  0  0  0  0  0  0  0
    0.0357    1.4096    0.0036 C   0  0  0  0  0  0  0  0  0  0  0  0
   -1.1989    0.7687    0.0040 C   0  0  0  0  0  0  0  0  0  0  0  0
   -2.0330    1.2722    0.0054 H   0  0  0  0  0  0  0  0  0  0  0  0
   -1.2103   -0.6260    0.0000 C   0  0  0  0  0  0  0  0  0  0  0  0
   -2.1172   -1.1042    0.0031 H   0  0  0  0  0  0  0  0  0  0  0  0
   -0.0408   -1.3984   -0.0065 C   0  0  0  0  0  0  0  0  0  0  0  0
   -0.1083   -2.3937   -0.0167 H   0  0  0  0  0  0  0  0  0  0  0  0
    1.2103   -0.7770    0.0000 C   0  0  0  0  0  0  0  0  0  0  0  0
    2.0508   -1.2869    0.0069 H   0  0  0  0  0  0  0  0  0  0  0  0
    1.2040    0.6231   -0.0010 C   0  0  0  0  0  0  0  0  0  0  0  0
    2.1018    1.1077   -0.0060 H   0  0  0  0  0  0  0  0  0  0  0  0
  1  5  1  0
  5  6  1  0
  5  7  2  0
  1  2  1  0
  1  3  1  0
  1  4  1  0
  8 12  1  0
 12 13  2  0
 13 15  1  0
 15 17  2  0
 17 19  1  0
 19 21  2  0
 21 12  1  0
  8  9  1  0
  8 10  1  0
  8 11  1  0
 13 14  1  0
 15 16  1  0
 17 18  1  0
 19 20  1  0
 21 22  1  0
M  CHG  1   6  -1
M  END
>  <PDB_ID>  (384) 
pdb1g57

>  <RESIDUE_NAME>  (384) 
GLU   PHE

>  <FRAG_NAME>  (384) 
ACET   MBZ

>  <FRAG_ATOM_NUM>  (384) 
fragi: 7  fragj: 15

>  <atom.prop.CHAIN_ID>  (384) 
A A A A A A A Z Z Z Z Z Z Z Z Z Z Z Z Z Z Z

>  <atom.prop.IS_HEAVY_ATOM>  (384) 
1 0 0 0 1 1 1 1 0 0 0 1 1 0 1 0 1 0 1 0 1 0

>  <DIFUSE_FUNC_ATOM>  (384) 
atom 6   atom 7   

>  <FINAL_SINGLE_POINT_ENERGY>  (384) 
0

>  <NONCOV_INTER_ENERGY_QM>  (384) 
0

>  <FF_Energy>  (384) 
-2.57

>  <QM_Energy>  (384) 
-8.29

>  <source>  (384) 
ACET_MBZ_00

>  <Index>  (384) 
13721

$$$$
ACET-pdb1g71-A-ASP-156:MBZ-pdb1g71-A-PHE-138
     RDKit          3D

 22 21  0  0  0  0  0  0  0  0999 V2000
    5.3807    2.2203   -0.6921 C   0  0  0  0  0  0  0  0  0  0  0  0
    4.8483    1.4336   -0.9793 H   0  0  0  0  0  0  0  0  0  0  0  0
    5.8387    2.0373    0.1686 H   0  0  0  0  0  0  0  0  0  0  0  0
    6.1454    2.4008   -1.4476 H   0  0  0  0  0  0  0  0  0  0  0  0
    4.4568    3.4011   -0.5171 C   0  0  0  0  0  0  0  0  0  0  0  0
    4.8260    4.5120   -0.9524 O   0  0  0  0  0  1  0  0  0  0  0  0
    3.3626    3.2333    0.0562 O   0  0  0  0  0  0  0  0  0  0  0  0
    0.0128    2.9009    0.0262 C   0  0  0  0  0  0  0  0  0  0  0  0
   -0.9133    3.2186   -0.0918 H   0  0  0  0  0  0  0  0  0  0  0  0
    0.6022    3.2158   -0.6989 H   0  0  0  0  0  0  0  0  0  0  0  0
    0.3898    3.3094    0.9638 H   0  0  0  0  0  0  0  0  0  0  0  0
   -0.0000    1.4031    0.0008 C   0  0  0  0  0  0  0  0  0  0  0  0
   -1.1919    0.7053    0.0002 C   0  0  0  0  0  0  0  0  0  0  0  0
   -2.0601    1.1922   -0.0019 H   0  0  0  0  0  0  0  0  0  0  0  0
   -1.1997   -0.6903   -0.0000 C   0  0  0  0  0  0  0  0  0  0  0  0
   -2.0798   -1.1785    0.0012 H   0  0  0  0  0  0  0  0  0  0  0  0
   -0.0024   -1.3953   -0.0001 C   0  0  0  0  0  0  0  0  0  0  0  0
   -0.0159   -2.3941   -0.0006 H   0  0  0  0  0  0  0  0  0  0  0  0
    1.1997   -0.7092    0.0000 C   0  0  0  0  0  0  0  0  0  0  0  0
    2.0792   -1.2045    0.0027 H   0  0  0  0  0  0  0  0  0  0  0  0
    1.1944    0.6865   -0.0009 C   0  0  0  0  0  0  0  0  0  0  0  0
    2.0655    1.1803   -0.0036 H   0  0  0  0  0  0  0  0  0  0  0  0
  1  5  1  0
  5  6  1  0
  5  7  2  0
  1  2  1  0
  1  3  1  0
  1  4  1  0
  8 12  1  0
 12 13  2  0
 13 15  1  0
 15 17  2  0
 17 19  1  0
 19 21  2  0
 21 12  1  0
  8  9  1  0
  8 10  1  0
  8 11  1  0
 13 14  1  0
 15 16  1  0
 17 18  1  0
 19 20  1  0
 21 22  1  0
M  CHG  1   6  -1
M  END
>  <PDB_ID>  (385) 
pdb1g71

>  <RESIDUE_NAME>  (385) 
ASP   PHE

>  <FRAG_NAME>  (385) 
ACET   MBZ

>  <FRAG_ATOM_NUM>  (385) 
fragi: 7  fragj: 15

>  <atom.prop.CHAIN_ID>  (385) 
A A A A A A A Z Z Z Z Z Z Z Z Z Z Z Z Z Z Z

>  <atom.prop.IS_HEAVY_ATOM>  (385) 
1 0 0 0 1 1 1 1 0 0 0 1 1 0 1 0 1 0 1 0 1 0

>  <DIFUSE_FUNC_ATOM>  (385) 
atom 6   atom 7   

>  <FINAL_SINGLE_POINT_ENERGY>  (385) 
0

>  <NONCOV_INTER_ENERGY_QM>  (385) 
0

>  <FF_Energy>  (385) 
-2.03

>  <QM_Energy>  (385) 
-7.66

>  <source>  (385) 
ACET_MBZ_00

>  <Index>  (385) 
13846

$$$$
ACET-pdb1g6w-C-GLU-260:MBZ-pdb1g6w-C-PHE-331
     RDKit          3D

 22 21  0  0  0  0  0  0  0  0999 V2000
    4.2671    3.2920   -0.0598 C   0  0  0  0  0  0  0  0  0  0  0  0
    3.9969    2.5791    0.5643 H   0  0  0  0  0  0  0  0  0  0  0  0
    5.2132    3.5417    0.0555 H   0  0  0  0  0  0  0  0  0  0  0  0
    4.1336    2.9217   -1.0763 H   0  0  0  0  0  0  0  0  0  0  0  0
    3.4295    4.5108    0.2440 C   0  0  0  0  0  0  0  0  0  0  0  0
    2.3376    4.6631   -0.3422 O   0  0  0  0  0  1  0  0  0  0  0  0
    3.8624    5.3112    1.0900 O   0  0  0  0  0  0  0  0  0  0  0  0
    0.0026    2.8998    0.0826 C   0  0  0  0  0  0  0  0  0  0  0  0
   -0.8053    3.2335   -0.3766 H   0  0  0  0  0  0  0  0  0  0  0  0
    0.8279    3.2292   -0.3464 H   0  0  0  0  0  0  0  0  0  0  0  0
   -0.0151    3.2786    1.1045 H   0  0  0  0  0  0  0  0  0  0  0  0
    0.0001    1.4009    0.0019 C   0  0  0  0  0  0  0  0  0  0  0  0
   -1.1999    0.6966   -0.0013 C   0  0  0  0  0  0  0  0  0  0  0  0
   -2.0648    1.1884   -0.0055 H   0  0  0  0  0  0  0  0  0  0  0  0
   -1.2071   -0.6960    0.0000 C   0  0  0  0  0  0  0  0  0  0  0  0
   -2.0811   -1.1901    0.0014 H   0  0  0  0  0  0  0  0  0  0  0  0
    0.0008   -1.3954    0.0018 C   0  0  0  0  0  0  0  0  0  0  0  0
   -0.0032   -2.3919    0.0034 H   0  0  0  0  0  0  0  0  0  0  0  0
    1.2071   -0.6961   -0.0000 C   0  0  0  0  0  0  0  0  0  0  0  0
    2.0853   -1.1959    0.0023 H   0  0  0  0  0  0  0  0  0  0  0  0
    1.1989    0.6900   -0.0024 C   0  0  0  0  0  0  0  0  0  0  0  0
    2.0664    1.1915   -0.0083 H   0  0  0  0  0  0  0  0  0  0  0  0
  1  5  1  0
  5  6  1  0
  5  7  2  0
  1  2  1  0
  1  3  1  0
  1  4  1  0
  8 12  1  0
 12 13  2  0
 13 15  1  0
 15 17  2  0
 17 19  1  0
 19 21  2  0
 21 12  1  0
  8  9  1  0
  8 10  1  0
  8 11  1  0
 13 14  1  0
 15 16  1  0
 17 18  1  0
 19 20  1  0
 21 22  1  0
M  CHG  1   6  -1
M  END
>  <PDB_ID>  (386) 
pdb1g6w

>  <RESIDUE_NAME>  (386) 
GLU   PHE

>  <FRAG_NAME>  (386) 
ACET   MBZ

>  <FRAG_ATOM_NUM>  (386) 
fragi: 7  fragj: 15

>  <atom.prop.CHAIN_ID>  (386) 
A A A A A A A Z Z Z Z Z Z Z Z Z Z Z Z Z Z Z

>  <atom.prop.IS_HEAVY_ATOM>  (386) 
1 0 0 0 1 1 1 1 0 0 0 1 1 0 1 0 1 0 1 0 1 0

>  <DIFUSE_FUNC_ATOM>  (386) 
atom 6   atom 7   

>  <FINAL_SINGLE_POINT_ENERGY>  (386) 
0

>  <NONCOV_INTER_ENERGY_QM>  (386) 
0

>  <FF_Energy>  (386) 
2.22

>  <QM_Energy>  (386) 
-5.54

>  <source>  (386) 
ACET_MBZ_00

>  <Index>  (386) 
13848

$$$$
ACET-pdb1g71-B-ASP-156:MBZ-pdb1g71-B-PHE-138
     RDKit          3D

 22 21  0  0  0  0  0  0  0  0999 V2000
    5.3873    2.6964   -0.9303 C   0  0  0  0  0  0  0  0  0  0  0  0
    4.9996    1.7984   -1.1165 H   0  0  0  0  0  0  0  0  0  0  0  0
    5.9346    2.6674   -0.1000 H   0  0  0  0  0  0  0  0  0  0  0  0
    6.0430    2.9606   -1.7600 H   0  0  0  0  0  0  0  0  0  0  0  0
    4.2601    3.6818   -0.7357 C   0  0  0  0  0  0  0  0  0  0  0  0
    4.4554    4.8822   -0.9620 O   0  0  0  0  0  1  0  0  0  0  0  0
    3.1674    3.2614   -0.3406 O   0  0  0  0  0  0  0  0  0  0  0  0
   -0.0118    2.9055    0.0182 C   0  0  0  0  0  0  0  0  0  0  0  0
   -0.9479    3.2042   -0.0808 H   0  0  0  0  0  0  0  0  0  0  0  0
    0.5505    3.2205   -0.7304 H   0  0  0  0  0  0  0  0  0  0  0  0
    0.3816    3.3396    0.9375 H   0  0  0  0  0  0  0  0  0  0  0  0
   -0.0017    1.3947    0.0026 C   0  0  0  0  0  0  0  0  0  0  0  0
   -1.1825    0.6883    0.0006 C   0  0  0  0  0  0  0  0  0  0  0  0
   -2.0559    1.1808   -0.0018 H   0  0  0  0  0  0  0  0  0  0  0  0
   -1.1875   -0.6862   -0.0000 C   0  0  0  0  0  0  0  0  0  0  0  0
   -2.0717   -1.1818    0.0018 H   0  0  0  0  0  0  0  0  0  0  0  0
   -0.0015   -1.3859   -0.0014 C   0  0  0  0  0  0  0  0  0  0  0  0
   -0.0139   -2.3880   -0.0037 H   0  0  0  0  0  0  0  0  0  0  0  0
    1.1875   -0.7032   -0.0000 C   0  0  0  0  0  0  0  0  0  0  0  0
    2.0729   -1.1950    0.0040 H   0  0  0  0  0  0  0  0  0  0  0  0
    1.1857    0.6922   -0.0018 C   0  0  0  0  0  0  0  0  0  0  0  0
    2.0577    1.1815   -0.0071 H   0  0  0  0  0  0  0  0  0  0  0  0
  1  5  1  0
  5  6  1  0
  5  7  2  0
  1  2  1  0
  1  3  1  0
  1  4  1  0
  8 12  1  0
 12 13  2  0
 13 15  1  0
 15 17  2  0
 17 19  1  0
 19 21  2  0
 21 12  1  0
  8  9  1  0
  8 10  1  0
  8 11  1  0
 13 14  1  0
 15 16  1  0
 17 18  1  0
 19 20  1  0
 21 22  1  0
M  CHG  1   6  -1
M  END
>  <PDB_ID>  (387) 
pdb1g71

>  <RESIDUE_NAME>  (387) 
ASP   PHE

>  <FRAG_NAME>  (387) 
ACET   MBZ

>  <FRAG_ATOM_NUM>  (387) 
fragi: 7  fragj: 15

>  <atom.prop.CHAIN_ID>  (387) 
A A A A A A A Z Z Z Z Z Z Z Z Z Z Z Z Z Z Z

>  <atom.prop.IS_HEAVY_ATOM>  (387) 
1 0 0 0 1 1 1 1 0 0 0 1 1 0 1 0 1 0 1 0 1 0

>  <DIFUSE_FUNC_ATOM>  (387) 
atom 6   atom 7   

>  <FINAL_SINGLE_POINT_ENERGY>  (387) 
0

>  <NONCOV_INTER_ENERGY_QM>  (387) 
0

>  <FF_Energy>  (387) 
-1.49

>  <QM_Energy>  (387) 
-7.88

>  <source>  (387) 
ACET_MBZ_00

>  <Index>  (387) 
13854

$$$$
ACET-pdb1g72-C-ASP-198:MBZ-pdb1g72-C-PHE-217
     RDKit          3D

 22 21  0  0  0  0  0  0  0  0999 V2000
   -5.2061    3.3785    1.0867 C   0  0  0  0  0  0  0  0  0  0  0  0
   -5.1092    3.7401    2.0062 H   0  0  0  0  0  0  0  0  0  0  0  0
   -5.1875    2.3861    1.0980 H   0  0  0  0  0  0  0  0  0  0  0  0
   -6.1747    3.6948    0.6996 H   0  0  0  0  0  0  0  0  0  0  0  0
   -4.0499    3.8787    0.2418 C   0  0  0  0  0  0  0  0  0  0  0  0
   -2.8887    3.6828    0.6478 O   0  0  0  0  0  1  0  0  0  0  0  0
   -4.3026    4.4600   -0.8349 O   0  0  0  0  0  0  0  0  0  0  0  0
    0.0000    2.9008   -0.0828 C   0  0  0  0  0  0  0  0  0  0  0  0
    0.9142    3.2183    0.1042 H   0  0  0  0  0  0  0  0  0  0  0  0
   -0.6492    3.2441    0.5751 H   0  0  0  0  0  0  0  0  0  0  0  0
   -0.2895    3.2753   -1.0647 H   0  0  0  0  0  0  0  0  0  0  0  0
    0.0001    1.4029   -0.0008 C   0  0  0  0  0  0  0  0  0  0  0  0
   -1.1973    0.6945    0.0017 C   0  0  0  0  0  0  0  0  0  0  0  0
   -2.0639    1.1846    0.0035 H   0  0  0  0  0  0  0  0  0  0  0  0
   -1.2044   -0.7002   -0.0000 C   0  0  0  0  0  0  0  0  0  0  0  0
   -2.0791   -1.1921    0.0015 H   0  0  0  0  0  0  0  0  0  0  0  0
    0.0001   -1.3961   -0.0023 C   0  0  0  0  0  0  0  0  0  0  0  0
   -0.0016   -2.3939   -0.0062 H   0  0  0  0  0  0  0  0  0  0  0  0
    1.2044   -0.6969   -0.0000 C   0  0  0  0  0  0  0  0  0  0  0  0
    2.0847   -1.1942    0.0024 H   0  0  0  0  0  0  0  0  0  0  0  0
    1.1971    0.6957    0.0014 C   0  0  0  0  0  0  0  0  0  0  0  0
    2.0653    1.1927    0.0033 H   0  0  0  0  0  0  0  0  0  0  0  0
  1  5  1  0
  5  6  1  0
  5  7  2  0
  1  2  1  0
  1  3  1  0
  1  4  1  0
  8 12  1  0
 12 13  2  0
 13 15  1  0
 15 17  2  0
 17 19  1  0
 19 21  2  0
 21 12  1  0
  8  9  1  0
  8 10  1  0
  8 11  1  0
 13 14  1  0
 15 16  1  0
 17 18  1  0
 19 20  1  0
 21 22  1  0
M  CHG  1   6  -1
M  END
>  <PDB_ID>  (388) 
pdb1g72

>  <RESIDUE_NAME>  (388) 
ASP   PHE

>  <FRAG_NAME>  (388) 
ACET   MBZ

>  <FRAG_ATOM_NUM>  (388) 
fragi: 7  fragj: 15

>  <atom.prop.CHAIN_ID>  (388) 
A A A A A A A Z Z Z Z Z Z Z Z Z Z Z Z Z Z Z

>  <atom.prop.IS_HEAVY_ATOM>  (388) 
1 0 0 0 1 1 1 1 0 0 0 1 1 0 1 0 1 0 1 0 1 0

>  <DIFUSE_FUNC_ATOM>  (388) 
atom 6   atom 7   

>  <FINAL_SINGLE_POINT_ENERGY>  (388) 
0

>  <NONCOV_INTER_ENERGY_QM>  (388) 
0

>  <FF_Energy>  (388) 
-0.86

>  <QM_Energy>  (388) 
-7.33

>  <source>  (388) 
ACET_MBZ_00

>  <Index>  (388) 
13867

$$$$
ACET-pdb1g7r-A-GLU-207:MBZ-pdb1g7r-A-PHE-146
     RDKit          3D

 22 21  0  0  0  0  0  0  0  0999 V2000
    3.3181    5.9621   -1.1409 C   0  0  0  0  0  0  0  0  0  0  0  0
    3.8755    5.1563   -1.0895 H   0  0  0  0  0  0  0  0  0  0  0  0
    3.8005    6.7725   -0.8710 H   0  0  0  0  0  0  0  0  0  0  0  0
    2.9833    6.0847   -2.1709 H   0  0  0  0  0  0  0  0  0  0  0  0
    2.1593    5.7794   -0.1865 C   0  0  0  0  0  0  0  0  0  0  0  0
    1.1604    6.5180   -0.3374 O   0  0  0  0  0  1  0  0  0  0  0  0
    2.2526    4.9065    0.7166 O   0  0  0  0  0  0  0  0  0  0  0  0
    0.0032    2.9244    0.0831 C   0  0  0  0  0  0  0  0  0  0  0  0
   -0.6848    3.2611   -0.5371 H   0  0  0  0  0  0  0  0  0  0  0  0
    0.9044    3.2391   -0.1629 H   0  0  0  0  0  0  0  0  0  0  0  0
   -0.2260    3.3043    1.0787 H   0  0  0  0  0  0  0  0  0  0  0  0
    0.0013    1.4125    0.0007 C   0  0  0  0  0  0  0  0  0  0  0  0
   -1.1982    0.6998   -0.0018 C   0  0  0  0  0  0  0  0  0  0  0  0
   -2.0663    1.1842   -0.0060 H   0  0  0  0  0  0  0  0  0  0  0  0
   -1.2078   -0.7099    0.0000 C   0  0  0  0  0  0  0  0  0  0  0  0
   -2.0825   -1.1941   -0.0002 H   0  0  0  0  0  0  0  0  0  0  0  0
   -0.0000   -1.4103    0.0038 C   0  0  0  0  0  0  0  0  0  0  0  0
    0.0031   -2.4020    0.0088 H   0  0  0  0  0  0  0  0  0  0  0  0
    1.2078   -0.6974    0.0000 C   0  0  0  0  0  0  0  0  0  0  0  0
    2.0885   -1.1890    0.0008 H   0  0  0  0  0  0  0  0  0  0  0  0
    1.1969    0.7052   -0.0027 C   0  0  0  0  0  0  0  0  0  0  0  0
    2.0675    1.1985   -0.0077 H   0  0  0  0  0  0  0  0  0  0  0  0
  1  5  1  0
  5  6  1  0
  5  7  2  0
  1  2  1  0
  1  3  1  0
  1  4  1  0
  8 12  1  0
 12 13  2  0
 13 15  1  0
 15 17  2  0
 17 19  1  0
 19 21  2  0
 21 12  1  0
  8  9  1  0
  8 10  1  0
  8 11  1  0
 13 14  1  0
 15 16  1  0
 17 18  1  0
 19 20  1  0
 21 22  1  0
M  CHG  1   6  -1
M  END
>  <PDB_ID>  (389) 
pdb1g7r

>  <RESIDUE_NAME>  (389) 
GLU   PHE

>  <FRAG_NAME>  (389) 
ACET   MBZ

>  <FRAG_ATOM_NUM>  (389) 
fragi: 7  fragj: 15

>  <atom.prop.CHAIN_ID>  (389) 
A A A A A A A Z Z Z Z Z Z Z Z Z Z Z Z Z Z Z

>  <atom.prop.IS_HEAVY_ATOM>  (389) 
1 0 0 0 1 1 1 1 0 0 0 1 1 0 1 0 1 0 1 0 1 0

>  <DIFUSE_FUNC_ATOM>  (389) 
atom 6   atom 7   

>  <FINAL_SINGLE_POINT_ENERGY>  (389) 
0

>  <NONCOV_INTER_ENERGY_QM>  (389) 
0

>  <FF_Energy>  (389) 
-0.54

>  <QM_Energy>  (389) 
-5.6

>  <source>  (389) 
ACET_MBZ_00

>  <Index>  (389) 
13892

$$$$
ACET-pdb1g7r-A-GLU-242:MBZ-pdb1g7r-A-PHE-296
     RDKit          3D

 22 21  0  0  0  0  0  0  0  0999 V2000
   -3.6116   -3.2083   -1.0504 C   0  0  0  0  0  0  0  0  0  0  0  0
   -3.1860   -2.4378   -1.5023 H   0  0  0  0  0  0  0  0  0  0  0  0
   -4.2374   -2.9081   -0.3454 H   0  0  0  0  0  0  0  0  0  0  0  0
   -4.1538   -3.8022   -1.7861 H   0  0  0  0  0  0  0  0  0  0  0  0
   -2.4900   -3.9736   -0.3415 C   0  0  0  0  0  0  0  0  0  0  0  0
   -2.0407   -3.4406    0.6966 O   0  0  0  0  0  1  0  0  0  0  0  0
   -2.0399   -5.0634   -0.8054 O   0  0  0  0  0  0  0  0  0  0  0  0
    0.0059    2.9190   -0.0327 C   0  0  0  0  0  0  0  0  0  0  0  0
   -0.9329    3.2221   -0.0949 H   0  0  0  0  0  0  0  0  0  0  0  0
    0.5296    3.2024   -0.8213 H   0  0  0  0  0  0  0  0  0  0  0  0
    0.4510    3.3768    0.8506 H   0  0  0  0  0  0  0  0  0  0  0  0
    0.0016    1.4087   -0.0007 C   0  0  0  0  0  0  0  0  0  0  0  0
   -1.1928    0.7044    0.0009 C   0  0  0  0  0  0  0  0  0  0  0  0
   -2.0616    1.1902    0.0011 H   0  0  0  0  0  0  0  0  0  0  0  0
   -1.2056   -0.7001    0.0000 C   0  0  0  0  0  0  0  0  0  0  0  0
   -2.0862   -1.1830    0.0008 H   0  0  0  0  0  0  0  0  0  0  0  0
   -0.0066   -1.4078   -0.0007 C   0  0  0  0  0  0  0  0  0  0  0  0
   -0.0108   -2.4005   -0.0021 H   0  0  0  0  0  0  0  0  0  0  0  0
    1.2056   -0.7055    0.0000 C   0  0  0  0  0  0  0  0  0  0  0  0
    2.0829   -1.1987    0.0021 H   0  0  0  0  0  0  0  0  0  0  0  0
    1.1978    0.7003    0.0005 C   0  0  0  0  0  0  0  0  0  0  0  0
    2.0675    1.1909    0.0012 H   0  0  0  0  0  0  0  0  0  0  0  0
  1  5  1  0
  5  6  1  0
  5  7  2  0
  1  2  1  0
  1  3  1  0
  1  4  1  0
  8 12  1  0
 12 13  2  0
 13 15  1  0
 15 17  2  0
 17 19  1  0
 19 21  2  0
 21 12  1  0
  8  9  1  0
  8 10  1  0
  8 11  1  0
 13 14  1  0
 15 16  1  0
 17 18  1  0
 19 20  1  0
 21 22  1  0
M  CHG  1   6  -1
M  END
>  <PDB_ID>  (390) 
pdb1g7r

>  <RESIDUE_NAME>  (390) 
GLU   PHE

>  <FRAG_NAME>  (390) 
ACET   MBZ

>  <FRAG_ATOM_NUM>  (390) 
fragi: 7  fragj: 15

>  <atom.prop.CHAIN_ID>  (390) 
A A A A A A A Z Z Z Z Z Z Z Z Z Z Z Z Z Z Z

>  <atom.prop.IS_HEAVY_ATOM>  (390) 
1 0 0 0 1 1 1 1 0 0 0 1 1 0 1 0 1 0 1 0 1 0

>  <DIFUSE_FUNC_ATOM>  (390) 
atom 6   atom 7   

>  <FINAL_SINGLE_POINT_ENERGY>  (390) 
0

>  <NONCOV_INTER_ENERGY_QM>  (390) 
0

>  <FF_Energy>  (390) 
-0.0

>  <QM_Energy>  (390) 
-5.21

>  <source>  (390) 
ACET_MBZ_00

>  <Index>  (390) 
13893

$$$$
ACET-pdb1gd8-H-ASP-69:MBZ-pdb1gd8-H-PHE-47
     RDKit          3D

 22 21  0  0  0  0  0  0  0  0999 V2000
   -2.7978   -4.9726    1.3528 C   0  0  0  0  0  0  0  0  0  0  0  0
   -3.2390   -5.2327    2.2008 H   0  0  0  0  0  0  0  0  0  0  0  0
   -1.9415   -4.5064    1.5284 H   0  0  0  0  0  0  0  0  0  0  0  0
   -2.5797   -5.8819    0.7926 H   0  0  0  0  0  0  0  0  0  0  0  0
   -3.7156   -4.0417    0.5889 C   0  0  0  0  0  0  0  0  0  0  0  0
   -4.7492   -4.5248    0.0578 O   0  0  0  0  0  1  0  0  0  0  0  0
   -3.3946   -2.8349    0.5232 O   0  0  0  0  0  0  0  0  0  0  0  0
   -0.0012    2.9125    0.0768 C   0  0  0  0  0  0  0  0  0  0  0  0
   -0.5910    3.2551   -0.6360 H   0  0  0  0  0  0  0  0  0  0  0  0
    0.9271    3.2265   -0.0352 H   0  0  0  0  0  0  0  0  0  0  0  0
   -0.3696    3.3007    1.0263 H   0  0  0  0  0  0  0  0  0  0  0  0
    0.0008    1.4095    0.0008 C   0  0  0  0  0  0  0  0  0  0  0  0
   -1.2024    0.6934   -0.0017 C   0  0  0  0  0  0  0  0  0  0  0  0
   -2.0683    1.1822   -0.0061 H   0  0  0  0  0  0  0  0  0  0  0  0
   -1.2102   -0.7073   -0.0000 C   0  0  0  0  0  0  0  0  0  0  0  0
   -2.0833   -1.1977    0.0001 H   0  0  0  0  0  0  0  0  0  0  0  0
   -0.0005   -1.4044    0.0034 C   0  0  0  0  0  0  0  0  0  0  0  0
    0.0030   -2.3985    0.0072 H   0  0  0  0  0  0  0  0  0  0  0  0
    1.2102   -0.6946    0.0000 C   0  0  0  0  0  0  0  0  0  0  0  0
    2.0890   -1.1911    0.0009 H   0  0  0  0  0  0  0  0  0  0  0  0
    1.2021    0.7035   -0.0026 C   0  0  0  0  0  0  0  0  0  0  0  0
    2.0683    1.2001   -0.0079 H   0  0  0  0  0  0  0  0  0  0  0  0
  1  5  1  0
  5  6  1  0
  5  7  2  0
  1  2  1  0
  1  3  1  0
  1  4  1  0
  8 12  1  0
 12 13  2  0
 13 15  1  0
 15 17  2  0
 17 19  1  0
 19 21  2  0
 21 12  1  0
  8  9  1  0
  8 10  1  0
  8 11  1  0
 13 14  1  0
 15 16  1  0
 17 18  1  0
 19 20  1  0
 21 22  1  0
M  CHG  1   6  -1
M  END
>  <PDB_ID>  (391) 
pdb1gd8

>  <RESIDUE_NAME>  (391) 
ASP   PHE

>  <FRAG_NAME>  (391) 
ACET   MBZ

>  <FRAG_ATOM_NUM>  (391) 
fragi: 7  fragj: 15

>  <atom.prop.CHAIN_ID>  (391) 
A A A A A A A Z Z Z Z Z Z Z Z Z Z Z Z Z Z Z

>  <atom.prop.IS_HEAVY_ATOM>  (391) 
1 0 0 0 1 1 1 1 0 0 0 1 1 0 1 0 1 0 1 0 1 0

>  <DIFUSE_FUNC_ATOM>  (391) 
atom 6   atom 7   

>  <FINAL_SINGLE_POINT_ENERGY>  (391) 
0

>  <NONCOV_INTER_ENERGY_QM>  (391) 
0

>  <FF_Energy>  (391) 
-2.12

>  <QM_Energy>  (391) 
-6.02

>  <source>  (391) 
ACET_MBZ_00

>  <Index>  (391) 
14150

$$$$
ACET-pdb1gdh-A-GLU-186:MBZ-pdb1gdh-A-PHE-193
     RDKit          3D

 22 21  0  0  0  0  0  0  0  0999 V2000
   -2.7854    5.7068   -3.3532 C   0  0  0  0  0  0  0  0  0  0  0  0
   -3.3308    5.5909   -2.5429 H   0  0  0  0  0  0  0  0  0  0  0  0
   -3.2167    5.3192   -4.1479 H   0  0  0  0  0  0  0  0  0  0  0  0
   -2.6432    6.7741   -3.5225 H   0  0  0  0  0  0  0  0  0  0  0  0
   -1.4804    4.9617   -3.1350 C   0  0  0  0  0  0  0  0  0  0  0  0
   -0.4306    5.3961   -3.6511 O   0  0  0  0  0  1  0  0  0  0  0  0
   -1.4940    3.9352   -2.4368 O   0  0  0  0  0  0  0  0  0  0  0  0
    0.0003    2.8953    0.0571 C   0  0  0  0  0  0  0  0  0  0  0  0
   -0.6786    3.2287   -0.5807 H   0  0  0  0  0  0  0  0  0  0  0  0
    0.9055    3.2134   -0.1840 H   0  0  0  0  0  0  0  0  0  0  0  0
   -0.2423    3.3006    1.0395 H   0  0  0  0  0  0  0  0  0  0  0  0
    0.0003    1.3990    0.0014 C   0  0  0  0  0  0  0  0  0  0  0  0
   -1.1926    0.6887    0.0020 C   0  0  0  0  0  0  0  0  0  0  0  0
   -2.0620    1.1784    0.0032 H   0  0  0  0  0  0  0  0  0  0  0  0
   -1.1982   -0.7012   -0.0000 C   0  0  0  0  0  0  0  0  0  0  0  0
   -2.0761   -1.1925    0.0009 H   0  0  0  0  0  0  0  0  0  0  0  0
   -0.0022   -1.3911   -0.0014 C   0  0  0  0  0  0  0  0  0  0  0  0
    0.0009   -2.3905   -0.0039 H   0  0  0  0  0  0  0  0  0  0  0  0
    1.1982   -0.6903   -0.0000 C   0  0  0  0  0  0  0  0  0  0  0  0
    2.0799   -1.1911    0.0036 H   0  0  0  0  0  0  0  0  0  0  0  0
    1.1945    0.6949   -0.0020 C   0  0  0  0  0  0  0  0  0  0  0  0
    2.0623    1.1924   -0.0063 H   0  0  0  0  0  0  0  0  0  0  0  0
  1  5  1  0
  5  6  1  0
  5  7  2  0
  1  2  1  0
  1  3  1  0
  1  4  1  0
  8 12  1  0
 12 13  2  0
 13 15  1  0
 15 17  2  0
 17 19  1  0
 19 21  2  0
 21 12  1  0
  8  9  1  0
  8 10  1  0
  8 11  1  0
 13 14  1  0
 15 16  1  0
 17 18  1  0
 19 20  1  0
 21 22  1  0
M  CHG  1   6  -1
M  END
>  <PDB_ID>  (392) 
pdb1gdh

>  <RESIDUE_NAME>  (392) 
GLU   PHE

>  <FRAG_NAME>  (392) 
ACET   MBZ

>  <FRAG_ATOM_NUM>  (392) 
fragi: 7  fragj: 15

>  <atom.prop.CHAIN_ID>  (392) 
A A A A A A A Z Z Z Z Z Z Z Z Z Z Z Z Z Z Z

>  <atom.prop.IS_HEAVY_ATOM>  (392) 
1 0 0 0 1 1 1 1 0 0 0 1 1 0 1 0 1 0 1 0 1 0

>  <DIFUSE_FUNC_ATOM>  (392) 
atom 6   atom 7   

>  <FINAL_SINGLE_POINT_ENERGY>  (392) 
0

>  <NONCOV_INTER_ENERGY_QM>  (392) 
0

>  <FF_Energy>  (392) 
2.26

>  <QM_Energy>  (392) 
-5.19

>  <source>  (392) 
ACET_MBZ_00

>  <Index>  (392) 
14155

$$$$
ACET-pdb1gju-A-ASP-109:MBZ-pdb1gju-A-PHE-113
     RDKit          3D

 22 21  0  0  0  0  0  0  0  0999 V2000
   -3.8517    4.8985    3.0197 C   0  0  0  0  0  0  0  0  0  0  0  0
   -4.5474    4.3318    3.4437 H   0  0  0  0  0  0  0  0  0  0  0  0
   -4.2662    5.5875    2.4392 H   0  0  0  0  0  0  0  0  0  0  0  0
   -3.3030    5.4087    3.8115 H   0  0  0  0  0  0  0  0  0  0  0  0
   -2.9592    4.0051    2.1539 C   0  0  0  0  0  0  0  0  0  0  0  0
   -2.2379    3.1392    2.6881 O   0  0  0  0  0  1  0  0  0  0  0  0
   -2.9941    4.1653    0.9169 O   0  0  0  0  0  0  0  0  0  0  0  0
   -0.0113    2.9405   -0.0444 C   0  0  0  0  0  0  0  0  0  0  0  0
   -0.9334    3.2377    0.1473 H   0  0  0  0  0  0  0  0  0  0  0  0
    0.2766    3.2158   -0.9483 H   0  0  0  0  0  0  0  0  0  0  0  0
    0.6502    3.4209    0.6766 H   0  0  0  0  0  0  0  0  0  0  0  0
    0.0004    1.4138   -0.0006 C   0  0  0  0  0  0  0  0  0  0  0  0
   -1.1986    0.6951    0.0013 C   0  0  0  0  0  0  0  0  0  0  0  0
   -2.0666    1.1768    0.0023 H   0  0  0  0  0  0  0  0  0  0  0  0
   -1.2007   -0.7120   -0.0000 C   0  0  0  0  0  0  0  0  0  0  0  0
   -2.0776   -1.1983   -0.0005 H   0  0  0  0  0  0  0  0  0  0  0  0
    0.0005   -1.4010    0.0012 C   0  0  0  0  0  0  0  0  0  0  0  0
    0.0038   -2.4000    0.0025 H   0  0  0  0  0  0  0  0  0  0  0  0
    1.2007   -0.6978   -0.0000 C   0  0  0  0  0  0  0  0  0  0  0  0
    2.0841   -1.1912    0.0022 H   0  0  0  0  0  0  0  0  0  0  0  0
    1.1977    0.7020   -0.0020 C   0  0  0  0  0  0  0  0  0  0  0  0
    2.0668    1.1933   -0.0048 H   0  0  0  0  0  0  0  0  0  0  0  0
  1  5  1  0
  5  6  1  0
  5  7  2  0
  1  2  1  0
  1  3  1  0
  1  4  1  0
  8 12  1  0
 12 13  2  0
 13 15  1  0
 15 17  2  0
 17 19  1  0
 19 21  2  0
 21 12  1  0
  8  9  1  0
  8 10  1  0
  8 11  1  0
 13 14  1  0
 15 16  1  0
 17 18  1  0
 19 20  1  0
 21 22  1  0
M  CHG  1   6  -1
M  END
>  <PDB_ID>  (393) 
pdb1gju

>  <RESIDUE_NAME>  (393) 
ASP   PHE

>  <FRAG_NAME>  (393) 
ACET   MBZ

>  <FRAG_ATOM_NUM>  (393) 
fragi: 7  fragj: 15

>  <atom.prop.CHAIN_ID>  (393) 
A A A A A A A Z Z Z Z Z Z Z Z Z Z Z Z Z Z Z

>  <atom.prop.IS_HEAVY_ATOM>  (393) 
1 0 0 0 1 1 1 1 0 0 0 1 1 0 1 0 1 0 1 0 1 0

>  <DIFUSE_FUNC_ATOM>  (393) 
atom 6   atom 7   

>  <FINAL_SINGLE_POINT_ENERGY>  (393) 
0

>  <NONCOV_INTER_ENERGY_QM>  (393) 
0

>  <FF_Energy>  (393) 
-0.83

>  <QM_Energy>  (393) 
-7.48

>  <source>  (393) 
ACET_MBZ_00

>  <Index>  (393) 
14360

$$$$
ACET-pdb1gjy-C-GLU-124:MBZ-pdb1gjy-C-PHE-112
     RDKit          3D

 22 21  0  0  0  0  0  0  0  0999 V2000
   -0.2651   -0.1371   -2.9426 C   0  0  0  0  0  0  0  0  0  0  0  0
   -0.2544   -0.0508   -1.9567 H   0  0  0  0  0  0  0  0  0  0  0  0
    0.1101   -1.0086   -3.2269 H   0  0  0  0  0  0  0  0  0  0  0  0
   -1.2993   -0.0788   -3.2821 H   0  0  0  0  0  0  0  0  0  0  0  0
    0.6323    0.9455   -3.5017 C   0  0  0  0  0  0  0  0  0  0  0  0
    0.2551    2.1350   -3.4577 O   0  0  0  0  0  1  0  0  0  0  0  0
    1.7316    0.6028   -3.9800 O   0  0  0  0  0  0  0  0  0  0  0  0
    0.0024    2.9181   -0.0848 C   0  0  0  0  0  0  0  0  0  0  0  0
   -0.9065    3.2350    0.1446 H   0  0  0  0  0  0  0  0  0  0  0  0
    0.2469    3.1732   -1.0091 H   0  0  0  0  0  0  0  0  0  0  0  0
    0.7073    3.3985    0.5938 H   0  0  0  0  0  0  0  0  0  0  0  0
    0.0028    1.4174   -0.0037 C   0  0  0  0  0  0  0  0  0  0  0  0
   -1.1992    0.7054    0.0025 C   0  0  0  0  0  0  0  0  0  0  0  0
   -2.0666    1.1879    0.0071 H   0  0  0  0  0  0  0  0  0  0  0  0
   -1.2094   -0.7104   -0.0000 C   0  0  0  0  0  0  0  0  0  0  0  0
   -2.0894   -1.1894    0.0005 H   0  0  0  0  0  0  0  0  0  0  0  0
   -0.0087   -1.4144   -0.0010 C   0  0  0  0  0  0  0  0  0  0  0  0
   -0.0054   -2.4062   -0.0033 H   0  0  0  0  0  0  0  0  0  0  0  0
    1.2094   -0.7043   -0.0000 C   0  0  0  0  0  0  0  0  0  0  0  0
    2.0857   -1.1993    0.0004 H   0  0  0  0  0  0  0  0  0  0  0  0
    1.2052    0.7062    0.0022 C   0  0  0  0  0  0  0  0  0  0  0  0
    2.0724    1.1944    0.0072 H   0  0  0  0  0  0  0  0  0  0  0  0
  1  5  1  0
  5  6  1  0
  5  7  2  0
  1  2  1  0
  1  3  1  0
  1  4  1  0
  8 12  1  0
 12 13  2  0
 13 15  1  0
 15 17  2  0
 17 19  1  0
 19 21  2  0
 21 12  1  0
  8  9  1  0
  8 10  1  0
  8 11  1  0
 13 14  1  0
 15 16  1  0
 17 18  1  0
 19 20  1  0
 21 22  1  0
M  CHG  1   6  -1
M  END
>  <PDB_ID>  (394) 
pdb1gjy

>  <RESIDUE_NAME>  (394) 
GLU   PHE

>  <FRAG_NAME>  (394) 
ACET   MBZ

>  <FRAG_ATOM_NUM>  (394) 
fragi: 7  fragj: 15

>  <atom.prop.CHAIN_ID>  (394) 
A A A A A A A Z Z Z Z Z Z Z Z Z Z Z Z Z Z Z

>  <atom.prop.IS_HEAVY_ATOM>  (394) 
1 0 0 0 1 1 1 1 0 0 0 1 1 0 1 0 1 0 1 0 1 0

>  <DIFUSE_FUNC_ATOM>  (394) 
atom 6   atom 7   

>  <FINAL_SINGLE_POINT_ENERGY>  (394) 
0

>  <NONCOV_INTER_ENERGY_QM>  (394) 
0

>  <FF_Energy>  (394) 
12.64

>  <QM_Energy>  (394) 
0.5

>  <source>  (394) 
ACET_MBZ_00

>  <Index>  (394) 
14383

$$$$
ACET-pdb1gkc-A-ASP-205:MBZ-pdb1gkc-A-PHE-181
     RDKit          3D

 22 21  0  0  0  0  0  0  0  0999 V2000
   -0.1157    1.0135    3.5488 C   0  0  0  0  0  0  0  0  0  0  0  0
   -0.6488    0.7762    2.7469 H   0  0  0  0  0  0  0  0  0  0  0  0
   -0.6434    0.8719    4.3765 H   0  0  0  0  0  0  0  0  0  0  0  0
    0.7530    0.3561    3.5841 H   0  0  0  0  0  0  0  0  0  0  0  0
    0.2734    2.4744    3.4614 C   0  0  0  0  0  0  0  0  0  0  0  0
    1.4396    2.7966    3.7515 O   0  0  0  0  0  1  0  0  0  0  0  0
   -0.5792    3.3003    3.1026 O   0  0  0  0  0  0  0  0  0  0  0  0
   -0.0050    2.9131    0.0277 C   0  0  0  0  0  0  0  0  0  0  0  0
    0.9326    3.2232   -0.0049 H   0  0  0  0  0  0  0  0  0  0  0  0
   -0.4527    3.2035    0.8588 H   0  0  0  0  0  0  0  0  0  0  0  0
   -0.5343    3.3663   -0.8104 H   0  0  0  0  0  0  0  0  0  0  0  0
   -0.0006    1.4101    0.0005 C   0  0  0  0  0  0  0  0  0  0  0  0
   -1.1966    0.7006   -0.0005 C   0  0  0  0  0  0  0  0  0  0  0  0
   -2.0649    1.1852   -0.0026 H   0  0  0  0  0  0  0  0  0  0  0  0
   -1.2024   -0.7025   -0.0000 C   0  0  0  0  0  0  0  0  0  0  0  0
   -2.0808   -1.1899    0.0010 H   0  0  0  0  0  0  0  0  0  0  0  0
   -0.0005   -1.4031    0.0012 C   0  0  0  0  0  0  0  0  0  0  0  0
   -0.0044   -2.3991    0.0026 H   0  0  0  0  0  0  0  0  0  0  0  0
    1.2024   -0.7035   -0.0000 C   0  0  0  0  0  0  0  0  0  0  0  0
    2.0842   -1.1969    0.0014 H   0  0  0  0  0  0  0  0  0  0  0  0
    1.1978    0.6984   -0.0013 C   0  0  0  0  0  0  0  0  0  0  0  0
    2.0666    1.1898   -0.0041 H   0  0  0  0  0  0  0  0  0  0  0  0
  1  5  1  0
  5  6  1  0
  5  7  2  0
  1  2  1  0
  1  3  1  0
  1  4  1  0
  8 12  1  0
 12 13  2  0
 13 15  1  0
 15 17  2  0
 17 19  1  0
 19 21  2  0
 21 12  1  0
  8  9  1  0
  8 10  1  0
  8 11  1  0
 13 14  1  0
 15 16  1  0
 17 18  1  0
 19 20  1  0
 21 22  1  0
M  CHG  1   6  -1
M  END
>  <PDB_ID>  (395) 
pdb1gkc

>  <RESIDUE_NAME>  (395) 
ASP   PHE

>  <FRAG_NAME>  (395) 
ACET   MBZ

>  <FRAG_ATOM_NUM>  (395) 
fragi: 7  fragj: 15

>  <atom.prop.CHAIN_ID>  (395) 
A A A A A A A Z Z Z Z Z Z Z Z Z Z Z Z Z Z Z

>  <atom.prop.IS_HEAVY_ATOM>  (395) 
1 0 0 0 1 1 1 1 0 0 0 1 1 0 1 0 1 0 1 0 1 0

>  <DIFUSE_FUNC_ATOM>  (395) 
atom 6   atom 7   

>  <FINAL_SINGLE_POINT_ENERGY>  (395) 
0

>  <NONCOV_INTER_ENERGY_QM>  (395) 
0

>  <FF_Energy>  (395) 
0.79

>  <QM_Energy>  (395) 
-5.87

>  <source>  (395) 
ACET_MBZ_00

>  <Index>  (395) 
14416

$$$$
ACET-pdb1gk8-C-ASP-302:MBZ-pdb1gk8-C-PHE-311
     RDKit          3D

 22 21  0  0  0  0  0  0  0  0999 V2000
   -3.4189    5.3694   -0.7735 C   0  0  0  0  0  0  0  0  0  0  0  0
   -2.5520    5.6545   -0.3304 H   0  0  0  0  0  0  0  0  0  0  0  0
   -3.9643    4.8770   -0.0752 H   0  0  0  0  0  0  0  0  0  0  0  0
   -3.9651    6.2756   -1.0354 H   0  0  0  0  0  0  0  0  0  0  0  0
   -3.0951    4.4153   -1.8916 C   0  0  0  0  0  0  0  0  0  0  0  0
   -3.2483    4.7813   -3.0672 O   0  0  0  0  0  1  0  0  0  0  0  0
   -2.7247    3.2714   -1.5276 O   0  0  0  0  0  0  0  0  0  0  0  0
   -0.0274    2.8976    0.0542 C   0  0  0  0  0  0  0  0  0  0  0  0
   -0.6390    3.2146   -0.6296 H   0  0  0  0  0  0  0  0  0  0  0  0
    0.8836    3.2179   -0.0382 H   0  0  0  0  0  0  0  0  0  0  0  0
   -0.4035    3.2301    1.0217 H   0  0  0  0  0  0  0  0  0  0  0  0
   -0.0051    1.3859    0.0057 C   0  0  0  0  0  0  0  0  0  0  0  0
   -1.1996    0.6851   -0.0006 C   0  0  0  0  0  0  0  0  0  0  0  0
   -2.0648    1.1763   -0.0068 H   0  0  0  0  0  0  0  0  0  0  0  0
   -1.1965   -0.6956    0.0000 C   0  0  0  0  0  0  0  0  0  0  0  0
   -2.0695   -1.1980    0.0158 H   0  0  0  0  0  0  0  0  0  0  0  0
    0.0065   -1.3791   -0.0190 C   0  0  0  0  0  0  0  0  0  0  0  0
    0.0028   -2.3843   -0.0472 H   0  0  0  0  0  0  0  0  0  0  0  0
    1.1965   -0.6905   -0.0000 C   0  0  0  0  0  0  0  0  0  0  0  0
    2.0824   -1.1896    0.0053 H   0  0  0  0  0  0  0  0  0  0  0  0
    1.1982    0.6942    0.0139 C   0  0  0  0  0  0  0  0  0  0  0  0
    2.0590    1.1925    0.0286 H   0  0  0  0  0  0  0  0  0  0  0  0
  1  5  1  0
  5  6  1  0
  5  7  2  0
  1  2  1  0
  1  3  1  0
  1  4  1  0
  8 12  1  0
 12 13  2  0
 13 15  1  0
 15 17  2  0
 17 19  1  0
 19 21  2  0
 21 12  1  0
  8  9  1  0
  8 10  1  0
  8 11  1  0
 13 14  1  0
 15 16  1  0
 17 18  1  0
 19 20  1  0
 21 22  1  0
M  CHG  1   6  -1
M  END
>  <PDB_ID>  (396) 
pdb1gk8

>  <RESIDUE_NAME>  (396) 
ASP   PHE

>  <FRAG_NAME>  (396) 
ACET   MBZ

>  <FRAG_ATOM_NUM>  (396) 
fragi: 7  fragj: 15

>  <atom.prop.CHAIN_ID>  (396) 
A A A A A A A Z Z Z Z Z Z Z Z Z Z Z Z Z Z Z

>  <atom.prop.IS_HEAVY_ATOM>  (396) 
1 0 0 0 1 1 1 1 0 0 0 1 1 0 1 0 1 0 1 0 1 0

>  <DIFUSE_FUNC_ATOM>  (396) 
atom 6   atom 7   

>  <FINAL_SINGLE_POINT_ENERGY>  (396) 
0

>  <NONCOV_INTER_ENERGY_QM>  (396) 
0

>  <FF_Energy>  (396) 
-0.15

>  <QM_Energy>  (396) 
-7.03

>  <source>  (396) 
ACET_MBZ_00

>  <Index>  (396) 
14431

$$$$
ACET-pdb1gk8-E-ASP-302:MBZ-pdb1gk8-E-PHE-311
     RDKit          3D

 22 21  0  0  0  0  0  0  0  0999 V2000
   -3.4707    5.3569   -0.6926 C   0  0  0  0  0  0  0  0  0  0  0  0
   -2.5987    5.6435   -0.2543 H   0  0  0  0  0  0  0  0  0  0  0  0
   -4.0018    4.8534    0.0120 H   0  0  0  0  0  0  0  0  0  0  0  0
   -4.0268    6.2629   -0.9334 H   0  0  0  0  0  0  0  0  0  0  0  0
   -3.1501    4.4086   -1.8182 C   0  0  0  0  0  0  0  0  0  0  0  0
   -3.3183    4.7818   -2.9903 O   0  0  0  0  0  1  0  0  0  0  0  0
   -2.7550    3.2737   -1.4679 O   0  0  0  0  0  0  0  0  0  0  0  0
   -0.0387    2.8989    0.0648 C   0  0  0  0  0  0  0  0  0  0  0  0
   -0.6497    3.2217   -0.6205 H   0  0  0  0  0  0  0  0  0  0  0  0
    0.8700    3.2354   -0.0230 H   0  0  0  0  0  0  0  0  0  0  0  0
   -0.4217    3.2239    1.0322 H   0  0  0  0  0  0  0  0  0  0  0  0
    0.0030    1.3914   -0.0090 C   0  0  0  0  0  0  0  0  0  0  0  0
   -1.1858    0.6903   -0.0064 C   0  0  0  0  0  0  0  0  0  0  0  0
   -2.0539    1.1830   -0.0101 H   0  0  0  0  0  0  0  0  0  0  0  0
   -1.1907   -0.6894    0.0000 C   0  0  0  0  0  0  0  0  0  0  0  0
   -2.0760   -1.1809    0.0064 H   0  0  0  0  0  0  0  0  0  0  0  0
   -0.0095   -1.3805   -0.0012 C   0  0  0  0  0  0  0  0  0  0  0  0
   -0.0148   -2.3862   -0.0035 H   0  0  0  0  0  0  0  0  0  0  0  0
    1.1907   -0.6994    0.0000 C   0  0  0  0  0  0  0  0  0  0  0  0
    2.0701   -1.2012   -0.0093 H   0  0  0  0  0  0  0  0  0  0  0  0
    1.1923    0.6876    0.0166 C   0  0  0  0  0  0  0  0  0  0  0  0
    2.0624    1.1802    0.0468 H   0  0  0  0  0  0  0  0  0  0  0  0
  1  5  1  0
  5  6  1  0
  5  7  2  0
  1  2  1  0
  1  3  1  0
  1  4  1  0
  8 12  1  0
 12 13  2  0
 13 15  1  0
 15 17  2  0
 17 19  1  0
 19 21  2  0
 21 12  1  0
  8  9  1  0
  8 10  1  0
  8 11  1  0
 13 14  1  0
 15 16  1  0
 17 18  1  0
 19 20  1  0
 21 22  1  0
M  CHG  1   6  -1
M  END
>  <PDB_ID>  (397) 
pdb1gk8

>  <RESIDUE_NAME>  (397) 
ASP   PHE

>  <FRAG_NAME>  (397) 
ACET   MBZ

>  <FRAG_ATOM_NUM>  (397) 
fragi: 7  fragj: 15

>  <atom.prop.CHAIN_ID>  (397) 
A A A A A A A Z Z Z Z Z Z Z Z Z Z Z Z Z Z Z

>  <atom.prop.IS_HEAVY_ATOM>  (397) 
1 0 0 0 1 1 1 1 0 0 0 1 1 0 1 0 1 0 1 0 1 0

>  <DIFUSE_FUNC_ATOM>  (397) 
atom 6   atom 7   

>  <FINAL_SINGLE_POINT_ENERGY>  (397) 
0

>  <NONCOV_INTER_ENERGY_QM>  (397) 
0

>  <FF_Energy>  (397) 
-0.2

>  <QM_Energy>  (397) 
-7.04

>  <source>  (397) 
ACET_MBZ_00

>  <Index>  (397) 
14437

$$$$
ACET-pdb2hfn-D-GLU-56:MBZ-pdb2hfn-D-PHE-91
     RDKit          3D

 22 21  0  0  0  0  0  0  0  0999 V2000
   -4.6035    2.7339   -1.5696 C   0  0  0  0  0  0  0  0  0  0  0  0
   -5.3319    2.0950   -1.5228 H   0  0  0  0  0  0  0  0  0  0  0  0
   -3.8344    2.4314   -2.0779 H   0  0  0  0  0  0  0  0  0  0  0  0
   -4.9711    3.6694   -1.9914 H   0  0  0  0  0  0  0  0  0  0  0  0
   -4.1142    2.9572   -0.1147 C   0  0  0  0  0  0  0  0  0  0  0  0
   -4.5950    2.2320    0.7892 O   0  0  0  0  0  1  0  0  0  0  0  0
   -3.2554    3.8732    0.1133 O   0  0  0  0  0  0  0  0  0  0  0  0
   -0.0098    2.9457    0.0375 C   0  0  0  0  0  0  0  0  0  0  0  0
   -0.8087    3.2581   -0.4376 H   0  0  0  0  0  0  0  0  0  0  0  0
    0.8225    3.2594   -0.3769 H   0  0  0  0  0  0  0  0  0  0  0  0
   -0.0483    3.3296    1.0569 H   0  0  0  0  0  0  0  0  0  0  0  0
   -0.0068    1.4221   -0.0166 C   0  0  0  0  0  0  0  0  0  0  0  0
   -1.2011    0.6964   -0.0033 C   0  0  0  0  0  0  0  0  0  0  0  0
   -2.0744    1.1734    0.0030 H   0  0  0  0  0  0  0  0  0  0  0  0
   -1.2076   -0.7232    0.0000 C   0  0  0  0  0  0  0  0  0  0  0  0
   -2.0766   -1.2085   -0.0032 H   0  0  0  0  0  0  0  0  0  0  0  0
    0.0105   -1.4157    0.0095 C   0  0  0  0  0  0  0  0  0  0  0  0
    0.0128   -2.4098    0.0222 H   0  0  0  0  0  0  0  0  0  0  0  0
    1.2076   -0.7024    0.0000 C   0  0  0  0  0  0  0  0  0  0  0  0
    2.0966   -1.1794   -0.0129 H   0  0  0  0  0  0  0  0  0  0  0  0
    1.1975    0.7229    0.0104 C   0  0  0  0  0  0  0  0  0  0  0  0
    2.0634    1.2073    0.0361 H   0  0  0  0  0  0  0  0  0  0  0  0
  1  5  1  0
  5  6  1  0
  5  7  2  0
  1  2  1  0
  1  3  1  0
  1  4  1  0
  8 12  1  0
 12 13  2  0
 13 15  1  0
 15 17  2  0
 17 19  1  0
 19 21  2  0
 21 12  1  0
  8  9  1  0
  8 10  1  0
  8 11  1  0
 13 14  1  0
 15 16  1  0
 17 18  1  0
 19 20  1  0
 21 22  1  0
M  CHG  1   6  -1
M  END
>  <PDB_ID>  (398) 
pdb2hfn

>  <RESIDUE_NAME>  (398) 
GLU   PHE

>  <FRAG_NAME>  (398) 
ACET   MBZ

>  <FRAG_ATOM_NUM>  (398) 
fragi: 7  fragj: 15

>  <atom.prop.CHAIN_ID>  (398) 
A A A A A A A Z Z Z Z Z Z Z Z Z Z Z Z Z Z Z

>  <atom.prop.IS_HEAVY_ATOM>  (398) 
1 0 0 0 1 1 1 1 0 0 0 1 1 0 1 0 1 0 1 0 1 0

>  <DIFUSE_FUNC_ATOM>  (398) 
atom 6   atom 7   

>  <FINAL_SINGLE_POINT_ENERGY>  (398) 
0

>  <NONCOV_INTER_ENERGY_QM>  (398) 
0

>  <FF_Energy>  (398) 
-2.54

>  <QM_Energy>  (398) 
-7.68

>  <source>  (398) 
ACET_MBZ_00

>  <Index>  (398) 
14496

$$$$
ACET-pdb2hfn-E-GLU-56:MBZ-pdb2hfn-E-PHE-91
     RDKit          3D

 22 21  0  0  0  0  0  0  0  0999 V2000
   -4.6057    3.0549   -1.3020 C   0  0  0  0  0  0  0  0  0  0  0  0
   -5.2153    2.2956   -1.3359 H   0  0  0  0  0  0  0  0  0  0  0  0
   -3.8695    2.9954   -1.9372 H   0  0  0  0  0  0  0  0  0  0  0  0
   -5.1701    3.9655   -1.5031 H   0  0  0  0  0  0  0  0  0  0  0  0
   -3.9875    3.0782    0.1076 C   0  0  0  0  0  0  0  0  0  0  0  0
   -4.3655    2.2155    0.9259 O   0  0  0  0  0  1  0  0  0  0  0  0
   -3.1286    3.9660    0.3827 O   0  0  0  0  0  0  0  0  0  0  0  0
   -0.0067    2.9291    0.0334 C   0  0  0  0  0  0  0  0  0  0  0  0
   -0.8358    3.2376   -0.4017 H   0  0  0  0  0  0  0  0  0  0  0  0
    0.7965    3.2355   -0.4486 H   0  0  0  0  0  0  0  0  0  0  0  0
    0.0229    3.3484    1.0391 H   0  0  0  0  0  0  0  0  0  0  0  0
   -0.0091    1.4118    0.0095 C   0  0  0  0  0  0  0  0  0  0  0  0
   -1.2024    0.6994   -0.0031 C   0  0  0  0  0  0  0  0  0  0  0  0
   -2.0727    1.1837   -0.0156 H   0  0  0  0  0  0  0  0  0  0  0  0
   -1.2088   -0.7031   -0.0000 C   0  0  0  0  0  0  0  0  0  0  0  0
   -2.0761   -1.1979    0.0112 H   0  0  0  0  0  0  0  0  0  0  0  0
    0.0125   -1.4038   -0.0105 C   0  0  0  0  0  0  0  0  0  0  0  0
    0.0012   -2.4005   -0.0260 H   0  0  0  0  0  0  0  0  0  0  0  0
    1.2088   -0.7056   -0.0000 C   0  0  0  0  0  0  0  0  0  0  0  0
    2.0935   -1.1910    0.0063 H   0  0  0  0  0  0  0  0  0  0  0  0
    1.1990    0.7013    0.0040 C   0  0  0  0  0  0  0  0  0  0  0  0
    2.0627    1.1964    0.0022 H   0  0  0  0  0  0  0  0  0  0  0  0
  1  5  1  0
  5  6  1  0
  5  7  2  0
  1  2  1  0
  1  3  1  0
  1  4  1  0
  8 12  1  0
 12 13  2  0
 13 15  1  0
 15 17  2  0
 17 19  1  0
 19 21  2  0
 21 12  1  0
  8  9  1  0
  8 10  1  0
  8 11  1  0
 13 14  1  0
 15 16  1  0
 17 18  1  0
 19 20  1  0
 21 22  1  0
M  CHG  1   6  -1
M  END
>  <PDB_ID>  (399) 
pdb2hfn

>  <RESIDUE_NAME>  (399) 
GLU   PHE

>  <FRAG_NAME>  (399) 
ACET   MBZ

>  <FRAG_ATOM_NUM>  (399) 
fragi: 7  fragj: 15

>  <atom.prop.CHAIN_ID>  (399) 
A A A A A A A Z Z Z Z Z Z Z Z Z Z Z Z Z Z Z

>  <atom.prop.IS_HEAVY_ATOM>  (399) 
1 0 0 0 1 1 1 1 0 0 0 1 1 0 1 0 1 0 1 0 1 0

>  <DIFUSE_FUNC_ATOM>  (399) 
atom 6   atom 7   

>  <FINAL_SINGLE_POINT_ENERGY>  (399) 
0

>  <NONCOV_INTER_ENERGY_QM>  (399) 
0

>  <FF_Energy>  (399) 
-2.37

>  <QM_Energy>  (399) 
-7.69

>  <source>  (399) 
ACET_MBZ_00

>  <Index>  (399) 
14515

$$$$
ACET-pdb2hfn-J-GLU-56:MBZ-pdb2hfn-J-PHE-91
     RDKit          3D

 22 21  0  0  0  0  0  0  0  0999 V2000
   -4.6777    2.8435   -1.2722 C   0  0  0  0  0  0  0  0  0  0  0  0
   -5.2758    2.0787   -1.2302 H   0  0  0  0  0  0  0  0  0  0  0  0
   -3.9641    2.7567   -1.9261 H   0  0  0  0  0  0  0  0  0  0  0  0
   -5.2636    3.7312   -1.5104 H   0  0  0  0  0  0  0  0  0  0  0  0
   -4.0169    2.9834    0.1085 C   0  0  0  0  0  0  0  0  0  0  0  0
   -4.3083    2.1382    0.9775 O   0  0  0  0  0  1  0  0  0  0  0  0
   -3.2170    3.9298    0.3155 O   0  0  0  0  0  0  0  0  0  0  0  0
   -0.0146    2.9195    0.0023 C   0  0  0  0  0  0  0  0  0  0  0  0
   -0.8310    3.2159   -0.4691 H   0  0  0  0  0  0  0  0  0  0  0  0
    0.8026    3.2237   -0.4631 H   0  0  0  0  0  0  0  0  0  0  0  0
   -0.0200    3.3672    0.9962 H   0  0  0  0  0  0  0  0  0  0  0  0
   -0.0076    1.4076    0.0084 C   0  0  0  0  0  0  0  0  0  0  0  0
   -1.2026    0.6948   -0.0177 C   0  0  0  0  0  0  0  0  0  0  0  0
   -2.0708    1.1830   -0.0511 H   0  0  0  0  0  0  0  0  0  0  0  0
   -1.2109   -0.7026    0.0000 C   0  0  0  0  0  0  0  0  0  0  0  0
   -2.0804   -1.1954    0.0095 H   0  0  0  0  0  0  0  0  0  0  0  0
    0.0031   -1.3965    0.0060 C   0  0  0  0  0  0  0  0  0  0  0  0
   -0.0016   -2.3962    0.0138 H   0  0  0  0  0  0  0  0  0  0  0  0
    1.2109   -0.7021   -0.0000 C   0  0  0  0  0  0  0  0  0  0  0  0
    2.0890   -1.1976   -0.0056 H   0  0  0  0  0  0  0  0  0  0  0  0
    1.2072    0.6988    0.0033 C   0  0  0  0  0  0  0  0  0  0  0  0
    2.0663    1.1963    0.0011 H   0  0  0  0  0  0  0  0  0  0  0  0
  1  5  1  0
  5  6  1  0
  5  7  2  0
  1  2  1  0
  1  3  1  0
  1  4  1  0
  8 12  1  0
 12 13  2  0
 13 15  1  0
 15 17  2  0
 17 19  1  0
 19 21  2  0
 21 12  1  0
  8  9  1  0
  8 10  1  0
  8 11  1  0
 13 14  1  0
 15 16  1  0
 17 18  1  0
 19 20  1  0
 21 22  1  0
M  CHG  1   6  -1
M  END
>  <PDB_ID>  (400) 
pdb2hfn

>  <RESIDUE_NAME>  (400) 
GLU   PHE

>  <FRAG_NAME>  (400) 
ACET   MBZ

>  <FRAG_ATOM_NUM>  (400) 
fragi: 7  fragj: 15

>  <atom.prop.CHAIN_ID>  (400) 
A A A A A A A Z Z Z Z Z Z Z Z Z Z Z Z Z Z Z

>  <atom.prop.IS_HEAVY_ATOM>  (400) 
1 0 0 0 1 1 1 1 0 0 0 1 1 0 1 0 1 0 1 0 1 0

>  <DIFUSE_FUNC_ATOM>  (400) 
atom 6   atom 7   

>  <FINAL_SINGLE_POINT_ENERGY>  (400) 
0

>  <NONCOV_INTER_ENERGY_QM>  (400) 
0

>  <FF_Energy>  (400) 
-2.34

>  <QM_Energy>  (400) 
-7.56

>  <source>  (400) 
ACET_MBZ_00

>  <Index>  (400) 
14520

$$$$
ACET-pdb1go4-H-GLU-497:MBZ-pdb1go4-H-PHE-491
     RDKit          3D

 22 21  0  0  0  0  0  0  0  0999 V2000
   -1.2790    1.6272   -4.8469 C   0  0  0  0  0  0  0  0  0  0  0  0
   -1.7471    2.1281   -5.5503 H   0  0  0  0  0  0  0  0  0  0  0  0
   -1.5441    0.6818   -4.8195 H   0  0  0  0  0  0  0  0  0  0  0  0
   -0.2082    1.6791   -5.0438 H   0  0  0  0  0  0  0  0  0  0  0  0
   -1.6474    2.2463   -3.5187 C   0  0  0  0  0  0  0  0  0  0  0  0
   -0.9288    3.1795   -3.0829 O   0  0  0  0  0  1  0  0  0  0  0  0
   -2.6620    1.8141   -2.9215 O   0  0  0  0  0  0  0  0  0  0  0  0
    0.1167    2.8825    0.0853 C   0  0  0  0  0  0  0  0  0  0  0  0
   -0.4498    3.1956    0.8157 H   0  0  0  0  0  0  0  0  0  0  0  0
   -0.1257    3.2581   -0.7825 H   0  0  0  0  0  0  0  0  0  0  0  0
    1.1464    3.1643    0.3052 H   0  0  0  0  0  0  0  0  0  0  0  0
    0.0022    1.4004    0.0044 C   0  0  0  0  0  0  0  0  0  0  0  0
   -1.2014    0.7242   -0.0010 C   0  0  0  0  0  0  0  0  0  0  0  0
   -2.0599    1.2061   -0.0062 H   0  0  0  0  0  0  0  0  0  0  0  0
   -1.2021   -0.6833   -0.0000 C   0  0  0  0  0  0  0  0  0  0  0  0
   -2.0771   -1.1744    0.0022 H   0  0  0  0  0  0  0  0  0  0  0  0
    0.0100   -1.3934   -0.0003 C   0  0  0  0  0  0  0  0  0  0  0  0
   -0.0129   -2.3920   -0.0014 H   0  0  0  0  0  0  0  0  0  0  0  0
    1.2021   -0.7098    0.0000 C   0  0  0  0  0  0  0  0  0  0  0  0
    2.0837   -1.2091    0.0044 H   0  0  0  0  0  0  0  0  0  0  0  0
    1.1893    0.6619   -0.0030 C   0  0  0  0  0  0  0  0  0  0  0  0
    2.0671    1.1683   -0.0120 H   0  0  0  0  0  0  0  0  0  0  0  0
  1  5  1  0
  5  6  1  0
  5  7  2  0
  1  2  1  0
  1  3  1  0
  1  4  1  0
  8 12  1  0
 12 13  2  0
 13 15  1  0
 15 17  2  0
 17 19  1  0
 19 21  2  0
 21 12  1  0
  8  9  1  0
  8 10  1  0
  8 11  1  0
 13 14  1  0
 15 16  1  0
 17 18  1  0
 19 20  1  0
 21 22  1  0
M  CHG  1   6  -1
M  END
>  <PDB_ID>  (401) 
pdb1go4

>  <RESIDUE_NAME>  (401) 
GLU   PHE

>  <FRAG_NAME>  (401) 
ACET   MBZ

>  <FRAG_ATOM_NUM>  (401) 
fragi: 7  fragj: 15

>  <atom.prop.CHAIN_ID>  (401) 
A A A A A A A Z Z Z Z Z Z Z Z Z Z Z Z Z Z Z

>  <atom.prop.IS_HEAVY_ATOM>  (401) 
1 0 0 0 1 1 1 1 0 0 0 1 1 0 1 0 1 0 1 0 1 0

>  <DIFUSE_FUNC_ATOM>  (401) 
atom 6   atom 7   

>  <FINAL_SINGLE_POINT_ENERGY>  (401) 
0

>  <NONCOV_INTER_ENERGY_QM>  (401) 
0

>  <FF_Energy>  (401) 
0.33

>  <QM_Energy>  (401) 
-6.39

>  <source>  (401) 
ACET_MBZ_00

>  <Index>  (401) 
14617

$$$$
ACET-pdb2hiq-A-GLU-50:MBZ-pdb2hiq-A-PHE-22
     RDKit          3D

 22 21  0  0  0  0  0  0  0  0999 V2000
   -5.2519    2.7696    1.4399 C   0  0  0  0  0  0  0  0  0  0  0  0
   -6.1707    3.0542    1.2277 H   0  0  0  0  0  0  0  0  0  0  0  0
   -5.0813    2.7695    2.4102 H   0  0  0  0  0  0  0  0  0  0  0  0
   -5.1144    1.7544    1.0677 H   0  0  0  0  0  0  0  0  0  0  0  0
   -4.3014    3.7913    0.8113 C   0  0  0  0  0  0  0  0  0  0  0  0
   -4.7262    4.9423    0.5878 O   0  0  0  0  0  1  0  0  0  0  0  0
   -3.1285    3.4567    0.5602 O   0  0  0  0  0  0  0  0  0  0  0  0
    0.0011    2.9036   -0.0394 C   0  0  0  0  0  0  0  0  0  0  0  0
    0.9114    3.2169    0.1857 H   0  0  0  0  0  0  0  0  0  0  0  0
   -0.6645    3.2296    0.6145 H   0  0  0  0  0  0  0  0  0  0  0  0
   -0.2608    3.3196   -1.0122 H   0  0  0  0  0  0  0  0  0  0  0  0
    0.0002    1.4018    0.0012 C   0  0  0  0  0  0  0  0  0  0  0  0
   -1.1944    0.6937    0.0007 C   0  0  0  0  0  0  0  0  0  0  0  0
   -2.0623    1.1831   -0.0005 H   0  0  0  0  0  0  0  0  0  0  0  0
   -1.1979   -0.6967    0.0000 C   0  0  0  0  0  0  0  0  0  0  0  0
   -2.0766   -1.1891    0.0029 H   0  0  0  0  0  0  0  0  0  0  0  0
   -0.0011   -1.3929   -0.0026 C   0  0  0  0  0  0  0  0  0  0  0  0
   -0.0062   -2.3927   -0.0072 H   0  0  0  0  0  0  0  0  0  0  0  0
    1.1979   -0.6991    0.0000 C   0  0  0  0  0  0  0  0  0  0  0  0
    2.0797   -1.1958    0.0029 H   0  0  0  0  0  0  0  0  0  0  0  0
    1.1952    0.6931    0.0007 C   0  0  0  0  0  0  0  0  0  0  0  0
    2.0643    1.1873   -0.0004 H   0  0  0  0  0  0  0  0  0  0  0  0
  1  5  1  0
  5  6  1  0
  5  7  2  0
  1  2  1  0
  1  3  1  0
  1  4  1  0
  8 12  1  0
 12 13  2  0
 13 15  1  0
 15 17  2  0
 17 19  1  0
 19 21  2  0
 21 12  1  0
  8  9  1  0
  8 10  1  0
  8 11  1  0
 13 14  1  0
 15 16  1  0
 17 18  1  0
 19 20  1  0
 21 22  1  0
M  CHG  1   6  -1
M  END
>  <PDB_ID>  (402) 
pdb2hiq

>  <RESIDUE_NAME>  (402) 
GLU   PHE

>  <FRAG_NAME>  (402) 
ACET   MBZ

>  <FRAG_ATOM_NUM>  (402) 
fragi: 7  fragj: 15

>  <atom.prop.CHAIN_ID>  (402) 
A A A A A A A Z Z Z Z Z Z Z Z Z Z Z Z Z Z Z

>  <atom.prop.IS_HEAVY_ATOM>  (402) 
1 0 0 0 1 1 1 1 0 0 0 1 1 0 1 0 1 0 1 0 1 0

>  <DIFUSE_FUNC_ATOM>  (402) 
atom 6   atom 7   

>  <FINAL_SINGLE_POINT_ENERGY>  (402) 
0

>  <NONCOV_INTER_ENERGY_QM>  (402) 
0

>  <FF_Energy>  (402) 
-1.74

>  <QM_Energy>  (402) 
-7.81

>  <source>  (402) 
ACET_MBZ_00

>  <Index>  (402) 
14640

$$$$
ACET-pdb2hiq-B-GLU-50:MBZ-pdb2hiq-B-PHE-22
     RDKit          3D

 22 21  0  0  0  0  0  0  0  0999 V2000
    5.4372    2.5808   -0.6872 C   0  0  0  0  0  0  0  0  0  0  0  0
    6.3064    2.9237   -0.3777 H   0  0  0  0  0  0  0  0  0  0  0  0
    5.4026    2.4966   -1.6676 H   0  0  0  0  0  0  0  0  0  0  0  0
    5.2819    1.5943   -0.2503 H   0  0  0  0  0  0  0  0  0  0  0  0
    4.3766    3.5950   -0.2800 C   0  0  0  0  0  0  0  0  0  0  0  0
    3.1920    3.3857   -0.6132 O   0  0  0  0  0  1  0  0  0  0  0  0
    4.7334    4.6015    0.3648 O   0  0  0  0  0  0  0  0  0  0  0  0
    0.0119    2.9041    0.0106 C   0  0  0  0  0  0  0  0  0  0  0  0
   -0.8791    3.2202   -0.2774 H   0  0  0  0  0  0  0  0  0  0  0  0
    0.7203    3.2103   -0.6080 H   0  0  0  0  0  0  0  0  0  0  0  0
    0.2179    3.3345    0.9906 H   0  0  0  0  0  0  0  0  0  0  0  0
   -0.0004    1.4034   -0.0010 C   0  0  0  0  0  0  0  0  0  0  0  0
   -1.1978    0.6972    0.0002 C   0  0  0  0  0  0  0  0  0  0  0  0
   -2.0642    1.1852   -0.0005 H   0  0  0  0  0  0  0  0  0  0  0  0
   -1.2025   -0.6988    0.0000 C   0  0  0  0  0  0  0  0  0  0  0  0
   -2.0774   -1.1912    0.0008 H   0  0  0  0  0  0  0  0  0  0  0  0
    0.0024   -1.3960    0.0010 C   0  0  0  0  0  0  0  0  0  0  0  0
   -0.0029   -2.3940    0.0018 H   0  0  0  0  0  0  0  0  0  0  0  0
    1.2025   -0.6988    0.0000 C   0  0  0  0  0  0  0  0  0  0  0  0
    2.0847   -1.1944    0.0003 H   0  0  0  0  0  0  0  0  0  0  0  0
    1.1959    0.6930   -0.0002 C   0  0  0  0  0  0  0  0  0  0  0  0
    2.0650    1.1901   -0.0004 H   0  0  0  0  0  0  0  0  0  0  0  0
  1  5  1  0
  5  6  1  0
  5  7  2  0
  1  2  1  0
  1  3  1  0
  1  4  1  0
  8 12  1  0
 12 13  2  0
 13 15  1  0
 15 17  2  0
 17 19  1  0
 19 21  2  0
 21 12  1  0
  8  9  1  0
  8 10  1  0
  8 11  1  0
 13 14  1  0
 15 16  1  0
 17 18  1  0
 19 20  1  0
 21 22  1  0
M  CHG  1   6  -1
M  END
>  <PDB_ID>  (403) 
pdb2hiq

>  <RESIDUE_NAME>  (403) 
GLU   PHE

>  <FRAG_NAME>  (403) 
ACET   MBZ

>  <FRAG_ATOM_NUM>  (403) 
fragi: 7  fragj: 15

>  <atom.prop.CHAIN_ID>  (403) 
A A A A A A A Z Z Z Z Z Z Z Z Z Z Z Z Z Z Z

>  <atom.prop.IS_HEAVY_ATOM>  (403) 
1 0 0 0 1 1 1 1 0 0 0 1 1 0 1 0 1 0 1 0 1 0

>  <DIFUSE_FUNC_ATOM>  (403) 
atom 6   atom 7   

>  <FINAL_SINGLE_POINT_ENERGY>  (403) 
0

>  <NONCOV_INTER_ENERGY_QM>  (403) 
0

>  <FF_Energy>  (403) 
-1.91

>  <QM_Energy>  (403) 
-7.86

>  <source>  (403) 
ACET_MBZ_00

>  <Index>  (403) 
14641

$$$$
ACET-pdb2hiy-B-ASP-125:MBZ-pdb2hiy-B-PHE-140
     RDKit          3D

 22 21  0  0  0  0  0  0  0  0999 V2000
    5.0342    3.4992    0.4921 C   0  0  0  0  0  0  0  0  0  0  0  0
    5.7554    3.7833    1.1129 H   0  0  0  0  0  0  0  0  0  0  0  0
    4.9681    4.1232   -0.2761 H   0  0  0  0  0  0  0  0  0  0  0  0
    5.2817    2.5087    0.1103 H   0  0  0  0  0  0  0  0  0  0  0  0
    3.7139    3.5164    1.2448 C   0  0  0  0  0  0  0  0  0  0  0  0
    3.3238    2.4608    1.7912 O   0  0  0  0  0  1  0  0  0  0  0  0
    3.1126    4.6156    1.3118 O   0  0  0  0  0  0  0  0  0  0  0  0
    0.0380    2.8774   -0.0806 C   0  0  0  0  0  0  0  0  0  0  0  0
    0.9578    3.1851    0.1059 H   0  0  0  0  0  0  0  0  0  0  0  0
   -0.6015    3.2223    0.5882 H   0  0  0  0  0  0  0  0  0  0  0  0
   -0.2540    3.2738   -1.0531 H   0  0  0  0  0  0  0  0  0  0  0  0
    0.0191    1.3918   -0.0272 C   0  0  0  0  0  0  0  0  0  0  0  0
   -1.1926    0.6993    0.0038 C   0  0  0  0  0  0  0  0  0  0  0  0
   -2.0467    1.2082    0.0273 H   0  0  0  0  0  0  0  0  0  0  0  0
   -1.2065   -0.6736    0.0000 C   0  0  0  0  0  0  0  0  0  0  0  0
   -2.0943   -1.1643   -0.0240 H   0  0  0  0  0  0  0  0  0  0  0  0
   -0.0266   -1.3831    0.0300 C   0  0  0  0  0  0  0  0  0  0  0  0
   -0.0388   -2.3832    0.0725 H   0  0  0  0  0  0  0  0  0  0  0  0
    1.2065   -0.7101   -0.0000 C   0  0  0  0  0  0  0  0  0  0  0  0
    2.0651   -1.2210   -0.0148 H   0  0  0  0  0  0  0  0  0  0  0  0
    1.2001    0.6757   -0.0066 C   0  0  0  0  0  0  0  0  0  0  0  0
    2.0778    1.1699    0.0036 H   0  0  0  0  0  0  0  0  0  0  0  0
  1  5  1  0
  5  6  1  0
  5  7  2  0
  1  2  1  0
  1  3  1  0
  1  4  1  0
  8 12  1  0
 12 13  2  0
 13 15  1  0
 15 17  2  0
 17 19  1  0
 19 21  2  0
 21 12  1  0
  8  9  1  0
  8 10  1  0
  8 11  1  0
 13 14  1  0
 15 16  1  0
 17 18  1  0
 19 20  1  0
 21 22  1  0
M  CHG  1   6  -1
M  END
>  <PDB_ID>  (404) 
pdb2hiy

>  <RESIDUE_NAME>  (404) 
ASP   PHE

>  <FRAG_NAME>  (404) 
ACET   MBZ

>  <FRAG_ATOM_NUM>  (404) 
fragi: 7  fragj: 15

>  <atom.prop.CHAIN_ID>  (404) 
A A A A A A A Z Z Z Z Z Z Z Z Z Z Z Z Z Z Z

>  <atom.prop.IS_HEAVY_ATOM>  (404) 
1 0 0 0 1 1 1 1 0 0 0 1 1 0 1 0 1 0 1 0 1 0

>  <DIFUSE_FUNC_ATOM>  (404) 
atom 6   atom 7   

>  <FINAL_SINGLE_POINT_ENERGY>  (404) 
0

>  <NONCOV_INTER_ENERGY_QM>  (404) 
0

>  <FF_Energy>  (404) 
-1.78

>  <QM_Energy>  (404) 
-6.96

>  <source>  (404) 
ACET_MBZ_00

>  <Index>  (404) 
14673

$$$$
ACET-pdb2hiy-C-ASP-125:MBZ-pdb2hiy-C-PHE-140
     RDKit          3D

 22 21  0  0  0  0  0  0  0  0999 V2000
    4.9609    3.6845    0.4852 C   0  0  0  0  0  0  0  0  0  0  0  0
    5.6710    4.0021    1.0996 H   0  0  0  0  0  0  0  0  0  0  0  0
    4.8557    4.3011   -0.2825 H   0  0  0  0  0  0  0  0  0  0  0  0
    5.2485    2.7048    0.1035 H   0  0  0  0  0  0  0  0  0  0  0  0
    3.6377    3.6468    1.2573 C   0  0  0  0  0  0  0  0  0  0  0  0
    3.2470    2.5793    1.7673 O   0  0  0  0  0  1  0  0  0  0  0  0
    2.9982    4.7322    1.3372 O   0  0  0  0  0  0  0  0  0  0  0  0
    0.0140    2.9049   -0.0125 C   0  0  0  0  0  0  0  0  0  0  0  0
    0.9298    3.2138    0.1706 H   0  0  0  0  0  0  0  0  0  0  0  0
   -0.6260    3.2163    0.6663 H   0  0  0  0  0  0  0  0  0  0  0  0
   -0.2920    3.3169   -0.9741 H   0  0  0  0  0  0  0  0  0  0  0  0
    0.0142    1.4063   -0.0039 C   0  0  0  0  0  0  0  0  0  0  0  0
   -1.2010    0.7026    0.0158 C   0  0  0  0  0  0  0  0  0  0  0  0
   -2.0565    1.1956    0.0400 H   0  0  0  0  0  0  0  0  0  0  0  0
   -1.2007   -0.6912    0.0000 C   0  0  0  0  0  0  0  0  0  0  0  0
   -2.0861   -1.1814   -0.0060 H   0  0  0  0  0  0  0  0  0  0  0  0
   -0.0104   -1.4009   -0.0062 C   0  0  0  0  0  0  0  0  0  0  0  0
   -0.0238   -2.3992   -0.0152 H   0  0  0  0  0  0  0  0  0  0  0  0
    1.2007   -0.7168    0.0000 C   0  0  0  0  0  0  0  0  0  0  0  0
    2.0770   -1.2056    0.0100 H   0  0  0  0  0  0  0  0  0  0  0  0
    1.1973    0.7000   -0.0057 C   0  0  0  0  0  0  0  0  0  0  0  0
    2.0745    1.1781   -0.0111 H   0  0  0  0  0  0  0  0  0  0  0  0
  1  5  1  0
  5  6  1  0
  5  7  2  0
  1  2  1  0
  1  3  1  0
  1  4  1  0
  8 12  1  0
 12 13  2  0
 13 15  1  0
 15 17  2  0
 17 19  1  0
 19 21  2  0
 21 12  1  0
  8  9  1  0
  8 10  1  0
  8 11  1  0
 13 14  1  0
 15 16  1  0
 17 18  1  0
 19 20  1  0
 21 22  1  0
M  CHG  1   6  -1
M  END
>  <PDB_ID>  (405) 
pdb2hiy

>  <RESIDUE_NAME>  (405) 
ASP   PHE

>  <FRAG_NAME>  (405) 
ACET   MBZ

>  <FRAG_ATOM_NUM>  (405) 
fragi: 7  fragj: 15

>  <atom.prop.CHAIN_ID>  (405) 
A A A A A A A Z Z Z Z Z Z Z Z Z Z Z Z Z Z Z

>  <atom.prop.IS_HEAVY_ATOM>  (405) 
1 0 0 0 1 1 1 1 0 0 0 1 1 0 1 0 1 0 1 0 1 0

>  <DIFUSE_FUNC_ATOM>  (405) 
atom 6   atom 7   

>  <FINAL_SINGLE_POINT_ENERGY>  (405) 
0

>  <NONCOV_INTER_ENERGY_QM>  (405) 
0

>  <FF_Energy>  (405) 
-1.73

>  <QM_Energy>  (405) 
-7.13

>  <source>  (405) 
ACET_MBZ_00

>  <Index>  (405) 
14681

$$$$
ACET-pdb2hiy-D-ASP-125:MBZ-pdb2hiy-D-PHE-140
     RDKit          3D

 22 21  0  0  0  0  0  0  0  0999 V2000
    4.8796    3.7415    0.6344 C   0  0  0  0  0  0  0  0  0  0  0  0
    5.5607    4.0934    1.2687 H   0  0  0  0  0  0  0  0  0  0  0  0
    4.8073    4.3367   -0.1588 H   0  0  0  0  0  0  0  0  0  0  0  0
    5.1979    2.7546    0.2986 H   0  0  0  0  0  0  0  0  0  0  0  0
    3.5281    3.7223    1.3447 C   0  0  0  0  0  0  0  0  0  0  0  0
    3.1289    2.6236    1.8125 O   0  0  0  0  0  1  0  0  0  0  0  0
    2.9088    4.8152    1.4033 O   0  0  0  0  0  0  0  0  0  0  0  0
   -0.0012    2.8986   -0.0146 C   0  0  0  0  0  0  0  0  0  0  0  0
    0.9036    3.2176    0.2176 H   0  0  0  0  0  0  0  0  0  0  0  0
   -0.6737    3.2094    0.6385 H   0  0  0  0  0  0  0  0  0  0  0  0
   -0.2631    3.3131   -0.9882 H   0  0  0  0  0  0  0  0  0  0  0  0
    0.0108    1.4086    0.0001 C   0  0  0  0  0  0  0  0  0  0  0  0
   -1.1878    0.7137    0.0053 C   0  0  0  0  0  0  0  0  0  0  0  0
   -2.0526    1.2032    0.0119 H   0  0  0  0  0  0  0  0  0  0  0  0
   -1.2014   -0.6869   -0.0000 C   0  0  0  0  0  0  0  0  0  0  0  0
   -2.0886   -1.1667    0.0037 H   0  0  0  0  0  0  0  0  0  0  0  0
   -0.0140   -1.3991   -0.0090 C   0  0  0  0  0  0  0  0  0  0  0  0
   -0.0335   -2.4005   -0.0221 H   0  0  0  0  0  0  0  0  0  0  0  0
    1.2014   -0.7273   -0.0000 C   0  0  0  0  0  0  0  0  0  0  0  0
    2.0727   -1.2135    0.0052 H   0  0  0  0  0  0  0  0  0  0  0  0
    1.1911    0.6910    0.0036 C   0  0  0  0  0  0  0  0  0  0  0  0
    2.0726    1.1711    0.0081 H   0  0  0  0  0  0  0  0  0  0  0  0
  1  5  1  0
  5  6  1  0
  5  7  2  0
  1  2  1  0
  1  3  1  0
  1  4  1  0
  8 12  1  0
 12 13  2  0
 13 15  1  0
 15 17  2  0
 17 19  1  0
 19 21  2  0
 21 12  1  0
  8  9  1  0
  8 10  1  0
  8 11  1  0
 13 14  1  0
 15 16  1  0
 17 18  1  0
 19 20  1  0
 21 22  1  0
M  CHG  1   6  -1
M  END
>  <PDB_ID>  (406) 
pdb2hiy

>  <RESIDUE_NAME>  (406) 
ASP   PHE

>  <FRAG_NAME>  (406) 
ACET   MBZ

>  <FRAG_ATOM_NUM>  (406) 
fragi: 7  fragj: 15

>  <atom.prop.CHAIN_ID>  (406) 
A A A A A A A Z Z Z Z Z Z Z Z Z Z Z Z Z Z Z

>  <atom.prop.IS_HEAVY_ATOM>  (406) 
1 0 0 0 1 1 1 1 0 0 0 1 1 0 1 0 1 0 1 0 1 0

>  <DIFUSE_FUNC_ATOM>  (406) 
atom 6   atom 7   

>  <FINAL_SINGLE_POINT_ENERGY>  (406) 
0

>  <NONCOV_INTER_ENERGY_QM>  (406) 
0

>  <FF_Energy>  (406) 
-1.62

>  <QM_Energy>  (406) 
-7.11

>  <source>  (406) 
ACET_MBZ_00

>  <Index>  (406) 
14686

$$$$
ACET-pdb1gpc-A-GLU-230:MBZ-pdb1gpc-A-PHE-225
     RDKit          3D

 22 21  0  0  0  0  0  0  0  0999 V2000
   -2.5876    1.4570    3.7083 C   0  0  0  0  0  0  0  0  0  0  0  0
   -1.6156    1.4420    3.5564 H   0  0  0  0  0  0  0  0  0  0  0  0
   -2.8387    0.9928    4.5393 H   0  0  0  0  0  0  0  0  0  0  0  0
   -2.8999    2.4979    3.7934 H   0  0  0  0  0  0  0  0  0  0  0  0
   -3.2458    0.7230    2.5541 C   0  0  0  0  0  0  0  0  0  0  0  0
   -3.4994    1.3518    1.5048 O   0  0  0  0  0  1  0  0  0  0  0  0
   -3.5107   -0.4906    2.6976 O   0  0  0  0  0  0  0  0  0  0  0  0
   -0.0197    2.9038    0.0782 C   0  0  0  0  0  0  0  0  0  0  0  0
    0.8396    3.2003    0.4740 H   0  0  0  0  0  0  0  0  0  0  0  0
   -0.7838    3.1740    0.6496 H   0  0  0  0  0  0  0  0  0  0  0  0
   -0.1317    3.4017   -0.8850 H   0  0  0  0  0  0  0  0  0  0  0  0
   -0.0042    1.4074    0.0011 C   0  0  0  0  0  0  0  0  0  0  0  0
   -1.1935    0.6914   -0.0019 C   0  0  0  0  0  0  0  0  0  0  0  0
   -2.0659    1.1758   -0.0064 H   0  0  0  0  0  0  0  0  0  0  0  0
   -1.1997   -0.7079    0.0000 C   0  0  0  0  0  0  0  0  0  0  0  0
   -2.0761   -1.1972    0.0004 H   0  0  0  0  0  0  0  0  0  0  0  0
    0.0035   -1.4025    0.0027 C   0  0  0  0  0  0  0  0  0  0  0  0
    0.0041   -2.3985    0.0060 H   0  0  0  0  0  0  0  0  0  0  0  0
    1.1997   -0.6968   -0.0000 C   0  0  0  0  0  0  0  0  0  0  0  0
    2.0863   -1.1852    0.0011 H   0  0  0  0  0  0  0  0  0  0  0  0
    1.1941    0.7083   -0.0019 C   0  0  0  0  0  0  0  0  0  0  0  0
    2.0613    1.1980   -0.0060 H   0  0  0  0  0  0  0  0  0  0  0  0
  1  5  1  0
  5  6  1  0
  5  7  2  0
  1  2  1  0
  1  3  1  0
  1  4  1  0
  8 12  1  0
 12 13  2  0
 13 15  1  0
 15 17  2  0
 17 19  1  0
 19 21  2  0
 21 12  1  0
  8  9  1  0
  8 10  1  0
  8 11  1  0
 13 14  1  0
 15 16  1  0
 17 18  1  0
 19 20  1  0
 21 22  1  0
M  CHG  1   6  -1
M  END
>  <PDB_ID>  (407) 
pdb1gpc

>  <RESIDUE_NAME>  (407) 
GLU   PHE

>  <FRAG_NAME>  (407) 
ACET   MBZ

>  <FRAG_ATOM_NUM>  (407) 
fragi: 7  fragj: 15

>  <atom.prop.CHAIN_ID>  (407) 
A A A A A A A Z Z Z Z Z Z Z Z Z Z Z Z Z Z Z

>  <atom.prop.IS_HEAVY_ATOM>  (407) 
1 0 0 0 1 1 1 1 0 0 0 1 1 0 1 0 1 0 1 0 1 0

>  <DIFUSE_FUNC_ATOM>  (407) 
atom 6   atom 7   

>  <FINAL_SINGLE_POINT_ENERGY>  (407) 
0

>  <NONCOV_INTER_ENERGY_QM>  (407) 
0

>  <FF_Energy>  (407) 
3.24

>  <QM_Energy>  (407) 
-5.93

>  <source>  (407) 
ACET_MBZ_00

>  <Index>  (407) 
14787

$$$$
ACET-pdb1gpl-A-GLU-385:MBZ-pdb1gpl-A-PHE-297
     RDKit          3D

 22 21  0  0  0  0  0  0  0  0999 V2000
    1.9578    2.3062   -3.8029 C   0  0  0  0  0  0  0  0  0  0  0  0
    1.8451    1.4905   -3.2580 H   0  0  0  0  0  0  0  0  0  0  0  0
    2.9093    2.4735   -4.0106 H   0  0  0  0  0  0  0  0  0  0  0  0
    1.4244    2.1620   -4.7425 H   0  0  0  0  0  0  0  0  0  0  0  0
    1.4566    3.4771   -2.9835 C   0  0  0  0  0  0  0  0  0  0  0  0
    0.3172    3.9403   -3.2147 O   0  0  0  0  0  1  0  0  0  0  0  0
    2.2134    3.9368   -2.0961 O   0  0  0  0  0  0  0  0  0  0  0  0
   -0.0113    2.8996    0.0581 C   0  0  0  0  0  0  0  0  0  0  0  0
   -0.7542    3.2247   -0.5050 H   0  0  0  0  0  0  0  0  0  0  0  0
    0.8617    3.2256   -0.2690 H   0  0  0  0  0  0  0  0  0  0  0  0
   -0.1577    3.2937    1.0638 H   0  0  0  0  0  0  0  0  0  0  0  0
   -0.0029    1.4032    0.0029 C   0  0  0  0  0  0  0  0  0  0  0  0
   -1.1965    0.6898   -0.0015 C   0  0  0  0  0  0  0  0  0  0  0  0
   -2.0659    1.1810   -0.0069 H   0  0  0  0  0  0  0  0  0  0  0  0
   -1.2027   -0.6977   -0.0000 C   0  0  0  0  0  0  0  0  0  0  0  0
   -2.0779   -1.1936    0.0034 H   0  0  0  0  0  0  0  0  0  0  0  0
    0.0013   -1.3956   -0.0009 C   0  0  0  0  0  0  0  0  0  0  0  0
   -0.0033   -2.3930   -0.0026 H   0  0  0  0  0  0  0  0  0  0  0  0
    1.2027   -0.6973   -0.0000 C   0  0  0  0  0  0  0  0  0  0  0  0
    2.0841   -1.1928    0.0022 H   0  0  0  0  0  0  0  0  0  0  0  0
    1.1981    0.6976   -0.0005 C   0  0  0  0  0  0  0  0  0  0  0  0
    2.0634    1.1941   -0.0046 H   0  0  0  0  0  0  0  0  0  0  0  0
  1  5  1  0
  5  6  1  0
  5  7  2  0
  1  2  1  0
  1  3  1  0
  1  4  1  0
  8 12  1  0
 12 13  2  0
 13 15  1  0
 15 17  2  0
 17 19  1  0
 19 21  2  0
 21 12  1  0
  8  9  1  0
  8 10  1  0
  8 11  1  0
 13 14  1  0
 15 16  1  0
 17 18  1  0
 19 20  1  0
 21 22  1  0
M  CHG  1   6  -1
M  END
>  <PDB_ID>  (408) 
pdb1gpl

>  <RESIDUE_NAME>  (408) 
GLU   PHE

>  <FRAG_NAME>  (408) 
ACET   MBZ

>  <FRAG_ATOM_NUM>  (408) 
fragi: 7  fragj: 15

>  <atom.prop.CHAIN_ID>  (408) 
A A A A A A A Z Z Z Z Z Z Z Z Z Z Z Z Z Z Z

>  <atom.prop.IS_HEAVY_ATOM>  (408) 
1 0 0 0 1 1 1 1 0 0 0 1 1 0 1 0 1 0 1 0 1 0

>  <DIFUSE_FUNC_ATOM>  (408) 
atom 6   atom 7   

>  <FINAL_SINGLE_POINT_ENERGY>  (408) 
0

>  <NONCOV_INTER_ENERGY_QM>  (408) 
0

>  <FF_Energy>  (408) 
-0.71

>  <QM_Energy>  (408) 
-6.89

>  <source>  (408) 
ACET_MBZ_00

>  <Index>  (408) 
14850

$$$$
ACET-pdb1gsq-A-ASP-153:MBZ-pdb1gsq-A-PHE-143
     RDKit          3D

 22 21  0  0  0  0  0  0  0  0999 V2000
   -4.8266    1.1930    1.4276 C   0  0  0  0  0  0  0  0  0  0  0  0
   -4.6392    1.0139    2.3589 H   0  0  0  0  0  0  0  0  0  0  0  0
   -4.6723    0.4508    0.8274 H   0  0  0  0  0  0  0  0  0  0  0  0
   -5.8688    1.4994    1.3377 H   0  0  0  0  0  0  0  0  0  0  0  0
   -3.9657    2.3846    0.9716 C   0  0  0  0  0  0  0  0  0  0  0  0
   -4.1184    2.8975   -0.1600 O   0  0  0  0  0  1  0  0  0  0  0  0
   -3.1170    2.7634    1.7730 O   0  0  0  0  0  0  0  0  0  0  0  0
   -0.0699    2.9034   -0.0975 C   0  0  0  0  0  0  0  0  0  0  0  0
    0.8242    3.2535   -0.0264 H   0  0  0  0  0  0  0  0  0  0  0  0
   -0.6989    3.2138    0.5622 H   0  0  0  0  0  0  0  0  0  0  0  0
   -0.4567    3.1738   -1.0801 H   0  0  0  0  0  0  0  0  0  0  0  0
   -0.0016    1.3956   -0.0214 C   0  0  0  0  0  0  0  0  0  0  0  0
   -1.2033    0.6649    0.0050 C   0  0  0  0  0  0  0  0  0  0  0  0
   -2.0718    1.1653    0.0268 H   0  0  0  0  0  0  0  0  0  0  0  0
   -1.2199   -0.7214   -0.0000 C   0  0  0  0  0  0  0  0  0  0  0  0
   -2.0691   -1.2243   -0.0205 H   0  0  0  0  0  0  0  0  0  0  0  0
    0.0162   -1.3805    0.0265 C   0  0  0  0  0  0  0  0  0  0  0  0
    0.0297   -2.3877    0.0653 H   0  0  0  0  0  0  0  0  0  0  0  0
    1.2199   -0.6760    0.0000 C   0  0  0  0  0  0  0  0  0  0  0  0
    2.0996   -1.1617   -0.0099 H   0  0  0  0  0  0  0  0  0  0  0  0
    1.1887    0.7174   -0.0102 C   0  0  0  0  0  0  0  0  0  0  0  0
    2.0575    1.2219   -0.0099 H   0  0  0  0  0  0  0  0  0  0  0  0
  1  5  1  0
  5  6  1  0
  5  7  2  0
  1  2  1  0
  1  3  1  0
  1  4  1  0
  8 12  1  0
 12 13  2  0
 13 15  1  0
 15 17  2  0
 17 19  1  0
 19 21  2  0
 21 12  1  0
  8  9  1  0
  8 10  1  0
  8 11  1  0
 13 14  1  0
 15 16  1  0
 17 18  1  0
 19 20  1  0
 21 22  1  0
M  CHG  1   6  -1
M  END
>  <PDB_ID>  (409) 
pdb1gsq

>  <RESIDUE_NAME>  (409) 
ASP   PHE

>  <FRAG_NAME>  (409) 
ACET   MBZ

>  <FRAG_ATOM_NUM>  (409) 
fragi: 7  fragj: 15

>  <atom.prop.CHAIN_ID>  (409) 
A A A A A A A Z Z Z Z Z Z Z Z Z Z Z Z Z Z Z

>  <atom.prop.IS_HEAVY_ATOM>  (409) 
1 0 0 0 1 1 1 1 0 0 0 1 1 0 1 0 1 0 1 0 1 0

>  <DIFUSE_FUNC_ATOM>  (409) 
atom 6   atom 7   

>  <FINAL_SINGLE_POINT_ENERGY>  (409) 
0

>  <NONCOV_INTER_ENERGY_QM>  (409) 
0

>  <FF_Energy>  (409) 
-0.87

>  <QM_Energy>  (409) 
-7.91

>  <source>  (409) 
ACET_MBZ_00

>  <Index>  (409) 
14892

$$$$
ACET-pdb1gsu-B-ASP-156:MBZ-pdb1gsu-B-PHE-147
     RDKit          3D

 22 21  0  0  0  0  0  0  0  0999 V2000
   -5.1104    3.2304   -1.9369 C   0  0  0  0  0  0  0  0  0  0  0  0
   -5.6625    3.9928   -2.2534 H   0  0  0  0  0  0  0  0  0  0  0  0
   -5.6884    2.4967   -1.6027 H   0  0  0  0  0  0  0  0  0  0  0  0
   -4.5444    2.8507   -2.7876 H   0  0  0  0  0  0  0  0  0  0  0  0
   -4.2152    3.6975   -0.8280 C   0  0  0  0  0  0  0  0  0  0  0  0
   -3.4286    2.8655   -0.3423 O   0  0  0  0  0  1  0  0  0  0  0  0
   -4.2919    4.8778   -0.4215 O   0  0  0  0  0  0  0  0  0  0  0  0
   -0.0115    2.9033    0.1338 C   0  0  0  0  0  0  0  0  0  0  0  0
   -0.7471    3.2524   -0.4203 H   0  0  0  0  0  0  0  0  0  0  0  0
    0.8657    3.2396   -0.1638 H   0  0  0  0  0  0  0  0  0  0  0  0
   -0.1716    3.2392    1.1583 H   0  0  0  0  0  0  0  0  0  0  0  0
   -0.0022    1.4025    0.0017 C   0  0  0  0  0  0  0  0  0  0  0  0
   -1.1943    0.6929   -0.0051 C   0  0  0  0  0  0  0  0  0  0  0  0
   -2.0644    1.1788   -0.0153 H   0  0  0  0  0  0  0  0  0  0  0  0
   -1.1996   -0.7046   -0.0000 C   0  0  0  0  0  0  0  0  0  0  0  0
   -2.0761   -1.1949   -0.0001 H   0  0  0  0  0  0  0  0  0  0  0  0
    0.0017   -1.3980    0.0060 C   0  0  0  0  0  0  0  0  0  0  0  0
    0.0040   -2.3938    0.0136 H   0  0  0  0  0  0  0  0  0  0  0  0
    1.1996   -0.6919    0.0000 C   0  0  0  0  0  0  0  0  0  0  0  0
    2.0843   -1.1885   -0.0004 H   0  0  0  0  0  0  0  0  0  0  0  0
    1.1948    0.6990   -0.0026 C   0  0  0  0  0  0  0  0  0  0  0  0
    2.0620    1.1951   -0.0085 H   0  0  0  0  0  0  0  0  0  0  0  0
  1  5  1  0
  5  6  1  0
  5  7  2  0
  1  2  1  0
  1  3  1  0
  1  4  1  0
  8 12  1  0
 12 13  2  0
 13 15  1  0
 15 17  2  0
 17 19  1  0
 19 21  2  0
 21 12  1  0
  8  9  1  0
  8 10  1  0
  8 11  1  0
 13 14  1  0
 15 16  1  0
 17 18  1  0
 19 20  1  0
 21 22  1  0
M  CHG  1   6  -1
M  END
>  <PDB_ID>  (410) 
pdb1gsu

>  <RESIDUE_NAME>  (410) 
ASP   PHE

>  <FRAG_NAME>  (410) 
ACET   MBZ

>  <FRAG_ATOM_NUM>  (410) 
fragi: 7  fragj: 15

>  <atom.prop.CHAIN_ID>  (410) 
A A A A A A A Z Z Z Z Z Z Z Z Z Z Z Z Z Z Z

>  <atom.prop.IS_HEAVY_ATOM>  (410) 
1 0 0 0 1 1 1 1 0 0 0 1 1 0 1 0 1 0 1 0 1 0

>  <DIFUSE_FUNC_ATOM>  (410) 
atom 6   atom 7   

>  <FINAL_SINGLE_POINT_ENERGY>  (410) 
0

>  <NONCOV_INTER_ENERGY_QM>  (410) 
0

>  <FF_Energy>  (410) 
-0.47

>  <QM_Energy>  (410) 
-8.31

>  <source>  (410) 
ACET_MBZ_00

>  <Index>  (410) 
14899

$$$$
ACET-pdb2hp7-A-GLU-221:MBZ-pdb2hp7-A-PHE-217
     RDKit          3D

 22 21  0  0  0  0  0  0  0  0999 V2000
    1.3751   -1.3269    3.1502 C   0  0  0  0  0  0  0  0  0  0  0  0
    0.5961   -1.8385    2.8380 H   0  0  0  0  0  0  0  0  0  0  0  0
    1.4472   -0.4521    2.7080 H   0  0  0  0  0  0  0  0  0  0  0  0
    1.2750   -1.1653    4.2234 H   0  0  0  0  0  0  0  0  0  0  0  0
    2.6230   -2.1277    2.7777 C   0  0  0  0  0  0  0  0  0  0  0  0
    3.2167   -1.8714    1.7109 O   0  0  0  0  0  1  0  0  0  0  0  0
    3.0068   -3.0296    3.5463 O   0  0  0  0  0  0  0  0  0  0  0  0
   -0.0006    2.8753    0.0536 C   0  0  0  0  0  0  0  0  0  0  0  0
   -0.6610    3.2123   -0.6009 H   0  0  0  0  0  0  0  0  0  0  0  0
    0.9109    3.1975   -0.1588 H   0  0  0  0  0  0  0  0  0  0  0  0
   -0.2717    3.2760    1.0303 H   0  0  0  0  0  0  0  0  0  0  0  0
    0.0002    1.3909    0.0014 C   0  0  0  0  0  0  0  0  0  0  0  0
   -1.1928    0.6855   -0.0016 C   0  0  0  0  0  0  0  0  0  0  0  0
   -2.0605    1.1770   -0.0058 H   0  0  0  0  0  0  0  0  0  0  0  0
   -1.1967   -0.6986   -0.0000 C   0  0  0  0  0  0  0  0  0  0  0  0
   -2.0747   -1.1928    0.0003 H   0  0  0  0  0  0  0  0  0  0  0  0
   -0.0033   -1.3829    0.0024 C   0  0  0  0  0  0  0  0  0  0  0  0
    0.0007   -2.3856    0.0055 H   0  0  0  0  0  0  0  0  0  0  0  0
    1.1967   -0.6867    0.0000 C   0  0  0  0  0  0  0  0  0  0  0  0
    2.0773   -1.1911    0.0013 H   0  0  0  0  0  0  0  0  0  0  0  0
    1.1958    0.6918   -0.0022 C   0  0  0  0  0  0  0  0  0  0  0  0
    2.0619    1.1925   -0.0069 H   0  0  0  0  0  0  0  0  0  0  0  0
  1  5  1  0
  5  6  1  0
  5  7  2  0
  1  2  1  0
  1  3  1  0
  1  4  1  0
  8 12  1  0
 12 13  2  0
 13 15  1  0
 15 17  2  0
 17 19  1  0
 19 21  2  0
 21 12  1  0
  8  9  1  0
  8 10  1  0
  8 11  1  0
 13 14  1  0
 15 16  1  0
 17 18  1  0
 19 20  1  0
 21 22  1  0
M  CHG  1   6  -1
M  END
>  <PDB_ID>  (411) 
pdb2hp7

>  <RESIDUE_NAME>  (411) 
GLU   PHE

>  <FRAG_NAME>  (411) 
ACET   MBZ

>  <FRAG_ATOM_NUM>  (411) 
fragi: 7  fragj: 15

>  <atom.prop.CHAIN_ID>  (411) 
A A A A A A A Z Z Z Z Z Z Z Z Z Z Z Z Z Z Z

>  <atom.prop.IS_HEAVY_ATOM>  (411) 
1 0 0 0 1 1 1 1 0 0 0 1 1 0 1 0 1 0 1 0 1 0

>  <DIFUSE_FUNC_ATOM>  (411) 
atom 6   atom 7   

>  <FINAL_SINGLE_POINT_ENERGY>  (411) 
0

>  <NONCOV_INTER_ENERGY_QM>  (411) 
0

>  <FF_Energy>  (411) 
1.74

>  <QM_Energy>  (411) 
-3.46

>  <source>  (411) 
ACET_MBZ_00

>  <Index>  (411) 
15005

$$$$
ACET-pdb1gju-A-GLU-454:MBZ-pdb1gju-A-PHE-575
     RDKit          3D

 22 21  0  0  0  0  0  0  0  0999 V2000
   -3.1058    0.1965    3.0591 C   0  0  0  0  0  0  0  0  0  0  0  0
   -3.3618   -0.0595    2.1474 H   0  0  0  0  0  0  0  0  0  0  0  0
   -3.8799    0.3043    3.6518 H   0  0  0  0  0  0  0  0  0  0  0  0
   -2.4687   -0.5880    3.4672 H   0  0  0  0  0  0  0  0  0  0  0  0
   -2.4001    1.5481    2.9758 C   0  0  0  0  0  0  0  0  0  0  0  0
   -3.0632    2.5629    2.6728 O   0  0  0  0  0  1  0  0  0  0  0  0
   -1.1791    1.5993    3.2100 O   0  0  0  0  0  0  0  0  0  0  0  0
   -0.0045    2.9383    0.0077 C   0  0  0  0  0  0  0  0  0  0  0  0
    0.8456    3.2409    0.4123 H   0  0  0  0  0  0  0  0  0  0  0  0
   -0.7832    3.2363    0.5395 H   0  0  0  0  0  0  0  0  0  0  0  0
   -0.0826    3.3995   -0.9768 H   0  0  0  0  0  0  0  0  0  0  0  0
   -0.0013    1.4164   -0.0008 C   0  0  0  0  0  0  0  0  0  0  0  0
   -1.2042    0.7009   -0.0016 C   0  0  0  0  0  0  0  0  0  0  0  0
   -2.0701    1.1914   -0.0048 H   0  0  0  0  0  0  0  0  0  0  0  0
   -1.2146   -0.6996    0.0000 C   0  0  0  0  0  0  0  0  0  0  0  0
   -2.0866   -1.1915    0.0019 H   0  0  0  0  0  0  0  0  0  0  0  0
    0.0006   -1.4107    0.0004 C   0  0  0  0  0  0  0  0  0  0  0  0
   -0.0089   -2.4028    0.0001 H   0  0  0  0  0  0  0  0  0  0  0  0
    1.2146   -0.7088    0.0000 C   0  0  0  0  0  0  0  0  0  0  0  0
    2.0915   -1.1991   -0.0001 H   0  0  0  0  0  0  0  0  0  0  0  0
    1.2048    0.7019    0.0020 C   0  0  0  0  0  0  0  0  0  0  0  0
    2.0706    1.1941    0.0046 H   0  0  0  0  0  0  0  0  0  0  0  0
  1  5  1  0
  5  6  1  0
  5  7  2  0
  1  2  1  0
  1  3  1  0
  1  4  1  0
  8 12  1  0
 12 13  2  0
 13 15  1  0
 15 17  2  0
 17 19  1  0
 19 21  2  0
 21 12  1  0
  8  9  1  0
  8 10  1  0
  8 11  1  0
 13 14  1  0
 15 16  1  0
 17 18  1  0
 19 20  1  0
 21 22  1  0
M  CHG  1   6  -1
M  END
>  <PDB_ID>  (412) 
pdb1gju

>  <RESIDUE_NAME>  (412) 
GLU   PHE

>  <FRAG_NAME>  (412) 
ACET   MBZ

>  <FRAG_ATOM_NUM>  (412) 
fragi: 7  fragj: 15

>  <atom.prop.CHAIN_ID>  (412) 
A A A A A A A Z Z Z Z Z Z Z Z Z Z Z Z Z Z Z

>  <atom.prop.IS_HEAVY_ATOM>  (412) 
1 0 0 0 1 1 1 1 0 0 0 1 1 0 1 0 1 0 1 0 1 0

>  <DIFUSE_FUNC_ATOM>  (412) 
atom 6   atom 7   

>  <FINAL_SINGLE_POINT_ENERGY>  (412) 
0

>  <NONCOV_INTER_ENERGY_QM>  (412) 
0

>  <FF_Energy>  (412) 
0.89

>  <QM_Energy>  (412) 
-4.66

>  <source>  (412) 
ACET_MBZ_00

>  <Index>  (412) 
15009

$$$$
ACET-pdb2hpg-B-GLU-216:MBZ-pdb2hpg-B-PHE-240
     RDKit          3D

 22 21  0  0  0  0  0  0  0  0999 V2000
    5.4801   -0.6152   -1.1996 C   0  0  0  0  0  0  0  0  0  0  0  0
    5.2928    0.0729   -1.8930 H   0  0  0  0  0  0  0  0  0  0  0  0
    5.0933   -1.4916   -1.4700 H   0  0  0  0  0  0  0  0  0  0  0  0
    6.5503   -0.6990   -1.0103 H   0  0  0  0  0  0  0  0  0  0  0  0
    4.7479   -0.1928    0.0184 C   0  0  0  0  0  0  0  0  0  0  0  0
    4.8697   -0.8376    1.1051 O   0  0  0  0  0  1  0  0  0  0  0  0
    4.0265    0.7908   -0.1638 O   0  0  0  0  0  0  0  0  0  0  0  0
    0.0430    2.9112    0.0348 C   0  0  0  0  0  0  0  0  0  0  0  0
    0.9909    3.1960   -0.0356 H   0  0  0  0  0  0  0  0  0  0  0  0
   -0.3496    3.2051    0.8975 H   0  0  0  0  0  0  0  0  0  0  0  0
   -0.5051    3.4220   -0.7569 H   0  0  0  0  0  0  0  0  0  0  0  0
    0.0015    1.3989   -0.0105 C   0  0  0  0  0  0  0  0  0  0  0  0
   -1.1855    0.6989    0.0139 C   0  0  0  0  0  0  0  0  0  0  0  0
   -2.0542    1.1923    0.0403 H   0  0  0  0  0  0  0  0  0  0  0  0
   -1.1888   -0.6765   -0.0000 C   0  0  0  0  0  0  0  0  0  0  0  0
   -2.0756   -1.1719   -0.0013 H   0  0  0  0  0  0  0  0  0  0  0  0
   -0.0047   -1.3847   -0.0106 C   0  0  0  0  0  0  0  0  0  0  0  0
   -0.0253   -2.3866   -0.0266 H   0  0  0  0  0  0  0  0  0  0  0  0
    1.1888   -0.7102   -0.0000 C   0  0  0  0  0  0  0  0  0  0  0  0
    2.0696   -1.2107    0.0041 H   0  0  0  0  0  0  0  0  0  0  0  0
    1.1888    0.6737    0.0073 C   0  0  0  0  0  0  0  0  0  0  0  0
    2.0640    1.1681    0.0249 H   0  0  0  0  0  0  0  0  0  0  0  0
  1  5  1  0
  5  6  1  0
  5  7  2  0
  1  2  1  0
  1  3  1  0
  1  4  1  0
  8 12  1  0
 12 13  2  0
 13 15  1  0
 15 17  2  0
 17 19  1  0
 19 21  2  0
 21 12  1  0
  8  9  1  0
  8 10  1  0
  8 11  1  0
 13 14  1  0
 15 16  1  0
 17 18  1  0
 19 20  1  0
 21 22  1  0
M  CHG  1   6  -1
M  END
>  <PDB_ID>  (413) 
pdb2hpg

>  <RESIDUE_NAME>  (413) 
GLU   PHE

>  <FRAG_NAME>  (413) 
ACET   MBZ

>  <FRAG_ATOM_NUM>  (413) 
fragi: 7  fragj: 15

>  <atom.prop.CHAIN_ID>  (413) 
A A A A A A A Z Z Z Z Z Z Z Z Z Z Z Z Z Z Z

>  <atom.prop.IS_HEAVY_ATOM>  (413) 
1 0 0 0 1 1 1 1 0 0 0 1 1 0 1 0 1 0 1 0 1 0

>  <DIFUSE_FUNC_ATOM>  (413) 
atom 6   atom 7   

>  <FINAL_SINGLE_POINT_ENERGY>  (413) 
0

>  <NONCOV_INTER_ENERGY_QM>  (413) 
0

>  <FF_Energy>  (413) 
5.25

>  <QM_Energy>  (413) 
-6.19

>  <source>  (413) 
ACET_MBZ_00

>  <Index>  (413) 
15018

$$$$
ACET-pdb2hqe-B-ASP-740:MBZ-pdb2hqe-B-PHE-682
     RDKit          3D

 22 21  0  0  0  0  0  0  0  0999 V2000
   -0.4250   -2.8057   -2.1649 C   0  0  0  0  0  0  0  0  0  0  0  0
   -0.5673   -3.4585   -1.4337 H   0  0  0  0  0  0  0  0  0  0  0  0
    0.1117   -2.0351   -1.8520 H   0  0  0  0  0  0  0  0  0  0  0  0
    0.1292   -3.3040   -2.9604 H   0  0  0  0  0  0  0  0  0  0  0  0
   -1.7712   -2.3037   -2.6416 C   0  0  0  0  0  0  0  0  0  0  0  0
   -1.8174   -1.7335   -3.7459 O   0  0  0  0  0  1  0  0  0  0  0  0
   -2.7741   -2.5176   -1.9469 O   0  0  0  0  0  0  0  0  0  0  0  0
    0.0008    2.8331   -0.0152 C   0  0  0  0  0  0  0  0  0  0  0  0
    0.1566    3.1353   -0.9483 H   0  0  0  0  0  0  0  0  0  0  0  0
    0.7208    3.1611    0.5844 H   0  0  0  0  0  0  0  0  0  0  0  0
   -0.9359    3.2767    0.3221 H   0  0  0  0  0  0  0  0  0  0  0  0
    0.0003    1.3630    0.0097 C   0  0  0  0  0  0  0  0  0  0  0  0
   -1.1922    0.6673   -0.0123 C   0  0  0  0  0  0  0  0  0  0  0  0
   -2.0542    1.1850   -0.0389 H   0  0  0  0  0  0  0  0  0  0  0  0
   -1.2036   -0.6705    0.0000 C   0  0  0  0  0  0  0  0  0  0  0  0
   -2.0726   -1.1875    0.0123 H   0  0  0  0  0  0  0  0  0  0  0  0
   -0.0006   -1.3625   -0.0020 C   0  0  0  0  0  0  0  0  0  0  0  0
   -0.0033   -2.3634   -0.0050 H   0  0  0  0  0  0  0  0  0  0  0  0
    1.2036   -0.6690   -0.0000 C   0  0  0  0  0  0  0  0  0  0  0  0
    2.0781   -1.1893   -0.0002 H   0  0  0  0  0  0  0  0  0  0  0  0
    1.1924    0.6717    0.0045 C   0  0  0  0  0  0  0  0  0  0  0  0
    2.0559    1.1938    0.0036 H   0  0  0  0  0  0  0  0  0  0  0  0
  1  5  1  0
  5  6  1  0
  5  7  2  0
  1  2  1  0
  1  3  1  0
  1  4  1  0
  8 12  1  0
 12 13  2  0
 13 15  1  0
 15 17  2  0
 17 19  1  0
 19 21  2  0
 21 12  1  0
  8  9  1  0
  8 10  1  0
  8 11  1  0
 13 14  1  0
 15 16  1  0
 17 18  1  0
 19 20  1  0
 21 22  1  0
M  CHG  1   6  -1
M  END
>  <PDB_ID>  (414) 
pdb2hqe

>  <RESIDUE_NAME>  (414) 
ASP   PHE

>  <FRAG_NAME>  (414) 
ACET   MBZ

>  <FRAG_ATOM_NUM>  (414) 
fragi: 7  fragj: 15

>  <atom.prop.CHAIN_ID>  (414) 
A A A A A A A Z Z Z Z Z Z Z Z Z Z Z Z Z Z Z

>  <atom.prop.IS_HEAVY_ATOM>  (414) 
1 0 0 0 1 1 1 1 0 0 0 1 1 0 1 0 1 0 1 0 1 0

>  <DIFUSE_FUNC_ATOM>  (414) 
atom 6   atom 7   

>  <FINAL_SINGLE_POINT_ENERGY>  (414) 
0

>  <NONCOV_INTER_ENERGY_QM>  (414) 
0

>  <FF_Energy>  (414) 
41.8

>  <QM_Energy>  (414) 
8.74

>  <source>  (414) 
ACET_MBZ_00

>  <Index>  (414) 
15064

$$$$
ACET-pdb2hqe-A-ASP-740:MBZ-pdb2hqe-A-PHE-682
     RDKit          3D

 22 21  0  0  0  0  0  0  0  0999 V2000
   -0.0232   -2.9972   -2.3477 C   0  0  0  0  0  0  0  0  0  0  0  0
   -0.0769   -3.6306   -1.5847 H   0  0  0  0  0  0  0  0  0  0  0  0
    0.4939   -2.1892   -2.0963 H   0  0  0  0  0  0  0  0  0  0  0  0
    0.5087   -3.4956   -3.1581 H   0  0  0  0  0  0  0  0  0  0  0  0
   -1.4244   -2.5819   -2.7419 C   0  0  0  0  0  0  0  0  0  0  0  0
   -1.5829   -1.9478   -3.8008 O   0  0  0  0  0  1  0  0  0  0  0  0
   -2.3664   -2.8781   -1.9757 O   0  0  0  0  0  0  0  0  0  0  0  0
    0.0016    2.8406   -0.0205 C   0  0  0  0  0  0  0  0  0  0  0  0
    0.1286    3.1390   -0.9582 H   0  0  0  0  0  0  0  0  0  0  0  0
    0.7425    3.1671    0.5548 H   0  0  0  0  0  0  0  0  0  0  0  0
   -0.9216    3.2892    0.3460 H   0  0  0  0  0  0  0  0  0  0  0  0
    0.0000    1.3666    0.0072 C   0  0  0  0  0  0  0  0  0  0  0  0
   -1.1935    0.6687   -0.0137 C   0  0  0  0  0  0  0  0  0  0  0  0
   -2.0552    1.1831   -0.0407 H   0  0  0  0  0  0  0  0  0  0  0  0
   -1.2019   -0.6743   -0.0000 C   0  0  0  0  0  0  0  0  0  0  0  0
   -2.0718   -1.1906    0.0048 H   0  0  0  0  0  0  0  0  0  0  0  0
    0.0011   -1.3643    0.0093 C   0  0  0  0  0  0  0  0  0  0  0  0
   -0.0014   -2.3653    0.0227 H   0  0  0  0  0  0  0  0  0  0  0  0
    1.2019   -0.6706   -0.0000 C   0  0  0  0  0  0  0  0  0  0  0  0
    2.0781   -1.1890   -0.0031 H   0  0  0  0  0  0  0  0  0  0  0  0
    1.1924    0.6739   -0.0028 C   0  0  0  0  0  0  0  0  0  0  0  0
    2.0560    1.1935   -0.0135 H   0  0  0  0  0  0  0  0  0  0  0  0
  1  5  1  0
  5  6  1  0
  5  7  2  0
  1  2  1  0
  1  3  1  0
  1  4  1  0
  8 12  1  0
 12 13  2  0
 13 15  1  0
 15 17  2  0
 17 19  1  0
 19 21  2  0
 21 12  1  0
  8  9  1  0
  8 10  1  0
  8 11  1  0
 13 14  1  0
 15 16  1  0
 17 18  1  0
 19 20  1  0
 21 22  1  0
M  CHG  1   6  -1
M  END
>  <PDB_ID>  (415) 
pdb2hqe

>  <RESIDUE_NAME>  (415) 
ASP   PHE

>  <FRAG_NAME>  (415) 
ACET   MBZ

>  <FRAG_ATOM_NUM>  (415) 
fragi: 7  fragj: 15

>  <atom.prop.CHAIN_ID>  (415) 
A A A A A A A Z Z Z Z Z Z Z Z Z Z Z Z Z Z Z

>  <atom.prop.IS_HEAVY_ATOM>  (415) 
1 0 0 0 1 1 1 1 0 0 0 1 1 0 1 0 1 0 1 0 1 0

>  <DIFUSE_FUNC_ATOM>  (415) 
atom 6   atom 7   

>  <FINAL_SINGLE_POINT_ENERGY>  (415) 
0

>  <NONCOV_INTER_ENERGY_QM>  (415) 
0

>  <FF_Energy>  (415) 
7.99

>  <QM_Energy>  (415) 
0.29

>  <source>  (415) 
ACET_MBZ_00

>  <Index>  (415) 
15069

$$$$
ACET-pdb1gwc-A-ASP-162:MBZ-pdb1gwc-A-PHE-153
     RDKit          3D

 22 21  0  0  0  0  0  0  0  0999 V2000
    4.5072    3.8016    1.4700 C   0  0  0  0  0  0  0  0  0  0  0  0
    4.6489    4.7119    1.8474 H   0  0  0  0  0  0  0  0  0  0  0  0
    5.3743    3.4111    1.1785 H   0  0  0  0  0  0  0  0  0  0  0  0
    4.0946    3.1682    2.2554 H   0  0  0  0  0  0  0  0  0  0  0  0
    3.5948    3.9014    0.2882 C   0  0  0  0  0  0  0  0  0  0  0  0
    3.5657    2.9057   -0.4919 O   0  0  0  0  0  1  0  0  0  0  0  0
    2.9269    4.9470    0.1161 O   0  0  0  0  0  0  0  0  0  0  0  0
    0.0317    2.8810    0.0507 C   0  0  0  0  0  0  0  0  0  0  0  0
    0.8777    3.1657    0.4840 H   0  0  0  0  0  0  0  0  0  0  0  0
   -0.7521    3.1734    0.5846 H   0  0  0  0  0  0  0  0  0  0  0  0
   -0.0273    3.3408   -0.9359 H   0  0  0  0  0  0  0  0  0  0  0  0
    0.0228    1.3814    0.0192 C   0  0  0  0  0  0  0  0  0  0  0  0
   -1.1695    0.6812   -0.0124 C   0  0  0  0  0  0  0  0  0  0  0  0
   -2.0342    1.1816   -0.0466 H   0  0  0  0  0  0  0  0  0  0  0  0
   -1.1745   -0.6856    0.0000 C   0  0  0  0  0  0  0  0  0  0  0  0
   -2.0841   -1.1655    0.0375 H   0  0  0  0  0  0  0  0  0  0  0  0
   -0.0407   -1.3765   -0.0336 C   0  0  0  0  0  0  0  0  0  0  0  0
   -0.0291   -2.3787   -0.0835 H   0  0  0  0  0  0  0  0  0  0  0  0
    1.1745   -0.6908   -0.0000 C   0  0  0  0  0  0  0  0  0  0  0  0
    2.0465   -1.2067    0.0060 H   0  0  0  0  0  0  0  0  0  0  0  0
    1.1874    0.6903    0.0267 C   0  0  0  0  0  0  0  0  0  0  0  0
    2.0674    1.1707    0.0504 H   0  0  0  0  0  0  0  0  0  0  0  0
  1  5  1  0
  5  6  1  0
  5  7  2  0
  1  2  1  0
  1  3  1  0
  1  4  1  0
  8 12  1  0
 12 13  2  0
 13 15  1  0
 15 17  2  0
 17 19  1  0
 19 21  2  0
 21 12  1  0
  8  9  1  0
  8 10  1  0
  8 11  1  0
 13 14  1  0
 15 16  1  0
 17 18  1  0
 19 20  1  0
 21 22  1  0
M  CHG  1   6  -1
M  END
>  <PDB_ID>  (416) 
pdb1gwc

>  <RESIDUE_NAME>  (416) 
ASP   PHE

>  <FRAG_NAME>  (416) 
ACET   MBZ

>  <FRAG_ATOM_NUM>  (416) 
fragi: 7  fragj: 15

>  <atom.prop.CHAIN_ID>  (416) 
A A A A A A A Z Z Z Z Z Z Z Z Z Z Z Z Z Z Z

>  <atom.prop.IS_HEAVY_ATOM>  (416) 
1 0 0 0 1 1 1 1 0 0 0 1 1 0 1 0 1 0 1 0 1 0

>  <DIFUSE_FUNC_ATOM>  (416) 
atom 6   atom 7   

>  <FINAL_SINGLE_POINT_ENERGY>  (416) 
0

>  <NONCOV_INTER_ENERGY_QM>  (416) 
0

>  <FF_Energy>  (416) 
-2.15

>  <QM_Energy>  (416) 
-8.41

>  <source>  (416) 
ACET_MBZ_00

>  <Index>  (416) 
15103

$$$$
ACET-pdb2hpw-A-ASP-156:MBZ-pdb2hpw-A-PHE-185
     RDKit          3D

 22 21  0  0  0  0  0  0  0  0999 V2000
   -4.0436   -2.9651    0.5455 C   0  0  0  0  0  0  0  0  0  0  0  0
   -4.7194   -2.3300    0.8896 H   0  0  0  0  0  0  0  0  0  0  0  0
   -3.1402   -2.7455    0.8787 H   0  0  0  0  0  0  0  0  0  0  0  0
   -4.3038   -3.9641    0.8956 H   0  0  0  0  0  0  0  0  0  0  0  0
   -4.0239   -2.8488   -1.0106 C   0  0  0  0  0  0  0  0  0  0  0  0
   -4.4980   -3.7816   -1.7070 O   0  0  0  0  0  1  0  0  0  0  0  0
   -3.5269   -1.8189   -1.5185 O   0  0  0  0  0  0  0  0  0  0  0  0
   -0.0167    2.9087    0.0245 C   0  0  0  0  0  0  0  0  0  0  0  0
   -0.6804    3.2222   -0.6324 H   0  0  0  0  0  0  0  0  0  0  0  0
    0.8910    3.2267   -0.1900 H   0  0  0  0  0  0  0  0  0  0  0  0
   -0.2923    3.3155    0.9974 H   0  0  0  0  0  0  0  0  0  0  0  0
   -0.0045    1.4079   -0.0028 C   0  0  0  0  0  0  0  0  0  0  0  0
   -1.2005    0.6972   -0.0047 C   0  0  0  0  0  0  0  0  0  0  0  0
   -2.0682    1.1805   -0.0110 H   0  0  0  0  0  0  0  0  0  0  0  0
   -1.2022   -0.7037   -0.0000 C   0  0  0  0  0  0  0  0  0  0  0  0
   -2.0744   -1.1973    0.0042 H   0  0  0  0  0  0  0  0  0  0  0  0
    0.0087   -1.3970    0.0002 C   0  0  0  0  0  0  0  0  0  0  0  0
   -0.0025   -2.3995    0.0006 H   0  0  0  0  0  0  0  0  0  0  0  0
    1.2022   -0.7099    0.0000 C   0  0  0  0  0  0  0  0  0  0  0  0
    2.0880   -1.1915   -0.0037 H   0  0  0  0  0  0  0  0  0  0  0  0
    1.1963    0.7056    0.0073 C   0  0  0  0  0  0  0  0  0  0  0  0
    2.0634    1.1917    0.0189 H   0  0  0  0  0  0  0  0  0  0  0  0
  1  5  1  0
  5  6  1  0
  5  7  2  0
  1  2  1  0
  1  3  1  0
  1  4  1  0
  8 12  1  0
 12 13  2  0
 13 15  1  0
 15 17  2  0
 17 19  1  0
 19 21  2  0
 21 12  1  0
  8  9  1  0
  8 10  1  0
  8 11  1  0
 13 14  1  0
 15 16  1  0
 17 18  1  0
 19 20  1  0
 21 22  1  0
M  CHG  1   6  -1
M  END
>  <PDB_ID>  (417) 
pdb2hpw

>  <RESIDUE_NAME>  (417) 
ASP   PHE

>  <FRAG_NAME>  (417) 
ACET   MBZ

>  <FRAG_ATOM_NUM>  (417) 
fragi: 7  fragj: 15

>  <atom.prop.CHAIN_ID>  (417) 
A A A A A A A Z Z Z Z Z Z Z Z Z Z Z Z Z Z Z

>  <atom.prop.IS_HEAVY_ATOM>  (417) 
1 0 0 0 1 1 1 1 0 0 0 1 1 0 1 0 1 0 1 0 1 0

>  <DIFUSE_FUNC_ATOM>  (417) 
atom 6   atom 7   

>  <FINAL_SINGLE_POINT_ENERGY>  (417) 
0

>  <NONCOV_INTER_ENERGY_QM>  (417) 
0

>  <FF_Energy>  (417) 
1.37

>  <QM_Energy>  (417) 
-3.7

>  <source>  (417) 
ACET_MBZ_00

>  <Index>  (417) 
15106

$$$$
ACET-pdb2hqt-B-ASP-69:MBZ-pdb2hqt-B-PHE-58
     RDKit          3D

 22 21  0  0  0  0  0  0  0  0999 V2000
    4.0349    3.4654   -3.3252 C   0  0  0  0  0  0  0  0  0  0  0  0
    3.6567    3.0910   -4.1665 H   0  0  0  0  0  0  0  0  0  0  0  0
    4.6260    2.7959   -2.8867 H   0  0  0  0  0  0  0  0  0  0  0  0
    4.6408    4.3337   -3.5842 H   0  0  0  0  0  0  0  0  0  0  0  0
    2.8859    3.7917   -2.3807 C   0  0  0  0  0  0  0  0  0  0  0  0
    3.1275    3.8083   -1.1561 O   0  0  0  0  0  1  0  0  0  0  0  0
    1.7453    3.9917   -2.8549 O   0  0  0  0  0  0  0  0  0  0  0  0
    0.0272    2.8851    0.0442 C   0  0  0  0  0  0  0  0  0  0  0  0
   -0.8962    3.2180   -0.0040 H   0  0  0  0  0  0  0  0  0  0  0  0
    0.5806    3.2036   -0.7023 H   0  0  0  0  0  0  0  0  0  0  0  0
    0.4686    3.2542    0.9699 H   0  0  0  0  0  0  0  0  0  0  0  0
   -0.0101    1.3889   -0.0046 C   0  0  0  0  0  0  0  0  0  0  0  0
   -1.1911    0.6710   -0.0047 C   0  0  0  0  0  0  0  0  0  0  0  0
   -2.0644    1.1755   -0.0091 H   0  0  0  0  0  0  0  0  0  0  0  0
   -1.1945   -0.6789   -0.0000 C   0  0  0  0  0  0  0  0  0  0  0  0
   -2.0729   -1.1898    0.0019 H   0  0  0  0  0  0  0  0  0  0  0  0
   -0.0037   -1.3735    0.0039 C   0  0  0  0  0  0  0  0  0  0  0  0
   -0.0131   -2.3773    0.0092 H   0  0  0  0  0  0  0  0  0  0  0  0
    1.1945   -0.6917    0.0000 C   0  0  0  0  0  0  0  0  0  0  0  0
    2.0744   -1.2023   -0.0050 H   0  0  0  0  0  0  0  0  0  0  0  0
    1.2050    0.6841    0.0054 C   0  0  0  0  0  0  0  0  0  0  0  0
    2.0593    1.1880    0.0153 H   0  0  0  0  0  0  0  0  0  0  0  0
  1  5  1  0
  5  6  1  0
  5  7  2  0
  1  2  1  0
  1  3  1  0
  1  4  1  0
  8 12  1  0
 12 13  2  0
 13 15  1  0
 15 17  2  0
 17 19  1  0
 19 21  2  0
 21 12  1  0
  8  9  1  0
  8 10  1  0
  8 11  1  0
 13 14  1  0
 15 16  1  0
 17 18  1  0
 19 20  1  0
 21 22  1  0
M  CHG  1   6  -1
M  END
>  <PDB_ID>  (418) 
pdb2hqt

>  <RESIDUE_NAME>  (418) 
ASP   PHE

>  <FRAG_NAME>  (418) 
ACET   MBZ

>  <FRAG_ATOM_NUM>  (418) 
fragi: 7  fragj: 15

>  <atom.prop.CHAIN_ID>  (418) 
A A A A A A A Z Z Z Z Z Z Z Z Z Z Z Z Z Z Z

>  <atom.prop.IS_HEAVY_ATOM>  (418) 
1 0 0 0 1 1 1 1 0 0 0 1 1 0 1 0 1 0 1 0 1 0

>  <DIFUSE_FUNC_ATOM>  (418) 
atom 6   atom 7   

>  <FINAL_SINGLE_POINT_ENERGY>  (418) 
0

>  <NONCOV_INTER_ENERGY_QM>  (418) 
0

>  <FF_Energy>  (418) 
-1.65

>  <QM_Energy>  (418) 
-7.91

>  <source>  (418) 
ACET_MBZ_00

>  <Index>  (418) 
15119

$$$$
ACET-pdb2hqt-C-ASP-69:MBZ-pdb2hqt-C-PHE-58
     RDKit          3D

 22 21  0  0  0  0  0  0  0  0999 V2000
    3.5463    3.5037   -3.7025 C   0  0  0  0  0  0  0  0  0  0  0  0
    3.1371    3.1196   -4.5189 H   0  0  0  0  0  0  0  0  0  0  0  0
    4.1728    2.8611   -3.2839 H   0  0  0  0  0  0  0  0  0  0  0  0
    4.1278    4.3731   -4.0089 H   0  0  0  0  0  0  0  0  0  0  0  0
    2.4567    3.8563   -2.7150 C   0  0  0  0  0  0  0  0  0  0  0  0
    2.7994    4.0912   -1.5347 O   0  0  0  0  0  1  0  0  0  0  0  0
    1.2550    3.9115   -3.1089 O   0  0  0  0  0  0  0  0  0  0  0  0
   -0.0061    2.9286    0.0316 C   0  0  0  0  0  0  0  0  0  0  0  0
   -0.9404    3.2293    0.0708 H   0  0  0  0  0  0  0  0  0  0  0  0
    0.4612    3.2559   -0.7676 H   0  0  0  0  0  0  0  0  0  0  0  0
    0.5112    3.3201    0.9075 H   0  0  0  0  0  0  0  0  0  0  0  0
   -0.0096    1.4085   -0.0222 C   0  0  0  0  0  0  0  0  0  0  0  0
   -1.2007    0.7035    0.0085 C   0  0  0  0  0  0  0  0  0  0  0  0
   -2.0711    1.1774    0.0355 H   0  0  0  0  0  0  0  0  0  0  0  0
   -1.2024   -0.7143   -0.0000 C   0  0  0  0  0  0  0  0  0  0  0  0
   -2.0707   -1.2015   -0.0043 H   0  0  0  0  0  0  0  0  0  0  0  0
    0.0133   -1.3948   -0.0006 C   0  0  0  0  0  0  0  0  0  0  0  0
    0.0088   -2.4003   -0.0024 H   0  0  0  0  0  0  0  0  0  0  0  0
    1.2024   -0.7047   -0.0000 C   0  0  0  0  0  0  0  0  0  0  0  0
    2.0904   -1.1896   -0.0085 H   0  0  0  0  0  0  0  0  0  0  0  0
    1.1970    0.7018    0.0143 C   0  0  0  0  0  0  0  0  0  0  0  0
    2.0602    1.1939    0.0498 H   0  0  0  0  0  0  0  0  0  0  0  0
  1  5  1  0
  5  6  1  0
  5  7  2  0
  1  2  1  0
  1  3  1  0
  1  4  1  0
  8 12  1  0
 12 13  2  0
 13 15  1  0
 15 17  2  0
 17 19  1  0
 19 21  2  0
 21 12  1  0
  8  9  1  0
  8 10  1  0
  8 11  1  0
 13 14  1  0
 15 16  1  0
 17 18  1  0
 19 20  1  0
 21 22  1  0
M  CHG  1   6  -1
M  END
>  <PDB_ID>  (419) 
pdb2hqt

>  <RESIDUE_NAME>  (419) 
ASP   PHE

>  <FRAG_NAME>  (419) 
ACET   MBZ

>  <FRAG_ATOM_NUM>  (419) 
fragi: 7  fragj: 15

>  <atom.prop.CHAIN_ID>  (419) 
A A A A A A A Z Z Z Z Z Z Z Z Z Z Z Z Z Z Z

>  <atom.prop.IS_HEAVY_ATOM>  (419) 
1 0 0 0 1 1 1 1 0 0 0 1 1 0 1 0 1 0 1 0 1 0

>  <DIFUSE_FUNC_ATOM>  (419) 
atom 6   atom 7   

>  <FINAL_SINGLE_POINT_ENERGY>  (419) 
0

>  <NONCOV_INTER_ENERGY_QM>  (419) 
0

>  <FF_Energy>  (419) 
-0.99

>  <QM_Energy>  (419) 
-7.17

>  <source>  (419) 
ACET_MBZ_00

>  <Index>  (419) 
15120

$$$$
ACET-pdb2hqt-D-ASP-69:MBZ-pdb2hqt-D-PHE-58
     RDKit          3D

 22 21  0  0  0  0  0  0  0  0999 V2000
    3.9628    3.2314   -3.6280 C   0  0  0  0  0  0  0  0  0  0  0  0
    3.5585    2.8621   -4.4595 H   0  0  0  0  0  0  0  0  0  0  0  0
    4.5276    2.5434   -3.1855 H   0  0  0  0  0  0  0  0  0  0  0  0
    4.6211    4.0479   -3.9246 H   0  0  0  0  0  0  0  0  0  0  0  0
    2.8849    3.6706   -2.6980 C   0  0  0  0  0  0  0  0  0  0  0  0
    3.1640    3.8010   -1.4891 O   0  0  0  0  0  1  0  0  0  0  0  0
    1.7547    3.8733   -3.1727 O   0  0  0  0  0  0  0  0  0  0  0  0
    0.0512    2.9012   -0.0500 C   0  0  0  0  0  0  0  0  0  0  0  0
   -0.8701    3.2369   -0.0916 H   0  0  0  0  0  0  0  0  0  0  0  0
    0.5922    3.1850   -0.8177 H   0  0  0  0  0  0  0  0  0  0  0  0
    0.5126    3.3072    0.8502 H   0  0  0  0  0  0  0  0  0  0  0  0
    0.0036    1.3952   -0.0382 C   0  0  0  0  0  0  0  0  0  0  0  0
   -1.1921    0.7050   -0.0006 C   0  0  0  0  0  0  0  0  0  0  0  0
   -2.0554    1.1917    0.0251 H   0  0  0  0  0  0  0  0  0  0  0  0
   -1.1953   -0.6913   -0.0000 C   0  0  0  0  0  0  0  0  0  0  0  0
   -2.0806   -1.1754   -0.0268 H   0  0  0  0  0  0  0  0  0  0  0  0
   -0.0136   -1.3793    0.0381 C   0  0  0  0  0  0  0  0  0  0  0  0
   -0.0166   -2.3846    0.0931 H   0  0  0  0  0  0  0  0  0  0  0  0
    1.1953   -0.7011    0.0000 C   0  0  0  0  0  0  0  0  0  0  0  0
    2.0670   -1.2161   -0.0270 H   0  0  0  0  0  0  0  0  0  0  0  0
    1.2021    0.6715    0.0007 C   0  0  0  0  0  0  0  0  0  0  0  0
    2.0685    1.1728    0.0285 H   0  0  0  0  0  0  0  0  0  0  0  0
  1  5  1  0
  5  6  1  0
  5  7  2  0
  1  2  1  0
  1  3  1  0
  1  4  1  0
  8 12  1  0
 12 13  2  0
 13 15  1  0
 15 17  2  0
 17 19  1  0
 19 21  2  0
 21 12  1  0
  8  9  1  0
  8 10  1  0
  8 11  1  0
 13 14  1  0
 15 16  1  0
 17 18  1  0
 19 20  1  0
 21 22  1  0
M  CHG  1   6  -1
M  END
>  <PDB_ID>  (420) 
pdb2hqt

>  <RESIDUE_NAME>  (420) 
ASP   PHE

>  <FRAG_NAME>  (420) 
ACET   MBZ

>  <FRAG_ATOM_NUM>  (420) 
fragi: 7  fragj: 15

>  <atom.prop.CHAIN_ID>  (420) 
A A A A A A A Z Z Z Z Z Z Z Z Z Z Z Z Z Z Z

>  <atom.prop.IS_HEAVY_ATOM>  (420) 
1 0 0 0 1 1 1 1 0 0 0 1 1 0 1 0 1 0 1 0 1 0

>  <DIFUSE_FUNC_ATOM>  (420) 
atom 6   atom 7   

>  <FINAL_SINGLE_POINT_ENERGY>  (420) 
0

>  <NONCOV_INTER_ENERGY_QM>  (420) 
0

>  <FF_Energy>  (420) 
-1.5

>  <QM_Energy>  (420) 
-7.21

>  <source>  (420) 
ACET_MBZ_00

>  <Index>  (420) 
15122

$$$$
ACET-pdb2hqt-F-ASP-69:MBZ-pdb2hqt-F-PHE-58
     RDKit          3D

 22 21  0  0  0  0  0  0  0  0999 V2000
    3.6689    3.8981   -3.5708 C   0  0  0  0  0  0  0  0  0  0  0  0
    3.3495    3.4428   -4.4000 H   0  0  0  0  0  0  0  0  0  0  0  0
    4.3637    3.3386   -3.1244 H   0  0  0  0  0  0  0  0  0  0  0  0
    4.1405    4.8343   -3.8697 H   0  0  0  0  0  0  0  0  0  0  0  0
    2.5037    4.0788   -2.6298 C   0  0  0  0  0  0  0  0  0  0  0  0
    2.7675    4.2769   -1.4056 O   0  0  0  0  0  1  0  0  0  0  0  0
    1.3511    3.9474   -3.1010 O   0  0  0  0  0  0  0  0  0  0  0  0
   -0.0189    2.8953    0.0148 C   0  0  0  0  0  0  0  0  0  0  0  0
   -0.9433    3.1995   -0.1512 H   0  0  0  0  0  0  0  0  0  0  0  0
    0.6013    3.2202   -0.6819 H   0  0  0  0  0  0  0  0  0  0  0  0
    0.3006    3.3301    0.9618 H   0  0  0  0  0  0  0  0  0  0  0  0
   -0.0048    1.3935   -0.0016 C   0  0  0  0  0  0  0  0  0  0  0  0
   -1.1859    0.6736    0.0177 C   0  0  0  0  0  0  0  0  0  0  0  0
   -2.0607    1.1666    0.0437 H   0  0  0  0  0  0  0  0  0  0  0  0
   -1.1891   -0.6988    0.0000 C   0  0  0  0  0  0  0  0  0  0  0  0
   -2.0691   -1.1958   -0.0192 H   0  0  0  0  0  0  0  0  0  0  0  0
   -0.0038   -1.3762    0.0101 C   0  0  0  0  0  0  0  0  0  0  0  0
    0.0010   -2.3835    0.0241 H   0  0  0  0  0  0  0  0  0  0  0  0
    1.1891   -0.6864   -0.0000 C   0  0  0  0  0  0  0  0  0  0  0  0
    2.0738   -1.1904    0.0136 H   0  0  0  0  0  0  0  0  0  0  0  0
    1.1946    0.6944   -0.0262 C   0  0  0  0  0  0  0  0  0  0  0  0
    2.0566    1.1913   -0.0635 H   0  0  0  0  0  0  0  0  0  0  0  0
  1  5  1  0
  5  6  1  0
  5  7  2  0
  1  2  1  0
  1  3  1  0
  1  4  1  0
  8 12  1  0
 12 13  2  0
 13 15  1  0
 15 17  2  0
 17 19  1  0
 19 21  2  0
 21 12  1  0
  8  9  1  0
  8 10  1  0
  8 11  1  0
 13 14  1  0
 15 16  1  0
 17 18  1  0
 19 20  1  0
 21 22  1  0
M  CHG  1   6  -1
M  END
>  <PDB_ID>  (421) 
pdb2hqt

>  <RESIDUE_NAME>  (421) 
ASP   PHE

>  <FRAG_NAME>  (421) 
ACET   MBZ

>  <FRAG_ATOM_NUM>  (421) 
fragi: 7  fragj: 15

>  <atom.prop.CHAIN_ID>  (421) 
A A A A A A A Z Z Z Z Z Z Z Z Z Z Z Z Z Z Z

>  <atom.prop.IS_HEAVY_ATOM>  (421) 
1 0 0 0 1 1 1 1 0 0 0 1 1 0 1 0 1 0 1 0 1 0

>  <DIFUSE_FUNC_ATOM>  (421) 
atom 6   atom 7   

>  <FINAL_SINGLE_POINT_ENERGY>  (421) 
0

>  <NONCOV_INTER_ENERGY_QM>  (421) 
0

>  <FF_Energy>  (421) 
-1.1

>  <QM_Energy>  (421) 
-7.1

>  <source>  (421) 
ACET_MBZ_00

>  <Index>  (421) 
15125

$$$$
ACET-pdb2hqt-G-ASP-69:MBZ-pdb2hqt-G-PHE-58
     RDKit          3D

 22 21  0  0  0  0  0  0  0  0999 V2000
    4.0328    3.5844   -3.2712 C   0  0  0  0  0  0  0  0  0  0  0  0
    3.6555    3.1882   -4.1033 H   0  0  0  0  0  0  0  0  0  0  0  0
    4.6503    2.9391   -2.8326 H   0  0  0  0  0  0  0  0  0  0  0  0
    4.6099    4.4660   -3.5502 H   0  0  0  0  0  0  0  0  0  0  0  0
    2.9012    3.8994   -2.3241 C   0  0  0  0  0  0  0  0  0  0  0  0
    3.1554    4.0449   -1.0855 O   0  0  0  0  0  1  0  0  0  0  0  0
    1.7564    4.0308   -2.8297 O   0  0  0  0  0  0  0  0  0  0  0  0
    0.0135    2.8794    0.0114 C   0  0  0  0  0  0  0  0  0  0  0  0
   -0.9125    3.2130   -0.0382 H   0  0  0  0  0  0  0  0  0  0  0  0
    0.5607    3.2033   -0.7422 H   0  0  0  0  0  0  0  0  0  0  0  0
    0.4527    3.2790    0.9255 H   0  0  0  0  0  0  0  0  0  0  0  0
   -0.0101    1.3955   -0.0179 C   0  0  0  0  0  0  0  0  0  0  0  0
   -1.1735    0.6972    0.0072 C   0  0  0  0  0  0  0  0  0  0  0  0
   -2.0555    1.1757    0.0306 H   0  0  0  0  0  0  0  0  0  0  0  0
   -1.1782   -0.6919   -0.0000 C   0  0  0  0  0  0  0  0  0  0  0  0
   -2.0667   -1.1769   -0.0144 H   0  0  0  0  0  0  0  0  0  0  0  0
   -0.0016   -1.3819    0.0135 C   0  0  0  0  0  0  0  0  0  0  0  0
   -0.0063   -2.3860    0.0322 H   0  0  0  0  0  0  0  0  0  0  0  0
    1.1782   -0.6956   -0.0000 C   0  0  0  0  0  0  0  0  0  0  0  0
    2.0682   -1.2003   -0.0066 H   0  0  0  0  0  0  0  0  0  0  0  0
    1.1852    0.6767   -0.0027 C   0  0  0  0  0  0  0  0  0  0  0  0
    2.0530    1.1767    0.0051 H   0  0  0  0  0  0  0  0  0  0  0  0
  1  5  1  0
  5  6  1  0
  5  7  2  0
  1  2  1  0
  1  3  1  0
  1  4  1  0
  8 12  1  0
 12 13  2  0
 13 15  1  0
 15 17  2  0
 17 19  1  0
 19 21  2  0
 21 12  1  0
  8  9  1  0
  8 10  1  0
  8 11  1  0
 13 14  1  0
 15 16  1  0
 17 18  1  0
 19 20  1  0
 21 22  1  0
M  CHG  1   6  -1
M  END
>  <PDB_ID>  (422) 
pdb2hqt

>  <RESIDUE_NAME>  (422) 
ASP   PHE

>  <FRAG_NAME>  (422) 
ACET   MBZ

>  <FRAG_ATOM_NUM>  (422) 
fragi: 7  fragj: 15

>  <atom.prop.CHAIN_ID>  (422) 
A A A A A A A Z Z Z Z Z Z Z Z Z Z Z Z Z Z Z

>  <atom.prop.IS_HEAVY_ATOM>  (422) 
1 0 0 0 1 1 1 1 0 0 0 1 1 0 1 0 1 0 1 0 1 0

>  <DIFUSE_FUNC_ATOM>  (422) 
atom 6   atom 7   

>  <FINAL_SINGLE_POINT_ENERGY>  (422) 
0

>  <NONCOV_INTER_ENERGY_QM>  (422) 
0

>  <FF_Energy>  (422) 
-1.56

>  <QM_Energy>  (422) 
-7.51

>  <source>  (422) 
ACET_MBZ_00

>  <Index>  (422) 
15127

$$$$
ACET-pdb2hqt-H-ASP-69:MBZ-pdb2hqt-H-PHE-58
     RDKit          3D

 22 21  0  0  0  0  0  0  0  0999 V2000
    4.0800    3.2518   -3.4033 C   0  0  0  0  0  0  0  0  0  0  0  0
    3.6621    2.8725   -4.2259 H   0  0  0  0  0  0  0  0  0  0  0  0
    4.6550    2.5636   -2.9670 H   0  0  0  0  0  0  0  0  0  0  0  0
    4.7158    4.0857   -3.7006 H   0  0  0  0  0  0  0  0  0  0  0  0
    2.9939    3.6561   -2.4488 C   0  0  0  0  0  0  0  0  0  0  0  0
    3.2903    3.8436   -1.2282 O   0  0  0  0  0  1  0  0  0  0  0  0
    1.8352    3.7400   -2.9183 O   0  0  0  0  0  0  0  0  0  0  0  0
    0.0019    2.8609    0.0374 C   0  0  0  0  0  0  0  0  0  0  0  0
   -0.9279    3.1842    0.0204 H   0  0  0  0  0  0  0  0  0  0  0  0
    0.5231    3.1960   -0.7281 H   0  0  0  0  0  0  0  0  0  0  0  0
    0.4658    3.2517    0.9431 H   0  0  0  0  0  0  0  0  0  0  0  0
   -0.0068    1.3781   -0.0035 C   0  0  0  0  0  0  0  0  0  0  0  0
   -1.1900    0.6704   -0.0028 C   0  0  0  0  0  0  0  0  0  0  0  0
   -2.0591    1.1802   -0.0051 H   0  0  0  0  0  0  0  0  0  0  0  0
   -1.1959   -0.6719    0.0000 C   0  0  0  0  0  0  0  0  0  0  0  0
   -2.0703   -1.1873   -0.0023 H   0  0  0  0  0  0  0  0  0  0  0  0
    0.0010   -1.3667    0.0076 C   0  0  0  0  0  0  0  0  0  0  0  0
   -0.0110   -2.3713    0.0177 H   0  0  0  0  0  0  0  0  0  0  0  0
    1.1959   -0.6865   -0.0000 C   0  0  0  0  0  0  0  0  0  0  0  0
    2.0756   -1.1976   -0.0036 H   0  0  0  0  0  0  0  0  0  0  0  0
    1.1958    0.6766   -0.0013 C   0  0  0  0  0  0  0  0  0  0  0  0
    2.0567    1.1864   -0.0016 H   0  0  0  0  0  0  0  0  0  0  0  0
  1  5  1  0
  5  6  1  0
  5  7  2  0
  1  2  1  0
  1  3  1  0
  1  4  1  0
  8 12  1  0
 12 13  2  0
 13 15  1  0
 15 17  2  0
 17 19  1  0
 19 21  2  0
 21 12  1  0
  8  9  1  0
  8 10  1  0
  8 11  1  0
 13 14  1  0
 15 16  1  0
 17 18  1  0
 19 20  1  0
 21 22  1  0
M  CHG  1   6  -1
M  END
>  <PDB_ID>  (423) 
pdb2hqt

>  <RESIDUE_NAME>  (423) 
ASP   PHE

>  <FRAG_NAME>  (423) 
ACET   MBZ

>  <FRAG_ATOM_NUM>  (423) 
fragi: 7  fragj: 15

>  <atom.prop.CHAIN_ID>  (423) 
A A A A A A A Z Z Z Z Z Z Z Z Z Z Z Z Z Z Z

>  <atom.prop.IS_HEAVY_ATOM>  (423) 
1 0 0 0 1 1 1 1 0 0 0 1 1 0 1 0 1 0 1 0 1 0

>  <DIFUSE_FUNC_ATOM>  (423) 
atom 6   atom 7   

>  <FINAL_SINGLE_POINT_ENERGY>  (423) 
0

>  <NONCOV_INTER_ENERGY_QM>  (423) 
0

>  <FF_Energy>  (423) 
-1.59

>  <QM_Energy>  (423) 
-7.47

>  <source>  (423) 
ACET_MBZ_00

>  <Index>  (423) 
15128

$$$$
ACET-pdb2hqt-J-ASP-69:MBZ-pdb2hqt-J-PHE-58
     RDKit          3D

 22 21  0  0  0  0  0  0  0  0999 V2000
    4.1148    3.5354   -3.3875 C   0  0  0  0  0  0  0  0  0  0  0  0
    3.8066    3.0439   -4.1999 H   0  0  0  0  0  0  0  0  0  0  0  0
    4.7440    2.9642   -2.8654 H   0  0  0  0  0  0  0  0  0  0  0  0
    4.6731    4.4076   -3.7277 H   0  0  0  0  0  0  0  0  0  0  0  0
    2.9466    3.8893   -2.5460 C   0  0  0  0  0  0  0  0  0  0  0  0
    3.1429    4.1206   -1.3137 O   0  0  0  0  0  1  0  0  0  0  0  0
    1.8209    3.8940   -3.1174 O   0  0  0  0  0  0  0  0  0  0  0  0
   -0.0035    2.9235    0.0066 C   0  0  0  0  0  0  0  0  0  0  0  0
   -0.9377    3.2131   -0.0977 H   0  0  0  0  0  0  0  0  0  0  0  0
    0.5682    3.2353   -0.7303 H   0  0  0  0  0  0  0  0  0  0  0  0
    0.3833    3.3332    0.9397 H   0  0  0  0  0  0  0  0  0  0  0  0
    0.0060    1.3964   -0.0232 C   0  0  0  0  0  0  0  0  0  0  0  0
   -1.1778    0.6853   -0.0062 C   0  0  0  0  0  0  0  0  0  0  0  0
   -2.0523    1.1828    0.0008 H   0  0  0  0  0  0  0  0  0  0  0  0
   -1.1980   -0.6965    0.0000 C   0  0  0  0  0  0  0  0  0  0  0  0
   -2.0847   -1.1786   -0.0076 H   0  0  0  0  0  0  0  0  0  0  0  0
   -0.0199   -1.3911    0.0181 C   0  0  0  0  0  0  0  0  0  0  0  0
   -0.0107   -2.3878    0.0434 H   0  0  0  0  0  0  0  0  0  0  0  0
    1.1980   -0.6889   -0.0000 C   0  0  0  0  0  0  0  0  0  0  0  0
    2.0697   -1.1954   -0.0200 H   0  0  0  0  0  0  0  0  0  0  0  0
    1.1917    0.6949    0.0113 C   0  0  0  0  0  0  0  0  0  0  0  0
    2.0634    1.1912    0.0440 H   0  0  0  0  0  0  0  0  0  0  0  0
  1  5  1  0
  5  6  1  0
  5  7  2  0
  1  2  1  0
  1  3  1  0
  1  4  1  0
  8 12  1  0
 12 13  2  0
 13 15  1  0
 15 17  2  0
 17 19  1  0
 19 21  2  0
 21 12  1  0
  8  9  1  0
  8 10  1  0
  8 11  1  0
 13 14  1  0
 15 16  1  0
 17 18  1  0
 19 20  1  0
 21 22  1  0
M  CHG  1   6  -1
M  END
>  <PDB_ID>  (424) 
pdb2hqt

>  <RESIDUE_NAME>  (424) 
ASP   PHE

>  <FRAG_NAME>  (424) 
ACET   MBZ

>  <FRAG_ATOM_NUM>  (424) 
fragi: 7  fragj: 15

>  <atom.prop.CHAIN_ID>  (424) 
A A A A A A A Z Z Z Z Z Z Z Z Z Z Z Z Z Z Z

>  <atom.prop.IS_HEAVY_ATOM>  (424) 
1 0 0 0 1 1 1 1 0 0 0 1 1 0 1 0 1 0 1 0 1 0

>  <DIFUSE_FUNC_ATOM>  (424) 
atom 6   atom 7   

>  <FINAL_SINGLE_POINT_ENERGY>  (424) 
0

>  <NONCOV_INTER_ENERGY_QM>  (424) 
0

>  <FF_Energy>  (424) 
-1.39

>  <QM_Energy>  (424) 
-6.75

>  <source>  (424) 
ACET_MBZ_00

>  <Index>  (424) 
15130

$$$$
ACET-pdb2hqt-M-ASP-69:MBZ-pdb2hqt-M-PHE-58
     RDKit          3D

 22 21  0  0  0  0  0  0  0  0999 V2000
    3.5308    3.8334   -3.6147 C   0  0  0  0  0  0  0  0  0  0  0  0
    3.1181    3.3894   -4.4068 H   0  0  0  0  0  0  0  0  0  0  0  0
    4.1911    3.2202   -3.1891 H   0  0  0  0  0  0  0  0  0  0  0  0
    4.0712    4.7110   -3.9694 H   0  0  0  0  0  0  0  0  0  0  0  0
    2.4307    4.1441   -2.6025 C   0  0  0  0  0  0  0  0  0  0  0  0
    2.7286    4.2996   -1.4056 O   0  0  0  0  0  1  0  0  0  0  0  0
    1.2491    4.1728   -3.0089 O   0  0  0  0  0  0  0  0  0  0  0  0
    0.0010    2.8874    0.0298 C   0  0  0  0  0  0  0  0  0  0  0  0
   -0.9310    3.2065   -0.0214 H   0  0  0  0  0  0  0  0  0  0  0  0
    0.5429    3.2202   -0.7244 H   0  0  0  0  0  0  0  0  0  0  0  0
    0.4339    3.2923    0.9447 H   0  0  0  0  0  0  0  0  0  0  0  0
   -0.0044    1.3952   -0.0106 C   0  0  0  0  0  0  0  0  0  0  0  0
   -1.1762    0.6946    0.0132 C   0  0  0  0  0  0  0  0  0  0  0  0
   -2.0535    1.1791    0.0394 H   0  0  0  0  0  0  0  0  0  0  0  0
   -1.1784   -0.6855    0.0000 C   0  0  0  0  0  0  0  0  0  0  0  0
   -2.0651   -1.1779   -0.0148 H   0  0  0  0  0  0  0  0  0  0  0  0
    0.0034   -1.3837    0.0082 C   0  0  0  0  0  0  0  0  0  0  0  0
   -0.0181   -2.3907    0.0199 H   0  0  0  0  0  0  0  0  0  0  0  0
    1.1784   -0.7147   -0.0000 C   0  0  0  0  0  0  0  0  0  0  0  0
    2.0708   -1.1947    0.0031 H   0  0  0  0  0  0  0  0  0  0  0  0
    1.1772    0.6941   -0.0107 C   0  0  0  0  0  0  0  0  0  0  0  0
    2.0537    1.1741   -0.0198 H   0  0  0  0  0  0  0  0  0  0  0  0
  1  5  1  0
  5  6  1  0
  5  7  2  0
  1  2  1  0
  1  3  1  0
  1  4  1  0
  8 12  1  0
 12 13  2  0
 13 15  1  0
 15 17  2  0
 17 19  1  0
 19 21  2  0
 21 12  1  0
  8  9  1  0
  8 10  1  0
  8 11  1  0
 13 14  1  0
 15 16  1  0
 17 18  1  0
 19 20  1  0
 21 22  1  0
M  CHG  1   6  -1
M  END
>  <PDB_ID>  (425) 
pdb2hqt

>  <RESIDUE_NAME>  (425) 
ASP   PHE

>  <FRAG_NAME>  (425) 
ACET   MBZ

>  <FRAG_ATOM_NUM>  (425) 
fragi: 7  fragj: 15

>  <atom.prop.CHAIN_ID>  (425) 
A A A A A A A Z Z Z Z Z Z Z Z Z Z Z Z Z Z Z

>  <atom.prop.IS_HEAVY_ATOM>  (425) 
1 0 0 0 1 1 1 1 0 0 0 1 1 0 1 0 1 0 1 0 1 0

>  <DIFUSE_FUNC_ATOM>  (425) 
atom 6   atom 7   

>  <FINAL_SINGLE_POINT_ENERGY>  (425) 
0

>  <NONCOV_INTER_ENERGY_QM>  (425) 
0

>  <FF_Energy>  (425) 
-1.09

>  <QM_Energy>  (425) 
-7.0

>  <source>  (425) 
ACET_MBZ_00

>  <Index>  (425) 
15133

$$$$
ACET-pdb2hqt-N-ASP-69:MBZ-pdb2hqt-N-PHE-58
     RDKit          3D

 22 21  0  0  0  0  0  0  0  0999 V2000
    4.1054    3.4292   -3.4709 C   0  0  0  0  0  0  0  0  0  0  0  0
    3.7352    3.0441   -4.3120 H   0  0  0  0  0  0  0  0  0  0  0  0
    4.6961    2.7657   -3.0216 H   0  0  0  0  0  0  0  0  0  0  0  0
    4.7140    4.2929   -3.7387 H   0  0  0  0  0  0  0  0  0  0  0  0
    2.9727    3.7803   -2.5515 C   0  0  0  0  0  0  0  0  0  0  0  0
    3.2455    3.9765   -1.3546 O   0  0  0  0  0  1  0  0  0  0  0  0
    1.8123    3.8394   -3.0052 O   0  0  0  0  0  0  0  0  0  0  0  0
   -0.0091    2.8997    0.0354 C   0  0  0  0  0  0  0  0  0  0  0  0
   -0.9439    3.2044    0.0315 H   0  0  0  0  0  0  0  0  0  0  0  0
    0.4931    3.2263   -0.7440 H   0  0  0  0  0  0  0  0  0  0  0  0
    0.4675    3.3018    0.9295 H   0  0  0  0  0  0  0  0  0  0  0  0
   -0.0091    1.3861   -0.0077 C   0  0  0  0  0  0  0  0  0  0  0  0
   -1.1860    0.6784    0.0128 C   0  0  0  0  0  0  0  0  0  0  0  0
   -2.0602    1.1651    0.0358 H   0  0  0  0  0  0  0  0  0  0  0  0
   -1.1785   -0.6932   -0.0000 C   0  0  0  0  0  0  0  0  0  0  0  0
   -2.0525   -1.2006   -0.0056 H   0  0  0  0  0  0  0  0  0  0  0  0
    0.0189   -1.3690   -0.0040 C   0  0  0  0  0  0  0  0  0  0  0  0
    0.0069   -2.3806   -0.0107 H   0  0  0  0  0  0  0  0  0  0  0  0
    1.1785   -0.6918   -0.0000 C   0  0  0  0  0  0  0  0  0  0  0  0
    2.0781   -1.1798    0.0057 H   0  0  0  0  0  0  0  0  0  0  0  0
    1.1762    0.6894   -0.0011 C   0  0  0  0  0  0  0  0  0  0  0  0
    2.0474    1.1848    0.0027 H   0  0  0  0  0  0  0  0  0  0  0  0
  1  5  1  0
  5  6  1  0
  5  7  2  0
  1  2  1  0
  1  3  1  0
  1  4  1  0
  8 12  1  0
 12 13  2  0
 13 15  1  0
 15 17  2  0
 17 19  1  0
 19 21  2  0
 21 12  1  0
  8  9  1  0
  8 10  1  0
  8 11  1  0
 13 14  1  0
 15 16  1  0
 17 18  1  0
 19 20  1  0
 21 22  1  0
M  CHG  1   6  -1
M  END
>  <PDB_ID>  (426) 
pdb2hqt

>  <RESIDUE_NAME>  (426) 
ASP   PHE

>  <FRAG_NAME>  (426) 
ACET   MBZ

>  <FRAG_ATOM_NUM>  (426) 
fragi: 7  fragj: 15

>  <atom.prop.CHAIN_ID>  (426) 
A A A A A A A Z Z Z Z Z Z Z Z Z Z Z Z Z Z Z

>  <atom.prop.IS_HEAVY_ATOM>  (426) 
1 0 0 0 1 1 1 1 0 0 0 1 1 0 1 0 1 0 1 0 1 0

>  <DIFUSE_FUNC_ATOM>  (426) 
atom 6   atom 7   

>  <FINAL_SINGLE_POINT_ENERGY>  (426) 
0

>  <NONCOV_INTER_ENERGY_QM>  (426) 
0

>  <FF_Energy>  (426) 
-1.45

>  <QM_Energy>  (426) 
-6.88

>  <source>  (426) 
ACET_MBZ_00

>  <Index>  (426) 
15135

$$$$
ACET-pdb1gx3-B-ASP-127:MBZ-pdb1gx3-B-PHE-130
     RDKit          3D

 22 21  0  0  0  0  0  0  0  0999 V2000
   -0.1710    6.1449   -4.4040 C   0  0  0  0  0  0  0  0  0  0  0  0
   -0.7118    5.9571   -5.2177 H   0  0  0  0  0  0  0  0  0  0  0  0
    0.7727    5.8638   -4.5443 H   0  0  0  0  0  0  0  0  0  0  0  0
   -0.1974    7.2149   -4.1981 H   0  0  0  0  0  0  0  0  0  0  0  0
   -0.7472    5.2900   -3.2522 C   0  0  0  0  0  0  0  0  0  0  0  0
   -1.3237    5.8544   -2.3310 O   0  0  0  0  0  1  0  0  0  0  0  0
   -0.5661    4.0644   -3.2111 O   0  0  0  0  0  0  0  0  0  0  0  0
    0.1073    2.9059    0.0459 C   0  0  0  0  0  0  0  0  0  0  0  0
   -0.2675    3.2481   -0.8147 H   0  0  0  0  0  0  0  0  0  0  0  0
    1.0716    3.1574    0.1146 H   0  0  0  0  0  0  0  0  0  0  0  0
   -0.4252    3.3956    0.8613 H   0  0  0  0  0  0  0  0  0  0  0  0
    0.0300    1.4042    0.0117 C   0  0  0  0  0  0  0  0  0  0  0  0
   -1.1845    0.7244    0.0100 C   0  0  0  0  0  0  0  0  0  0  0  0
   -2.0315    1.2441    0.0151 H   0  0  0  0  0  0  0  0  0  0  0  0
   -1.1860   -0.6156    0.0000 C   0  0  0  0  0  0  0  0  0  0  0  0
   -2.0990   -1.1177    0.0202 H   0  0  0  0  0  0  0  0  0  0  0  0
   -0.0355   -1.3840   -0.0338 C   0  0  0  0  0  0  0  0  0  0  0  0
   -0.1014   -2.3778   -0.0827 H   0  0  0  0  0  0  0  0  0  0  0  0
    1.1860   -0.7574    0.0000 C   0  0  0  0  0  0  0  0  0  0  0  0
    2.0427   -1.2685    0.0175 H   0  0  0  0  0  0  0  0  0  0  0  0
    1.1900    0.6285    0.0120 C   0  0  0  0  0  0  0  0  0  0  0  0
    2.0887    1.1112    0.0206 H   0  0  0  0  0  0  0  0  0  0  0  0
  1  5  1  0
  5  6  1  0
  5  7  2  0
  1  2  1  0
  1  3  1  0
  1  4  1  0
  8 12  1  0
 12 13  2  0
 13 15  1  0
 15 17  2  0
 17 19  1  0
 19 21  2  0
 21 12  1  0
  8  9  1  0
  8 10  1  0
  8 11  1  0
 13 14  1  0
 15 16  1  0
 17 18  1  0
 19 20  1  0
 21 22  1  0
M  CHG  1   6  -1
M  END
>  <PDB_ID>  (427) 
pdb1gx3

>  <RESIDUE_NAME>  (427) 
ASP   PHE

>  <FRAG_NAME>  (427) 
ACET   MBZ

>  <FRAG_ATOM_NUM>  (427) 
fragi: 7  fragj: 15

>  <atom.prop.CHAIN_ID>  (427) 
A A A A A A A Z Z Z Z Z Z Z Z Z Z Z Z Z Z Z

>  <atom.prop.IS_HEAVY_ATOM>  (427) 
1 0 0 0 1 1 1 1 0 0 0 1 1 0 1 0 1 0 1 0 1 0

>  <DIFUSE_FUNC_ATOM>  (427) 
atom 6   atom 7   

>  <FINAL_SINGLE_POINT_ENERGY>  (427) 
0

>  <NONCOV_INTER_ENERGY_QM>  (427) 
0

>  <FF_Energy>  (427) 
-0.58

>  <QM_Energy>  (427) 
-5.67

>  <source>  (427) 
ACET_MBZ_00

>  <Index>  (427) 
15169

$$$$
ACET-pdb1gxj-A-GLU-509:MBZ-pdb1gxj-A-PHE-559
     RDKit          3D

 22 21  0  0  0  0  0  0  0  0999 V2000
   -0.5285   -4.0556   -1.9853 C   0  0  0  0  0  0  0  0  0  0  0  0
    0.0922   -4.8070   -1.8637 H   0  0  0  0  0  0  0  0  0  0  0  0
   -0.5343   -3.4463   -1.2149 H   0  0  0  0  0  0  0  0  0  0  0  0
   -0.2160   -3.4936   -2.8654 H   0  0  0  0  0  0  0  0  0  0  0  0
   -1.9200   -4.6272   -2.1286 C   0  0  0  0  0  0  0  0  0  0  0  0
   -2.8645   -3.8393   -2.3461 O   0  0  0  0  0  1  0  0  0  0  0  0
   -2.0698   -5.8626   -2.0222 O   0  0  0  0  0  0  0  0  0  0  0  0
    0.0076    2.9086   -0.0052 C   0  0  0  0  0  0  0  0  0  0  0  0
   -0.5473    3.2157   -0.7648 H   0  0  0  0  0  0  0  0  0  0  0  0
    0.9451    3.2095   -0.1016 H   0  0  0  0  0  0  0  0  0  0  0  0
   -0.3935    3.3581    0.9032 H   0  0  0  0  0  0  0  0  0  0  0  0
   -0.0006    1.4056    0.0002 C   0  0  0  0  0  0  0  0  0  0  0  0
   -1.1986    0.6970    0.0003 C   0  0  0  0  0  0  0  0  0  0  0  0
   -2.0653    1.1861   -0.0005 H   0  0  0  0  0  0  0  0  0  0  0  0
   -1.2037   -0.6986   -0.0000 C   0  0  0  0  0  0  0  0  0  0  0  0
   -2.0802   -1.1908    0.0015 H   0  0  0  0  0  0  0  0  0  0  0  0
    0.0009   -1.3990   -0.0004 C   0  0  0  0  0  0  0  0  0  0  0  0
   -0.0044   -2.3957   -0.0014 H   0  0  0  0  0  0  0  0  0  0  0  0
    1.2037   -0.6999    0.0000 C   0  0  0  0  0  0  0  0  0  0  0  0
    2.0841   -1.1959    0.0019 H   0  0  0  0  0  0  0  0  0  0  0  0
    1.1984    0.6948   -0.0001 C   0  0  0  0  0  0  0  0  0  0  0  0
    2.0657    1.1904   -0.0009 H   0  0  0  0  0  0  0  0  0  0  0  0
  1  5  1  0
  5  6  1  0
  5  7  2  0
  1  2  1  0
  1  3  1  0
  1  4  1  0
  8 12  1  0
 12 13  2  0
 13 15  1  0
 15 17  2  0
 17 19  1  0
 19 21  2  0
 21 12  1  0
  8  9  1  0
  8 10  1  0
  8 11  1  0
 13 14  1  0
 15 16  1  0
 17 18  1  0
 19 20  1  0
 21 22  1  0
M  CHG  1   6  -1
M  END
>  <PDB_ID>  (428) 
pdb1gxj

>  <RESIDUE_NAME>  (428) 
GLU   PHE

>  <FRAG_NAME>  (428) 
ACET   MBZ

>  <FRAG_ATOM_NUM>  (428) 
fragi: 7  fragj: 15

>  <atom.prop.CHAIN_ID>  (428) 
A A A A A A A Z Z Z Z Z Z Z Z Z Z Z Z Z Z Z

>  <atom.prop.IS_HEAVY_ATOM>  (428) 
1 0 0 0 1 1 1 1 0 0 0 1 1 0 1 0 1 0 1 0 1 0

>  <DIFUSE_FUNC_ATOM>  (428) 
atom 6   atom 7   

>  <FINAL_SINGLE_POINT_ENERGY>  (428) 
0

>  <NONCOV_INTER_ENERGY_QM>  (428) 
0

>  <FF_Energy>  (428) 
6.82

>  <QM_Energy>  (428) 
0.53

>  <source>  (428) 
ACET_MBZ_00

>  <Index>  (428) 
15183

$$$$
ACET-pdb2htn-A-ASP-132:MBZ-pdb2htn-G-PHE-64
     RDKit          3D

 22 21  0  0  0  0  0  0  0  0999 V2000
   -3.8391   -0.3676   -2.0114 C   0  0  0  0  0  0  0  0  0  0  0  0
   -2.8640   -0.4762   -1.8539 H   0  0  0  0  0  0  0  0  0  0  0  0
   -4.0651   -0.5813   -2.9552 H   0  0  0  0  0  0  0  0  0  0  0  0
   -4.3657   -1.0735   -1.3691 H   0  0  0  0  0  0  0  0  0  0  0  0
   -4.2169    1.0808   -1.7365 C   0  0  0  0  0  0  0  0  0  0  0  0
   -4.3220    1.4841   -0.5590 O   0  0  0  0  0  1  0  0  0  0  0  0
   -4.4025    1.8300   -2.7196 O   0  0  0  0  0  0  0  0  0  0  0  0
    0.0030    2.9089    0.0002 C   0  0  0  0  0  0  0  0  0  0  0  0
   -0.5158    3.2119   -0.7833 H   0  0  0  0  0  0  0  0  0  0  0  0
    0.9421    3.2104   -0.0475 H   0  0  0  0  0  0  0  0  0  0  0  0
   -0.4465    3.3460    0.8918 H   0  0  0  0  0  0  0  0  0  0  0  0
   -0.0014    1.4077    0.0065 C   0  0  0  0  0  0  0  0  0  0  0  0
   -1.1896    0.6928    0.0059 C   0  0  0  0  0  0  0  0  0  0  0  0
   -2.0628    1.1791    0.0087 H   0  0  0  0  0  0  0  0  0  0  0  0
   -1.1959   -0.7014   -0.0000 C   0  0  0  0  0  0  0  0  0  0  0  0
   -2.0745   -1.1920    0.0018 H   0  0  0  0  0  0  0  0  0  0  0  0
    0.0020   -1.3990   -0.0064 C   0  0  0  0  0  0  0  0  0  0  0  0
   -0.0025   -2.3968   -0.0157 H   0  0  0  0  0  0  0  0  0  0  0  0
    1.1959   -0.7009    0.0000 C   0  0  0  0  0  0  0  0  0  0  0  0
    2.0822   -1.1895    0.0100 H   0  0  0  0  0  0  0  0  0  0  0  0
    1.1890    0.7009   -0.0060 C   0  0  0  0  0  0  0  0  0  0  0  0
    2.0611    1.1904   -0.0207 H   0  0  0  0  0  0  0  0  0  0  0  0
  1  5  1  0
  5  6  1  0
  5  7  2  0
  1  2  1  0
  1  3  1  0
  1  4  1  0
  8 12  1  0
 12 13  2  0
 13 15  1  0
 15 17  2  0
 17 19  1  0
 19 21  2  0
 21 12  1  0
  8  9  1  0
  8 10  1  0
  8 11  1  0
 13 14  1  0
 15 16  1  0
 17 18  1  0
 19 20  1  0
 21 22  1  0
M  CHG  1   6  -1
M  END
>  <PDB_ID>  (429) 
pdb2htn

>  <RESIDUE_NAME>  (429) 
ASP   PHE

>  <FRAG_NAME>  (429) 
ACET   MBZ

>  <FRAG_ATOM_NUM>  (429) 
fragi: 7  fragj: 15

>  <atom.prop.CHAIN_ID>  (429) 
A A A A A A A Z Z Z Z Z Z Z Z Z Z Z Z Z Z Z

>  <atom.prop.IS_HEAVY_ATOM>  (429) 
1 0 0 0 1 1 1 1 0 0 0 1 1 0 1 0 1 0 1 0 1 0

>  <DIFUSE_FUNC_ATOM>  (429) 
atom 6   atom 7   

>  <FINAL_SINGLE_POINT_ENERGY>  (429) 
0

>  <NONCOV_INTER_ENERGY_QM>  (429) 
0

>  <FF_Energy>  (429) 
-0.16

>  <QM_Energy>  (429) 
-5.44

>  <source>  (429) 
ACET_MBZ_00

>  <Index>  (429) 
15267

$$$$
ACET-pdb2htn-F-ASP-132:MBZ-pdb2htn-H-PHE-64
     RDKit          3D

 22 21  0  0  0  0  0  0  0  0999 V2000
   -3.8278   -0.5098   -1.9960 C   0  0  0  0  0  0  0  0  0  0  0  0
   -2.8495   -0.6095   -1.8438 H   0  0  0  0  0  0  0  0  0  0  0  0
   -4.0565   -0.7346   -2.9364 H   0  0  0  0  0  0  0  0  0  0  0  0
   -4.3451   -1.2135   -1.3439 H   0  0  0  0  0  0  0  0  0  0  0  0
   -4.2134    0.9422   -1.7363 C   0  0  0  0  0  0  0  0  0  0  0  0
   -4.3268    1.3625   -0.5639 O   0  0  0  0  0  1  0  0  0  0  0  0
   -4.3942    1.6782   -2.7161 O   0  0  0  0  0  0  0  0  0  0  0  0
    0.0034    2.9107    0.0154 C   0  0  0  0  0  0  0  0  0  0  0  0
   -0.5105    3.2213   -0.7674 H   0  0  0  0  0  0  0  0  0  0  0  0
    0.9423    3.2127   -0.0229 H   0  0  0  0  0  0  0  0  0  0  0  0
   -0.4519    3.3390    0.9083 H   0  0  0  0  0  0  0  0  0  0  0  0
   -0.0010    1.4063    0.0070 C   0  0  0  0  0  0  0  0  0  0  0  0
   -1.1905    0.6929    0.0010 C   0  0  0  0  0  0  0  0  0  0  0  0
   -2.0621    1.1789   -0.0045 H   0  0  0  0  0  0  0  0  0  0  0  0
   -1.1955   -0.7012    0.0000 C   0  0  0  0  0  0  0  0  0  0  0  0
   -2.0741   -1.1928    0.0095 H   0  0  0  0  0  0  0  0  0  0  0  0
    0.0038   -1.4000   -0.0124 C   0  0  0  0  0  0  0  0  0  0  0  0
   -0.0001   -2.3957   -0.0307 H   0  0  0  0  0  0  0  0  0  0  0  0
    1.1955   -0.6972    0.0000 C   0  0  0  0  0  0  0  0  0  0  0  0
    2.0832   -1.1874    0.0071 H   0  0  0  0  0  0  0  0  0  0  0  0
    1.1877    0.6993    0.0044 C   0  0  0  0  0  0  0  0  0  0  0  0
    2.0605    1.1909    0.0049 H   0  0  0  0  0  0  0  0  0  0  0  0
  1  5  1  0
  5  6  1  0
  5  7  2  0
  1  2  1  0
  1  3  1  0
  1  4  1  0
  8 12  1  0
 12 13  2  0
 13 15  1  0
 15 17  2  0
 17 19  1  0
 19 21  2  0
 21 12  1  0
  8  9  1  0
  8 10  1  0
  8 11  1  0
 13 14  1  0
 15 16  1  0
 17 18  1  0
 19 20  1  0
 21 22  1  0
M  CHG  1   6  -1
M  END
>  <PDB_ID>  (430) 
pdb2htn

>  <RESIDUE_NAME>  (430) 
ASP   PHE

>  <FRAG_NAME>  (430) 
ACET   MBZ

>  <FRAG_ATOM_NUM>  (430) 
fragi: 7  fragj: 15

>  <atom.prop.CHAIN_ID>  (430) 
A A A A A A A Z Z Z Z Z Z Z Z Z Z Z Z Z Z Z

>  <atom.prop.IS_HEAVY_ATOM>  (430) 
1 0 0 0 1 1 1 1 0 0 0 1 1 0 1 0 1 0 1 0 1 0

>  <DIFUSE_FUNC_ATOM>  (430) 
atom 6   atom 7   

>  <FINAL_SINGLE_POINT_ENERGY>  (430) 
0

>  <NONCOV_INTER_ENERGY_QM>  (430) 
0

>  <FF_Energy>  (430) 
0.21

>  <QM_Energy>  (430) 
-5.3

>  <source>  (430) 
ACET_MBZ_00

>  <Index>  (430) 
15270

$$$$
ACET-pdb1gzw-B-GLU-74:MBZ-pdb1gzw-B-PHE-106
     RDKit          3D

 22 21  0  0  0  0  0  0  0  0999 V2000
    0.1295   -0.7549    3.7006 C   0  0  0  0  0  0  0  0  0  0  0  0
    0.4734   -1.5504    4.1656 H   0  0  0  0  0  0  0  0  0  0  0  0
   -0.3736   -0.9896    2.8880 H   0  0  0  0  0  0  0  0  0  0  0  0
   -0.5503   -0.2392    4.3789 H   0  0  0  0  0  0  0  0  0  0  0  0
    1.3343    0.0855    3.2702 C   0  0  0  0  0  0  0  0  0  0  0  0
    1.1913    1.3133    3.1093 O   0  0  0  0  0  1  0  0  0  0  0  0
    2.4289   -0.4938    3.0670 O   0  0  0  0  0  0  0  0  0  0  0  0
    0.0040    2.9098   -0.0185 C   0  0  0  0  0  0  0  0  0  0  0  0
    0.8484    3.2201    0.3912 H   0  0  0  0  0  0  0  0  0  0  0  0
   -0.7808    3.2245    0.4934 H   0  0  0  0  0  0  0  0  0  0  0  0
   -0.0576    3.3399   -1.0181 H   0  0  0  0  0  0  0  0  0  0  0  0
    0.0008    1.4060    0.0006 C   0  0  0  0  0  0  0  0  0  0  0  0
   -1.2000    0.6968    0.0002 C   0  0  0  0  0  0  0  0  0  0  0  0
   -2.0650    1.1845   -0.0011 H   0  0  0  0  0  0  0  0  0  0  0  0
   -1.2053   -0.7025    0.0000 C   0  0  0  0  0  0  0  0  0  0  0  0
   -2.0800   -1.1930    0.0025 H   0  0  0  0  0  0  0  0  0  0  0  0
    0.0002   -1.3995   -0.0013 C   0  0  0  0  0  0  0  0  0  0  0  0
   -0.0007   -2.3961   -0.0032 H   0  0  0  0  0  0  0  0  0  0  0  0
    1.2053   -0.6966   -0.0000 C   0  0  0  0  0  0  0  0  0  0  0  0
    2.0857   -1.1938    0.0016 H   0  0  0  0  0  0  0  0  0  0  0  0
    1.1989    0.6958    0.0004 C   0  0  0  0  0  0  0  0  0  0  0  0
    2.0662    1.1927   -0.0004 H   0  0  0  0  0  0  0  0  0  0  0  0
  1  5  1  0
  5  6  1  0
  5  7  2  0
  1  2  1  0
  1  3  1  0
  1  4  1  0
  8 12  1  0
 12 13  2  0
 13 15  1  0
 15 17  2  0
 17 19  1  0
 19 21  2  0
 21 12  1  0
  8  9  1  0
  8 10  1  0
  8 11  1  0
 13 14  1  0
 15 16  1  0
 17 18  1  0
 19 20  1  0
 21 22  1  0
M  CHG  1   6  -1
M  END
>  <PDB_ID>  (431) 
pdb1gzw

>  <RESIDUE_NAME>  (431) 
GLU   PHE

>  <FRAG_NAME>  (431) 
ACET   MBZ

>  <FRAG_ATOM_NUM>  (431) 
fragi: 7  fragj: 15

>  <atom.prop.CHAIN_ID>  (431) 
A A A A A A A Z Z Z Z Z Z Z Z Z Z Z Z Z Z Z

>  <atom.prop.IS_HEAVY_ATOM>  (431) 
1 0 0 0 1 1 1 1 0 0 0 1 1 0 1 0 1 0 1 0 1 0

>  <DIFUSE_FUNC_ATOM>  (431) 
atom 6   atom 7   

>  <FINAL_SINGLE_POINT_ENERGY>  (431) 
0

>  <NONCOV_INTER_ENERGY_QM>  (431) 
0

>  <FF_Energy>  (431) 
1.9

>  <QM_Energy>  (431) 
-3.79

>  <source>  (431) 
ACET_MBZ_00

>  <Index>  (431) 
15433

$$$$
ACET-pdb1h0n-A-GLU-153:MBZ-pdb1h0n-A-PHE-150
     RDKit          3D

 22 21  0  0  0  0  0  0  0  0999 V2000
   -4.4469    3.5986    1.2156 C   0  0  0  0  0  0  0  0  0  0  0  0
   -3.9626    4.0592    0.5106 H   0  0  0  0  0  0  0  0  0  0  0  0
   -3.9763    3.5543    2.0640 H   0  0  0  0  0  0  0  0  0  0  0  0
   -5.3681    4.1553    1.3874 H   0  0  0  0  0  0  0  0  0  0  0  0
   -4.7235    2.1589    0.7459 C   0  0  0  0  0  0  0  0  0  0  0  0
   -3.8640    1.5730    0.0368 O   0  0  0  0  0  1  0  0  0  0  0  0
   -5.8018    1.6097    1.0888 O   0  0  0  0  0  0  0  0  0  0  0  0
    0.0482    2.9500   -0.0375 C   0  0  0  0  0  0  0  0  0  0  0  0
    0.6623    3.2130   -0.7680 H   0  0  0  0  0  0  0  0  0  0  0  0
    0.3851    3.2606    0.8402 H   0  0  0  0  0  0  0  0  0  0  0  0
   -0.9116    3.4343   -0.2167 H   0  0  0  0  0  0  0  0  0  0  0  0
    0.0022    1.4272   -0.0005 C   0  0  0  0  0  0  0  0  0  0  0  0
   -1.2320    0.7134    0.0001 C   0  0  0  0  0  0  0  0  0  0  0  0
   -2.0828    1.2046   -0.0007 H   0  0  0  0  0  0  0  0  0  0  0  0
   -1.2409   -0.7079    0.0000 C   0  0  0  0  0  0  0  0  0  0  0  0
   -2.0992   -1.2023    0.0017 H   0  0  0  0  0  0  0  0  0  0  0  0
    0.0067   -1.4264   -0.0009 C   0  0  0  0  0  0  0  0  0  0  0  0
    0.0013   -2.4094   -0.0030 H   0  0  0  0  0  0  0  0  0  0  0  0
    1.2409   -0.7043   -0.0000 C   0  0  0  0  0  0  0  0  0  0  0  0
    2.1089   -1.2028    0.0013 H   0  0  0  0  0  0  0  0  0  0  0  0
    1.2231    0.6981    0.0013 C   0  0  0  0  0  0  0  0  0  0  0  0
    2.0834    1.2042    0.0024 H   0  0  0  0  0  0  0  0  0  0  0  0
  1  5  1  0
  5  6  1  0
  5  7  2  0
  1  2  1  0
  1  3  1  0
  1  4  1  0
  8 12  1  0
 12 13  2  0
 13 15  1  0
 15 17  2  0
 17 19  1  0
 19 21  2  0
 21 12  1  0
  8  9  1  0
  8 10  1  0
  8 11  1  0
 13 14  1  0
 15 16  1  0
 17 18  1  0
 19 20  1  0
 21 22  1  0
M  CHG  1   6  -1
M  END
>  <PDB_ID>  (432) 
pdb1h0n

>  <RESIDUE_NAME>  (432) 
GLU   PHE

>  <FRAG_NAME>  (432) 
ACET   MBZ

>  <FRAG_ATOM_NUM>  (432) 
fragi: 7  fragj: 15

>  <atom.prop.CHAIN_ID>  (432) 
A A A A A A A Z Z Z Z Z Z Z Z Z Z Z Z Z Z Z

>  <atom.prop.IS_HEAVY_ATOM>  (432) 
1 0 0 0 1 1 1 1 0 0 0 1 1 0 1 0 1 0 1 0 1 0

>  <DIFUSE_FUNC_ATOM>  (432) 
atom 6   atom 7   

>  <FINAL_SINGLE_POINT_ENERGY>  (432) 
0

>  <NONCOV_INTER_ENERGY_QM>  (432) 
0

>  <FF_Energy>  (432) 
-0.06

>  <QM_Energy>  (432) 
-5.12

>  <source>  (432) 
ACET_MBZ_00

>  <Index>  (432) 
15463

$$$$
ACET-pdb1h3i-B-GLU-97:MBZ-pdb1h3i-B-PHE-106
     RDKit          3D

 22 21  0  0  0  0  0  0  0  0999 V2000
    2.9489    2.6162   -2.3772 C   0  0  0  0  0  0  0  0  0  0  0  0
    3.6956    2.4504   -2.9991 H   0  0  0  0  0  0  0  0  0  0  0  0
    3.0547    2.1141   -1.5360 H   0  0  0  0  0  0  0  0  0  0  0  0
    2.9377    3.6796   -2.1384 H   0  0  0  0  0  0  0  0  0  0  0  0
    1.6781    2.1312   -3.0451 C   0  0  0  0  0  0  0  0  0  0  0  0
    0.6535    2.8500   -2.9883 O   0  0  0  0  0  1  0  0  0  0  0  0
    1.7044    1.0229   -3.6230 O   0  0  0  0  0  0  0  0  0  0  0  0
   -0.0103    2.9152    0.0226 C   0  0  0  0  0  0  0  0  0  0  0  0
   -0.8283    3.2196   -0.4368 H   0  0  0  0  0  0  0  0  0  0  0  0
    0.8045    3.2257   -0.4386 H   0  0  0  0  0  0  0  0  0  0  0  0
   -0.0105    3.3423    1.0253 H   0  0  0  0  0  0  0  0  0  0  0  0
   -0.0055    1.3966    0.0014 C   0  0  0  0  0  0  0  0  0  0  0  0
   -1.1874    0.6831   -0.0000 C   0  0  0  0  0  0  0  0  0  0  0  0
   -2.0610    1.1743   -0.0023 H   0  0  0  0  0  0  0  0  0  0  0  0
   -1.1898   -0.6919   -0.0000 C   0  0  0  0  0  0  0  0  0  0  0  0
   -2.0652   -1.1943    0.0094 H   0  0  0  0  0  0  0  0  0  0  0  0
    0.0120   -1.3921   -0.0105 C   0  0  0  0  0  0  0  0  0  0  0  0
    0.0026   -2.3880   -0.0261 H   0  0  0  0  0  0  0  0  0  0  0  0
    1.1898   -0.6917   -0.0000 C   0  0  0  0  0  0  0  0  0  0  0  0
    2.0838   -1.1795    0.0025 H   0  0  0  0  0  0  0  0  0  0  0  0
    1.1809    0.6961    0.0091 C   0  0  0  0  0  0  0  0  0  0  0  0
    2.0531    1.1924    0.0205 H   0  0  0  0  0  0  0  0  0  0  0  0
  1  5  1  0
  5  6  1  0
  5  7  2  0
  1  2  1  0
  1  3  1  0
  1  4  1  0
  8 12  1  0
 12 13  2  0
 13 15  1  0
 15 17  2  0
 17 19  1  0
 19 21  2  0
 21 12  1  0
  8  9  1  0
  8 10  1  0
  8 11  1  0
 13 14  1  0
 15 16  1  0
 17 18  1  0
 19 20  1  0
 21 22  1  0
M  CHG  1   6  -1
M  END
>  <PDB_ID>  (433) 
pdb1h3i

>  <RESIDUE_NAME>  (433) 
GLU   PHE

>  <FRAG_NAME>  (433) 
ACET   MBZ

>  <FRAG_ATOM_NUM>  (433) 
fragi: 7  fragj: 15

>  <atom.prop.CHAIN_ID>  (433) 
A A A A A A A Z Z Z Z Z Z Z Z Z Z Z Z Z Z Z

>  <atom.prop.IS_HEAVY_ATOM>  (433) 
1 0 0 0 1 1 1 1 0 0 0 1 1 0 1 0 1 0 1 0 1 0

>  <DIFUSE_FUNC_ATOM>  (433) 
atom 6   atom 7   

>  <FINAL_SINGLE_POINT_ENERGY>  (433) 
0

>  <NONCOV_INTER_ENERGY_QM>  (433) 
0

>  <FF_Energy>  (433) 
3.03

>  <QM_Energy>  (433) 
-2.74

>  <source>  (433) 
ACET_MBZ_00

>  <Index>  (433) 
15577

$$$$
ACET-pdb2hz7-A-GLU-210:MBZ-pdb2hz7-A-PHE-206
     RDKit          3D

 22 21  0  0  0  0  0  0  0  0999 V2000
    2.7797    3.9430   -3.3444 C   0  0  0  0  0  0  0  0  0  0  0  0
    2.6286    3.2316   -4.0045 H   0  0  0  0  0  0  0  0  0  0  0  0
    3.5626    4.4946   -3.5595 H   0  0  0  0  0  0  0  0  0  0  0  0
    1.8994    4.5854   -3.3231 H   0  0  0  0  0  0  0  0  0  0  0  0
    3.0540    3.2676   -2.0016 C   0  0  0  0  0  0  0  0  0  0  0  0
    3.2300    3.9879   -0.9890 O   0  0  0  0  0  1  0  0  0  0  0  0
    3.0945    2.0117   -1.9653 O   0  0  0  0  0  0  0  0  0  0  0  0
    0.0013    2.9133    0.0129 C   0  0  0  0  0  0  0  0  0  0  0  0
   -0.9106    3.2202   -0.2122 H   0  0  0  0  0  0  0  0  0  0  0  0
    0.6616    3.2233   -0.6539 H   0  0  0  0  0  0  0  0  0  0  0  0
    0.2721    3.3430    0.9774 H   0  0  0  0  0  0  0  0  0  0  0  0
   -0.0001    1.4072   -0.0004 C   0  0  0  0  0  0  0  0  0  0  0  0
   -1.1950    0.6988    0.0009 C   0  0  0  0  0  0  0  0  0  0  0  0
   -2.0634    1.1846    0.0014 H   0  0  0  0  0  0  0  0  0  0  0  0
   -1.2031   -0.7025   -0.0000 C   0  0  0  0  0  0  0  0  0  0  0  0
   -2.0810   -1.1890    0.0006 H   0  0  0  0  0  0  0  0  0  0  0  0
   -0.0027   -1.3997   -0.0007 C   0  0  0  0  0  0  0  0  0  0  0  0
   -0.0043   -2.3967   -0.0020 H   0  0  0  0  0  0  0  0  0  0  0  0
    1.2031   -0.7007   -0.0000 C   0  0  0  0  0  0  0  0  0  0  0  0
    2.0827   -1.1963    0.0024 H   0  0  0  0  0  0  0  0  0  0  0  0
    1.1978    0.6969    0.0002 C   0  0  0  0  0  0  0  0  0  0  0  0
    2.0660    1.1906   -0.0003 H   0  0  0  0  0  0  0  0  0  0  0  0
  1  5  1  0
  5  6  1  0
  5  7  2  0
  1  2  1  0
  1  3  1  0
  1  4  1  0
  8 12  1  0
 12 13  2  0
 13 15  1  0
 15 17  2  0
 17 19  1  0
 19 21  2  0
 21 12  1  0
  8  9  1  0
  8 10  1  0
  8 11  1  0
 13 14  1  0
 15 16  1  0
 17 18  1  0
 19 20  1  0
 21 22  1  0
M  CHG  1   6  -1
M  END
>  <PDB_ID>  (434) 
pdb2hz7

>  <RESIDUE_NAME>  (434) 
GLU   PHE

>  <FRAG_NAME>  (434) 
ACET   MBZ

>  <FRAG_ATOM_NUM>  (434) 
fragi: 7  fragj: 15

>  <atom.prop.CHAIN_ID>  (434) 
A A A A A A A Z Z Z Z Z Z Z Z Z Z Z Z Z Z Z

>  <atom.prop.IS_HEAVY_ATOM>  (434) 
1 0 0 0 1 1 1 1 0 0 0 1 1 0 1 0 1 0 1 0 1 0

>  <DIFUSE_FUNC_ATOM>  (434) 
atom 6   atom 7   

>  <FINAL_SINGLE_POINT_ENERGY>  (434) 
0

>  <NONCOV_INTER_ENERGY_QM>  (434) 
0

>  <FF_Energy>  (434) 
-0.98

>  <QM_Energy>  (434) 
-7.53

>  <source>  (434) 
ACET_MBZ_00

>  <Index>  (434) 
15590

$$$$
ACET-pdb2i00-B-GLU-202:MBZ-pdb2i00-B-PHE-199
     RDKit          3D

 22 21  0  0  0  0  0  0  0  0999 V2000
    3.5117    1.1996   -2.9073 C   0  0  0  0  0  0  0  0  0  0  0  0
    2.5587    1.4365   -2.8842 H   0  0  0  0  0  0  0  0  0  0  0  0
    3.6569    0.2296   -2.8423 H   0  0  0  0  0  0  0  0  0  0  0  0
    3.9518    1.5702   -3.8331 H   0  0  0  0  0  0  0  0  0  0  0  0
    4.1440    1.8191   -1.6047 C   0  0  0  0  0  0  0  0  0  0  0  0
    4.1971    1.0872   -0.5770 O   0  0  0  0  0  1  0  0  0  0  0  0
    4.5543    3.0183   -1.5939 O   0  0  0  0  0  0  0  0  0  0  0  0
    0.0256    2.8722   -0.0640 C   0  0  0  0  0  0  0  0  0  0  0  0
    0.6199    3.2175    0.6431 H   0  0  0  0  0  0  0  0  0  0  0  0
   -0.8952    3.2116    0.0334 H   0  0  0  0  0  0  0  0  0  0  0  0
    0.4092    3.2264   -1.0208 H   0  0  0  0  0  0  0  0  0  0  0  0
   -0.0003    1.4032    0.0135 C   0  0  0  0  0  0  0  0  0  0  0  0
   -1.1953    0.7097   -0.0235 C   0  0  0  0  0  0  0  0  0  0  0  0
   -2.0610    1.1920   -0.0679 H   0  0  0  0  0  0  0  0  0  0  0  0
   -1.2061   -0.6995    0.0000 C   0  0  0  0  0  0  0  0  0  0  0  0
   -2.0815   -1.1834    0.0070 H   0  0  0  0  0  0  0  0  0  0  0  0
    0.0015   -1.4031    0.0145 C   0  0  0  0  0  0  0  0  0  0  0  0
   -0.0072   -2.3990    0.0343 H   0  0  0  0  0  0  0  0  0  0  0  0
    1.2061   -0.7063   -0.0000 C   0  0  0  0  0  0  0  0  0  0  0  0
    2.0858   -1.1960   -0.0058 H   0  0  0  0  0  0  0  0  0  0  0  0
    1.1942    0.6959   -0.0045 C   0  0  0  0  0  0  0  0  0  0  0  0
    2.0647    1.1896   -0.0215 H   0  0  0  0  0  0  0  0  0  0  0  0
  1  5  1  0
  5  6  1  0
  5  7  2  0
  1  2  1  0
  1  3  1  0
  1  4  1  0
  8 12  1  0
 12 13  2  0
 13 15  1  0
 15 17  2  0
 17 19  1  0
 19 21  2  0
 21 12  1  0
  8  9  1  0
  8 10  1  0
  8 11  1  0
 13 14  1  0
 15 16  1  0
 17 18  1  0
 19 20  1  0
 21 22  1  0
M  CHG  1   6  -1
M  END
>  <PDB_ID>  (435) 
pdb2i00

>  <RESIDUE_NAME>  (435) 
GLU   PHE

>  <FRAG_NAME>  (435) 
ACET   MBZ

>  <FRAG_ATOM_NUM>  (435) 
fragi: 7  fragj: 15

>  <atom.prop.CHAIN_ID>  (435) 
A A A A A A A Z Z Z Z Z Z Z Z Z Z Z Z Z Z Z

>  <atom.prop.IS_HEAVY_ATOM>  (435) 
1 0 0 0 1 1 1 1 0 0 0 1 1 0 1 0 1 0 1 0 1 0

>  <DIFUSE_FUNC_ATOM>  (435) 
atom 6   atom 7   

>  <FINAL_SINGLE_POINT_ENERGY>  (435) 
0

>  <NONCOV_INTER_ENERGY_QM>  (435) 
0

>  <FF_Energy>  (435) 
-0.99

>  <QM_Energy>  (435) 
-6.87

>  <source>  (435) 
ACET_MBZ_00

>  <Index>  (435) 
15642

$$$$
ACET-pdb1h6f-A-ASP-215:MBZ-pdb1h6f-A-PHE-219
     RDKit          3D

 22 21  0  0  0  0  0  0  0  0999 V2000
    3.8461    3.1110   -3.0358 C   0  0  0  0  0  0  0  0  0  0  0  0
    4.5042    2.9864   -2.3068 H   0  0  0  0  0  0  0  0  0  0  0  0
    3.4738    4.0281   -3.0265 H   0  0  0  0  0  0  0  0  0  0  0  0
    4.3614    2.9643   -3.9851 H   0  0  0  0  0  0  0  0  0  0  0  0
    2.7158    2.1201   -2.8502 C   0  0  0  0  0  0  0  0  0  0  0  0
    3.0281    0.9687   -2.5398 O   0  0  0  0  0  1  0  0  0  0  0  0
    1.5360    2.4974   -3.0291 O   0  0  0  0  0  0  0  0  0  0  0  0
    0.0284    2.9284    0.1287 C   0  0  0  0  0  0  0  0  0  0  0  0
    0.8534    3.2506   -0.3148 H   0  0  0  0  0  0  0  0  0  0  0  0
    0.0372    3.1458    1.0956 H   0  0  0  0  0  0  0  0  0  0  0  0
   -0.8221    3.4368   -0.3257 H   0  0  0  0  0  0  0  0  0  0  0  0
    0.0032    1.4148    0.0016 C   0  0  0  0  0  0  0  0  0  0  0  0
   -1.1927    0.7171   -0.0009 C   0  0  0  0  0  0  0  0  0  0  0  0
   -2.0626    1.1891   -0.0047 H   0  0  0  0  0  0  0  0  0  0  0  0
   -1.2069   -0.7175    0.0000 C   0  0  0  0  0  0  0  0  0  0  0  0
   -2.0879   -1.1828   -0.0022 H   0  0  0  0  0  0  0  0  0  0  0  0
   -0.0110   -1.4072    0.0056 C   0  0  0  0  0  0  0  0  0  0  0  0
   -0.0052   -2.4072    0.0131 H   0  0  0  0  0  0  0  0  0  0  0  0
    1.2069   -0.7098   -0.0000 C   0  0  0  0  0  0  0  0  0  0  0  0
    2.0812   -1.2018    0.0021 H   0  0  0  0  0  0  0  0  0  0  0  0
    1.2005    0.7025   -0.0063 C   0  0  0  0  0  0  0  0  0  0  0  0
    2.0706    1.1893   -0.0174 H   0  0  0  0  0  0  0  0  0  0  0  0
  1  5  1  0
  5  6  1  0
  5  7  2  0
  1  2  1  0
  1  3  1  0
  1  4  1  0
  8 12  1  0
 12 13  2  0
 13 15  1  0
 15 17  2  0
 17 19  1  0
 19 21  2  0
 21 12  1  0
  8  9  1  0
  8 10  1  0
  8 11  1  0
 13 14  1  0
 15 16  1  0
 17 18  1  0
 19 20  1  0
 21 22  1  0
M  CHG  1   6  -1
M  END
>  <PDB_ID>  (436) 
pdb1h6f

>  <RESIDUE_NAME>  (436) 
ASP   PHE

>  <FRAG_NAME>  (436) 
ACET   MBZ

>  <FRAG_ATOM_NUM>  (436) 
fragi: 7  fragj: 15

>  <atom.prop.CHAIN_ID>  (436) 
A A A A A A A Z Z Z Z Z Z Z Z Z Z Z Z Z Z Z

>  <atom.prop.IS_HEAVY_ATOM>  (436) 
1 0 0 0 1 1 1 1 0 0 0 1 1 0 1 0 1 0 1 0 1 0

>  <DIFUSE_FUNC_ATOM>  (436) 
atom 6   atom 7   

>  <FINAL_SINGLE_POINT_ENERGY>  (436) 
0

>  <NONCOV_INTER_ENERGY_QM>  (436) 
0

>  <FF_Energy>  (436) 
1.2

>  <QM_Energy>  (436) 
-3.91

>  <source>  (436) 
ACET_MBZ_00

>  <Index>  (436) 
15738

$$$$
ACET-pdb1h6a-A-GLU-280:MBZ-pdb1h6a-A-PHE-311
     RDKit          3D

 22 21  0  0  0  0  0  0  0  0999 V2000
    3.1793    2.3360   -2.3849 C   0  0  0  0  0  0  0  0  0  0  0  0
    3.1683    1.9690   -3.3002 H   0  0  0  0  0  0  0  0  0  0  0  0
    2.7903    1.7067   -1.7333 H   0  0  0  0  0  0  0  0  0  0  0  0
    4.2151    2.5269   -2.1041 H   0  0  0  0  0  0  0  0  0  0  0  0
    2.3310    3.5803   -2.3803 C   0  0  0  0  0  0  0  0  0  0  0  0
    2.4610    4.3989   -1.4434 O   0  0  0  0  0  1  0  0  0  0  0  0
    1.5165    3.7315   -3.3070 O   0  0  0  0  0  0  0  0  0  0  0  0
    0.0011    2.9167    0.0698 C   0  0  0  0  0  0  0  0  0  0  0  0
   -0.6473    3.2530   -0.5926 H   0  0  0  0  0  0  0  0  0  0  0  0
    0.9165    3.2304   -0.1231 H   0  0  0  0  0  0  0  0  0  0  0  0
   -0.2855    3.3128    1.0440 H   0  0  0  0  0  0  0  0  0  0  0  0
    0.0002    1.4069    0.0009 C   0  0  0  0  0  0  0  0  0  0  0  0
   -1.1951    0.6945   -0.0013 C   0  0  0  0  0  0  0  0  0  0  0  0
   -2.0637    1.1824   -0.0049 H   0  0  0  0  0  0  0  0  0  0  0  0
   -1.2001   -0.7014   -0.0000 C   0  0  0  0  0  0  0  0  0  0  0  0
   -2.0779   -1.1919    0.0008 H   0  0  0  0  0  0  0  0  0  0  0  0
    0.0005   -1.3983    0.0017 C   0  0  0  0  0  0  0  0  0  0  0  0
   -0.0023   -2.3960    0.0043 H   0  0  0  0  0  0  0  0  0  0  0  0
    1.2001   -0.6999   -0.0000 C   0  0  0  0  0  0  0  0  0  0  0  0
    2.0831   -1.1925    0.0013 H   0  0  0  0  0  0  0  0  0  0  0  0
    1.1944    0.6982   -0.0013 C   0  0  0  0  0  0  0  0  0  0  0  0
    2.0646    1.1911   -0.0043 H   0  0  0  0  0  0  0  0  0  0  0  0
  1  5  1  0
  5  6  1  0
  5  7  2  0
  1  2  1  0
  1  3  1  0
  1  4  1  0
  8 12  1  0
 12 13  2  0
 13 15  1  0
 15 17  2  0
 17 19  1  0
 19 21  2  0
 21 12  1  0
  8  9  1  0
  8 10  1  0
  8 11  1  0
 13 14  1  0
 15 16  1  0
 17 18  1  0
 19 20  1  0
 21 22  1  0
M  CHG  1   6  -1
M  END
>  <PDB_ID>  (437) 
pdb1h6a

>  <RESIDUE_NAME>  (437) 
GLU   PHE

>  <FRAG_NAME>  (437) 
ACET   MBZ

>  <FRAG_ATOM_NUM>  (437) 
fragi: 7  fragj: 15

>  <atom.prop.CHAIN_ID>  (437) 
A A A A A A A Z Z Z Z Z Z Z Z Z Z Z Z Z Z Z

>  <atom.prop.IS_HEAVY_ATOM>  (437) 
1 0 0 0 1 1 1 1 0 0 0 1 1 0 1 0 1 0 1 0 1 0

>  <DIFUSE_FUNC_ATOM>  (437) 
atom 6   atom 7   

>  <FINAL_SINGLE_POINT_ENERGY>  (437) 
0

>  <NONCOV_INTER_ENERGY_QM>  (437) 
0

>  <FF_Energy>  (437) 
-1.07

>  <QM_Energy>  (437) 
-4.78

>  <source>  (437) 
ACET_MBZ_00

>  <Index>  (437) 
15744

$$$$
ACET-pdb1h6a-B-GLU-280:MBZ-pdb1h6a-B-PHE-311
     RDKit          3D

 22 21  0  0  0  0  0  0  0  0999 V2000
    3.5562    2.1987   -1.7379 C   0  0  0  0  0  0  0  0  0  0  0  0
    3.6292    1.7668   -2.6146 H   0  0  0  0  0  0  0  0  0  0  0  0
    3.0195    1.6791   -1.1037 H   0  0  0  0  0  0  0  0  0  0  0  0
    4.5594    2.3135   -1.3273 H   0  0  0  0  0  0  0  0  0  0  0  0
    2.8663    3.5331   -1.9382 C   0  0  0  0  0  0  0  0  0  0  0  0
    2.9041    4.4144   -1.0043 O   0  0  0  0  0  1  0  0  0  0  0  0
    2.2550    3.7705   -3.0359 O   0  0  0  0  0  0  0  0  0  0  0  0
    0.0011    2.9204    0.0406 C   0  0  0  0  0  0  0  0  0  0  0  0
   -0.5234    3.2452   -0.7275 H   0  0  0  0  0  0  0  0  0  0  0  0
    0.9380    3.2243   -0.0000 H   0  0  0  0  0  0  0  0  0  0  0  0
   -0.4443    3.3314    0.9466 H   0  0  0  0  0  0  0  0  0  0  0  0
   -0.0008    1.4089    0.0002 C   0  0  0  0  0  0  0  0  0  0  0  0
   -1.1998    0.6983   -0.0012 C   0  0  0  0  0  0  0  0  0  0  0  0
   -2.0657    1.1850   -0.0044 H   0  0  0  0  0  0  0  0  0  0  0  0
   -1.2042   -0.7011   -0.0000 C   0  0  0  0  0  0  0  0  0  0  0  0
   -2.0780   -1.1938    0.0005 H   0  0  0  0  0  0  0  0  0  0  0  0
    0.0057   -1.4034    0.0028 C   0  0  0  0  0  0  0  0  0  0  0  0
   -0.0007   -2.3979    0.0060 H   0  0  0  0  0  0  0  0  0  0  0  0
    1.2042   -0.7002   -0.0000 C   0  0  0  0  0  0  0  0  0  0  0  0
    2.0884   -1.1919    0.0007 H   0  0  0  0  0  0  0  0  0  0  0  0
    1.1948    0.6976   -0.0018 C   0  0  0  0  0  0  0  0  0  0  0  0
    2.0653    1.1928   -0.0053 H   0  0  0  0  0  0  0  0  0  0  0  0
  1  5  1  0
  5  6  1  0
  5  7  2  0
  1  2  1  0
  1  3  1  0
  1  4  1  0
  8 12  1  0
 12 13  2  0
 13 15  1  0
 15 17  2  0
 17 19  1  0
 19 21  2  0
 21 12  1  0
  8  9  1  0
  8 10  1  0
  8 11  1  0
 13 14  1  0
 15 16  1  0
 17 18  1  0
 19 20  1  0
 21 22  1  0
M  CHG  1   6  -1
M  END
>  <PDB_ID>  (438) 
pdb1h6a

>  <RESIDUE_NAME>  (438) 
GLU   PHE

>  <FRAG_NAME>  (438) 
ACET   MBZ

>  <FRAG_ATOM_NUM>  (438) 
fragi: 7  fragj: 15

>  <atom.prop.CHAIN_ID>  (438) 
A A A A A A A Z Z Z Z Z Z Z Z Z Z Z Z Z Z Z

>  <atom.prop.IS_HEAVY_ATOM>  (438) 
1 0 0 0 1 1 1 1 0 0 0 1 1 0 1 0 1 0 1 0 1 0

>  <DIFUSE_FUNC_ATOM>  (438) 
atom 6   atom 7   

>  <FINAL_SINGLE_POINT_ENERGY>  (438) 
0

>  <NONCOV_INTER_ENERGY_QM>  (438) 
0

>  <FF_Energy>  (438) 
0.53

>  <QM_Energy>  (438) 
-1.06

>  <source>  (438) 
ACET_MBZ_00

>  <Index>  (438) 
15747

$$$$
ACET-pdb1h70-A-GLU-171:MBZ-pdb1h70-A-PHE-0
     RDKit          3D

 22 21  0  0  0  0  0  0  0  0999 V2000
    4.3167   -2.5704    0.7898 C   0  0  0  0  0  0  0  0  0  0  0  0
    4.1234   -3.4353    1.2239 H   0  0  0  0  0  0  0  0  0  0  0  0
    3.9566   -1.8135    1.3098 H   0  0  0  0  0  0  0  0  0  0  0  0
    5.3992   -2.4569    0.7308 H   0  0  0  0  0  0  0  0  0  0  0  0
    3.6179   -2.5702   -0.5631 C   0  0  0  0  0  0  0  0  0  0  0  0
    3.8272   -1.6224   -1.3611 O   0  0  0  0  0  1  0  0  0  0  0  0
    2.8212   -3.4928   -0.8146 O   0  0  0  0  0  0  0  0  0  0  0  0
   -0.0223    2.9077   -0.0924 C   0  0  0  0  0  0  0  0  0  0  0  0
   -0.9855    3.1813   -0.2898 H   0  0  0  0  0  0  0  0  0  0  0  0
    0.5222    3.1688   -0.9152 H   0  0  0  0  0  0  0  0  0  0  0  0
    0.3253    3.5291    0.7329 H   0  0  0  0  0  0  0  0  0  0  0  0
    0.0009    1.4000   -0.0058 C   0  0  0  0  0  0  0  0  0  0  0  0
   -1.1899    0.6863   -0.0002 C   0  0  0  0  0  0  0  0  0  0  0  0
   -2.0597    1.1778    0.0030 H   0  0  0  0  0  0  0  0  0  0  0  0
   -1.1930   -0.6967    0.0000 C   0  0  0  0  0  0  0  0  0  0  0  0
   -2.0723   -1.1918    0.0081 H   0  0  0  0  0  0  0  0  0  0  0  0
    0.0000   -1.3868   -0.0096 C   0  0  0  0  0  0  0  0  0  0  0  0
   -0.0019   -2.3887   -0.0236 H   0  0  0  0  0  0  0  0  0  0  0  0
    1.1930   -0.6930    0.0000 C   0  0  0  0  0  0  0  0  0  0  0  0
    2.0776   -1.1915   -0.0035 H   0  0  0  0  0  0  0  0  0  0  0  0
    1.1890    0.6902    0.0156 C   0  0  0  0  0  0  0  0  0  0  0  0
    2.0612    1.1869    0.0420 H   0  0  0  0  0  0  0  0  0  0  0  0
  1  5  1  0
  5  6  1  0
  5  7  2  0
  1  2  1  0
  1  3  1  0
  1  4  1  0
  8 12  1  0
 12 13  2  0
 13 15  1  0
 15 17  2  0
 17 19  1  0
 19 21  2  0
 21 12  1  0
  8  9  1  0
  8 10  1  0
  8 11  1  0
 13 14  1  0
 15 16  1  0
 17 18  1  0
 19 20  1  0
 21 22  1  0
M  CHG  1   6  -1
M  END
>  <PDB_ID>  (439) 
pdb1h70

>  <RESIDUE_NAME>  (439) 
GLU   PHE

>  <FRAG_NAME>  (439) 
ACET   MBZ

>  <FRAG_ATOM_NUM>  (439) 
fragi: 7  fragj: 15

>  <atom.prop.CHAIN_ID>  (439) 
A A A A A A A Z Z Z Z Z Z Z Z Z Z Z Z Z Z Z

>  <atom.prop.IS_HEAVY_ATOM>  (439) 
1 0 0 0 1 1 1 1 0 0 0 1 1 0 1 0 1 0 1 0 1 0

>  <DIFUSE_FUNC_ATOM>  (439) 
atom 6   atom 7   

>  <FINAL_SINGLE_POINT_ENERGY>  (439) 
0

>  <NONCOV_INTER_ENERGY_QM>  (439) 
0

>  <FF_Energy>  (439) 
8.77

>  <QM_Energy>  (439) 
-4.07

>  <source>  (439) 
ACET_MBZ_00

>  <Index>  (439) 
15779

$$$$
ACET-pdb2i15-C-ASP-449:MBZ-pdb2i15-C-PHE-453
     RDKit          3D

 22 21  0  0  0  0  0  0  0  0999 V2000
   -4.4260    1.6132    2.6526 C   0  0  0  0  0  0  0  0  0  0  0  0
   -3.5750    2.1058    2.5019 H   0  0  0  0  0  0  0  0  0  0  0  0
   -4.3445    1.0199    3.4461 H   0  0  0  0  0  0  0  0  0  0  0  0
   -5.1993    2.3502    2.8696 H   0  0  0  0  0  0  0  0  0  0  0  0
   -4.7377    0.7803    1.4409 C   0  0  0  0  0  0  0  0  0  0  0  0
   -5.8110    0.1329    1.4258 O   0  0  0  0  0  1  0  0  0  0  0  0
   -3.9163    0.7647    0.4979 O   0  0  0  0  0  0  0  0  0  0  0  0
   -0.0014    2.8944   -0.0308 C   0  0  0  0  0  0  0  0  0  0  0  0
    0.8080    3.2166    0.4351 H   0  0  0  0  0  0  0  0  0  0  0  0
   -0.8244    3.2118    0.4145 H   0  0  0  0  0  0  0  0  0  0  0  0
    0.0096    3.3072   -1.0395 H   0  0  0  0  0  0  0  0  0  0  0  0
    0.0028    1.4011    0.0001 C   0  0  0  0  0  0  0  0  0  0  0  0
   -1.1954    0.6905   -0.0003 C   0  0  0  0  0  0  0  0  0  0  0  0
   -2.0618    1.1853   -0.0025 H   0  0  0  0  0  0  0  0  0  0  0  0
   -1.2060   -0.6983    0.0000 C   0  0  0  0  0  0  0  0  0  0  0  0
   -2.0829   -1.1898    0.0005 H   0  0  0  0  0  0  0  0  0  0  0  0
   -0.0061   -1.3954    0.0005 C   0  0  0  0  0  0  0  0  0  0  0  0
   -0.0068   -2.3935    0.0005 H   0  0  0  0  0  0  0  0  0  0  0  0
    1.2060   -0.6969   -0.0000 C   0  0  0  0  0  0  0  0  0  0  0  0
    2.0819   -1.1950    0.0019 H   0  0  0  0  0  0  0  0  0  0  0  0
    1.1988    0.6990   -0.0003 C   0  0  0  0  0  0  0  0  0  0  0  0
    2.0664    1.1937   -0.0020 H   0  0  0  0  0  0  0  0  0  0  0  0
  1  5  1  0
  5  6  1  0
  5  7  2  0
  1  2  1  0
  1  3  1  0
  1  4  1  0
  8 12  1  0
 12 13  2  0
 13 15  1  0
 15 17  2  0
 17 19  1  0
 19 21  2  0
 21 12  1  0
  8  9  1  0
  8 10  1  0
  8 11  1  0
 13 14  1  0
 15 16  1  0
 17 18  1  0
 19 20  1  0
 21 22  1  0
M  CHG  1   6  -1
M  END
>  <PDB_ID>  (440) 
pdb2i15

>  <RESIDUE_NAME>  (440) 
ASP   PHE

>  <FRAG_NAME>  (440) 
ACET   MBZ

>  <FRAG_ATOM_NUM>  (440) 
fragi: 7  fragj: 15

>  <atom.prop.CHAIN_ID>  (440) 
A A A A A A A Z Z Z Z Z Z Z Z Z Z Z Z Z Z Z

>  <atom.prop.IS_HEAVY_ATOM>  (440) 
1 0 0 0 1 1 1 1 0 0 0 1 1 0 1 0 1 0 1 0 1 0

>  <DIFUSE_FUNC_ATOM>  (440) 
atom 6   atom 7   

>  <FINAL_SINGLE_POINT_ENERGY>  (440) 
0

>  <NONCOV_INTER_ENERGY_QM>  (440) 
0

>  <FF_Energy>  (440) 
8.6

>  <QM_Energy>  (440) 
-5.24

>  <source>  (440) 
ACET_MBZ_00

>  <Index>  (440) 
15792

$$$$
ACET-pdb2i3o-B-GLU-460:MBZ-pdb2i3o-B-PHE-486
     RDKit          3D

 22 21  0  0  0  0  0  0  0  0999 V2000
    0.3810    0.3461    3.2083 C   0  0  0  0  0  0  0  0  0  0  0  0
    1.1604   -0.0721    2.7873 H   0  0  0  0  0  0  0  0  0  0  0  0
   -0.4388    0.2365    2.6819 H   0  0  0  0  0  0  0  0  0  0  0  0
    0.2273   -0.1233    4.1800 H   0  0  0  0  0  0  0  0  0  0  0  0
    0.6608    1.8367    3.3218 C   0  0  0  0  0  0  0  0  0  0  0  0
   -0.1548    2.5471    3.9395 O   0  0  0  0  0  1  0  0  0  0  0  0
    1.6929    2.3004    2.7927 O   0  0  0  0  0  0  0  0  0  0  0  0
    0.0038    2.9058   -0.1145 C   0  0  0  0  0  0  0  0  0  0  0  0
    0.7815    3.2485    0.3834 H   0  0  0  0  0  0  0  0  0  0  0  0
   -0.8466    3.2428    0.2511 H   0  0  0  0  0  0  0  0  0  0  0  0
    0.0862    3.2546   -1.1438 H   0  0  0  0  0  0  0  0  0  0  0  0
   -0.0002    1.4062   -0.0011 C   0  0  0  0  0  0  0  0  0  0  0  0
   -1.1983    0.6961    0.0019 C   0  0  0  0  0  0  0  0  0  0  0  0
   -2.0647    1.1843    0.0042 H   0  0  0  0  0  0  0  0  0  0  0  0
   -1.2036   -0.7010   -0.0000 C   0  0  0  0  0  0  0  0  0  0  0  0
   -2.0787   -1.1929    0.0025 H   0  0  0  0  0  0  0  0  0  0  0  0
    0.0020   -1.3983   -0.0038 C   0  0  0  0  0  0  0  0  0  0  0  0
   -0.0021   -2.3963   -0.0101 H   0  0  0  0  0  0  0  0  0  0  0  0
    1.2036   -0.7005    0.0000 C   0  0  0  0  0  0  0  0  0  0  0  0
    2.0852   -1.1933    0.0022 H   0  0  0  0  0  0  0  0  0  0  0  0
    1.1965    0.6975    0.0030 C   0  0  0  0  0  0  0  0  0  0  0  0
    2.0661    1.1918    0.0074 H   0  0  0  0  0  0  0  0  0  0  0  0
  1  5  1  0
  5  6  1  0
  5  7  2  0
  1  2  1  0
  1  3  1  0
  1  4  1  0
  8 12  1  0
 12 13  2  0
 13 15  1  0
 15 17  2  0
 17 19  1  0
 19 21  2  0
 21 12  1  0
  8  9  1  0
  8 10  1  0
  8 11  1  0
 13 14  1  0
 15 16  1  0
 17 18  1  0
 19 20  1  0
 21 22  1  0
M  CHG  1   6  -1
M  END
>  <PDB_ID>  (441) 
pdb2i3o

>  <RESIDUE_NAME>  (441) 
GLU   PHE

>  <FRAG_NAME>  (441) 
ACET   MBZ

>  <FRAG_ATOM_NUM>  (441) 
fragi: 7  fragj: 15

>  <atom.prop.CHAIN_ID>  (441) 
A A A A A A A Z Z Z Z Z Z Z Z Z Z Z Z Z Z Z

>  <atom.prop.IS_HEAVY_ATOM>  (441) 
1 0 0 0 1 1 1 1 0 0 0 1 1 0 1 0 1 0 1 0 1 0

>  <DIFUSE_FUNC_ATOM>  (441) 
atom 6   atom 7   

>  <FINAL_SINGLE_POINT_ENERGY>  (441) 
0

>  <NONCOV_INTER_ENERGY_QM>  (441) 
0

>  <FF_Energy>  (441) 
1.15

>  <QM_Energy>  (441) 
-5.1

>  <source>  (441) 
ACET_MBZ_00

>  <Index>  (441) 
15837

$$$$
ACET-pdb2i3o-C-GLU-460:MBZ-pdb2i3o-C-PHE-486
     RDKit          3D

 22 21  0  0  0  0  0  0  0  0999 V2000
    0.3186    0.2371    3.1796 C   0  0  0  0  0  0  0  0  0  0  0  0
    1.1467   -0.1233    2.7964 H   0  0  0  0  0  0  0  0  0  0  0  0
   -0.4622    0.0810    2.6052 H   0  0  0  0  0  0  0  0  0  0  0  0
    0.1439   -0.2501    4.1389 H   0  0  0  0  0  0  0  0  0  0  0  0
    0.4932    1.7409    3.3155 C   0  0  0  0  0  0  0  0  0  0  0  0
   -0.4077    2.3918    3.8867 O   0  0  0  0  0  1  0  0  0  0  0  0
    1.5273    2.2718    2.8475 O   0  0  0  0  0  0  0  0  0  0  0  0
    0.0008    2.9093   -0.0769 C   0  0  0  0  0  0  0  0  0  0  0  0
    0.7568    3.2425    0.4602 H   0  0  0  0  0  0  0  0  0  0  0  0
   -0.8645    3.2358    0.2645 H   0  0  0  0  0  0  0  0  0  0  0  0
    0.1214    3.2864   -1.0925 H   0  0  0  0  0  0  0  0  0  0  0  0
   -0.0016    1.4083   -0.0005 C   0  0  0  0  0  0  0  0  0  0  0  0
   -1.1989    0.6997    0.0003 C   0  0  0  0  0  0  0  0  0  0  0  0
   -2.0662    1.1860   -0.0002 H   0  0  0  0  0  0  0  0  0  0  0  0
   -1.2043   -0.6999    0.0000 C   0  0  0  0  0  0  0  0  0  0  0  0
   -2.0794   -1.1910    0.0027 H   0  0  0  0  0  0  0  0  0  0  0  0
    0.0027   -1.4009   -0.0015 C   0  0  0  0  0  0  0  0  0  0  0  0
   -0.0045   -2.3978   -0.0043 H   0  0  0  0  0  0  0  0  0  0  0  0
    1.2043   -0.7044   -0.0000 C   0  0  0  0  0  0  0  0  0  0  0  0
    2.0862   -1.1956    0.0015 H   0  0  0  0  0  0  0  0  0  0  0  0
    1.1978    0.6972    0.0018 C   0  0  0  0  0  0  0  0  0  0  0  0
    2.0659    1.1906    0.0035 H   0  0  0  0  0  0  0  0  0  0  0  0
  1  5  1  0
  5  6  1  0
  5  7  2  0
  1  2  1  0
  1  3  1  0
  1  4  1  0
  8 12  1  0
 12 13  2  0
 13 15  1  0
 15 17  2  0
 17 19  1  0
 19 21  2  0
 21 12  1  0
  8  9  1  0
  8 10  1  0
  8 11  1  0
 13 14  1  0
 15 16  1  0
 17 18  1  0
 19 20  1  0
 21 22  1  0
M  CHG  1   6  -1
M  END
>  <PDB_ID>  (442) 
pdb2i3o

>  <RESIDUE_NAME>  (442) 
GLU   PHE

>  <FRAG_NAME>  (442) 
ACET   MBZ

>  <FRAG_ATOM_NUM>  (442) 
fragi: 7  fragj: 15

>  <atom.prop.CHAIN_ID>  (442) 
A A A A A A A Z Z Z Z Z Z Z Z Z Z Z Z Z Z Z

>  <atom.prop.IS_HEAVY_ATOM>  (442) 
1 0 0 0 1 1 1 1 0 0 0 1 1 0 1 0 1 0 1 0 1 0

>  <DIFUSE_FUNC_ATOM>  (442) 
atom 6   atom 7   

>  <FINAL_SINGLE_POINT_ENERGY>  (442) 
0

>  <NONCOV_INTER_ENERGY_QM>  (442) 
0

>  <FF_Energy>  (442) 
1.65

>  <QM_Energy>  (442) 
-5.01

>  <source>  (442) 
ACET_MBZ_00

>  <Index>  (442) 
15839

$$$$
ACET-pdb2i3o-D-GLU-460:MBZ-pdb2i3o-D-PHE-486
     RDKit          3D

 22 21  0  0  0  0  0  0  0  0999 V2000
    0.3246    0.2645    3.1652 C   0  0  0  0  0  0  0  0  0  0  0  0
    1.1568   -0.1357    2.8372 H   0  0  0  0  0  0  0  0  0  0  0  0
   -0.4270    0.1339    2.5506 H   0  0  0  0  0  0  0  0  0  0  0  0
    0.0740   -0.2007    4.1185 H   0  0  0  0  0  0  0  0  0  0  0  0
    0.5546    1.7594    3.2988 C   0  0  0  0  0  0  0  0  0  0  0  0
   -0.3231    2.4464    3.8687 O   0  0  0  0  0  1  0  0  0  0  0  0
    1.6094    2.2512    2.8385 O   0  0  0  0  0  0  0  0  0  0  0  0
    0.0024    2.9128   -0.0661 C   0  0  0  0  0  0  0  0  0  0  0  0
    0.7552    3.2416    0.4805 H   0  0  0  0  0  0  0  0  0  0  0  0
   -0.8648    3.2344    0.2763 H   0  0  0  0  0  0  0  0  0  0  0  0
    0.1277    3.3019   -1.0765 H   0  0  0  0  0  0  0  0  0  0  0  0
    0.0007    1.4086    0.0000 C   0  0  0  0  0  0  0  0  0  0  0  0
   -1.2012    0.6987    0.0008 C   0  0  0  0  0  0  0  0  0  0  0  0
   -2.0661    1.1868    0.0004 H   0  0  0  0  0  0  0  0  0  0  0  0
   -1.2085   -0.7029    0.0000 C   0  0  0  0  0  0  0  0  0  0  0  0
   -2.0826   -1.1928    0.0020 H   0  0  0  0  0  0  0  0  0  0  0  0
    0.0002   -1.4033   -0.0021 C   0  0  0  0  0  0  0  0  0  0  0  0
   -0.0014   -2.3977   -0.0055 H   0  0  0  0  0  0  0  0  0  0  0  0
    1.2085   -0.6986    0.0000 C   0  0  0  0  0  0  0  0  0  0  0  0
    2.0872   -1.1943    0.0019 H   0  0  0  0  0  0  0  0  0  0  0  0
    1.2002    0.6976    0.0013 C   0  0  0  0  0  0  0  0  0  0  0  0
    2.0684    1.1937    0.0025 H   0  0  0  0  0  0  0  0  0  0  0  0
  1  5  1  0
  5  6  1  0
  5  7  2  0
  1  2  1  0
  1  3  1  0
  1  4  1  0
  8 12  1  0
 12 13  2  0
 13 15  1  0
 15 17  2  0
 17 19  1  0
 19 21  2  0
 21 12  1  0
  8  9  1  0
  8 10  1  0
  8 11  1  0
 13 14  1  0
 15 16  1  0
 17 18  1  0
 19 20  1  0
 21 22  1  0
M  CHG  1   6  -1
M  END
>  <PDB_ID>  (443) 
pdb2i3o

>  <RESIDUE_NAME>  (443) 
GLU   PHE

>  <FRAG_NAME>  (443) 
ACET   MBZ

>  <FRAG_ATOM_NUM>  (443) 
fragi: 7  fragj: 15

>  <atom.prop.CHAIN_ID>  (443) 
A A A A A A A Z Z Z Z Z Z Z Z Z Z Z Z Z Z Z

>  <atom.prop.IS_HEAVY_ATOM>  (443) 
1 0 0 0 1 1 1 1 0 0 0 1 1 0 1 0 1 0 1 0 1 0

>  <DIFUSE_FUNC_ATOM>  (443) 
atom 6   atom 7   

>  <FINAL_SINGLE_POINT_ENERGY>  (443) 
0

>  <NONCOV_INTER_ENERGY_QM>  (443) 
0

>  <FF_Energy>  (443) 
1.7

>  <QM_Energy>  (443) 
-5.09

>  <source>  (443) 
ACET_MBZ_00

>  <Index>  (443) 
15841

$$$$
ACET-pdb2i5q-A-GLU-371:MBZ-pdb2i5q-A-PHE-364
     RDKit          3D

 22 21  0  0  0  0  0  0  0  0999 V2000
    4.8545    4.7572   -0.8760 C   0  0  0  0  0  0  0  0  0  0  0  0
    5.3840    4.7213   -1.7041 H   0  0  0  0  0  0  0  0  0  0  0  0
    5.2034    4.1500   -0.1847 H   0  0  0  0  0  0  0  0  0  0  0  0
    4.8818    5.7765   -0.4907 H   0  0  0  0  0  0  0  0  0  0  0  0
    3.4469    4.2953   -1.2168 C   0  0  0  0  0  0  0  0  0  0  0  0
    2.4795    4.8180   -0.6197 O   0  0  0  0  0  1  0  0  0  0  0  0
    3.3123    3.3975   -2.0730 O   0  0  0  0  0  0  0  0  0  0  0  0
    0.0012    2.9113   -0.0090 C   0  0  0  0  0  0  0  0  0  0  0  0
    0.9373    3.2168    0.0672 H   0  0  0  0  0  0  0  0  0  0  0  0
   -0.5445    3.2216    0.7540 H   0  0  0  0  0  0  0  0  0  0  0  0
   -0.4177    3.3460   -0.9166 H   0  0  0  0  0  0  0  0  0  0  0  0
    0.0000    1.4039    0.0003 C   0  0  0  0  0  0  0  0  0  0  0  0
   -1.1996    0.6962   -0.0001 C   0  0  0  0  0  0  0  0  0  0  0  0
   -2.0647    1.1847   -0.0013 H   0  0  0  0  0  0  0  0  0  0  0  0
   -1.2026   -0.6986   -0.0000 C   0  0  0  0  0  0  0  0  0  0  0  0
   -2.0778   -1.1914    0.0013 H   0  0  0  0  0  0  0  0  0  0  0  0
    0.0014   -1.3945   -0.0000 C   0  0  0  0  0  0  0  0  0  0  0  0
   -0.0029   -2.3931    0.0001 H   0  0  0  0  0  0  0  0  0  0  0  0
    1.2026   -0.6985    0.0000 C   0  0  0  0  0  0  0  0  0  0  0  0
    2.0833   -1.1967    0.0021 H   0  0  0  0  0  0  0  0  0  0  0  0
    1.1983    0.6915   -0.0001 C   0  0  0  0  0  0  0  0  0  0  0  0
    2.0659    1.1885   -0.0017 H   0  0  0  0  0  0  0  0  0  0  0  0
  1  5  1  0
  5  6  1  0
  5  7  2  0
  1  2  1  0
  1  3  1  0
  1  4  1  0
  8 12  1  0
 12 13  2  0
 13 15  1  0
 15 17  2  0
 17 19  1  0
 19 21  2  0
 21 12  1  0
  8  9  1  0
  8 10  1  0
  8 11  1  0
 13 14  1  0
 15 16  1  0
 17 18  1  0
 19 20  1  0
 21 22  1  0
M  CHG  1   6  -1
M  END
>  <PDB_ID>  (444) 
pdb2i5q

>  <RESIDUE_NAME>  (444) 
GLU   PHE

>  <FRAG_NAME>  (444) 
ACET   MBZ

>  <FRAG_ATOM_NUM>  (444) 
fragi: 7  fragj: 15

>  <atom.prop.CHAIN_ID>  (444) 
A A A A A A A Z Z Z Z Z Z Z Z Z Z Z Z Z Z Z

>  <atom.prop.IS_HEAVY_ATOM>  (444) 
1 0 0 0 1 1 1 1 0 0 0 1 1 0 1 0 1 0 1 0 1 0

>  <DIFUSE_FUNC_ATOM>  (444) 
atom 6   atom 7   

>  <FINAL_SINGLE_POINT_ENERGY>  (444) 
0

>  <NONCOV_INTER_ENERGY_QM>  (444) 
0

>  <FF_Energy>  (444) 
-1.03

>  <QM_Energy>  (444) 
-6.48

>  <source>  (444) 
ACET_MBZ_00

>  <Index>  (444) 
15960

$$$$
ACET-pdb2i5q-B-GLU-371:MBZ-pdb2i5q-B-PHE-364
     RDKit          3D

 22 21  0  0  0  0  0  0  0  0999 V2000
    4.8523    4.7610   -0.8737 C   0  0  0  0  0  0  0  0  0  0  0  0
    5.3834    4.7280   -1.7009 H   0  0  0  0  0  0  0  0  0  0  0  0
    5.2026    4.1553   -0.1827 H   0  0  0  0  0  0  0  0  0  0  0  0
    4.8791    5.7796   -0.4868 H   0  0  0  0  0  0  0  0  0  0  0  0
    3.4502    4.3026   -1.2131 C   0  0  0  0  0  0  0  0  0  0  0  0
    2.4859    4.8401   -0.6230 O   0  0  0  0  0  1  0  0  0  0  0  0
    3.3160    3.3929   -2.0613 O   0  0  0  0  0  0  0  0  0  0  0  0
   -0.0012    2.9077   -0.0159 C   0  0  0  0  0  0  0  0  0  0  0  0
    0.9346    3.2163    0.0655 H   0  0  0  0  0  0  0  0  0  0  0  0
   -0.5518    3.2215    0.7428 H   0  0  0  0  0  0  0  0  0  0  0  0
   -0.4153    3.3384   -0.9276 H   0  0  0  0  0  0  0  0  0  0  0  0
    0.0006    1.4039   -0.0010 C   0  0  0  0  0  0  0  0  0  0  0  0
   -1.1953    0.6944    0.0007 C   0  0  0  0  0  0  0  0  0  0  0  0
   -2.0635    1.1821    0.0012 H   0  0  0  0  0  0  0  0  0  0  0  0
   -1.1997   -0.7006   -0.0000 C   0  0  0  0  0  0  0  0  0  0  0  0
   -2.0772   -1.1910    0.0012 H   0  0  0  0  0  0  0  0  0  0  0  0
   -0.0005   -1.3943    0.0001 C   0  0  0  0  0  0  0  0  0  0  0  0
   -0.0025   -2.3937   -0.0005 H   0  0  0  0  0  0  0  0  0  0  0  0
    1.1997   -0.6976    0.0000 C   0  0  0  0  0  0  0  0  0  0  0  0
    2.0811   -1.1948    0.0016 H   0  0  0  0  0  0  0  0  0  0  0  0
    1.1953    0.6941    0.0002 C   0  0  0  0  0  0  0  0  0  0  0  0
    2.0653    1.1893    0.0002 H   0  0  0  0  0  0  0  0  0  0  0  0
  1  5  1  0
  5  6  1  0
  5  7  2  0
  1  2  1  0
  1  3  1  0
  1  4  1  0
  8 12  1  0
 12 13  2  0
 13 15  1  0
 15 17  2  0
 17 19  1  0
 19 21  2  0
 21 12  1  0
  8  9  1  0
  8 10  1  0
  8 11  1  0
 13 14  1  0
 15 16  1  0
 17 18  1  0
 19 20  1  0
 21 22  1  0
M  CHG  1   6  -1
M  END
>  <PDB_ID>  (445) 
pdb2i5q

>  <RESIDUE_NAME>  (445) 
GLU   PHE

>  <FRAG_NAME>  (445) 
ACET   MBZ

>  <FRAG_ATOM_NUM>  (445) 
fragi: 7  fragj: 15

>  <atom.prop.CHAIN_ID>  (445) 
A A A A A A A Z Z Z Z Z Z Z Z Z Z Z Z Z Z Z

>  <atom.prop.IS_HEAVY_ATOM>  (445) 
1 0 0 0 1 1 1 1 0 0 0 1 1 0 1 0 1 0 1 0 1 0

>  <DIFUSE_FUNC_ATOM>  (445) 
atom 6   atom 7   

>  <FINAL_SINGLE_POINT_ENERGY>  (445) 
0

>  <NONCOV_INTER_ENERGY_QM>  (445) 
0

>  <FF_Energy>  (445) 
-1.16

>  <QM_Energy>  (445) 
-6.5

>  <source>  (445) 
ACET_MBZ_00

>  <Index>  (445) 
15965

$$$$
ACET-pdb2i62-C-GLU-234:MBZ-pdb2i62-C-PHE-193
     RDKit          3D

 22 21  0  0  0  0  0  0  0  0999 V2000
   -6.2591   -0.9354   -0.6639 C   0  0  0  0  0  0  0  0  0  0  0  0
   -6.8690   -1.5294   -1.1572 H   0  0  0  0  0  0  0  0  0  0  0  0
   -6.1019   -0.0886   -1.1388 H   0  0  0  0  0  0  0  0  0  0  0  0
   -6.7291   -0.6987    0.2906 H   0  0  0  0  0  0  0  0  0  0  0  0
   -4.9388   -1.6397   -0.5116 C   0  0  0  0  0  0  0  0  0  0  0  0
   -4.5699   -2.3781   -1.4398 O   0  0  0  0  0  1  0  0  0  0  0  0
   -4.2546   -1.4544    0.5193 O   0  0  0  0  0  0  0  0  0  0  0  0
   -0.0155    2.9022   -0.0102 C   0  0  0  0  0  0  0  0  0  0  0  0
    0.8437    3.2203    0.3626 H   0  0  0  0  0  0  0  0  0  0  0  0
   -0.7806    3.2152    0.5333 H   0  0  0  0  0  0  0  0  0  0  0  0
   -0.1213    3.3339   -1.0054 H   0  0  0  0  0  0  0  0  0  0  0  0
   -0.0089    1.4040    0.0063 C   0  0  0  0  0  0  0  0  0  0  0  0
   -1.2075    0.7040   -0.0031 C   0  0  0  0  0  0  0  0  0  0  0  0
   -2.0714    1.1993   -0.0140 H   0  0  0  0  0  0  0  0  0  0  0  0
   -1.2178   -0.6835   -0.0000 C   0  0  0  0  0  0  0  0  0  0  0  0
   -2.0831   -1.1861    0.0111 H   0  0  0  0  0  0  0  0  0  0  0  0
    0.0100   -1.4026   -0.0112 C   0  0  0  0  0  0  0  0  0  0  0  0
   -0.0169   -2.3972   -0.0274 H   0  0  0  0  0  0  0  0  0  0  0  0
    1.2178   -0.7167    0.0000 C   0  0  0  0  0  0  0  0  0  0  0  0
    2.0943   -1.2033    0.0041 H   0  0  0  0  0  0  0  0  0  0  0  0
    1.2063    0.6947    0.0080 C   0  0  0  0  0  0  0  0  0  0  0  0
    2.0673    1.1905    0.0140 H   0  0  0  0  0  0  0  0  0  0  0  0
  1  5  1  0
  5  6  1  0
  5  7  2  0
  1  2  1  0
  1  3  1  0
  1  4  1  0
  8 12  1  0
 12 13  2  0
 13 15  1  0
 15 17  2  0
 17 19  1  0
 19 21  2  0
 21 12  1  0
  8  9  1  0
  8 10  1  0
  8 11  1  0
 13 14  1  0
 15 16  1  0
 17 18  1  0
 19 20  1  0
 21 22  1  0
M  CHG  1   6  -1
M  END
>  <PDB_ID>  (446) 
pdb2i62

>  <RESIDUE_NAME>  (446) 
GLU   PHE

>  <FRAG_NAME>  (446) 
ACET   MBZ

>  <FRAG_ATOM_NUM>  (446) 
fragi: 7  fragj: 15

>  <atom.prop.CHAIN_ID>  (446) 
A A A A A A A Z Z Z Z Z Z Z Z Z Z Z Z Z Z Z

>  <atom.prop.IS_HEAVY_ATOM>  (446) 
1 0 0 0 1 1 1 1 0 0 0 1 1 0 1 0 1 0 1 0 1 0

>  <DIFUSE_FUNC_ATOM>  (446) 
atom 6   atom 7   

>  <FINAL_SINGLE_POINT_ENERGY>  (446) 
0

>  <NONCOV_INTER_ENERGY_QM>  (446) 
0

>  <FF_Energy>  (446) 
-1.6

>  <QM_Energy>  (446) 
-6.87

>  <source>  (446) 
ACET_MBZ_00

>  <Index>  (446) 
15994

$$$$
ACET-pdb2i5h-A-GLU-172:MBZ-pdb2i5h-A-PHE-158
     RDKit          3D

 22 21  0  0  0  0  0  0  0  0999 V2000
   -0.7869    2.6768   -4.4637 C   0  0  0  0  0  0  0  0  0  0  0  0
   -0.4087    1.8173   -4.7516 H   0  0  0  0  0  0  0  0  0  0  0  0
   -0.1075    3.2771   -4.0856 H   0  0  0  0  0  0  0  0  0  0  0  0
   -1.2334    3.1637   -5.3308 H   0  0  0  0  0  0  0  0  0  0  0  0
   -1.8004    2.3903   -3.3760 C   0  0  0  0  0  0  0  0  0  0  0  0
   -2.5666    3.3083   -3.0159 O   0  0  0  0  0  1  0  0  0  0  0  0
   -1.8275    1.2443   -2.8821 O   0  0  0  0  0  0  0  0  0  0  0  0
   -0.0075    2.8941   -0.0244 C   0  0  0  0  0  0  0  0  0  0  0  0
   -0.8173    3.1899   -0.5393 H   0  0  0  0  0  0  0  0  0  0  0  0
    0.8154    3.2016   -0.5089 H   0  0  0  0  0  0  0  0  0  0  0  0
   -0.0286    3.4010    0.9404 H   0  0  0  0  0  0  0  0  0  0  0  0
    0.0025    1.3987   -0.0076 C   0  0  0  0  0  0  0  0  0  0  0  0
   -1.1983    0.6932   -0.0083 C   0  0  0  0  0  0  0  0  0  0  0  0
   -2.0626    1.1948   -0.0170 H   0  0  0  0  0  0  0  0  0  0  0  0
   -1.2193   -0.6921   -0.0000 C   0  0  0  0  0  0  0  0  0  0  0  0
   -2.0884   -1.1851   -0.0108 H   0  0  0  0  0  0  0  0  0  0  0  0
   -0.0074   -1.3907    0.0248 C   0  0  0  0  0  0  0  0  0  0  0  0
   -0.0130   -2.3897    0.0610 H   0  0  0  0  0  0  0  0  0  0  0  0
    1.2193   -0.7015   -0.0000 C   0  0  0  0  0  0  0  0  0  0  0  0
    2.0847   -1.2025   -0.0097 H   0  0  0  0  0  0  0  0  0  0  0  0
    1.2032    0.6924   -0.0090 C   0  0  0  0  0  0  0  0  0  0  0  0
    2.0697    1.1940   -0.0179 H   0  0  0  0  0  0  0  0  0  0  0  0
  1  5  1  0
  5  6  1  0
  5  7  2  0
  1  2  1  0
  1  3  1  0
  1  4  1  0
  8 12  1  0
 12 13  2  0
 13 15  1  0
 15 17  2  0
 17 19  1  0
 19 21  2  0
 21 12  1  0
  8  9  1  0
  8 10  1  0
  8 11  1  0
 13 14  1  0
 15 16  1  0
 17 18  1  0
 19 20  1  0
 21 22  1  0
M  CHG  1   6  -1
M  END
>  <PDB_ID>  (447) 
pdb2i5h

>  <RESIDUE_NAME>  (447) 
GLU   PHE

>  <FRAG_NAME>  (447) 
ACET   MBZ

>  <FRAG_ATOM_NUM>  (447) 
fragi: 7  fragj: 15

>  <atom.prop.CHAIN_ID>  (447) 
A A A A A A A Z Z Z Z Z Z Z Z Z Z Z Z Z Z Z

>  <atom.prop.IS_HEAVY_ATOM>  (447) 
1 0 0 0 1 1 1 1 0 0 0 1 1 0 1 0 1 0 1 0 1 0

>  <DIFUSE_FUNC_ATOM>  (447) 
atom 6   atom 7   

>  <FINAL_SINGLE_POINT_ENERGY>  (447) 
0

>  <NONCOV_INTER_ENERGY_QM>  (447) 
0

>  <FF_Energy>  (447) 
0.95

>  <QM_Energy>  (447) 
-4.07

>  <source>  (447) 
ACET_MBZ_00

>  <Index>  (447) 
16048

$$$$
ACET-pdb1hcu-A-ASP-235:MBZ-pdb1hcu-A-PHE-225
     RDKit          3D

 22 21  0  0  0  0  0  0  0  0999 V2000
   -5.7257    2.8105    1.3518 C   0  0  0  0  0  0  0  0  0  0  0  0
   -6.3321    2.0736    1.6225 H   0  0  0  0  0  0  0  0  0  0  0  0
   -5.5858    2.8065    0.3701 H   0  0  0  0  0  0  0  0  0  0  0  0
   -6.1970    3.7550    1.6237 H   0  0  0  0  0  0  0  0  0  0  0  0
   -4.3842    2.6129    2.0371 C   0  0  0  0  0  0  0  0  0  0  0  0
   -4.3736    2.3234    3.2504 O   0  0  0  0  0  1  0  0  0  0  0  0
   -3.3422    2.7622    1.3592 O   0  0  0  0  0  0  0  0  0  0  0  0
    0.0009    2.9095    0.0117 C   0  0  0  0  0  0  0  0  0  0  0  0
   -0.9050    3.2156   -0.2287 H   0  0  0  0  0  0  0  0  0  0  0  0
    0.6749    3.2181   -0.6402 H   0  0  0  0  0  0  0  0  0  0  0  0
    0.2533    3.3336    0.9836 H   0  0  0  0  0  0  0  0  0  0  0  0
   -0.0002    1.4033   -0.0000 C   0  0  0  0  0  0  0  0  0  0  0  0
   -1.2007    0.6930    0.0020 C   0  0  0  0  0  0  0  0  0  0  0  0
   -2.0662    1.1852    0.0037 H   0  0  0  0  0  0  0  0  0  0  0  0
   -1.2067   -0.6985    0.0000 C   0  0  0  0  0  0  0  0  0  0  0  0
   -2.0797   -1.1930    0.0009 H   0  0  0  0  0  0  0  0  0  0  0  0
    0.0006   -1.3955   -0.0016 C   0  0  0  0  0  0  0  0  0  0  0  0
   -0.0038   -2.3936   -0.0042 H   0  0  0  0  0  0  0  0  0  0  0  0
    1.2067   -0.6979   -0.0000 C   0  0  0  0  0  0  0  0  0  0  0  0
    2.0854   -1.1953    0.0032 H   0  0  0  0  0  0  0  0  0  0  0  0
    1.2003    0.6954   -0.0004 C   0  0  0  0  0  0  0  0  0  0  0  0
    2.0668    1.1924   -0.0016 H   0  0  0  0  0  0  0  0  0  0  0  0
  1  5  1  0
  5  6  1  0
  5  7  2  0
  1  2  1  0
  1  3  1  0
  1  4  1  0
  8 12  1  0
 12 13  2  0
 13 15  1  0
 15 17  2  0
 17 19  1  0
 19 21  2  0
 21 12  1  0
  8  9  1  0
  8 10  1  0
  8 11  1  0
 13 14  1  0
 15 16  1  0
 17 18  1  0
 19 20  1  0
 21 22  1  0
M  CHG  1   6  -1
M  END
>  <PDB_ID>  (448) 
pdb1hcu

>  <RESIDUE_NAME>  (448) 
ASP   PHE

>  <FRAG_NAME>  (448) 
ACET   MBZ

>  <FRAG_ATOM_NUM>  (448) 
fragi: 7  fragj: 15

>  <atom.prop.CHAIN_ID>  (448) 
A A A A A A A Z Z Z Z Z Z Z Z Z Z Z Z Z Z Z

>  <atom.prop.IS_HEAVY_ATOM>  (448) 
1 0 0 0 1 1 1 1 0 0 0 1 1 0 1 0 1 0 1 0 1 0

>  <DIFUSE_FUNC_ATOM>  (448) 
atom 6   atom 7   

>  <FINAL_SINGLE_POINT_ENERGY>  (448) 
0

>  <NONCOV_INTER_ENERGY_QM>  (448) 
0

>  <FF_Energy>  (448) 
-1.14

>  <QM_Energy>  (448) 
-6.23

>  <source>  (448) 
ACET_MBZ_00

>  <Index>  (448) 
16175

$$$$
ACET-pdb1hia-Y-ASP-153:MBZ-pdb1hia-X-PHE-74
     RDKit          3D

 22 21  0  0  0  0  0  0  0  0999 V2000
    2.4812    2.6424   -3.5273 C   0  0  0  0  0  0  0  0  0  0  0  0
    3.2649    2.6874   -4.1443 H   0  0  0  0  0  0  0  0  0  0  0  0
    1.8075    3.3300   -3.7881 H   0  0  0  0  0  0  0  0  0  0  0  0
    2.0181    1.6644   -3.6589 H   0  0  0  0  0  0  0  0  0  0  0  0
    2.9459    2.9153   -2.1187 C   0  0  0  0  0  0  0  0  0  0  0  0
    3.2063    1.9651   -1.3589 O   0  0  0  0  0  1  0  0  0  0  0  0
    3.0983    4.1116   -1.7820 O   0  0  0  0  0  0  0  0  0  0  0  0
    0.0300    2.9584    0.0054 C   0  0  0  0  0  0  0  0  0  0  0  0
    0.7484    3.2397   -0.6102 H   0  0  0  0  0  0  0  0  0  0  0  0
    0.2111    3.2453    0.9322 H   0  0  0  0  0  0  0  0  0  0  0  0
   -0.8986    3.4273   -0.3201 H   0  0  0  0  0  0  0  0  0  0  0  0
   -0.0006    1.4236    0.0005 C   0  0  0  0  0  0  0  0  0  0  0  0
   -1.1976    0.7061    0.0010 C   0  0  0  0  0  0  0  0  0  0  0  0
   -2.0675    1.1825    0.0016 H   0  0  0  0  0  0  0  0  0  0  0  0
   -1.1991   -0.7109    0.0000 C   0  0  0  0  0  0  0  0  0  0  0  0
   -2.0761   -1.1949    0.0020 H   0  0  0  0  0  0  0  0  0  0  0  0
    0.0063   -1.4085   -0.0020 C   0  0  0  0  0  0  0  0  0  0  0  0
    0.0012   -2.4046   -0.0054 H   0  0  0  0  0  0  0  0  0  0  0  0
    1.1991   -0.7069    0.0000 C   0  0  0  0  0  0  0  0  0  0  0  0
    2.0862   -1.1938    0.0025 H   0  0  0  0  0  0  0  0  0  0  0  0
    1.1920    0.6966    0.0005 C   0  0  0  0  0  0  0  0  0  0  0  0
    2.0673    1.1869   -0.0000 H   0  0  0  0  0  0  0  0  0  0  0  0
  1  5  1  0
  5  6  1  0
  5  7  2  0
  1  2  1  0
  1  3  1  0
  1  4  1  0
  8 12  1  0
 12 13  2  0
 13 15  1  0
 15 17  2  0
 17 19  1  0
 19 21  2  0
 21 12  1  0
  8  9  1  0
  8 10  1  0
  8 11  1  0
 13 14  1  0
 15 16  1  0
 17 18  1  0
 19 20  1  0
 21 22  1  0
M  CHG  1   6  -1
M  END
>  <PDB_ID>  (449) 
pdb1hia

>  <RESIDUE_NAME>  (449) 
ASP   PHE

>  <FRAG_NAME>  (449) 
ACET   MBZ

>  <FRAG_ATOM_NUM>  (449) 
fragi: 7  fragj: 15

>  <atom.prop.CHAIN_ID>  (449) 
A A A A A A A Z Z Z Z Z Z Z Z Z Z Z Z Z Z Z

>  <atom.prop.IS_HEAVY_ATOM>  (449) 
1 0 0 0 1 1 1 1 0 0 0 1 1 0 1 0 1 0 1 0 1 0

>  <DIFUSE_FUNC_ATOM>  (449) 
atom 6   atom 7   

>  <FINAL_SINGLE_POINT_ENERGY>  (449) 
0

>  <NONCOV_INTER_ENERGY_QM>  (449) 
0

>  <FF_Energy>  (449) 
11.4

>  <QM_Energy>  (449) 
-5.76

>  <source>  (449) 
ACET_MBZ_00

>  <Index>  (449) 
16315

$$$$
ACET-pdb1hja-B-ASP-35:MBZ-pdb1hja-B-PHE-39
     RDKit          3D

 22 21  0  0  0  0  0  0  0  0999 V2000
   -4.0996    4.6974   -2.3712 C   0  0  0  0  0  0  0  0  0  0  0  0
   -4.8022    4.3826   -3.0019 H   0  0  0  0  0  0  0  0  0  0  0  0
   -3.4418    5.2706   -2.8486 H   0  0  0  0  0  0  0  0  0  0  0  0
   -4.5849    5.3090   -1.6106 H   0  0  0  0  0  0  0  0  0  0  0  0
   -3.3655    3.4764   -1.8099 C   0  0  0  0  0  0  0  0  0  0  0  0
   -3.8479    2.8170   -0.8677 O   0  0  0  0  0  1  0  0  0  0  0  0
   -2.2918    3.1473   -2.3559 O   0  0  0  0  0  0  0  0  0  0  0  0
   -0.0046    2.8813    0.0253 C   0  0  0  0  0  0  0  0  0  0  0  0
   -0.5924    3.2077   -0.7017 H   0  0  0  0  0  0  0  0  0  0  0  0
    0.9248    3.1998   -0.0965 H   0  0  0  0  0  0  0  0  0  0  0  0
   -0.3760    3.2982    0.9614 H   0  0  0  0  0  0  0  0  0  0  0  0
   -0.0018    1.4008   -0.0006 C   0  0  0  0  0  0  0  0  0  0  0  0
   -1.2010    0.6943   -0.0006 C   0  0  0  0  0  0  0  0  0  0  0  0
   -2.0664    1.1863   -0.0025 H   0  0  0  0  0  0  0  0  0  0  0  0
   -1.2074   -0.6965   -0.0000 C   0  0  0  0  0  0  0  0  0  0  0  0
   -2.0789   -1.1938   -0.0002 H   0  0  0  0  0  0  0  0  0  0  0  0
    0.0056   -1.3982    0.0027 C   0  0  0  0  0  0  0  0  0  0  0  0
   -0.0024   -2.3949    0.0058 H   0  0  0  0  0  0  0  0  0  0  0  0
    1.2074   -0.6998   -0.0000 C   0  0  0  0  0  0  0  0  0  0  0  0
    2.0891   -1.1909    0.0007 H   0  0  0  0  0  0  0  0  0  0  0  0
    1.1972    0.6994   -0.0015 C   0  0  0  0  0  0  0  0  0  0  0  0
    2.0640    1.1945   -0.0039 H   0  0  0  0  0  0  0  0  0  0  0  0
  1  5  1  0
  5  6  1  0
  5  7  2  0
  1  2  1  0
  1  3  1  0
  1  4  1  0
  8 12  1  0
 12 13  2  0
 13 15  1  0
 15 17  2  0
 17 19  1  0
 19 21  2  0
 21 12  1  0
  8  9  1  0
  8 10  1  0
  8 11  1  0
 13 14  1  0
 15 16  1  0
 17 18  1  0
 19 20  1  0
 21 22  1  0
M  CHG  1   6  -1
M  END
>  <PDB_ID>  (450) 
pdb1hja

>  <RESIDUE_NAME>  (450) 
ASP   PHE

>  <FRAG_NAME>  (450) 
ACET   MBZ

>  <FRAG_ATOM_NUM>  (450) 
fragi: 7  fragj: 15

>  <atom.prop.CHAIN_ID>  (450) 
A A A A A A A Z Z Z Z Z Z Z Z Z Z Z Z Z Z Z

>  <atom.prop.IS_HEAVY_ATOM>  (450) 
1 0 0 0 1 1 1 1 0 0 0 1 1 0 1 0 1 0 1 0 1 0

>  <DIFUSE_FUNC_ATOM>  (450) 
atom 6   atom 7   

>  <FINAL_SINGLE_POINT_ENERGY>  (450) 
0

>  <NONCOV_INTER_ENERGY_QM>  (450) 
0

>  <FF_Energy>  (450) 
-1.34

>  <QM_Energy>  (450) 
-9.06

>  <source>  (450) 
ACET_MBZ_00

>  <Index>  (450) 
16340

$$$$
ACET-pdb1hkh-B-GLU-103:MBZ-pdb1hkh-B-PHE-76
     RDKit          3D

 22 21  0  0  0  0  0  0  0  0999 V2000
    0.7495    5.3491    3.0278 C   0  0  0  0  0  0  0  0  0  0  0  0
   -0.1241    5.6800    3.3384 H   0  0  0  0  0  0  0  0  0  0  0  0
    0.8104    5.3361    2.0453 H   0  0  0  0  0  0  0  0  0  0  0  0
    1.5141    6.0308    3.4004 H   0  0  0  0  0  0  0  0  0  0  0  0
    0.9100    3.9234    3.5221 C   0  0  0  0  0  0  0  0  0  0  0  0
    1.9445    3.5960    4.1700 O   0  0  0  0  0  1  0  0  0  0  0  0
   -0.0177    3.1176    3.2654 O   0  0  0  0  0  0  0  0  0  0  0  0
    0.0358    2.9102   -0.0078 C   0  0  0  0  0  0  0  0  0  0  0  0
    0.9095    3.2044   -0.3769 H   0  0  0  0  0  0  0  0  0  0  0  0
   -0.0684    3.2131    0.9318 H   0  0  0  0  0  0  0  0  0  0  0  0
   -0.7464    3.3907   -0.5955 H   0  0  0  0  0  0  0  0  0  0  0  0
    0.0020    1.4123   -0.0224 C   0  0  0  0  0  0  0  0  0  0  0  0
   -1.2112    0.7014    0.0051 C   0  0  0  0  0  0  0  0  0  0  0  0
   -2.0687    1.1997    0.0276 H   0  0  0  0  0  0  0  0  0  0  0  0
   -1.2188   -0.6886    0.0000 C   0  0  0  0  0  0  0  0  0  0  0  0
   -2.0888   -1.1897   -0.0206 H   0  0  0  0  0  0  0  0  0  0  0  0
    0.0038   -1.4138    0.0259 C   0  0  0  0  0  0  0  0  0  0  0  0
   -0.0144   -2.3999    0.0608 H   0  0  0  0  0  0  0  0  0  0  0  0
    1.2188   -0.7123   -0.0000 C   0  0  0  0  0  0  0  0  0  0  0  0
    2.0947   -1.2005   -0.0105 H   0  0  0  0  0  0  0  0  0  0  0  0
    1.2054    0.7011   -0.0086 C   0  0  0  0  0  0  0  0  0  0  0  0
    2.0734    1.1931   -0.0059 H   0  0  0  0  0  0  0  0  0  0  0  0
  1  5  1  0
  5  6  1  0
  5  7  2  0
  1  2  1  0
  1  3  1  0
  1  4  1  0
  8 12  1  0
 12 13  2  0
 13 15  1  0
 15 17  2  0
 17 19  1  0
 19 21  2  0
 21 12  1  0
  8  9  1  0
  8 10  1  0
  8 11  1  0
 13 14  1  0
 15 16  1  0
 17 18  1  0
 19 20  1  0
 21 22  1  0
M  CHG  1   6  -1
M  END
>  <PDB_ID>  (451) 
pdb1hkh

>  <RESIDUE_NAME>  (451) 
GLU   PHE

>  <FRAG_NAME>  (451) 
ACET   MBZ

>  <FRAG_ATOM_NUM>  (451) 
fragi: 7  fragj: 15

>  <atom.prop.CHAIN_ID>  (451) 
A A A A A A A Z Z Z Z Z Z Z Z Z Z Z Z Z Z Z

>  <atom.prop.IS_HEAVY_ATOM>  (451) 
1 0 0 0 1 1 1 1 0 0 0 1 1 0 1 0 1 0 1 0 1 0

>  <DIFUSE_FUNC_ATOM>  (451) 
atom 6   atom 7   

>  <FINAL_SINGLE_POINT_ENERGY>  (451) 
0

>  <NONCOV_INTER_ENERGY_QM>  (451) 
0

>  <FF_Energy>  (451) 
1.23

>  <QM_Energy>  (451) 
-4.27

>  <source>  (451) 
ACET_MBZ_00

>  <Index>  (451) 
16403

$$$$
ACET-pdb2ib6-D-GLU-141:MBZ-pdb2ib6-A-PHE-192
     RDKit          3D

 22 21  0  0  0  0  0  0  0  0999 V2000
    1.4381    0.4633   -2.9187 C   0  0  0  0  0  0  0  0  0  0  0  0
    0.9038    0.4025   -2.0874 H   0  0  0  0  0  0  0  0  0  0  0  0
    2.3970    0.2957   -2.7394 H   0  0  0  0  0  0  0  0  0  0  0  0
    1.0758   -0.2855   -3.6231 H   0  0  0  0  0  0  0  0  0  0  0  0
    1.3200    1.8865   -3.4234 C   0  0  0  0  0  0  0  0  0  0  0  0
    0.1939    2.4319   -3.4918 O   0  0  0  0  0  1  0  0  0  0  0  0
    2.3671    2.4596   -3.7482 O   0  0  0  0  0  0  0  0  0  0  0  0
   -0.0068    2.9014   -0.0017 C   0  0  0  0  0  0  0  0  0  0  0  0
   -0.8493    3.2061   -0.4205 H   0  0  0  0  0  0  0  0  0  0  0  0
    0.7808    3.2124   -0.5117 H   0  0  0  0  0  0  0  0  0  0  0  0
    0.0474    3.3425    0.9935 H   0  0  0  0  0  0  0  0  0  0  0  0
   -0.0006    1.4024   -0.0005 C   0  0  0  0  0  0  0  0  0  0  0  0
   -1.1970    0.6937    0.0012 C   0  0  0  0  0  0  0  0  0  0  0  0
   -2.0634    1.1836    0.0021 H   0  0  0  0  0  0  0  0  0  0  0  0
   -1.2020   -0.6977   -0.0000 C   0  0  0  0  0  0  0  0  0  0  0  0
   -2.0774   -1.1915    0.0028 H   0  0  0  0  0  0  0  0  0  0  0  0
    0.0010   -1.3948   -0.0030 C   0  0  0  0  0  0  0  0  0  0  0  0
   -0.0044   -2.3935   -0.0078 H   0  0  0  0  0  0  0  0  0  0  0  0
    1.2020   -0.7002   -0.0000 C   0  0  0  0  0  0  0  0  0  0  0  0
    2.0832   -1.1943    0.0017 H   0  0  0  0  0  0  0  0  0  0  0  0
    1.1966    0.6965    0.0024 C   0  0  0  0  0  0  0  0  0  0  0  0
    2.0645    1.1905    0.0057 H   0  0  0  0  0  0  0  0  0  0  0  0
  1  5  1  0
  5  6  1  0
  5  7  2  0
  1  2  1  0
  1  3  1  0
  1  4  1  0
  8 12  1  0
 12 13  2  0
 13 15  1  0
 15 17  2  0
 17 19  1  0
 19 21  2  0
 21 12  1  0
  8  9  1  0
  8 10  1  0
  8 11  1  0
 13 14  1  0
 15 16  1  0
 17 18  1  0
 19 20  1  0
 21 22  1  0
M  CHG  1   6  -1
M  END
>  <PDB_ID>  (452) 
pdb2ib6

>  <RESIDUE_NAME>  (452) 
GLU   PHE

>  <FRAG_NAME>  (452) 
ACET   MBZ

>  <FRAG_ATOM_NUM>  (452) 
fragi: 7  fragj: 15

>  <atom.prop.CHAIN_ID>  (452) 
A A A A A A A Z Z Z Z Z Z Z Z Z Z Z Z Z Z Z

>  <atom.prop.IS_HEAVY_ATOM>  (452) 
1 0 0 0 1 1 1 1 0 0 0 1 1 0 1 0 1 0 1 0 1 0

>  <DIFUSE_FUNC_ATOM>  (452) 
atom 6   atom 7   

>  <FINAL_SINGLE_POINT_ENERGY>  (452) 
0

>  <NONCOV_INTER_ENERGY_QM>  (452) 
0

>  <FF_Energy>  (452) 
13.33

>  <QM_Energy>  (452) 
1.75

>  <source>  (452) 
ACET_MBZ_00

>  <Index>  (452) 
16417

$$$$
ACET-pdb2ib6-B-GLU-141:MBZ-pdb2ib6-C-PHE-192
     RDKit          3D

 22 21  0  0  0  0  0  0  0  0999 V2000
    1.6454    0.2874   -2.9378 C   0  0  0  0  0  0  0  0  0  0  0  0
    1.1664    0.2122   -2.0775 H   0  0  0  0  0  0  0  0  0  0  0  0
    2.5995    0.0519   -2.8420 H   0  0  0  0  0  0  0  0  0  0  0  0
    1.1866   -0.3962   -3.6522 H   0  0  0  0  0  0  0  0  0  0  0  0
    1.5783    1.7341   -3.3681 C   0  0  0  0  0  0  0  0  0  0  0  0
    0.4621    2.2930   -3.4831 O   0  0  0  0  0  1  0  0  0  0  0  0
    2.6558    2.3141   -3.5853 O   0  0  0  0  0  0  0  0  0  0  0  0
   -0.0008    2.8983    0.0085 C   0  0  0  0  0  0  0  0  0  0  0  0
   -0.8687    3.2089   -0.3522 H   0  0  0  0  0  0  0  0  0  0  0  0
    0.7519    3.2106   -0.5533 H   0  0  0  0  0  0  0  0  0  0  0  0
    0.1222    3.3357    0.9993 H   0  0  0  0  0  0  0  0  0  0  0  0
   -0.0008    1.4004    0.0001 C   0  0  0  0  0  0  0  0  0  0  0  0
   -1.1962    0.6936    0.0007 C   0  0  0  0  0  0  0  0  0  0  0  0
   -2.0629    1.1838    0.0010 H   0  0  0  0  0  0  0  0  0  0  0  0
   -1.1986   -0.6944    0.0000 C   0  0  0  0  0  0  0  0  0  0  0  0
   -2.0754   -1.1907    0.0019 H   0  0  0  0  0  0  0  0  0  0  0  0
    0.0025   -1.3925   -0.0013 C   0  0  0  0  0  0  0  0  0  0  0  0
   -0.0058   -2.3920   -0.0040 H   0  0  0  0  0  0  0  0  0  0  0  0
    1.1986   -0.7010   -0.0000 C   0  0  0  0  0  0  0  0  0  0  0  0
    2.0823   -1.1952    0.0024 H   0  0  0  0  0  0  0  0  0  0  0  0
    1.1945    0.6939    0.0004 C   0  0  0  0  0  0  0  0  0  0  0  0
    2.0637    1.1879    0.0003 H   0  0  0  0  0  0  0  0  0  0  0  0
  1  5  1  0
  5  6  1  0
  5  7  2  0
  1  2  1  0
  1  3  1  0
  1  4  1  0
  8 12  1  0
 12 13  2  0
 13 15  1  0
 15 17  2  0
 17 19  1  0
 19 21  2  0
 21 12  1  0
  8  9  1  0
  8 10  1  0
  8 11  1  0
 13 14  1  0
 15 16  1  0
 17 18  1  0
 19 20  1  0
 21 22  1  0
M  CHG  1   6  -1
M  END
>  <PDB_ID>  (453) 
pdb2ib6

>  <RESIDUE_NAME>  (453) 
GLU   PHE

>  <FRAG_NAME>  (453) 
ACET   MBZ

>  <FRAG_ATOM_NUM>  (453) 
fragi: 7  fragj: 15

>  <atom.prop.CHAIN_ID>  (453) 
A A A A A A A Z Z Z Z Z Z Z Z Z Z Z Z Z Z Z

>  <atom.prop.IS_HEAVY_ATOM>  (453) 
1 0 0 0 1 1 1 1 0 0 0 1 1 0 1 0 1 0 1 0 1 0

>  <DIFUSE_FUNC_ATOM>  (453) 
atom 6   atom 7   

>  <FINAL_SINGLE_POINT_ENERGY>  (453) 
0

>  <NONCOV_INTER_ENERGY_QM>  (453) 
0

>  <FF_Energy>  (453) 
13.45

>  <QM_Energy>  (453) 
1.55

>  <source>  (453) 
ACET_MBZ_00

>  <Index>  (453) 
16419

$$$$
ACET-pdb2ib6-A-GLU-141:MBZ-pdb2ib6-D-PHE-192
     RDKit          3D

 22 21  0  0  0  0  0  0  0  0999 V2000
    1.5624    0.2800   -2.9754 C   0  0  0  0  0  0  0  0  0  0  0  0
    1.0931    0.2368   -2.1071 H   0  0  0  0  0  0  0  0  0  0  0  0
    2.5178    0.0441   -2.8799 H   0  0  0  0  0  0  0  0  0  0  0  0
    1.0938   -0.4274   -3.6597 H   0  0  0  0  0  0  0  0  0  0  0  0
    1.5006    1.7200   -3.4487 C   0  0  0  0  0  0  0  0  0  0  0  0
    0.3992    2.3188   -3.4800 O   0  0  0  0  0  1  0  0  0  0  0  0
    2.5691    2.2567   -3.7857 O   0  0  0  0  0  0  0  0  0  0  0  0
   -0.0003    2.9065   -0.0420 C   0  0  0  0  0  0  0  0  0  0  0  0
   -0.8860    3.2035   -0.3710 H   0  0  0  0  0  0  0  0  0  0  0  0
    0.7235    3.1961   -0.6524 H   0  0  0  0  0  0  0  0  0  0  0  0
    0.1712    3.3798    0.9249 H   0  0  0  0  0  0  0  0  0  0  0  0
   -0.0003    1.4027   -0.0009 C   0  0  0  0  0  0  0  0  0  0  0  0
   -1.1953    0.6925    0.0027 C   0  0  0  0  0  0  0  0  0  0  0  0
   -2.0636    1.1809    0.0057 H   0  0  0  0  0  0  0  0  0  0  0  0
   -1.1988   -0.7000   -0.0000 C   0  0  0  0  0  0  0  0  0  0  0  0
   -2.0759   -1.1926    0.0014 H   0  0  0  0  0  0  0  0  0  0  0  0
    0.0004   -1.3932   -0.0032 C   0  0  0  0  0  0  0  0  0  0  0  0
   -0.0025   -2.3937   -0.0083 H   0  0  0  0  0  0  0  0  0  0  0  0
    1.1988   -0.6977    0.0000 C   0  0  0  0  0  0  0  0  0  0  0  0
    2.0817   -1.1940    0.0032 H   0  0  0  0  0  0  0  0  0  0  0  0
    1.1952    0.6956    0.0014 C   0  0  0  0  0  0  0  0  0  0  0  0
    2.0641    1.1902    0.0032 H   0  0  0  0  0  0  0  0  0  0  0  0
  1  5  1  0
  5  6  1  0
  5  7  2  0
  1  2  1  0
  1  3  1  0
  1  4  1  0
  8 12  1  0
 12 13  2  0
 13 15  1  0
 15 17  2  0
 17 19  1  0
 19 21  2  0
 21 12  1  0
  8  9  1  0
  8 10  1  0
  8 11  1  0
 13 14  1  0
 15 16  1  0
 17 18  1  0
 19 20  1  0
 21 22  1  0
M  CHG  1   6  -1
M  END
>  <PDB_ID>  (454) 
pdb2ib6

>  <RESIDUE_NAME>  (454) 
GLU   PHE

>  <FRAG_NAME>  (454) 
ACET   MBZ

>  <FRAG_ATOM_NUM>  (454) 
fragi: 7  fragj: 15

>  <atom.prop.CHAIN_ID>  (454) 
A A A A A A A Z Z Z Z Z Z Z Z Z Z Z Z Z Z Z

>  <atom.prop.IS_HEAVY_ATOM>  (454) 
1 0 0 0 1 1 1 1 0 0 0 1 1 0 1 0 1 0 1 0 1 0

>  <DIFUSE_FUNC_ATOM>  (454) 
atom 6   atom 7   

>  <FINAL_SINGLE_POINT_ENERGY>  (454) 
0

>  <NONCOV_INTER_ENERGY_QM>  (454) 
0

>  <FF_Energy>  (454) 
11.41

>  <QM_Energy>  (454) 
0.99

>  <source>  (454) 
ACET_MBZ_00

>  <Index>  (454) 
16420

$$$$
ACET-pdb2ib6-H-GLU-141:MBZ-pdb2ib6-E-PHE-192
     RDKit          3D

 22 21  0  0  0  0  0  0  0  0999 V2000
    1.1531    0.1997   -2.9896 C   0  0  0  0  0  0  0  0  0  0  0  0
    0.6526    0.2090   -2.1367 H   0  0  0  0  0  0  0  0  0  0  0  0
    2.0859   -0.1000   -2.8550 H   0  0  0  0  0  0  0  0  0  0  0  0
    0.6593   -0.4877   -3.6766 H   0  0  0  0  0  0  0  0  0  0  0  0
    1.2059    1.6193   -3.4962 C   0  0  0  0  0  0  0  0  0  0  0  0
    0.1373    2.2150   -3.7541 O   0  0  0  0  0  1  0  0  0  0  0  0
    2.3256    2.1441   -3.6229 O   0  0  0  0  0  0  0  0  0  0  0  0
    0.0029    2.9087   -0.0347 C   0  0  0  0  0  0  0  0  0  0  0  0
   -0.8957    3.2104   -0.3181 H   0  0  0  0  0  0  0  0  0  0  0  0
    0.6967    3.1994   -0.6775 H   0  0  0  0  0  0  0  0  0  0  0  0
    0.2224    3.3764    0.9251 H   0  0  0  0  0  0  0  0  0  0  0  0
    0.0005    1.4051   -0.0008 C   0  0  0  0  0  0  0  0  0  0  0  0
   -1.1974    0.6976    0.0024 C   0  0  0  0  0  0  0  0  0  0  0  0
   -2.0641    1.1855    0.0053 H   0  0  0  0  0  0  0  0  0  0  0  0
   -1.2019   -0.6983   -0.0000 C   0  0  0  0  0  0  0  0  0  0  0  0
   -2.0792   -1.1895    0.0014 H   0  0  0  0  0  0  0  0  0  0  0  0
   -0.0007   -1.3968   -0.0031 C   0  0  0  0  0  0  0  0  0  0  0  0
   -0.0062   -2.3947   -0.0083 H   0  0  0  0  0  0  0  0  0  0  0  0
    1.2019   -0.7014    0.0000 C   0  0  0  0  0  0  0  0  0  0  0  0
    2.0822   -1.1973    0.0025 H   0  0  0  0  0  0  0  0  0  0  0  0
    1.1975    0.6939    0.0015 C   0  0  0  0  0  0  0  0  0  0  0  0
    2.0664    1.1879    0.0032 H   0  0  0  0  0  0  0  0  0  0  0  0
  1  5  1  0
  5  6  1  0
  5  7  2  0
  1  2  1  0
  1  3  1  0
  1  4  1  0
  8 12  1  0
 12 13  2  0
 13 15  1  0
 15 17  2  0
 17 19  1  0
 19 21  2  0
 21 12  1  0
  8  9  1  0
  8 10  1  0
  8 11  1  0
 13 14  1  0
 15 16  1  0
 17 18  1  0
 19 20  1  0
 21 22  1  0
M  CHG  1   6  -1
M  END
>  <PDB_ID>  (455) 
pdb2ib6

>  <RESIDUE_NAME>  (455) 
GLU   PHE

>  <FRAG_NAME>  (455) 
ACET   MBZ

>  <FRAG_ATOM_NUM>  (455) 
fragi: 7  fragj: 15

>  <atom.prop.CHAIN_ID>  (455) 
A A A A A A A Z Z Z Z Z Z Z Z Z Z Z Z Z Z Z

>  <atom.prop.IS_HEAVY_ATOM>  (455) 
1 0 0 0 1 1 1 1 0 0 0 1 1 0 1 0 1 0 1 0 1 0

>  <DIFUSE_FUNC_ATOM>  (455) 
atom 6   atom 7   

>  <FINAL_SINGLE_POINT_ENERGY>  (455) 
0

>  <NONCOV_INTER_ENERGY_QM>  (455) 
0

>  <FF_Energy>  (455) 
8.2

>  <QM_Energy>  (455) 
0.16

>  <source>  (455) 
ACET_MBZ_00

>  <Index>  (455) 
16425

$$$$
ACET-pdb2ib6-G-GLU-141:MBZ-pdb2ib6-F-PHE-192
     RDKit          3D

 22 21  0  0  0  0  0  0  0  0999 V2000
    1.6873    0.4250   -2.9762 C   0  0  0  0  0  0  0  0  0  0  0  0
    1.2394    0.4290   -2.0988 H   0  0  0  0  0  0  0  0  0  0  0  0
    2.6377    0.1760   -2.9031 H   0  0  0  0  0  0  0  0  0  0  0  0
    1.1882   -0.3052   -3.6132 H   0  0  0  0  0  0  0  0  0  0  0  0
    1.6231    1.8269   -3.5297 C   0  0  0  0  0  0  0  0  0  0  0  0
    0.5355    2.4480   -3.4879 O   0  0  0  0  0  1  0  0  0  0  0  0
    2.6622    2.3092   -4.0134 O   0  0  0  0  0  0  0  0  0  0  0  0
   -0.0001    2.9158   -0.0113 C   0  0  0  0  0  0  0  0  0  0  0  0
   -0.8664    3.2164   -0.3808 H   0  0  0  0  0  0  0  0  0  0  0  0
    0.7554    3.2174   -0.5730 H   0  0  0  0  0  0  0  0  0  0  0  0
    0.1169    3.3657    0.9746 H   0  0  0  0  0  0  0  0  0  0  0  0
    0.0017    1.4085   -0.0001 C   0  0  0  0  0  0  0  0  0  0  0  0
   -1.1998    0.6950    0.0014 C   0  0  0  0  0  0  0  0  0  0  0  0
   -2.0654    1.1840    0.0020 H   0  0  0  0  0  0  0  0  0  0  0  0
   -1.2053   -0.7022   -0.0000 C   0  0  0  0  0  0  0  0  0  0  0  0
   -2.0823   -1.1932    0.0017 H   0  0  0  0  0  0  0  0  0  0  0  0
   -0.0029   -1.4000   -0.0018 C   0  0  0  0  0  0  0  0  0  0  0  0
   -0.0052   -2.3973   -0.0053 H   0  0  0  0  0  0  0  0  0  0  0  0
    1.2053   -0.7017    0.0000 C   0  0  0  0  0  0  0  0  0  0  0  0
    2.0840   -1.1966    0.0028 H   0  0  0  0  0  0  0  0  0  0  0  0
    1.2010    0.7004    0.0006 C   0  0  0  0  0  0  0  0  0  0  0  0
    2.0684    1.1914    0.0008 H   0  0  0  0  0  0  0  0  0  0  0  0
  1  5  1  0
  5  6  1  0
  5  7  2  0
  1  2  1  0
  1  3  1  0
  1  4  1  0
  8 12  1  0
 12 13  2  0
 13 15  1  0
 15 17  2  0
 17 19  1  0
 19 21  2  0
 21 12  1  0
  8  9  1  0
  8 10  1  0
  8 11  1  0
 13 14  1  0
 15 16  1  0
 17 18  1  0
 19 20  1  0
 21 22  1  0
M  CHG  1   6  -1
M  END
>  <PDB_ID>  (456) 
pdb2ib6

>  <RESIDUE_NAME>  (456) 
GLU   PHE

>  <FRAG_NAME>  (456) 
ACET   MBZ

>  <FRAG_ATOM_NUM>  (456) 
fragi: 7  fragj: 15

>  <atom.prop.CHAIN_ID>  (456) 
A A A A A A A Z Z Z Z Z Z Z Z Z Z Z Z Z Z Z

>  <atom.prop.IS_HEAVY_ATOM>  (456) 
1 0 0 0 1 1 1 1 0 0 0 1 1 0 1 0 1 0 1 0 1 0

>  <DIFUSE_FUNC_ATOM>  (456) 
atom 6   atom 7   

>  <FINAL_SINGLE_POINT_ENERGY>  (456) 
0

>  <NONCOV_INTER_ENERGY_QM>  (456) 
0

>  <FF_Energy>  (456) 
12.03

>  <QM_Energy>  (456) 
1.39

>  <source>  (456) 
ACET_MBZ_00

>  <Index>  (456) 
16431

$$$$
ACET-pdb2ib6-F-GLU-141:MBZ-pdb2ib6-G-PHE-192
     RDKit          3D

 22 21  0  0  0  0  0  0  0  0999 V2000
    1.7327    0.3503   -3.0014 C   0  0  0  0  0  0  0  0  0  0  0  0
    1.2276    0.3388   -2.1554 H   0  0  0  0  0  0  0  0  0  0  0  0
    2.6888    0.1567   -2.8609 H   0  0  0  0  0  0  0  0  0  0  0  0
    1.3172   -0.4095   -3.6634 H   0  0  0  0  0  0  0  0  0  0  0  0
    1.6308    1.7440   -3.5728 C   0  0  0  0  0  0  0  0  0  0  0  0
    0.5198    2.3161   -3.5682 O   0  0  0  0  0  1  0  0  0  0  0  0
    2.6616    2.2623   -4.0361 O   0  0  0  0  0  0  0  0  0  0  0  0
    0.0037    2.9002   -0.0013 C   0  0  0  0  0  0  0  0  0  0  0  0
   -0.8492    3.2099   -0.3962 H   0  0  0  0  0  0  0  0  0  0  0  0
    0.7782    3.2075   -0.5361 H   0  0  0  0  0  0  0  0  0  0  0  0
    0.0896    3.3435    0.9907 H   0  0  0  0  0  0  0  0  0  0  0  0
    0.0012    1.4020   -0.0004 C   0  0  0  0  0  0  0  0  0  0  0  0
   -1.1964    0.6944    0.0022 C   0  0  0  0  0  0  0  0  0  0  0  0
   -2.0624    1.1849    0.0044 H   0  0  0  0  0  0  0  0  0  0  0  0
   -1.2025   -0.6981    0.0000 C   0  0  0  0  0  0  0  0  0  0  0  0
   -2.0794   -1.1896    0.0009 H   0  0  0  0  0  0  0  0  0  0  0  0
   -0.0021   -1.3944   -0.0014 C   0  0  0  0  0  0  0  0  0  0  0  0
   -0.0053   -2.3934   -0.0035 H   0  0  0  0  0  0  0  0  0  0  0  0
    1.2025   -0.6983   -0.0000 C   0  0  0  0  0  0  0  0  0  0  0  0
    2.0818   -1.1961    0.0024 H   0  0  0  0  0  0  0  0  0  0  0  0
    1.1973    0.6944   -0.0004 C   0  0  0  0  0  0  0  0  0  0  0  0
    2.0656    1.1899   -0.0013 H   0  0  0  0  0  0  0  0  0  0  0  0
  1  5  1  0
  5  6  1  0
  5  7  2  0
  1  2  1  0
  1  3  1  0
  1  4  1  0
  8 12  1  0
 12 13  2  0
 13 15  1  0
 15 17  2  0
 17 19  1  0
 19 21  2  0
 21 12  1  0
  8  9  1  0
  8 10  1  0
  8 11  1  0
 13 14  1  0
 15 16  1  0
 17 18  1  0
 19 20  1  0
 21 22  1  0
M  CHG  1   6  -1
M  END
>  <PDB_ID>  (457) 
pdb2ib6

>  <RESIDUE_NAME>  (457) 
GLU   PHE

>  <FRAG_NAME>  (457) 
ACET   MBZ

>  <FRAG_ATOM_NUM>  (457) 
fragi: 7  fragj: 15

>  <atom.prop.CHAIN_ID>  (457) 
A A A A A A A Z Z Z Z Z Z Z Z Z Z Z Z Z Z Z

>  <atom.prop.IS_HEAVY_ATOM>  (457) 
1 0 0 0 1 1 1 1 0 0 0 1 1 0 1 0 1 0 1 0 1 0

>  <DIFUSE_FUNC_ATOM>  (457) 
atom 6   atom 7   

>  <FINAL_SINGLE_POINT_ENERGY>  (457) 
0

>  <NONCOV_INTER_ENERGY_QM>  (457) 
0

>  <FF_Energy>  (457) 
8.89

>  <QM_Energy>  (457) 
0.86

>  <source>  (457) 
ACET_MBZ_00

>  <Index>  (457) 
16433

$$$$
ACET-pdb1ho3-D-ASP-286:MBZ-pdb1ho3-D-PHE-291
     RDKit          3D

 22 21  0  0  0  0  0  0  0  0999 V2000
    2.4939    5.0794   -1.9067 C   0  0  0  0  0  0  0  0  0  0  0  0
    2.8048    5.9092   -2.3563 H   0  0  0  0  0  0  0  0  0  0  0  0
    1.5070    5.0893   -1.8009 H   0  0  0  0  0  0  0  0  0  0  0  0
    2.7560    4.2336   -2.5423 H   0  0  0  0  0  0  0  0  0  0  0  0
    3.1332    4.9933   -0.5416 C   0  0  0  0  0  0  0  0  0  0  0  0
    2.9320    3.9648    0.1394 O   0  0  0  0  0  1  0  0  0  0  0  0
    3.8346    5.9547   -0.1579 O   0  0  0  0  0  0  0  0  0  0  0  0
    0.0187    2.9042    0.0376 C   0  0  0  0  0  0  0  0  0  0  0  0
    0.8790    3.2088   -0.3506 H   0  0  0  0  0  0  0  0  0  0  0  0
   -0.0631    3.1889    0.9843 H   0  0  0  0  0  0  0  0  0  0  0  0
   -0.7849    3.3830   -0.5219 H   0  0  0  0  0  0  0  0  0  0  0  0
   -0.0014    1.4011    0.0004 C   0  0  0  0  0  0  0  0  0  0  0  0
   -1.1998    0.6989    0.0009 C   0  0  0  0  0  0  0  0  0  0  0  0
   -2.0640    1.1883    0.0007 H   0  0  0  0  0  0  0  0  0  0  0  0
   -1.2021   -0.6917    0.0000 C   0  0  0  0  0  0  0  0  0  0  0  0
   -2.0761   -1.1890    0.0013 H   0  0  0  0  0  0  0  0  0  0  0  0
    0.0068   -1.3942   -0.0009 C   0  0  0  0  0  0  0  0  0  0  0  0
   -0.0055   -2.3916   -0.0028 H   0  0  0  0  0  0  0  0  0  0  0  0
    1.2021   -0.7012   -0.0000 C   0  0  0  0  0  0  0  0  0  0  0  0
    2.0850   -1.1965    0.0025 H   0  0  0  0  0  0  0  0  0  0  0  0
    1.1945    0.6872   -0.0005 C   0  0  0  0  0  0  0  0  0  0  0  0
    2.0642    1.1857   -0.0019 H   0  0  0  0  0  0  0  0  0  0  0  0
  1  5  1  0
  5  6  1  0
  5  7  2  0
  1  2  1  0
  1  3  1  0
  1  4  1  0
  8 12  1  0
 12 13  2  0
 13 15  1  0
 15 17  2  0
 17 19  1  0
 19 21  2  0
 21 12  1  0
  8  9  1  0
  8 10  1  0
  8 11  1  0
 13 14  1  0
 15 16  1  0
 17 18  1  0
 19 20  1  0
 21 22  1  0
M  CHG  1   6  -1
M  END
>  <PDB_ID>  (458) 
pdb1ho3

>  <RESIDUE_NAME>  (458) 
ASP   PHE

>  <FRAG_NAME>  (458) 
ACET   MBZ

>  <FRAG_ATOM_NUM>  (458) 
fragi: 7  fragj: 15

>  <atom.prop.CHAIN_ID>  (458) 
A A A A A A A Z Z Z Z Z Z Z Z Z Z Z Z Z Z Z

>  <atom.prop.IS_HEAVY_ATOM>  (458) 
1 0 0 0 1 1 1 1 0 0 0 1 1 0 1 0 1 0 1 0 1 0

>  <DIFUSE_FUNC_ATOM>  (458) 
atom 6   atom 7   

>  <FINAL_SINGLE_POINT_ENERGY>  (458) 
0

>  <NONCOV_INTER_ENERGY_QM>  (458) 
0

>  <FF_Energy>  (458) 
-0.63

>  <QM_Energy>  (458) 
-6.51

>  <source>  (458) 
ACET_MBZ_00

>  <Index>  (458) 
16522

$$$$
ACET-pdb1ho3-D-ASP-152:MBZ-pdb1ho3-D-PHE-127
     RDKit          3D

 22 21  0  0  0  0  0  0  0  0999 V2000
    6.3873   -1.7131    0.9854 C   0  0  0  0  0  0  0  0  0  0  0  0
    7.2132   -1.6040    0.4454 H   0  0  0  0  0  0  0  0  0  0  0  0
    6.2993   -2.6487    1.3041 H   0  0  0  0  0  0  0  0  0  0  0  0
    6.4650   -1.0637    1.8573 H   0  0  0  0  0  0  0  0  0  0  0  0
    5.1858   -1.3831    0.1072 C   0  0  0  0  0  0  0  0  0  0  0  0
    4.2171   -0.7763    0.6074 O   0  0  0  0  0  1  0  0  0  0  0  0
    5.2036   -1.7486   -1.0871 O   0  0  0  0  0  0  0  0  0  0  0  0
   -0.0167    2.8945    0.0229 C   0  0  0  0  0  0  0  0  0  0  0  0
   -0.5018    3.2111   -0.7766 H   0  0  0  0  0  0  0  0  0  0  0  0
    0.9162    3.2164    0.0336 H   0  0  0  0  0  0  0  0  0  0  0  0
   -0.5196    3.3010    0.9003 H   0  0  0  0  0  0  0  0  0  0  0  0
    0.0026    1.4033   -0.0006 C   0  0  0  0  0  0  0  0  0  0  0  0
   -1.1934    0.6856   -0.0005 C   0  0  0  0  0  0  0  0  0  0  0  0
   -2.0626    1.1752   -0.0019 H   0  0  0  0  0  0  0  0  0  0  0  0
   -1.2003   -0.7088    0.0000 C   0  0  0  0  0  0  0  0  0  0  0  0
   -2.0779   -1.1976    0.0013 H   0  0  0  0  0  0  0  0  0  0  0  0
   -0.0030   -1.3992    0.0001 C   0  0  0  0  0  0  0  0  0  0  0  0
    0.0037   -2.3965   -0.0006 H   0  0  0  0  0  0  0  0  0  0  0  0
    1.2003   -0.6913   -0.0000 C   0  0  0  0  0  0  0  0  0  0  0  0
    2.0832   -1.1839    0.0004 H   0  0  0  0  0  0  0  0  0  0  0  0
    1.1938    0.7103    0.0010 C   0  0  0  0  0  0  0  0  0  0  0  0
    2.0638    1.2003    0.0023 H   0  0  0  0  0  0  0  0  0  0  0  0
  1  5  1  0
  5  6  1  0
  5  7  2  0
  1  2  1  0
  1  3  1  0
  1  4  1  0
  8 12  1  0
 12 13  2  0
 13 15  1  0
 15 17  2  0
 17 19  1  0
 19 21  2  0
 21 12  1  0
  8  9  1  0
  8 10  1  0
  8 11  1  0
 13 14  1  0
 15 16  1  0
 17 18  1  0
 19 20  1  0
 21 22  1  0
M  CHG  1   6  -1
M  END
>  <PDB_ID>  (459) 
pdb1ho3

>  <RESIDUE_NAME>  (459) 
ASP   PHE

>  <FRAG_NAME>  (459) 
ACET   MBZ

>  <FRAG_ATOM_NUM>  (459) 
fragi: 7  fragj: 15

>  <atom.prop.CHAIN_ID>  (459) 
A A A A A A A Z Z Z Z Z Z Z Z Z Z Z Z Z Z Z

>  <atom.prop.IS_HEAVY_ATOM>  (459) 
1 0 0 0 1 1 1 1 0 0 0 1 1 0 1 0 1 0 1 0 1 0

>  <DIFUSE_FUNC_ATOM>  (459) 
atom 6   atom 7   

>  <FINAL_SINGLE_POINT_ENERGY>  (459) 
0

>  <NONCOV_INTER_ENERGY_QM>  (459) 
0

>  <FF_Energy>  (459) 
22.42

>  <QM_Energy>  (459) 
-6.69

>  <source>  (459) 
ACET_MBZ_00

>  <Index>  (459) 
16524

$$$$
ACET-pdb1ho5-A-ASP-456:MBZ-pdb1ho5-A-PHE-380
     RDKit          3D

 22 21  0  0  0  0  0  0  0  0999 V2000
    1.0225   -2.4893    2.9614 C   0  0  0  0  0  0  0  0  0  0  0  0
    1.6993   -1.8984    2.5389 H   0  0  0  0  0  0  0  0  0  0  0  0
    1.3657   -2.8556    3.8173 H   0  0  0  0  0  0  0  0  0  0  0  0
    0.1397   -1.8887    3.1805 H   0  0  0  0  0  0  0  0  0  0  0  0
    0.7189   -3.6325    2.0257 C   0  0  0  0  0  0  0  0  0  0  0  0
   -0.3266   -4.2956    2.2151 O   0  0  0  0  0  1  0  0  0  0  0  0
    1.5294   -3.8635    1.1054 O   0  0  0  0  0  0  0  0  0  0  0  0
    0.0021    2.9055    0.0187 C   0  0  0  0  0  0  0  0  0  0  0  0
   -0.5676    3.2211   -0.7244 H   0  0  0  0  0  0  0  0  0  0  0  0
    0.9354    3.2118   -0.0870 H   0  0  0  0  0  0  0  0  0  0  0  0
   -0.3871    3.3320    0.9433 H   0  0  0  0  0  0  0  0  0  0  0  0
    0.0005    1.4041    0.0006 C   0  0  0  0  0  0  0  0  0  0  0  0
   -1.1977    0.6947    0.0001 C   0  0  0  0  0  0  0  0  0  0  0  0
   -2.0646    1.1844   -0.0018 H   0  0  0  0  0  0  0  0  0  0  0  0
   -1.2045   -0.7007    0.0000 C   0  0  0  0  0  0  0  0  0  0  0  0
   -2.0810   -1.1915    0.0024 H   0  0  0  0  0  0  0  0  0  0  0  0
   -0.0022   -1.3976   -0.0009 C   0  0  0  0  0  0  0  0  0  0  0  0
   -0.0032   -2.3945   -0.0029 H   0  0  0  0  0  0  0  0  0  0  0  0
    1.2045   -0.6970    0.0000 C   0  0  0  0  0  0  0  0  0  0  0  0
    2.0839   -1.1947    0.0021 H   0  0  0  0  0  0  0  0  0  0  0  0
    1.1995    0.6965    0.0002 C   0  0  0  0  0  0  0  0  0  0  0  0
    2.0660    1.1924   -0.0011 H   0  0  0  0  0  0  0  0  0  0  0  0
  1  5  1  0
  5  6  1  0
  5  7  2  0
  1  2  1  0
  1  3  1  0
  1  4  1  0
  8 12  1  0
 12 13  2  0
 13 15  1  0
 15 17  2  0
 17 19  1  0
 19 21  2  0
 21 12  1  0
  8  9  1  0
  8 10  1  0
  8 11  1  0
 13 14  1  0
 15 16  1  0
 17 18  1  0
 19 20  1  0
 21 22  1  0
M  CHG  1   6  -1
M  END
>  <PDB_ID>  (460) 
pdb1ho5

>  <RESIDUE_NAME>  (460) 
ASP   PHE

>  <FRAG_NAME>  (460) 
ACET   MBZ

>  <FRAG_ATOM_NUM>  (460) 
fragi: 7  fragj: 15

>  <atom.prop.CHAIN_ID>  (460) 
A A A A A A A Z Z Z Z Z Z Z Z Z Z Z Z Z Z Z

>  <atom.prop.IS_HEAVY_ATOM>  (460) 
1 0 0 0 1 1 1 1 0 0 0 1 1 0 1 0 1 0 1 0 1 0

>  <DIFUSE_FUNC_ATOM>  (460) 
atom 6   atom 7   

>  <FINAL_SINGLE_POINT_ENERGY>  (460) 
0

>  <NONCOV_INTER_ENERGY_QM>  (460) 
0

>  <FF_Energy>  (460) 
-0.2

>  <QM_Energy>  (460) 
-5.45

>  <source>  (460) 
ACET_MBZ_00

>  <Index>  (460) 
16550

$$$$
ACET-pdb1hjw-A-ASP-358:MBZ-pdb1hjw-A-PHE-363
     RDKit          3D

 22 21  0  0  0  0  0  0  0  0999 V2000
   -4.0827    4.1017   -2.6753 C   0  0  0  0  0  0  0  0  0  0  0  0
   -3.2745    4.4716   -3.1163 H   0  0  0  0  0  0  0  0  0  0  0  0
   -4.7926    4.7905   -2.6071 H   0  0  0  0  0  0  0  0  0  0  0  0
   -4.4618    3.2913   -3.2980 H   0  0  0  0  0  0  0  0  0  0  0  0
   -3.7009    3.6520   -1.2561 C   0  0  0  0  0  0  0  0  0  0  0  0
   -3.4481    2.4456   -1.0457 O   0  0  0  0  0  1  0  0  0  0  0  0
   -3.6350    4.5136   -0.3441 O   0  0  0  0  0  0  0  0  0  0  0  0
    0.0022    2.8905   -0.0276 C   0  0  0  0  0  0  0  0  0  0  0  0
   -0.6995    3.1912   -0.6588 H   0  0  0  0  0  0  0  0  0  0  0  0
    0.8985    3.1940   -0.3230 H   0  0  0  0  0  0  0  0  0  0  0  0
   -0.2020    3.3488    0.9401 H   0  0  0  0  0  0  0  0  0  0  0  0
   -0.0009    1.4018   -0.0004 C   0  0  0  0  0  0  0  0  0  0  0  0
   -1.2001    0.6990    0.0012 C   0  0  0  0  0  0  0  0  0  0  0  0
   -2.0645    1.1905    0.0017 H   0  0  0  0  0  0  0  0  0  0  0  0
   -1.2049   -0.6912    0.0000 C   0  0  0  0  0  0  0  0  0  0  0  0
   -2.0806   -1.1868    0.0024 H   0  0  0  0  0  0  0  0  0  0  0  0
    0.0003   -1.3975   -0.0023 C   0  0  0  0  0  0  0  0  0  0  0  0
   -0.0109   -2.3936   -0.0064 H   0  0  0  0  0  0  0  0  0  0  0  0
    1.2049   -0.7042   -0.0000 C   0  0  0  0  0  0  0  0  0  0  0  0
    2.0840   -1.2005    0.0017 H   0  0  0  0  0  0  0  0  0  0  0  0
    1.2007    0.6920    0.0015 C   0  0  0  0  0  0  0  0  0  0  0  0
    2.0670    1.1881    0.0029 H   0  0  0  0  0  0  0  0  0  0  0  0
  1  5  1  0
  5  6  1  0
  5  7  2  0
  1  2  1  0
  1  3  1  0
  1  4  1  0
  8 12  1  0
 12 13  2  0
 13 15  1  0
 15 17  2  0
 17 19  1  0
 19 21  2  0
 21 12  1  0
  8  9  1  0
  8 10  1  0
  8 11  1  0
 13 14  1  0
 15 16  1  0
 17 18  1  0
 19 20  1  0
 21 22  1  0
M  CHG  1   6  -1
M  END
>  <PDB_ID>  (461) 
pdb1hjw

>  <RESIDUE_NAME>  (461) 
ASP   PHE

>  <FRAG_NAME>  (461) 
ACET   MBZ

>  <FRAG_ATOM_NUM>  (461) 
fragi: 7  fragj: 15

>  <atom.prop.CHAIN_ID>  (461) 
A A A A A A A Z Z Z Z Z Z Z Z Z Z Z Z Z Z Z

>  <atom.prop.IS_HEAVY_ATOM>  (461) 
1 0 0 0 1 1 1 1 0 0 0 1 1 0 1 0 1 0 1 0 1 0

>  <DIFUSE_FUNC_ATOM>  (461) 
atom 6   atom 7   

>  <FINAL_SINGLE_POINT_ENERGY>  (461) 
0

>  <NONCOV_INTER_ENERGY_QM>  (461) 
0

>  <FF_Energy>  (461) 
0.37

>  <QM_Energy>  (461) 
-8.21

>  <source>  (461) 
ACET_MBZ_00

>  <Index>  (461) 
16552

$$$$
ACET-pdb1ho5-B-ASP-100:MBZ-pdb1ho5-B-PHE-46
     RDKit          3D

 22 21  0  0  0  0  0  0  0  0999 V2000
   -3.0590    4.2305    3.0316 C   0  0  0  0  0  0  0  0  0  0  0  0
   -3.6303    4.0915    3.8339 H   0  0  0  0  0  0  0  0  0  0  0  0
   -3.3056    5.0775    2.5748 H   0  0  0  0  0  0  0  0  0  0  0  0
   -2.0263    4.3210    3.3685 H   0  0  0  0  0  0  0  0  0  0  0  0
   -3.2397    3.0914    2.0936 C   0  0  0  0  0  0  0  0  0  0  0  0
   -3.2801    1.9361    2.5859 O   0  0  0  0  0  1  0  0  0  0  0  0
   -3.3220    3.3359    0.8687 O   0  0  0  0  0  0  0  0  0  0  0  0
   -0.0104    2.9181   -0.0272 C   0  0  0  0  0  0  0  0  0  0  0  0
    0.8736    3.2363    0.2808 H   0  0  0  0  0  0  0  0  0  0  0  0
   -0.7337    3.2331    0.5695 H   0  0  0  0  0  0  0  0  0  0  0  0
   -0.1882    3.3478   -1.0130 H   0  0  0  0  0  0  0  0  0  0  0  0
   -0.0029    1.4134   -0.0008 C   0  0  0  0  0  0  0  0  0  0  0  0
   -1.2001    0.6960    0.0014 C   0  0  0  0  0  0  0  0  0  0  0  0
   -2.0696    1.1833    0.0024 H   0  0  0  0  0  0  0  0  0  0  0  0
   -1.2100   -0.7067   -0.0000 C   0  0  0  0  0  0  0  0  0  0  0  0
   -2.0832   -1.1955   -0.0001 H   0  0  0  0  0  0  0  0  0  0  0  0
    0.0004   -1.4083   -0.0000 C   0  0  0  0  0  0  0  0  0  0  0  0
   -0.0010   -2.4014   -0.0010 H   0  0  0  0  0  0  0  0  0  0  0  0
    1.2100   -0.7016    0.0000 C   0  0  0  0  0  0  0  0  0  0  0  0
    2.0898   -1.1927    0.0018 H   0  0  0  0  0  0  0  0  0  0  0  0
    1.2026    0.7073   -0.0006 C   0  0  0  0  0  0  0  0  0  0  0  0
    2.0680    1.1992   -0.0019 H   0  0  0  0  0  0  0  0  0  0  0  0
  1  5  1  0
  5  6  1  0
  5  7  2  0
  1  2  1  0
  1  3  1  0
  1  4  1  0
  8 12  1  0
 12 13  2  0
 13 15  1  0
 15 17  2  0
 17 19  1  0
 19 21  2  0
 21 12  1  0
  8  9  1  0
  8 10  1  0
  8 11  1  0
 13 14  1  0
 15 16  1  0
 17 18  1  0
 19 20  1  0
 21 22  1  0
M  CHG  1   6  -1
M  END
>  <PDB_ID>  (462) 
pdb1ho5

>  <RESIDUE_NAME>  (462) 
ASP   PHE

>  <FRAG_NAME>  (462) 
ACET   MBZ

>  <FRAG_ATOM_NUM>  (462) 
fragi: 7  fragj: 15

>  <atom.prop.CHAIN_ID>  (462) 
A A A A A A A Z Z Z Z Z Z Z Z Z Z Z Z Z Z Z

>  <atom.prop.IS_HEAVY_ATOM>  (462) 
1 0 0 0 1 1 1 1 0 0 0 1 1 0 1 0 1 0 1 0 1 0

>  <DIFUSE_FUNC_ATOM>  (462) 
atom 6   atom 7   

>  <FINAL_SINGLE_POINT_ENERGY>  (462) 
0

>  <NONCOV_INTER_ENERGY_QM>  (462) 
0

>  <FF_Energy>  (462) 
-2.0

>  <QM_Energy>  (462) 
-7.84

>  <source>  (462) 
ACET_MBZ_00

>  <Index>  (462) 
16560

$$$$
ACET-pdb2id0-A-GLU-190:MBZ-pdb2id0-A-PHE-301
     RDKit          3D

 22 21  0  0  0  0  0  0  0  0999 V2000
   -4.7143    1.9775   -1.8968 C   0  0  0  0  0  0  0  0  0  0  0  0
   -5.1856    2.2838   -2.6964 H   0  0  0  0  0  0  0  0  0  0  0  0
   -4.5922    2.6788   -1.2272 H   0  0  0  0  0  0  0  0  0  0  0  0
   -5.3248    1.1974   -1.4420 H   0  0  0  0  0  0  0  0  0  0  0  0
   -3.2870    1.5048   -2.3457 C   0  0  0  0  0  0  0  0  0  0  0  0
   -3.0726    0.2336   -2.5185 O   0  0  0  0  0  1  0  0  0  0  0  0
   -2.3760    2.3531   -2.3583 O   0  0  0  0  0  0  0  0  0  0  0  0
    0.0603    2.9438   -0.0195 C   0  0  0  0  0  0  0  0  0  0  0  0
   -0.8383    3.2749   -0.2419 H   0  0  0  0  0  0  0  0  0  0  0  0
    0.7339    3.2218   -0.6802 H   0  0  0  0  0  0  0  0  0  0  0  0
    0.3426    3.3741    0.9414 H   0  0  0  0  0  0  0  0  0  0  0  0
    0.0096    1.4180   -0.0162 C   0  0  0  0  0  0  0  0  0  0  0  0
   -1.2503    0.7033    0.0213 C   0  0  0  0  0  0  0  0  0  0  0  0
   -2.0846    1.2251    0.0602 H   0  0  0  0  0  0  0  0  0  0  0  0
   -1.2748   -0.6871   -0.0000 C   0  0  0  0  0  0  0  0  0  0  0  0
   -2.1554   -1.1734   -0.0310 H   0  0  0  0  0  0  0  0  0  0  0  0
   -0.0710   -1.4250    0.0229 C   0  0  0  0  0  0  0  0  0  0  0  0
   -0.0538   -2.4025    0.0530 H   0  0  0  0  0  0  0  0  0  0  0  0
    1.2748   -0.7102   -0.0000 C   0  0  0  0  0  0  0  0  0  0  0  0
    2.0860   -1.2667    0.0071 H   0  0  0  0  0  0  0  0  0  0  0  0
    1.3117    0.7009   -0.0280 C   0  0  0  0  0  0  0  0  0  0  0  0
    2.1231    1.2063   -0.0550 H   0  0  0  0  0  0  0  0  0  0  0  0
  1  5  1  0
  5  6  1  0
  5  7  2  0
  1  2  1  0
  1  3  1  0
  1  4  1  0
  8 12  1  0
 12 13  2  0
 13 15  1  0
 15 17  2  0
 17 19  1  0
 19 21  2  0
 21 12  1  0
  8  9  1  0
  8 10  1  0
  8 11  1  0
 13 14  1  0
 15 16  1  0
 17 18  1  0
 19 20  1  0
 21 22  1  0
M  CHG  1   6  -1
M  END
>  <PDB_ID>  (463) 
pdb2id0

>  <RESIDUE_NAME>  (463) 
GLU   PHE

>  <FRAG_NAME>  (463) 
ACET   MBZ

>  <FRAG_ATOM_NUM>  (463) 
fragi: 7  fragj: 15

>  <atom.prop.CHAIN_ID>  (463) 
A A A A A A A Z Z Z Z Z Z Z Z Z Z Z Z Z Z Z

>  <atom.prop.IS_HEAVY_ATOM>  (463) 
1 0 0 0 1 1 1 1 0 0 0 1 1 0 1 0 1 0 1 0 1 0

>  <DIFUSE_FUNC_ATOM>  (463) 
atom 6   atom 7   

>  <FINAL_SINGLE_POINT_ENERGY>  (463) 
0

>  <NONCOV_INTER_ENERGY_QM>  (463) 
0

>  <FF_Energy>  (463) 
1.9

>  <QM_Energy>  (463) 
-4.66

>  <source>  (463) 
ACET_MBZ_00

>  <Index>  (463) 
16574

$$$$
ACET-pdb2id0-D-GLU-190:MBZ-pdb2id0-D-PHE-301
     RDKit          3D

 22 21  0  0  0  0  0  0  0  0999 V2000
   -3.6431    0.9529   -2.2656 C   0  0  0  0  0  0  0  0  0  0  0  0
   -4.0811    1.2742   -3.1049 H   0  0  0  0  0  0  0  0  0  0  0  0
   -3.5302    1.7188   -1.6337 H   0  0  0  0  0  0  0  0  0  0  0  0
   -4.3136    0.2320   -1.7978 H   0  0  0  0  0  0  0  0  0  0  0  0
   -2.2767    0.4528   -2.6251 C   0  0  0  0  0  0  0  0  0  0  0  0
   -1.8929   -0.6896   -2.4257 O   0  0  0  0  0  1  0  0  0  0  0  0
   -1.5693    1.3424   -3.1432 O   0  0  0  0  0  0  0  0  0  0  0  0
   -0.0022    2.9236    0.0097 C   0  0  0  0  0  0  0  0  0  0  0  0
   -0.9098    3.2291   -0.2308 H   0  0  0  0  0  0  0  0  0  0  0  0
    0.6706    3.2311   -0.6448 H   0  0  0  0  0  0  0  0  0  0  0  0
    0.2509    3.3597    0.9761 H   0  0  0  0  0  0  0  0  0  0  0  0
   -0.0034    1.4110    0.0008 C   0  0  0  0  0  0  0  0  0  0  0  0
   -1.2357    0.7121    0.0001 C   0  0  0  0  0  0  0  0  0  0  0  0
   -2.0818    1.2110   -0.0017 H   0  0  0  0  0  0  0  0  0  0  0  0
   -1.2397   -0.6872   -0.0000 C   0  0  0  0  0  0  0  0  0  0  0  0
   -2.0977   -1.1922    0.0040 H   0  0  0  0  0  0  0  0  0  0  0  0
    0.0030   -1.4015   -0.0040 C   0  0  0  0  0  0  0  0  0  0  0  0
   -0.0175   -2.3976   -0.0100 H   0  0  0  0  0  0  0  0  0  0  0  0
    1.2397   -0.7162    0.0000 C   0  0  0  0  0  0  0  0  0  0  0  0
    2.1000   -1.2231    0.0020 H   0  0  0  0  0  0  0  0  0  0  0  0
    1.2360    0.6818    0.0031 C   0  0  0  0  0  0  0  0  0  0  0  0
    2.0855    1.1903    0.0063 H   0  0  0  0  0  0  0  0  0  0  0  0
  1  5  1  0
  5  6  1  0
  5  7  2  0
  1  2  1  0
  1  3  1  0
  1  4  1  0
  8 12  1  0
 12 13  2  0
 13 15  1  0
 15 17  2  0
 17 19  1  0
 19 21  2  0
 21 12  1  0
  8  9  1  0
  8 10  1  0
  8 11  1  0
 13 14  1  0
 15 16  1  0
 17 18  1  0
 19 20  1  0
 21 22  1  0
M  CHG  1   6  -1
M  END
>  <PDB_ID>  (464) 
pdb2id0

>  <RESIDUE_NAME>  (464) 
GLU   PHE

>  <FRAG_NAME>  (464) 
ACET   MBZ

>  <FRAG_ATOM_NUM>  (464) 
fragi: 7  fragj: 15

>  <atom.prop.CHAIN_ID>  (464) 
A A A A A A A Z Z Z Z Z Z Z Z Z Z Z Z Z Z Z

>  <atom.prop.IS_HEAVY_ATOM>  (464) 
1 0 0 0 1 1 1 1 0 0 0 1 1 0 1 0 1 0 1 0 1 0

>  <DIFUSE_FUNC_ATOM>  (464) 
atom 6   atom 7   

>  <FINAL_SINGLE_POINT_ENERGY>  (464) 
0

>  <NONCOV_INTER_ENERGY_QM>  (464) 
0

>  <FF_Energy>  (464) 
17.88

>  <QM_Energy>  (464) 
3.21

>  <source>  (464) 
ACET_MBZ_00

>  <Index>  (464) 
16601

$$$$
ACET-pdb1hcu-B-GLU-486:MBZ-pdb1hcu-B-PHE-452
     RDKit          3D

 22 21  0  0  0  0  0  0  0  0999 V2000
    3.0331    6.9354   -1.0060 C   0  0  0  0  0  0  0  0  0  0  0  0
    3.6260    7.2757   -0.2979 H   0  0  0  0  0  0  0  0  0  0  0  0
    2.0920    7.1754   -0.8450 H   0  0  0  0  0  0  0  0  0  0  0  0
    3.3415    7.3870   -1.9490 H   0  0  0  0  0  0  0  0  0  0  0  0
    3.1249    5.4044   -0.9853 C   0  0  0  0  0  0  0  0  0  0  0  0
    3.6422    4.8046   -1.9588 O   0  0  0  0  0  1  0  0  0  0  0  0
    2.6854    4.8007    0.0227 O   0  0  0  0  0  0  0  0  0  0  0  0
    0.0140    2.9148   -0.0611 C   0  0  0  0  0  0  0  0  0  0  0  0
   -0.5107    3.1973   -0.8532 H   0  0  0  0  0  0  0  0  0  0  0  0
    0.9564    3.2125   -0.1367 H   0  0  0  0  0  0  0  0  0  0  0  0
   -0.4151    3.4142    0.8075 H   0  0  0  0  0  0  0  0  0  0  0  0
    0.0013    1.4081   -0.0014 C   0  0  0  0  0  0  0  0  0  0  0  0
   -1.1978    0.6986    0.0016 C   0  0  0  0  0  0  0  0  0  0  0  0
   -2.0637    1.1892    0.0036 H   0  0  0  0  0  0  0  0  0  0  0  0
   -1.2059   -0.6965    0.0000 C   0  0  0  0  0  0  0  0  0  0  0  0
   -2.0824   -1.1871    0.0005 H   0  0  0  0  0  0  0  0  0  0  0  0
   -0.0030   -1.3996   -0.0004 C   0  0  0  0  0  0  0  0  0  0  0  0
   -0.0105   -2.3969   -0.0016 H   0  0  0  0  0  0  0  0  0  0  0  0
    1.2059   -0.7052   -0.0000 C   0  0  0  0  0  0  0  0  0  0  0  0
    2.0832   -1.2000    0.0015 H   0  0  0  0  0  0  0  0  0  0  0  0
    1.1995    0.6945    0.0002 C   0  0  0  0  0  0  0  0  0  0  0  0
    2.0684    1.1885    0.0005 H   0  0  0  0  0  0  0  0  0  0  0  0
  1  5  1  0
  5  6  1  0
  5  7  2  0
  1  2  1  0
  1  3  1  0
  1  4  1  0
  8 12  1  0
 12 13  2  0
 13 15  1  0
 15 17  2  0
 17 19  1  0
 19 21  2  0
 21 12  1  0
  8  9  1  0
  8 10  1  0
  8 11  1  0
 13 14  1  0
 15 16  1  0
 17 18  1  0
 19 20  1  0
 21 22  1  0
M  CHG  1   6  -1
M  END
>  <PDB_ID>  (465) 
pdb1hcu

>  <RESIDUE_NAME>  (465) 
GLU   PHE

>  <FRAG_NAME>  (465) 
ACET   MBZ

>  <FRAG_ATOM_NUM>  (465) 
fragi: 7  fragj: 15

>  <atom.prop.CHAIN_ID>  (465) 
A A A A A A A Z Z Z Z Z Z Z Z Z Z Z Z Z Z Z

>  <atom.prop.IS_HEAVY_ATOM>  (465) 
1 0 0 0 1 1 1 1 0 0 0 1 1 0 1 0 1 0 1 0 1 0

>  <DIFUSE_FUNC_ATOM>  (465) 
atom 6   atom 7   

>  <FINAL_SINGLE_POINT_ENERGY>  (465) 
0

>  <NONCOV_INTER_ENERGY_QM>  (465) 
0

>  <FF_Energy>  (465) 
-1.2

>  <QM_Energy>  (465) 
-6.25

>  <source>  (465) 
ACET_MBZ_00

>  <Index>  (465) 
16614

$$$$
ACET-pdb1hpl-A-GLU-385:MBZ-pdb1hpl-A-PHE-297
     RDKit          3D

 22 21  0  0  0  0  0  0  0  0999 V2000
   -0.1091    1.7108    4.3382 C   0  0  0  0  0  0  0  0  0  0  0  0
   -0.1924    0.9421    3.7282 H   0  0  0  0  0  0  0  0  0  0  0  0
   -0.9310    1.8531    4.8628 H   0  0  0  0  0  0  0  0  0  0  0  0
    0.7184    1.5264    5.0234 H   0  0  0  0  0  0  0  0  0  0  0  0
    0.0934    2.9484    3.4771 C   0  0  0  0  0  0  0  0  0  0  0  0
    1.1888    3.2355    3.0002 O   0  0  0  0  0  1  0  0  0  0  0  0
   -0.8752    3.6531    3.2625 O   0  0  0  0  0  0  0  0  0  0  0  0
    0.0482    2.9194   -0.0400 C   0  0  0  0  0  0  0  0  0  0  0  0
    0.8962    3.2036    0.3994 H   0  0  0  0  0  0  0  0  0  0  0  0
   -0.7334    3.2448    0.4849 H   0  0  0  0  0  0  0  0  0  0  0  0
    0.0075    3.3784   -1.0278 H   0  0  0  0  0  0  0  0  0  0  0  0
    0.0116    1.3902   -0.0009 C   0  0  0  0  0  0  0  0  0  0  0  0
   -1.2104    0.7151    0.0031 C   0  0  0  0  0  0  0  0  0  0  0  0
   -2.0549    1.2122    0.0070 H   0  0  0  0  0  0  0  0  0  0  0  0
   -1.1992   -0.6647   -0.0000 C   0  0  0  0  0  0  0  0  0  0  0  0
   -2.0896   -1.1652   -0.0004 H   0  0  0  0  0  0  0  0  0  0  0  0
   -0.0142   -1.3852   -0.0006 C   0  0  0  0  0  0  0  0  0  0  0  0
   -0.0423   -2.3864   -0.0018 H   0  0  0  0  0  0  0  0  0  0  0  0
    1.1992   -0.7204   -0.0000 C   0  0  0  0  0  0  0  0  0  0  0  0
    2.0690   -1.2331    0.0031 H   0  0  0  0  0  0  0  0  0  0  0  0
    1.2130    0.6649   -0.0016 C   0  0  0  0  0  0  0  0  0  0  0  0
    2.0796    1.1580   -0.0035 H   0  0  0  0  0  0  0  0  0  0  0  0
  1  5  1  0
  5  6  1  0
  5  7  2  0
  1  2  1  0
  1  3  1  0
  1  4  1  0
  8 12  1  0
 12 13  2  0
 13 15  1  0
 15 17  2  0
 17 19  1  0
 19 21  2  0
 21 12  1  0
  8  9  1  0
  8 10  1  0
  8 11  1  0
 13 14  1  0
 15 16  1  0
 17 18  1  0
 19 20  1  0
 21 22  1  0
M  CHG  1   6  -1
M  END
>  <PDB_ID>  (466) 
pdb1hpl

>  <RESIDUE_NAME>  (466) 
GLU   PHE

>  <FRAG_NAME>  (466) 
ACET   MBZ

>  <FRAG_ATOM_NUM>  (466) 
fragi: 7  fragj: 15

>  <atom.prop.CHAIN_ID>  (466) 
A A A A A A A Z Z Z Z Z Z Z Z Z Z Z Z Z Z Z

>  <atom.prop.IS_HEAVY_ATOM>  (466) 
1 0 0 0 1 1 1 1 0 0 0 1 1 0 1 0 1 0 1 0 1 0

>  <DIFUSE_FUNC_ATOM>  (466) 
atom 6   atom 7   

>  <FINAL_SINGLE_POINT_ENERGY>  (466) 
0

>  <NONCOV_INTER_ENERGY_QM>  (466) 
0

>  <FF_Energy>  (466) 
-0.51

>  <QM_Energy>  (466) 
-6.19

>  <source>  (466) 
ACET_MBZ_00

>  <Index>  (466) 
16630

$$$$
ACET-pdb1hpl-B-ASP-272:MBZ-pdb1hpl-B-PHE-335
     RDKit          3D

 22 21  0  0  0  0  0  0  0  0999 V2000
    4.6759    3.5912    0.3184 C   0  0  0  0  0  0  0  0  0  0  0  0
    4.0249    3.4227    1.0733 H   0  0  0  0  0  0  0  0  0  0  0  0
    4.4140    4.4587   -0.1280 H   0  0  0  0  0  0  0  0  0  0  0  0
    5.6649    3.7270    0.7562 H   0  0  0  0  0  0  0  0  0  0  0  0
    4.5149    2.4628   -0.7066 C   0  0  0  0  0  0  0  0  0  0  0  0
    5.4838    1.7769   -1.0200 O   0  0  0  0  0  1  0  0  0  0  0  0
    3.3960    2.2439   -1.1829 O   0  0  0  0  0  0  0  0  0  0  0  0
    0.0221    2.8916   -0.0040 C   0  0  0  0  0  0  0  0  0  0  0  0
    0.9421    3.1813    0.2597 H   0  0  0  0  0  0  0  0  0  0  0  0
   -0.6348    3.2011    0.6837 H   0  0  0  0  0  0  0  0  0  0  0  0
   -0.2235    3.3958   -0.9387 H   0  0  0  0  0  0  0  0  0  0  0  0
    0.0047    1.3658   -0.0005 C   0  0  0  0  0  0  0  0  0  0  0  0
   -1.1922    0.7045    0.0014 C   0  0  0  0  0  0  0  0  0  0  0  0
   -2.0479    1.1994    0.0023 H   0  0  0  0  0  0  0  0  0  0  0  0
   -1.1890   -0.6673    0.0000 C   0  0  0  0  0  0  0  0  0  0  0  0
   -2.0731   -1.1674    0.0011 H   0  0  0  0  0  0  0  0  0  0  0  0
   -0.0035   -1.3642   -0.0008 C   0  0  0  0  0  0  0  0  0  0  0  0
   -0.0257   -2.3737   -0.0030 H   0  0  0  0  0  0  0  0  0  0  0  0
    1.1890   -0.7029   -0.0000 C   0  0  0  0  0  0  0  0  0  0  0  0
    2.0662   -1.2122    0.0020 H   0  0  0  0  0  0  0  0  0  0  0  0
    1.1910    0.6641   -0.0002 C   0  0  0  0  0  0  0  0  0  0  0  0
    2.0610    1.1650   -0.0007 H   0  0  0  0  0  0  0  0  0  0  0  0
  1  5  1  0
  5  6  1  0
  5  7  2  0
  1  2  1  0
  1  3  1  0
  1  4  1  0
  8 12  1  0
 12 13  2  0
 13 15  1  0
 15 17  2  0
 17 19  1  0
 19 21  2  0
 21 12  1  0
  8  9  1  0
  8 10  1  0
  8 11  1  0
 13 14  1  0
 15 16  1  0
 17 18  1  0
 19 20  1  0
 21 22  1  0
M  CHG  1   6  -1
M  END
>  <PDB_ID>  (467) 
pdb1hpl

>  <RESIDUE_NAME>  (467) 
ASP   PHE

>  <FRAG_NAME>  (467) 
ACET   MBZ

>  <FRAG_ATOM_NUM>  (467) 
fragi: 7  fragj: 15

>  <atom.prop.CHAIN_ID>  (467) 
A A A A A A A Z Z Z Z Z Z Z Z Z Z Z Z Z Z Z

>  <atom.prop.IS_HEAVY_ATOM>  (467) 
1 0 0 0 1 1 1 1 0 0 0 1 1 0 1 0 1 0 1 0 1 0

>  <DIFUSE_FUNC_ATOM>  (467) 
atom 6   atom 7   

>  <FINAL_SINGLE_POINT_ENERGY>  (467) 
0

>  <NONCOV_INTER_ENERGY_QM>  (467) 
0

>  <FF_Energy>  (467) 
2.6

>  <QM_Energy>  (467) 
-6.04

>  <source>  (467) 
ACET_MBZ_00

>  <Index>  (467) 
16637

$$$$
ACET-pdb1hqs-A-GLU-195:MBZ-pdb1hqs-B-PHE-181
     RDKit          3D

 22 21  0  0  0  0  0  0  0  0999 V2000
   -1.6123    1.3179    4.0575 C   0  0  0  0  0  0  0  0  0  0  0  0
   -2.0685    0.6127    4.5731 H   0  0  0  0  0  0  0  0  0  0  0  0
   -1.3966    2.1001    4.6183 H   0  0  0  0  0  0  0  0  0  0  0  0
   -0.6859    0.9106    3.6524 H   0  0  0  0  0  0  0  0  0  0  0  0
   -2.5745    1.7855    2.9842 C   0  0  0  0  0  0  0  0  0  0  0  0
   -2.4355    2.9450    2.5123 O   0  0  0  0  0  1  0  0  0  0  0  0
   -3.4807    0.9990    2.6358 O   0  0  0  0  0  0  0  0  0  0  0  0
    0.0048    2.9110    0.0460 C   0  0  0  0  0  0  0  0  0  0  0  0
    0.9403    3.2138    0.1480 H   0  0  0  0  0  0  0  0  0  0  0  0
   -0.5514    3.1940    0.8132 H   0  0  0  0  0  0  0  0  0  0  0  0
   -0.4010    3.3795   -0.8506 H   0  0  0  0  0  0  0  0  0  0  0  0
    0.0043    1.4085    0.0012 C   0  0  0  0  0  0  0  0  0  0  0  0
   -1.1993    0.7054   -0.0014 C   0  0  0  0  0  0  0  0  0  0  0  0
   -2.0634    1.1935   -0.0056 H   0  0  0  0  0  0  0  0  0  0  0  0
   -1.2122   -0.7016    0.0000 C   0  0  0  0  0  0  0  0  0  0  0  0
   -2.0901   -1.1839    0.0016 H   0  0  0  0  0  0  0  0  0  0  0  0
   -0.0099   -1.4057    0.0013 C   0  0  0  0  0  0  0  0  0  0  0  0
   -0.0109   -2.3997    0.0027 H   0  0  0  0  0  0  0  0  0  0  0  0
    1.2122   -0.7042   -0.0000 C   0  0  0  0  0  0  0  0  0  0  0  0
    2.0836   -1.2030    0.0015 H   0  0  0  0  0  0  0  0  0  0  0  0
    1.2049    0.6976   -0.0011 C   0  0  0  0  0  0  0  0  0  0  0  0
    2.0725    1.1911   -0.0042 H   0  0  0  0  0  0  0  0  0  0  0  0
  1  5  1  0
  5  6  1  0
  5  7  2  0
  1  2  1  0
  1  3  1  0
  1  4  1  0
  8 12  1  0
 12 13  2  0
 13 15  1  0
 15 17  2  0
 17 19  1  0
 19 21  2  0
 21 12  1  0
  8  9  1  0
  8 10  1  0
  8 11  1  0
 13 14  1  0
 15 16  1  0
 17 18  1  0
 19 20  1  0
 21 22  1  0
M  CHG  1   6  -1
M  END
>  <PDB_ID>  (468) 
pdb1hqs

>  <RESIDUE_NAME>  (468) 
GLU   PHE

>  <FRAG_NAME>  (468) 
ACET   MBZ

>  <FRAG_ATOM_NUM>  (468) 
fragi: 7  fragj: 15

>  <atom.prop.CHAIN_ID>  (468) 
A A A A A A A Z Z Z Z Z Z Z Z Z Z Z Z Z Z Z

>  <atom.prop.IS_HEAVY_ATOM>  (468) 
1 0 0 0 1 1 1 1 0 0 0 1 1 0 1 0 1 0 1 0 1 0

>  <DIFUSE_FUNC_ATOM>  (468) 
atom 6   atom 7   

>  <FINAL_SINGLE_POINT_ENERGY>  (468) 
0

>  <NONCOV_INTER_ENERGY_QM>  (468) 
0

>  <FF_Energy>  (468) 
-1.79

>  <QM_Energy>  (468) 
-7.52

>  <source>  (468) 
ACET_MBZ_00

>  <Index>  (468) 
16691

$$$$
ACET-pdb2ift-B-GLU-164:MBZ-pdb2ift-B-PHE-135
     RDKit          3D

 22 21  0  0  0  0  0  0  0  0999 V2000
   -2.5448    3.1038   -2.0671 C   0  0  0  0  0  0  0  0  0  0  0  0
   -1.9812    3.4199   -1.3025 H   0  0  0  0  0  0  0  0  0  0  0  0
   -3.2136    3.8121   -2.2986 H   0  0  0  0  0  0  0  0  0  0  0  0
   -1.8883    2.9752   -2.9277 H   0  0  0  0  0  0  0  0  0  0  0  0
   -3.2990    1.8956   -1.6119 C   0  0  0  0  0  0  0  0  0  0  0  0
   -3.2130    0.7985   -2.1472 O   0  0  0  0  0  1  0  0  0  0  0  0
   -4.0340    2.1330   -0.6329 O   0  0  0  0  0  0  0  0  0  0  0  0
   -0.0293    2.9015    0.0180 C   0  0  0  0  0  0  0  0  0  0  0  0
   -0.7004    3.1920    0.6845 H   0  0  0  0  0  0  0  0  0  0  0  0
   -0.2641    3.2191   -0.8896 H   0  0  0  0  0  0  0  0  0  0  0  0
    0.9197    3.3642    0.2887 H   0  0  0  0  0  0  0  0  0  0  0  0
   -0.0000    1.4031    0.0009 C   0  0  0  0  0  0  0  0  0  0  0  0
   -1.1986    0.6901   -0.0018 C   0  0  0  0  0  0  0  0  0  0  0  0
   -2.0658    1.1813   -0.0067 H   0  0  0  0  0  0  0  0  0  0  0  0
   -1.2069   -0.7031   -0.0000 C   0  0  0  0  0  0  0  0  0  0  0  0
   -2.0823   -1.1951    0.0013 H   0  0  0  0  0  0  0  0  0  0  0  0
   -0.0038   -1.3975    0.0016 C   0  0  0  0  0  0  0  0  0  0  0  0
   -0.0004   -2.3943    0.0030 H   0  0  0  0  0  0  0  0  0  0  0  0
    1.2069   -0.6934    0.0000 C   0  0  0  0  0  0  0  0  0  0  0  0
    2.0849   -1.1926    0.0011 H   0  0  0  0  0  0  0  0  0  0  0  0
    1.2024    0.7008   -0.0007 C   0  0  0  0  0  0  0  0  0  0  0  0
    2.0665    1.1977   -0.0034 H   0  0  0  0  0  0  0  0  0  0  0  0
  1  5  1  0
  5  6  1  0
  5  7  2  0
  1  2  1  0
  1  3  1  0
  1  4  1  0
  8 12  1  0
 12 13  2  0
 13 15  1  0
 15 17  2  0
 17 19  1  0
 19 21  2  0
 21 12  1  0
  8  9  1  0
  8 10  1  0
  8 11  1  0
 13 14  1  0
 15 16  1  0
 17 18  1  0
 19 20  1  0
 21 22  1  0
M  CHG  1   6  -1
M  END
>  <PDB_ID>  (469) 
pdb2ift

>  <RESIDUE_NAME>  (469) 
GLU   PHE

>  <FRAG_NAME>  (469) 
ACET   MBZ

>  <FRAG_ATOM_NUM>  (469) 
fragi: 7  fragj: 15

>  <atom.prop.CHAIN_ID>  (469) 
A A A A A A A Z Z Z Z Z Z Z Z Z Z Z Z Z Z Z

>  <atom.prop.IS_HEAVY_ATOM>  (469) 
1 0 0 0 1 1 1 1 0 0 0 1 1 0 1 0 1 0 1 0 1 0

>  <DIFUSE_FUNC_ATOM>  (469) 
atom 6   atom 7   

>  <FINAL_SINGLE_POINT_ENERGY>  (469) 
0

>  <NONCOV_INTER_ENERGY_QM>  (469) 
0

>  <FF_Energy>  (469) 
16.97

>  <QM_Energy>  (469) 
-1.59

>  <source>  (469) 
ACET_MBZ_00

>  <Index>  (469) 
16741

$$$$
ACET-pdb2icw-B-GLU-28:MBZ-pdb2icw-B-PHE-13
     RDKit          3D

 22 21  0  0  0  0  0  0  0  0999 V2000
    3.3588   -0.5039    2.5316 C   0  0  0  0  0  0  0  0  0  0  0  0
    3.4440   -0.9351    3.4039 H   0  0  0  0  0  0  0  0  0  0  0  0
    2.4318   -0.3399    2.2698 H   0  0  0  0  0  0  0  0  0  0  0  0
    3.8887    0.4482    2.5599 H   0  0  0  0  0  0  0  0  0  0  0  0
    3.9574   -1.4738    1.4876 C   0  0  0  0  0  0  0  0  0  0  0  0
    3.7980   -2.7144    1.6474 O   0  0  0  0  0  1  0  0  0  0  0  0
    4.5822   -0.9900    0.5038 O   0  0  0  0  0  0  0  0  0  0  0  0
   -0.0007    2.9039   -0.0354 C   0  0  0  0  0  0  0  0  0  0  0  0
   -0.8615    3.2011   -0.4214 H   0  0  0  0  0  0  0  0  0  0  0  0
    0.7636    3.1983   -0.5900 H   0  0  0  0  0  0  0  0  0  0  0  0
    0.1017    3.3695    0.9448 H   0  0  0  0  0  0  0  0  0  0  0  0
    0.0003    1.4018   -0.0004 C   0  0  0  0  0  0  0  0  0  0  0  0
   -1.1971    0.6950    0.0026 C   0  0  0  0  0  0  0  0  0  0  0  0
   -2.0635    1.1865    0.0050 H   0  0  0  0  0  0  0  0  0  0  0  0
   -1.2055   -0.6966   -0.0000 C   0  0  0  0  0  0  0  0  0  0  0  0
   -2.0801   -1.1907    0.0016 H   0  0  0  0  0  0  0  0  0  0  0  0
    0.0016   -1.4005   -0.0037 C   0  0  0  0  0  0  0  0  0  0  0  0
   -0.0025   -2.3937   -0.0096 H   0  0  0  0  0  0  0  0  0  0  0  0
    1.2055   -0.6963    0.0000 C   0  0  0  0  0  0  0  0  0  0  0  0
    2.0860   -1.1913    0.0030 H   0  0  0  0  0  0  0  0  0  0  0  0
    1.1952    0.6966    0.0015 C   0  0  0  0  0  0  0  0  0  0  0  0
    2.0638    1.1933    0.0031 H   0  0  0  0  0  0  0  0  0  0  0  0
  1  5  1  0
  5  6  1  0
  5  7  2  0
  1  2  1  0
  1  3  1  0
  1  4  1  0
  8 12  1  0
 12 13  2  0
 13 15  1  0
 15 17  2  0
 17 19  1  0
 19 21  2  0
 21 12  1  0
  8  9  1  0
  8 10  1  0
  8 11  1  0
 13 14  1  0
 15 16  1  0
 17 18  1  0
 19 20  1  0
 21 22  1  0
M  CHG  1   6  -1
M  END
>  <PDB_ID>  (470) 
pdb2icw

>  <RESIDUE_NAME>  (470) 
GLU   PHE

>  <FRAG_NAME>  (470) 
ACET   MBZ

>  <FRAG_ATOM_NUM>  (470) 
fragi: 7  fragj: 15

>  <atom.prop.CHAIN_ID>  (470) 
A A A A A A A Z Z Z Z Z Z Z Z Z Z Z Z Z Z Z

>  <atom.prop.IS_HEAVY_ATOM>  (470) 
1 0 0 0 1 1 1 1 0 0 0 1 1 0 1 0 1 0 1 0 1 0

>  <DIFUSE_FUNC_ATOM>  (470) 
atom 6   atom 7   

>  <FINAL_SINGLE_POINT_ENERGY>  (470) 
0

>  <NONCOV_INTER_ENERGY_QM>  (470) 
0

>  <FF_Energy>  (470) 
-0.14

>  <QM_Energy>  (470) 
-5.39

>  <source>  (470) 
ACET_MBZ_00

>  <Index>  (470) 
16757

$$$$
ACET-pdb2ify-A-GLU-354:MBZ-pdb2ify-A-PHE-351
     RDKit          3D

 22 21  0  0  0  0  0  0  0  0999 V2000
    4.6315    4.9134   -0.5591 C   0  0  0  0  0  0  0  0  0  0  0  0
    5.1750    5.4652   -1.1718 H   0  0  0  0  0  0  0  0  0  0  0  0
    5.0649    4.8210    0.3238 H   0  0  0  0  0  0  0  0  0  0  0  0
    3.6696    5.4064   -0.4187 H   0  0  0  0  0  0  0  0  0  0  0  0
    4.5331    3.5218   -1.1658 C   0  0  0  0  0  0  0  0  0  0  0  0
    5.5144    3.0818   -1.7998 O   0  0  0  0  0  1  0  0  0  0  0  0
    3.4963    2.8459   -1.0145 O   0  0  0  0  0  0  0  0  0  0  0  0
    0.0043    2.8844    0.0119 C   0  0  0  0  0  0  0  0  0  0  0  0
    0.9164    3.1866    0.2559 H   0  0  0  0  0  0  0  0  0  0  0  0
   -0.6603    3.1866    0.6826 H   0  0  0  0  0  0  0  0  0  0  0  0
   -0.2535    3.3446   -0.9420 H   0  0  0  0  0  0  0  0  0  0  0  0
   -0.0014    1.3899   -0.0087 C   0  0  0  0  0  0  0  0  0  0  0  0
   -1.2041    0.6913    0.0023 C   0  0  0  0  0  0  0  0  0  0  0  0
   -2.0637    1.1872    0.0106 H   0  0  0  0  0  0  0  0  0  0  0  0
   -1.2030   -0.6877   -0.0000 C   0  0  0  0  0  0  0  0  0  0  0  0
   -2.0751   -1.1925   -0.0016 H   0  0  0  0  0  0  0  0  0  0  0  0
    0.0058   -1.3831    0.0017 C   0  0  0  0  0  0  0  0  0  0  0  0
   -0.0056   -2.3848    0.0033 H   0  0  0  0  0  0  0  0  0  0  0  0
    1.2030   -0.6955   -0.0000 C   0  0  0  0  0  0  0  0  0  0  0  0
    2.0837   -1.1968   -0.0028 H   0  0  0  0  0  0  0  0  0  0  0  0
    1.1997    0.6851    0.0047 C   0  0  0  0  0  0  0  0  0  0  0  0
    2.0640    1.1880    0.0171 H   0  0  0  0  0  0  0  0  0  0  0  0
  1  5  1  0
  5  6  1  0
  5  7  2  0
  1  2  1  0
  1  3  1  0
  1  4  1  0
  8 12  1  0
 12 13  2  0
 13 15  1  0
 15 17  2  0
 17 19  1  0
 19 21  2  0
 21 12  1  0
  8  9  1  0
  8 10  1  0
  8 11  1  0
 13 14  1  0
 15 16  1  0
 17 18  1  0
 19 20  1  0
 21 22  1  0
M  CHG  1   6  -1
M  END
>  <PDB_ID>  (471) 
pdb2ify

>  <RESIDUE_NAME>  (471) 
GLU   PHE

>  <FRAG_NAME>  (471) 
ACET   MBZ

>  <FRAG_ATOM_NUM>  (471) 
fragi: 7  fragj: 15

>  <atom.prop.CHAIN_ID>  (471) 
A A A A A A A Z Z Z Z Z Z Z Z Z Z Z Z Z Z Z

>  <atom.prop.IS_HEAVY_ATOM>  (471) 
1 0 0 0 1 1 1 1 0 0 0 1 1 0 1 0 1 0 1 0 1 0

>  <DIFUSE_FUNC_ATOM>  (471) 
atom 6   atom 7   

>  <FINAL_SINGLE_POINT_ENERGY>  (471) 
0

>  <NONCOV_INTER_ENERGY_QM>  (471) 
0

>  <FF_Energy>  (471) 
-0.43

>  <QM_Energy>  (471) 
-6.99

>  <source>  (471) 
ACET_MBZ_00

>  <Index>  (471) 
16764

$$$$
ACET-pdb1hjw-B-ASP-358:MBZ-pdb1hjw-B-PHE-363
     RDKit          3D

 22 21  0  0  0  0  0  0  0  0999 V2000
   -3.8682    4.4713   -2.6674 C   0  0  0  0  0  0  0  0  0  0  0  0
   -3.0335    4.7544   -3.1222 H   0  0  0  0  0  0  0  0  0  0  0  0
   -4.5048    5.2276   -2.5979 H   0  0  0  0  0  0  0  0  0  0  0  0
   -4.3334    3.6918   -3.2709 H   0  0  0  0  0  0  0  0  0  0  0  0
   -3.5062    4.0092   -1.2349 C   0  0  0  0  0  0  0  0  0  0  0  0
   -3.3398    2.7927   -0.9836 O   0  0  0  0  0  1  0  0  0  0  0  0
   -3.3665    4.8898   -0.3547 O   0  0  0  0  0  0  0  0  0  0  0  0
    0.0095    2.8904   -0.0716 C   0  0  0  0  0  0  0  0  0  0  0  0
   -0.7529    3.1778   -0.6388 H   0  0  0  0  0  0  0  0  0  0  0  0
    0.8716    3.1748   -0.4726 H   0  0  0  0  0  0  0  0  0  0  0  0
   -0.0882    3.3859    0.8944 H   0  0  0  0  0  0  0  0  0  0  0  0
    0.0000    1.3993   -0.0022 C   0  0  0  0  0  0  0  0  0  0  0  0
   -1.1997    0.6969    0.0036 C   0  0  0  0  0  0  0  0  0  0  0  0
   -2.0640    1.1860    0.0095 H   0  0  0  0  0  0  0  0  0  0  0  0
   -1.2046   -0.6983   -0.0000 C   0  0  0  0  0  0  0  0  0  0  0  0
   -2.0805   -1.1902    0.0004 H   0  0  0  0  0  0  0  0  0  0  0  0
   -0.0012   -1.3937   -0.0026 C   0  0  0  0  0  0  0  0  0  0  0  0
   -0.0029   -2.3918   -0.0068 H   0  0  0  0  0  0  0  0  0  0  0  0
    1.2046   -0.6958   -0.0000 C   0  0  0  0  0  0  0  0  0  0  0  0
    2.0831   -1.1975    0.0023 H   0  0  0  0  0  0  0  0  0  0  0  0
    1.2008    0.6916    0.0011 C   0  0  0  0  0  0  0  0  0  0  0  0
    2.0664    1.1916    0.0034 H   0  0  0  0  0  0  0  0  0  0  0  0
  1  5  1  0
  5  6  1  0
  5  7  2  0
  1  2  1  0
  1  3  1  0
  1  4  1  0
  8 12  1  0
 12 13  2  0
 13 15  1  0
 15 17  2  0
 17 19  1  0
 19 21  2  0
 21 12  1  0
  8  9  1  0
  8 10  1  0
  8 11  1  0
 13 14  1  0
 15 16  1  0
 17 18  1  0
 19 20  1  0
 21 22  1  0
M  CHG  1   6  -1
M  END
>  <PDB_ID>  (472) 
pdb1hjw

>  <RESIDUE_NAME>  (472) 
ASP   PHE

>  <FRAG_NAME>  (472) 
ACET   MBZ

>  <FRAG_ATOM_NUM>  (472) 
fragi: 7  fragj: 15

>  <atom.prop.CHAIN_ID>  (472) 
A A A A A A A Z Z Z Z Z Z Z Z Z Z Z Z Z Z Z

>  <atom.prop.IS_HEAVY_ATOM>  (472) 
1 0 0 0 1 1 1 1 0 0 0 1 1 0 1 0 1 0 1 0 1 0

>  <DIFUSE_FUNC_ATOM>  (472) 
atom 6   atom 7   

>  <FINAL_SINGLE_POINT_ENERGY>  (472) 
0

>  <NONCOV_INTER_ENERGY_QM>  (472) 
0

>  <FF_Energy>  (472) 
-1.41

>  <QM_Energy>  (472) 
-8.53

>  <source>  (472) 
ACET_MBZ_00

>  <Index>  (472) 
16766

$$$$
ACET-pdb2ihc-A-GLU-78:MBZ-pdb2ihc-A-PHE-112
     RDKit          3D

 22 21  0  0  0  0  0  0  0  0999 V2000
   -3.2472   -0.3455   -4.3456 C   0  0  0  0  0  0  0  0  0  0  0  0
   -4.0441    0.1689   -4.5614 H   0  0  0  0  0  0  0  0  0  0  0  0
   -3.1508   -1.1642   -4.8628 H   0  0  0  0  0  0  0  0  0  0  0  0
   -2.3745    0.2817   -4.5275 H   0  0  0  0  0  0  0  0  0  0  0  0
   -3.3269   -0.7302   -2.8787 C   0  0  0  0  0  0  0  0  0  0  0  0
   -3.0336    0.1680   -2.0406 O   0  0  0  0  0  1  0  0  0  0  0  0
   -3.6551   -1.9106   -2.5858 O   0  0  0  0  0  0  0  0  0  0  0  0
    0.0016    2.9298    0.0553 C   0  0  0  0  0  0  0  0  0  0  0  0
   -0.7833    3.2502   -0.4399 H   0  0  0  0  0  0  0  0  0  0  0  0
    0.8467    3.2505   -0.3294 H   0  0  0  0  0  0  0  0  0  0  0  0
   -0.0671    3.3136    1.0731 H   0  0  0  0  0  0  0  0  0  0  0  0
    0.0054    1.4103   -0.0077 C   0  0  0  0  0  0  0  0  0  0  0  0
   -1.1941    0.6931    0.0184 C   0  0  0  0  0  0  0  0  0  0  0  0
   -2.0606    1.1870    0.0496 H   0  0  0  0  0  0  0  0  0  0  0  0
   -1.2063   -0.6987   -0.0000 C   0  0  0  0  0  0  0  0  0  0  0  0
   -2.0900   -1.1838   -0.0012 H   0  0  0  0  0  0  0  0  0  0  0  0
   -0.0173   -1.3979   -0.0143 C   0  0  0  0  0  0  0  0  0  0  0  0
   -0.0162   -2.3962   -0.0355 H   0  0  0  0  0  0  0  0  0  0  0  0
    1.2063   -0.7038    0.0000 C   0  0  0  0  0  0  0  0  0  0  0  0
    2.0760   -1.2069    0.0093 H   0  0  0  0  0  0  0  0  0  0  0  0
    1.2060    0.6969    0.0036 C   0  0  0  0  0  0  0  0  0  0  0  0
    2.0736    1.1878    0.0139 H   0  0  0  0  0  0  0  0  0  0  0  0
  1  5  1  0
  5  6  1  0
  5  7  2  0
  1  2  1  0
  1  3  1  0
  1  4  1  0
  8 12  1  0
 12 13  2  0
 13 15  1  0
 15 17  2  0
 17 19  1  0
 19 21  2  0
 21 12  1  0
  8  9  1  0
  8 10  1  0
  8 11  1  0
 13 14  1  0
 15 16  1  0
 17 18  1  0
 19 20  1  0
 21 22  1  0
M  CHG  1   6  -1
M  END
>  <PDB_ID>  (473) 
pdb2ihc

>  <RESIDUE_NAME>  (473) 
GLU   PHE

>  <FRAG_NAME>  (473) 
ACET   MBZ

>  <FRAG_ATOM_NUM>  (473) 
fragi: 7  fragj: 15

>  <atom.prop.CHAIN_ID>  (473) 
A A A A A A A Z Z Z Z Z Z Z Z Z Z Z Z Z Z Z

>  <atom.prop.IS_HEAVY_ATOM>  (473) 
1 0 0 0 1 1 1 1 0 0 0 1 1 0 1 0 1 0 1 0 1 0

>  <DIFUSE_FUNC_ATOM>  (473) 
atom 6   atom 7   

>  <FINAL_SINGLE_POINT_ENERGY>  (473) 
0

>  <NONCOV_INTER_ENERGY_QM>  (473) 
0

>  <FF_Energy>  (473) 
2.13

>  <QM_Energy>  (473) 
-3.87

>  <source>  (473) 
ACET_MBZ_00

>  <Index>  (473) 
16817

$$$$
ACET-pdb2ihc-B-GLU-78:MBZ-pdb2ihc-B-PHE-112
     RDKit          3D

 22 21  0  0  0  0  0  0  0  0999 V2000
   -3.9788   -0.8822   -3.4562 C   0  0  0  0  0  0  0  0  0  0  0  0
   -4.7904   -0.3733   -3.6449 H   0  0  0  0  0  0  0  0  0  0  0  0
   -3.9506   -1.7492   -3.9047 H   0  0  0  0  0  0  0  0  0  0  0  0
   -3.1189   -0.2953   -3.7787 H   0  0  0  0  0  0  0  0  0  0  0  0
   -3.9339   -1.1371   -1.9619 C   0  0  0  0  0  0  0  0  0  0  0  0
   -4.1344   -0.1709   -1.1893 O   0  0  0  0  0  1  0  0  0  0  0  0
   -3.6800   -2.2964   -1.5629 O   0  0  0  0  0  0  0  0  0  0  0  0
    0.0069    2.9112    0.0267 C   0  0  0  0  0  0  0  0  0  0  0  0
   -0.8667    3.2323   -0.2979 H   0  0  0  0  0  0  0  0  0  0  0  0
    0.7471    3.2229   -0.5458 H   0  0  0  0  0  0  0  0  0  0  0  0
    0.1623    3.3273    1.0221 H   0  0  0  0  0  0  0  0  0  0  0  0
   -0.0061    1.4045   -0.0014 C   0  0  0  0  0  0  0  0  0  0  0  0
   -1.2065    0.7026    0.0055 C   0  0  0  0  0  0  0  0  0  0  0  0
   -2.0698    1.1882    0.0132 H   0  0  0  0  0  0  0  0  0  0  0  0
   -1.2033   -0.6939    0.0000 C   0  0  0  0  0  0  0  0  0  0  0  0
   -2.0697   -1.1962    0.0042 H   0  0  0  0  0  0  0  0  0  0  0  0
    0.0203   -1.3926   -0.0091 C   0  0  0  0  0  0  0  0  0  0  0  0
    0.0012   -2.3929   -0.0226 H   0  0  0  0  0  0  0  0  0  0  0  0
    1.2033   -0.7044   -0.0000 C   0  0  0  0  0  0  0  0  0  0  0  0
    2.0919   -1.1937    0.0044 H   0  0  0  0  0  0  0  0  0  0  0  0
    1.1922    0.6837    0.0050 C   0  0  0  0  0  0  0  0  0  0  0  0
    2.0617    1.1855    0.0131 H   0  0  0  0  0  0  0  0  0  0  0  0
  1  5  1  0
  5  6  1  0
  5  7  2  0
  1  2  1  0
  1  3  1  0
  1  4  1  0
  8 12  1  0
 12 13  2  0
 13 15  1  0
 15 17  2  0
 17 19  1  0
 19 21  2  0
 21 12  1  0
  8  9  1  0
  8 10  1  0
  8 11  1  0
 13 14  1  0
 15 16  1  0
 17 18  1  0
 19 20  1  0
 21 22  1  0
M  CHG  1   6  -1
M  END
>  <PDB_ID>  (474) 
pdb2ihc

>  <RESIDUE_NAME>  (474) 
GLU   PHE

>  <FRAG_NAME>  (474) 
ACET   MBZ

>  <FRAG_ATOM_NUM>  (474) 
fragi: 7  fragj: 15

>  <atom.prop.CHAIN_ID>  (474) 
A A A A A A A Z Z Z Z Z Z Z Z Z Z Z Z Z Z Z

>  <atom.prop.IS_HEAVY_ATOM>  (474) 
1 0 0 0 1 1 1 1 0 0 0 1 1 0 1 0 1 0 1 0 1 0

>  <DIFUSE_FUNC_ATOM>  (474) 
atom 6   atom 7   

>  <FINAL_SINGLE_POINT_ENERGY>  (474) 
0

>  <NONCOV_INTER_ENERGY_QM>  (474) 
0

>  <FF_Energy>  (474) 
-2.43

>  <QM_Energy>  (474) 
-7.89

>  <source>  (474) 
ACET_MBZ_00

>  <Index>  (474) 
16819

$$$$
ACET-pdb2ihm-B-ASP-465:MBZ-pdb2ihm-B-PHE-472
     RDKit          3D

 22 21  0  0  0  0  0  0  0  0999 V2000
    3.1665   -3.5259   -2.5286 C   0  0  0  0  0  0  0  0  0  0  0  0
    3.1032   -3.7700   -3.4961 H   0  0  0  0  0  0  0  0  0  0  0  0
    2.8988   -4.3098   -1.9697 H   0  0  0  0  0  0  0  0  0  0  0  0
    4.2086   -3.2945   -2.3080 H   0  0  0  0  0  0  0  0  0  0  0  0
    2.2047   -2.3848   -2.2543 C   0  0  0  0  0  0  0  0  0  0  0  0
    2.6340   -1.2982   -1.8132 O   0  0  0  0  0  1  0  0  0  0  0  0
    1.0076   -2.5921   -2.5027 O   0  0  0  0  0  0  0  0  0  0  0  0
    0.0025    2.9098   -0.0147 C   0  0  0  0  0  0  0  0  0  0  0  0
    0.9418    3.2136    0.0261 H   0  0  0  0  0  0  0  0  0  0  0  0
   -0.5137    3.2235    0.7672 H   0  0  0  0  0  0  0  0  0  0  0  0
   -0.4505    3.3373   -0.9093 H   0  0  0  0  0  0  0  0  0  0  0  0
   -0.0005    1.4061   -0.0000 C   0  0  0  0  0  0  0  0  0  0  0  0
   -1.1979    0.6983   -0.0005 C   0  0  0  0  0  0  0  0  0  0  0  0
   -2.0642    1.1865   -0.0021 H   0  0  0  0  0  0  0  0  0  0  0  0
   -1.2032   -0.6985    0.0000 C   0  0  0  0  0  0  0  0  0  0  0  0
   -2.0798   -1.1900    0.0022 H   0  0  0  0  0  0  0  0  0  0  0  0
    0.0012   -1.3998    0.0000 C   0  0  0  0  0  0  0  0  0  0  0  0
   -0.0043   -2.3963   -0.0004 H   0  0  0  0  0  0  0  0  0  0  0  0
    1.2032   -0.7014    0.0000 C   0  0  0  0  0  0  0  0  0  0  0  0
    2.0848   -1.1959    0.0014 H   0  0  0  0  0  0  0  0  0  0  0  0
    1.1972    0.6953    0.0005 C   0  0  0  0  0  0  0  0  0  0  0  0
    2.0658    1.1897    0.0002 H   0  0  0  0  0  0  0  0  0  0  0  0
  1  5  1  0
  5  6  1  0
  5  7  2  0
  1  2  1  0
  1  3  1  0
  1  4  1  0
  8 12  1  0
 12 13  2  0
 13 15  1  0
 15 17  2  0
 17 19  1  0
 19 21  2  0
 21 12  1  0
  8  9  1  0
  8 10  1  0
  8 11  1  0
 13 14  1  0
 15 16  1  0
 17 18  1  0
 19 20  1  0
 21 22  1  0
M  CHG  1   6  -1
M  END
>  <PDB_ID>  (475) 
pdb2ihm

>  <RESIDUE_NAME>  (475) 
ASP   PHE

>  <FRAG_NAME>  (475) 
ACET   MBZ

>  <FRAG_ATOM_NUM>  (475) 
fragi: 7  fragj: 15

>  <atom.prop.CHAIN_ID>  (475) 
A A A A A A A Z Z Z Z Z Z Z Z Z Z Z Z Z Z Z

>  <atom.prop.IS_HEAVY_ATOM>  (475) 
1 0 0 0 1 1 1 1 0 0 0 1 1 0 1 0 1 0 1 0 1 0

>  <DIFUSE_FUNC_ATOM>  (475) 
atom 6   atom 7   

>  <FINAL_SINGLE_POINT_ENERGY>  (475) 
0

>  <NONCOV_INTER_ENERGY_QM>  (475) 
0

>  <FF_Energy>  (475) 
35.23

>  <QM_Energy>  (475) 
5.47

>  <source>  (475) 
ACET_MBZ_00

>  <Index>  (475) 
16843

$$$$
ACET-pdb2ii8-D-GLU-31:MBZ-pdb2ii8-D-PHE-74
     RDKit          3D

 22 21  0  0  0  0  0  0  0  0999 V2000
    3.9734    2.0768    1.3747 C   0  0  0  0  0  0  0  0  0  0  0  0
    3.4357    2.4125    2.1254 H   0  0  0  0  0  0  0  0  0  0  0  0
    3.4319    1.5898    0.7151 H   0  0  0  0  0  0  0  0  0  0  0  0
    4.4111    2.9392    0.8717 H   0  0  0  0  0  0  0  0  0  0  0  0
    5.0068    1.1006    1.9401 C   0  0  0  0  0  0  0  0  0  0  0  0
    5.9563    0.7216    1.2110 O   0  0  0  0  0  1  0  0  0  0  0  0
    4.8758    0.7290    3.1154 O   0  0  0  0  0  0  0  0  0  0  0  0
    0.0090    2.9047    0.0004 C   0  0  0  0  0  0  0  0  0  0  0  0
    0.9434    3.2035    0.1180 H   0  0  0  0  0  0  0  0  0  0  0  0
   -0.5627    3.2049    0.7482 H   0  0  0  0  0  0  0  0  0  0  0  0
   -0.3768    3.3377   -0.9225 H   0  0  0  0  0  0  0  0  0  0  0  0
    0.0054    1.4034   -0.0048 C   0  0  0  0  0  0  0  0  0  0  0  0
   -1.1874    0.6958    0.0116 C   0  0  0  0  0  0  0  0  0  0  0  0
   -2.0576    1.1824    0.0305 H   0  0  0  0  0  0  0  0  0  0  0  0
   -1.1981   -0.7059    0.0000 C   0  0  0  0  0  0  0  0  0  0  0  0
   -2.0821   -1.1865   -0.0089 H   0  0  0  0  0  0  0  0  0  0  0  0
   -0.0113   -1.3989    0.0028 C   0  0  0  0  0  0  0  0  0  0  0  0
   -0.0098   -2.3999    0.0059 H   0  0  0  0  0  0  0  0  0  0  0  0
    1.1981   -0.7058    0.0000 C   0  0  0  0  0  0  0  0  0  0  0  0
    2.0764   -1.1934    0.0067 H   0  0  0  0  0  0  0  0  0  0  0  0
    1.1933    0.7114   -0.0096 C   0  0  0  0  0  0  0  0  0  0  0  0
    2.0653    1.1916   -0.0206 H   0  0  0  0  0  0  0  0  0  0  0  0
  1  5  1  0
  5  6  1  0
  5  7  2  0
  1  2  1  0
  1  3  1  0
  1  4  1  0
  8 12  1  0
 12 13  2  0
 13 15  1  0
 15 17  2  0
 17 19  1  0
 19 21  2  0
 21 12  1  0
  8  9  1  0
  8 10  1  0
  8 11  1  0
 13 14  1  0
 15 16  1  0
 17 18  1  0
 19 20  1  0
 21 22  1  0
M  CHG  1   6  -1
M  END
>  <PDB_ID>  (476) 
pdb2ii8

>  <RESIDUE_NAME>  (476) 
GLU   PHE

>  <FRAG_NAME>  (476) 
ACET   MBZ

>  <FRAG_ATOM_NUM>  (476) 
fragi: 7  fragj: 15

>  <atom.prop.CHAIN_ID>  (476) 
A A A A A A A Z Z Z Z Z Z Z Z Z Z Z Z Z Z Z

>  <atom.prop.IS_HEAVY_ATOM>  (476) 
1 0 0 0 1 1 1 1 0 0 0 1 1 0 1 0 1 0 1 0 1 0

>  <DIFUSE_FUNC_ATOM>  (476) 
atom 6   atom 7   

>  <FINAL_SINGLE_POINT_ENERGY>  (476) 
0

>  <NONCOV_INTER_ENERGY_QM>  (476) 
0

>  <FF_Energy>  (476) 
13.31

>  <QM_Energy>  (476) 
0.73

>  <source>  (476) 
ACET_MBZ_00

>  <Index>  (476) 
16881

$$$$
ACET-pdb1htz-B-GLU-166:MBZ-pdb1htz-B-PHE-72
     RDKit          3D

 22 21  0  0  0  0  0  0  0  0999 V2000
   -2.6103   -4.9316    0.9016 C   0  0  0  0  0  0  0  0  0  0  0  0
   -1.7742   -4.5232    1.2172 H   0  0  0  0  0  0  0  0  0  0  0  0
   -2.5441   -5.2483   -0.0260 H   0  0  0  0  0  0  0  0  0  0  0  0
   -2.8427   -5.7820    1.5424 H   0  0  0  0  0  0  0  0  0  0  0  0
   -3.6854   -3.8535    0.9385 C   0  0  0  0  0  0  0  0  0  0  0  0
   -4.7548   -4.0891    1.5426 O   0  0  0  0  0  1  0  0  0  0  0  0
   -3.4643   -2.7718    0.3559 O   0  0  0  0  0  0  0  0  0  0  0  0
    0.0022    2.9069   -0.0392 C   0  0  0  0  0  0  0  0  0  0  0  0
    0.8719    3.2201    0.3096 H   0  0  0  0  0  0  0  0  0  0  0  0
   -0.7478    3.2304    0.5170 H   0  0  0  0  0  0  0  0  0  0  0  0
   -0.1234    3.3264   -1.0374 H   0  0  0  0  0  0  0  0  0  0  0  0
   -0.0025    1.4011   -0.0004 C   0  0  0  0  0  0  0  0  0  0  0  0
   -1.1937    0.6922    0.0004 C   0  0  0  0  0  0  0  0  0  0  0  0
   -2.0633    1.1813    0.0002 H   0  0  0  0  0  0  0  0  0  0  0  0
   -1.1977   -0.6968    0.0000 C   0  0  0  0  0  0  0  0  0  0  0  0
   -2.0744   -1.1909    0.0012 H   0  0  0  0  0  0  0  0  0  0  0  0
    0.0026   -1.3926   -0.0004 C   0  0  0  0  0  0  0  0  0  0  0  0
   -0.0033   -2.3926   -0.0015 H   0  0  0  0  0  0  0  0  0  0  0  0
    1.1977   -0.6993   -0.0000 C   0  0  0  0  0  0  0  0  0  0  0  0
    2.0820   -1.1936    0.0014 H   0  0  0  0  0  0  0  0  0  0  0  0
    1.1935    0.6955    0.0004 C   0  0  0  0  0  0  0  0  0  0  0  0
    2.0622    1.1898    0.0003 H   0  0  0  0  0  0  0  0  0  0  0  0
  1  5  1  0
  5  6  1  0
  5  7  2  0
  1  2  1  0
  1  3  1  0
  1  4  1  0
  8 12  1  0
 12 13  2  0
 13 15  1  0
 15 17  2  0
 17 19  1  0
 19 21  2  0
 21 12  1  0
  8  9  1  0
  8 10  1  0
  8 11  1  0
 13 14  1  0
 15 16  1  0
 17 18  1  0
 19 20  1  0
 21 22  1  0
M  CHG  1   6  -1
M  END
>  <PDB_ID>  (477) 
pdb1htz

>  <RESIDUE_NAME>  (477) 
GLU   PHE

>  <FRAG_NAME>  (477) 
ACET   MBZ

>  <FRAG_ATOM_NUM>  (477) 
fragi: 7  fragj: 15

>  <atom.prop.CHAIN_ID>  (477) 
A A A A A A A Z Z Z Z Z Z Z Z Z Z Z Z Z Z Z

>  <atom.prop.IS_HEAVY_ATOM>  (477) 
1 0 0 0 1 1 1 1 0 0 0 1 1 0 1 0 1 0 1 0 1 0

>  <DIFUSE_FUNC_ATOM>  (477) 
atom 6   atom 7   

>  <FINAL_SINGLE_POINT_ENERGY>  (477) 
0

>  <NONCOV_INTER_ENERGY_QM>  (477) 
0

>  <FF_Energy>  (477) 
0.07

>  <QM_Energy>  (477) 
-6.14

>  <source>  (477) 
ACET_MBZ_00

>  <Index>  (477) 
16896

$$$$
ACET-pdb2il3-B-ASP-159:MBZ-pdb2il3-B-PHE-149
     RDKit          3D

 22 21  0  0  0  0  0  0  0  0999 V2000
    4.4528    2.4464   -2.5728 C   0  0  0  0  0  0  0  0  0  0  0  0
    4.1281    2.0771   -3.4311 H   0  0  0  0  0  0  0  0  0  0  0  0
    4.7964    1.7322   -1.9825 H   0  0  0  0  0  0  0  0  0  0  0  0
    5.2767    3.1256   -2.7919 H   0  0  0  0  0  0  0  0  0  0  0  0
    3.2915    3.1490   -1.8698 C   0  0  0  0  0  0  0  0  0  0  0  0
    3.4188    3.3751   -0.6414 O   0  0  0  0  0  1  0  0  0  0  0  0
    2.2983    3.4905   -2.5565 O   0  0  0  0  0  0  0  0  0  0  0  0
    0.0052    2.8469    0.0216 C   0  0  0  0  0  0  0  0  0  0  0  0
   -0.9183    3.1716   -0.0985 H   0  0  0  0  0  0  0  0  0  0  0  0
    0.6040    3.1798   -0.6880 H   0  0  0  0  0  0  0  0  0  0  0  0
    0.3702    3.2425    0.9694 H   0  0  0  0  0  0  0  0  0  0  0  0
    0.0005    1.3723   -0.0115 C   0  0  0  0  0  0  0  0  0  0  0  0
   -1.1899    0.6609    0.0032 C   0  0  0  0  0  0  0  0  0  0  0  0
   -2.0561    1.1646    0.0147 H   0  0  0  0  0  0  0  0  0  0  0  0
   -1.1858   -0.6899    0.0000 C   0  0  0  0  0  0  0  0  0  0  0  0
   -2.0677   -1.1971   -0.0057 H   0  0  0  0  0  0  0  0  0  0  0  0
   -0.0101   -1.3542    0.0063 C   0  0  0  0  0  0  0  0  0  0  0  0
    0.0061   -2.3647    0.0145 H   0  0  0  0  0  0  0  0  0  0  0  0
    1.1858   -0.6626    0.0000 C   0  0  0  0  0  0  0  0  0  0  0  0
    2.0654   -1.1937   -0.0053 H   0  0  0  0  0  0  0  0  0  0  0  0
    1.1995    0.6735    0.0021 C   0  0  0  0  0  0  0  0  0  0  0  0
    2.0583    1.1896    0.0122 H   0  0  0  0  0  0  0  0  0  0  0  0
  1  5  1  0
  5  6  1  0
  5  7  2  0
  1  2  1  0
  1  3  1  0
  1  4  1  0
  8 12  1  0
 12 13  2  0
 13 15  1  0
 15 17  2  0
 17 19  1  0
 19 21  2  0
 21 12  1  0
  8  9  1  0
  8 10  1  0
  8 11  1  0
 13 14  1  0
 15 16  1  0
 17 18  1  0
 19 20  1  0
 21 22  1  0
M  CHG  1   6  -1
M  END
>  <PDB_ID>  (478) 
pdb2il3

>  <RESIDUE_NAME>  (478) 
ASP   PHE

>  <FRAG_NAME>  (478) 
ACET   MBZ

>  <FRAG_ATOM_NUM>  (478) 
fragi: 7  fragj: 15

>  <atom.prop.CHAIN_ID>  (478) 
A A A A A A A Z Z Z Z Z Z Z Z Z Z Z Z Z Z Z

>  <atom.prop.IS_HEAVY_ATOM>  (478) 
1 0 0 0 1 1 1 1 0 0 0 1 1 0 1 0 1 0 1 0 1 0

>  <DIFUSE_FUNC_ATOM>  (478) 
atom 6   atom 7   

>  <FINAL_SINGLE_POINT_ENERGY>  (478) 
0

>  <NONCOV_INTER_ENERGY_QM>  (478) 
0

>  <FF_Energy>  (478) 
-2.02

>  <QM_Energy>  (478) 
-8.76

>  <source>  (478) 
ACET_MBZ_00

>  <Index>  (478) 
17048

$$$$
ACET-pdb1hvy-A-GLU-70:MBZ-pdb1hvy-A-PHE-276
     RDKit          3D

 22 21  0  0  0  0  0  0  0  0999 V2000
    3.9571    3.4997    2.6585 C   0  0  0  0  0  0  0  0  0  0  0  0
    4.7398    3.7278    3.2012 H   0  0  0  0  0  0  0  0  0  0  0  0
    3.4135    2.7875    3.0548 H   0  0  0  0  0  0  0  0  0  0  0  0
    3.3381    4.3907    2.5538 H   0  0  0  0  0  0  0  0  0  0  0  0
    4.4605    2.9978    1.3163 C   0  0  0  0  0  0  0  0  0  0  0  0
    5.2800    3.6999    0.6928 O   0  0  0  0  0  1  0  0  0  0  0  0
    4.0316    1.9110    0.8751 O   0  0  0  0  0  0  0  0  0  0  0  0
    0.0076    2.9151    0.1206 C   0  0  0  0  0  0  0  0  0  0  0  0
    0.9082    3.2364   -0.1361 H   0  0  0  0  0  0  0  0  0  0  0  0
   -0.1991    3.1475    1.0604 H   0  0  0  0  0  0  0  0  0  0  0  0
   -0.7194    3.4222   -0.5138 H   0  0  0  0  0  0  0  0  0  0  0  0
   -0.0003    1.4105    0.0017 C   0  0  0  0  0  0  0  0  0  0  0  0
   -1.1981    0.7007   -0.0022 C   0  0  0  0  0  0  0  0  0  0  0  0
   -2.0654    1.1872   -0.0079 H   0  0  0  0  0  0  0  0  0  0  0  0
   -1.2034   -0.6997    0.0000 C   0  0  0  0  0  0  0  0  0  0  0  0
   -2.0809   -1.1892   -0.0002 H   0  0  0  0  0  0  0  0  0  0  0  0
   -0.0004   -1.4003    0.0042 C   0  0  0  0  0  0  0  0  0  0  0  0
   -0.0083   -2.3989    0.0099 H   0  0  0  0  0  0  0  0  0  0  0  0
    1.2034   -0.7076   -0.0000 C   0  0  0  0  0  0  0  0  0  0  0  0
    2.0839   -1.1997    0.0009 H   0  0  0  0  0  0  0  0  0  0  0  0
    1.1987    0.6964   -0.0037 C   0  0  0  0  0  0  0  0  0  0  0  0
    2.0678    1.1868   -0.0114 H   0  0  0  0  0  0  0  0  0  0  0  0
  1  5  1  0
  5  6  1  0
  5  7  2  0
  1  2  1  0
  1  3  1  0
  1  4  1  0
  8 12  1  0
 12 13  2  0
 13 15  1  0
 15 17  2  0
 17 19  1  0
 19 21  2  0
 21 12  1  0
  8  9  1  0
  8 10  1  0
  8 11  1  0
 13 14  1  0
 15 16  1  0
 17 18  1  0
 19 20  1  0
 21 22  1  0
M  CHG  1   6  -1
M  END
>  <PDB_ID>  (479) 
pdb1hvy

>  <RESIDUE_NAME>  (479) 
GLU   PHE

>  <FRAG_NAME>  (479) 
ACET   MBZ

>  <FRAG_ATOM_NUM>  (479) 
fragi: 7  fragj: 15

>  <atom.prop.CHAIN_ID>  (479) 
A A A A A A A Z Z Z Z Z Z Z Z Z Z Z Z Z Z Z

>  <atom.prop.IS_HEAVY_ATOM>  (479) 
1 0 0 0 1 1 1 1 0 0 0 1 1 0 1 0 1 0 1 0 1 0

>  <DIFUSE_FUNC_ATOM>  (479) 
atom 6   atom 7   

>  <FINAL_SINGLE_POINT_ENERGY>  (479) 
0

>  <NONCOV_INTER_ENERGY_QM>  (479) 
0

>  <FF_Energy>  (479) 
4.84

>  <QM_Energy>  (479) 
-6.74

>  <source>  (479) 
ACET_MBZ_00

>  <Index>  (479) 
17062

$$$$
ACET-pdb1hvy-B-GLU-70:MBZ-pdb1hvy-B-PHE-276
     RDKit          3D

 22 21  0  0  0  0  0  0  0  0999 V2000
    4.0683    3.6765    2.1935 C   0  0  0  0  0  0  0  0  0  0  0  0
    4.8897    3.8764    2.6859 H   0  0  0  0  0  0  0  0  0  0  0  0
    3.5165    2.9966    2.6302 H   0  0  0  0  0  0  0  0  0  0  0  0
    3.4854    4.5933    2.1057 H   0  0  0  0  0  0  0  0  0  0  0  0
    4.4770    3.1254    0.8297 C   0  0  0  0  0  0  0  0  0  0  0  0
    5.2499    3.8049    0.1194 O   0  0  0  0  0  1  0  0  0  0  0  0
    4.0225    2.0201    0.4610 O   0  0  0  0  0  0  0  0  0  0  0  0
    0.0060    2.9049    0.0878 C   0  0  0  0  0  0  0  0  0  0  0  0
    0.8955    3.2257   -0.2073 H   0  0  0  0  0  0  0  0  0  0  0  0
   -0.1692    3.1585    1.0297 H   0  0  0  0  0  0  0  0  0  0  0  0
   -0.7449    3.3947   -0.5321 H   0  0  0  0  0  0  0  0  0  0  0  0
    0.0004    1.4035    0.0011 C   0  0  0  0  0  0  0  0  0  0  0  0
   -1.1972    0.6936   -0.0006 C   0  0  0  0  0  0  0  0  0  0  0  0
   -2.0639    1.1834   -0.0039 H   0  0  0  0  0  0  0  0  0  0  0  0
   -1.2010   -0.6980    0.0000 C   0  0  0  0  0  0  0  0  0  0  0  0
   -2.0775   -1.1922    0.0001 H   0  0  0  0  0  0  0  0  0  0  0  0
    0.0003   -1.3937    0.0022 C   0  0  0  0  0  0  0  0  0  0  0  0
   -0.0039   -2.3928    0.0048 H   0  0  0  0  0  0  0  0  0  0  0  0
    1.2010   -0.6993   -0.0000 C   0  0  0  0  0  0  0  0  0  0  0  0
    2.0818   -1.1955    0.0019 H   0  0  0  0  0  0  0  0  0  0  0  0
    1.1965    0.6939   -0.0027 C   0  0  0  0  0  0  0  0  0  0  0  0
    2.0652    1.1888   -0.0083 H   0  0  0  0  0  0  0  0  0  0  0  0
  1  5  1  0
  5  6  1  0
  5  7  2  0
  1  2  1  0
  1  3  1  0
  1  4  1  0
  8 12  1  0
 12 13  2  0
 13 15  1  0
 15 17  2  0
 17 19  1  0
 19 21  2  0
 21 12  1  0
  8  9  1  0
  8 10  1  0
  8 11  1  0
 13 14  1  0
 15 16  1  0
 17 18  1  0
 19 20  1  0
 21 22  1  0
M  CHG  1   6  -1
M  END
>  <PDB_ID>  (480) 
pdb1hvy

>  <RESIDUE_NAME>  (480) 
GLU   PHE

>  <FRAG_NAME>  (480) 
ACET   MBZ

>  <FRAG_ATOM_NUM>  (480) 
fragi: 7  fragj: 15

>  <atom.prop.CHAIN_ID>  (480) 
A A A A A A A Z Z Z Z Z Z Z Z Z Z Z Z Z Z Z

>  <atom.prop.IS_HEAVY_ATOM>  (480) 
1 0 0 0 1 1 1 1 0 0 0 1 1 0 1 0 1 0 1 0 1 0

>  <DIFUSE_FUNC_ATOM>  (480) 
atom 6   atom 7   

>  <FINAL_SINGLE_POINT_ENERGY>  (480) 
0

>  <NONCOV_INTER_ENERGY_QM>  (480) 
0

>  <FF_Energy>  (480) 
-0.63

>  <QM_Energy>  (480) 
-7.12

>  <source>  (480) 
ACET_MBZ_00

>  <Index>  (480) 
17176

$$$$
ACET-pdb1i04-A-ASP-103:MBZ-pdb1i04-A-PHE-56
     RDKit          3D

 22 21  0  0  0  0  0  0  0  0999 V2000
   -2.5342   -3.5358    2.3307 C   0  0  0  0  0  0  0  0  0  0  0  0
   -2.6605   -3.1482    3.2345 H   0  0  0  0  0  0  0  0  0  0  0  0
   -1.7342   -3.1504    1.8909 H   0  0  0  0  0  0  0  0  0  0  0  0
   -2.3739   -4.6080    2.4438 H   0  0  0  0  0  0  0  0  0  0  0  0
   -3.7601   -3.2142    1.4849 C   0  0  0  0  0  0  0  0  0  0  0  0
   -4.7137   -4.0205    1.4938 O   0  0  0  0  0  1  0  0  0  0  0  0
   -3.7838   -2.1565    0.8215 O   0  0  0  0  0  0  0  0  0  0  0  0
    0.0000    2.8927    0.1208 C   0  0  0  0  0  0  0  0  0  0  0  0
   -0.6696    3.2537   -0.5059 H   0  0  0  0  0  0  0  0  0  0  0  0
    0.9073    3.2210   -0.0815 H   0  0  0  0  0  0  0  0  0  0  0  0
   -0.2616    3.2403    1.1202 H   0  0  0  0  0  0  0  0  0  0  0  0
    0.0008    1.4019    0.0019 C   0  0  0  0  0  0  0  0  0  0  0  0
   -1.1985    0.6942   -0.0027 C   0  0  0  0  0  0  0  0  0  0  0  0
   -2.0639    1.1853   -0.0096 H   0  0  0  0  0  0  0  0  0  0  0  0
   -1.2045   -0.6973   -0.0000 C   0  0  0  0  0  0  0  0  0  0  0  0
   -2.0799   -1.1913    0.0014 H   0  0  0  0  0  0  0  0  0  0  0  0
   -0.0005   -1.3960    0.0033 C   0  0  0  0  0  0  0  0  0  0  0  0
   -0.0040   -2.3932    0.0078 H   0  0  0  0  0  0  0  0  0  0  0  0
    1.2045   -0.6973    0.0000 C   0  0  0  0  0  0  0  0  0  0  0  0
    2.0843   -1.1953    0.0015 H   0  0  0  0  0  0  0  0  0  0  0  0
    1.1982    0.6944   -0.0025 C   0  0  0  0  0  0  0  0  0  0  0  0
    2.0659    1.1918   -0.0087 H   0  0  0  0  0  0  0  0  0  0  0  0
  1  5  1  0
  5  6  1  0
  5  7  2  0
  1  2  1  0
  1  3  1  0
  1  4  1  0
  8 12  1  0
 12 13  2  0
 13 15  1  0
 15 17  2  0
 17 19  1  0
 19 21  2  0
 21 12  1  0
  8  9  1  0
  8 10  1  0
  8 11  1  0
 13 14  1  0
 15 16  1  0
 17 18  1  0
 19 20  1  0
 21 22  1  0
M  CHG  1   6  -1
M  END
>  <PDB_ID>  (481) 
pdb1i04

>  <RESIDUE_NAME>  (481) 
ASP   PHE

>  <FRAG_NAME>  (481) 
ACET   MBZ

>  <FRAG_ATOM_NUM>  (481) 
fragi: 7  fragj: 15

>  <atom.prop.CHAIN_ID>  (481) 
A A A A A A A Z Z Z Z Z Z Z Z Z Z Z Z Z Z Z

>  <atom.prop.IS_HEAVY_ATOM>  (481) 
1 0 0 0 1 1 1 1 0 0 0 1 1 0 1 0 1 0 1 0 1 0

>  <DIFUSE_FUNC_ATOM>  (481) 
atom 6   atom 7   

>  <FINAL_SINGLE_POINT_ENERGY>  (481) 
0

>  <NONCOV_INTER_ENERGY_QM>  (481) 
0

>  <FF_Energy>  (481) 
0.28

>  <QM_Energy>  (481) 
-5.81

>  <source>  (481) 
ACET_MBZ_00

>  <Index>  (481) 
17246

$$$$
ACET-pdb2inp-A-ASP-180:MBZ-pdb2inp-C-PHE-45
     RDKit          3D

 22 21  0  0  0  0  0  0  0  0999 V2000
    4.9978    4.5026   -0.7755 C   0  0  0  0  0  0  0  0  0  0  0  0
    5.4860    5.0283   -0.0757 H   0  0  0  0  0  0  0  0  0  0  0  0
    4.2693    5.0715   -1.1629 H   0  0  0  0  0  0  0  0  0  0  0  0
    5.7030    4.2676   -1.5727 H   0  0  0  0  0  0  0  0  0  0  0  0
    4.3655    3.2944   -0.1167 C   0  0  0  0  0  0  0  0  0  0  0  0
    4.7186    2.1353   -0.4297 O   0  0  0  0  0  1  0  0  0  0  0  0
    3.4782    3.5282    0.7657 O   0  0  0  0  0  0  0  0  0  0  0  0
   -0.0069    2.8996    0.0581 C   0  0  0  0  0  0  0  0  0  0  0  0
   -0.9097    3.2175   -0.1777 H   0  0  0  0  0  0  0  0  0  0  0  0
    0.6749    3.2300   -0.5716 H   0  0  0  0  0  0  0  0  0  0  0  0
    0.2380    3.2717    1.0530 H   0  0  0  0  0  0  0  0  0  0  0  0
   -0.0095    1.4124    0.0022 C   0  0  0  0  0  0  0  0  0  0  0  0
   -1.2063    0.7096    0.0039 C   0  0  0  0  0  0  0  0  0  0  0  0
   -2.0740    1.1877    0.0066 H   0  0  0  0  0  0  0  0  0  0  0  0
   -1.2132   -0.7082    0.0000 C   0  0  0  0  0  0  0  0  0  0  0  0
   -2.0879   -1.1908    0.0180 H   0  0  0  0  0  0  0  0  0  0  0  0
   -0.0042   -1.4050   -0.0274 C   0  0  0  0  0  0  0  0  0  0  0  0
   -0.0020   -2.3997   -0.0664 H   0  0  0  0  0  0  0  0  0  0  0  0
    1.2132   -0.7006   -0.0000 C   0  0  0  0  0  0  0  0  0  0  0  0
    2.0883   -1.2087    0.0054 H   0  0  0  0  0  0  0  0  0  0  0  0
    1.2199    0.6917    0.0213 C   0  0  0  0  0  0  0  0  0  0  0  0
    2.0707    1.1939    0.0488 H   0  0  0  0  0  0  0  0  0  0  0  0
  1  5  1  0
  5  6  1  0
  5  7  2  0
  1  2  1  0
  1  3  1  0
  1  4  1  0
  8 12  1  0
 12 13  2  0
 13 15  1  0
 15 17  2  0
 17 19  1  0
 19 21  2  0
 21 12  1  0
  8  9  1  0
  8 10  1  0
  8 11  1  0
 13 14  1  0
 15 16  1  0
 17 18  1  0
 19 20  1  0
 21 22  1  0
M  CHG  1   6  -1
M  END
>  <PDB_ID>  (482) 
pdb2inp

>  <RESIDUE_NAME>  (482) 
ASP   PHE

>  <FRAG_NAME>  (482) 
ACET   MBZ

>  <FRAG_ATOM_NUM>  (482) 
fragi: 7  fragj: 15

>  <atom.prop.CHAIN_ID>  (482) 
A A A A A A A Z Z Z Z Z Z Z Z Z Z Z Z Z Z Z

>  <atom.prop.IS_HEAVY_ATOM>  (482) 
1 0 0 0 1 1 1 1 0 0 0 1 1 0 1 0 1 0 1 0 1 0

>  <DIFUSE_FUNC_ATOM>  (482) 
atom 6   atom 7   

>  <FINAL_SINGLE_POINT_ENERGY>  (482) 
0

>  <NONCOV_INTER_ENERGY_QM>  (482) 
0

>  <FF_Energy>  (482) 
-2.86

>  <QM_Energy>  (482) 
-8.14

>  <source>  (482) 
ACET_MBZ_00

>  <Index>  (482) 
17298

$$$$
ACET-pdb1i1r-B-GLU-116:MBZ-pdb1i1r-B-PHE-7
     RDKit          3D

 22 21  0  0  0  0  0  0  0  0999 V2000
    0.5536    0.2794    3.0424 C   0  0  0  0  0  0  0  0  0  0  0  0
    1.3876    0.4068    2.5364 H   0  0  0  0  0  0  0  0  0  0  0  0
   -0.1720   -0.0712    2.4780 H   0  0  0  0  0  0  0  0  0  0  0  0
    0.7407   -0.4277    3.8505 H   0  0  0  0  0  0  0  0  0  0  0  0
    0.1165    1.6436    3.5454 C   0  0  0  0  0  0  0  0  0  0  0  0
    0.9640    2.3694    4.1109 O   0  0  0  0  0  1  0  0  0  0  0  0
   -1.0720    1.9912    3.3801 O   0  0  0  0  0  0  0  0  0  0  0  0
   -0.0030    2.9052    0.0551 C   0  0  0  0  0  0  0  0  0  0  0  0
   -0.0634    3.1772    1.0042 H   0  0  0  0  0  0  0  0  0  0  0  0
   -0.7821    3.2291   -0.4607 H   0  0  0  0  0  0  0  0  0  0  0  0
    0.8915    3.3627   -0.3677 H   0  0  0  0  0  0  0  0  0  0  0  0
   -0.0001    1.4051    0.0006 C   0  0  0  0  0  0  0  0  0  0  0  0
   -1.1963    0.6939    0.0000 C   0  0  0  0  0  0  0  0  0  0  0  0
   -2.0635    1.1843   -0.0015 H   0  0  0  0  0  0  0  0  0  0  0  0
   -1.2035   -0.6987   -0.0000 C   0  0  0  0  0  0  0  0  0  0  0  0
   -2.0800   -1.1902    0.0004 H   0  0  0  0  0  0  0  0  0  0  0  0
   -0.0022   -1.3960    0.0011 C   0  0  0  0  0  0  0  0  0  0  0  0
   -0.0064   -2.3945    0.0019 H   0  0  0  0  0  0  0  0  0  0  0  0
    1.2035   -0.7006   -0.0000 C   0  0  0  0  0  0  0  0  0  0  0  0
    2.0828   -1.1965    0.0019 H   0  0  0  0  0  0  0  0  0  0  0  0
    1.1987    0.6964   -0.0017 C   0  0  0  0  0  0  0  0  0  0  0  0
    2.0659    1.1908   -0.0051 H   0  0  0  0  0  0  0  0  0  0  0  0
  1  5  1  0
  5  6  1  0
  5  7  2  0
  1  2  1  0
  1  3  1  0
  1  4  1  0
  8 12  1  0
 12 13  2  0
 13 15  1  0
 15 17  2  0
 17 19  1  0
 19 21  2  0
 21 12  1  0
  8  9  1  0
  8 10  1  0
  8 11  1  0
 13 14  1  0
 15 16  1  0
 17 18  1  0
 19 20  1  0
 21 22  1  0
M  CHG  1   6  -1
M  END
>  <PDB_ID>  (483) 
pdb1i1r

>  <RESIDUE_NAME>  (483) 
GLU   PHE

>  <FRAG_NAME>  (483) 
ACET   MBZ

>  <FRAG_ATOM_NUM>  (483) 
fragi: 7  fragj: 15

>  <atom.prop.CHAIN_ID>  (483) 
A A A A A A A Z Z Z Z Z Z Z Z Z Z Z Z Z Z Z

>  <atom.prop.IS_HEAVY_ATOM>  (483) 
1 0 0 0 1 1 1 1 0 0 0 1 1 0 1 0 1 0 1 0 1 0

>  <DIFUSE_FUNC_ATOM>  (483) 
atom 6   atom 7   

>  <FINAL_SINGLE_POINT_ENERGY>  (483) 
0

>  <NONCOV_INTER_ENERGY_QM>  (483) 
0

>  <FF_Energy>  (483) 
3.1

>  <QM_Energy>  (483) 
-2.91

>  <source>  (483) 
ACET_MBZ_00

>  <Index>  (483) 
17342

$$$$
ACET-pdb2ise-A-GLU-96:MBZ-pdb2ise-A-PHE-3
     RDKit          3D

 22 21  0  0  0  0  0  0  0  0999 V2000
   -3.8836    1.0476    4.1941 C   0  0  0  0  0  0  0  0  0  0  0  0
   -3.6635    1.6947    4.9014 H   0  0  0  0  0  0  0  0  0  0  0  0
   -3.8654    0.1201    4.5200 H   0  0  0  0  0  0  0  0  0  0  0  0
   -4.8852    1.2668    3.8242 H   0  0  0  0  0  0  0  0  0  0  0  0
   -2.8088    1.1699    3.1165 C   0  0  0  0  0  0  0  0  0  0  0  0
   -3.1340    1.6237    1.9937 O   0  0  0  0  0  1  0  0  0  0  0  0
   -1.6382    0.8086    3.3957 O   0  0  0  0  0  0  0  0  0  0  0  0
   -0.0012    2.9097   -0.0342 C   0  0  0  0  0  0  0  0  0  0  0  0
   -0.6871    3.2033   -0.6850 H   0  0  0  0  0  0  0  0  0  0  0  0
    0.9012    3.2110   -0.3067 H   0  0  0  0  0  0  0  0  0  0  0  0
   -0.2309    3.3780    0.9229 H   0  0  0  0  0  0  0  0  0  0  0  0
   -0.0018    1.4082   -0.0011 C   0  0  0  0  0  0  0  0  0  0  0  0
   -1.1978    0.6976    0.0011 C   0  0  0  0  0  0  0  0  0  0  0  0
   -2.0659    1.1825    0.0020 H   0  0  0  0  0  0  0  0  0  0  0  0
   -1.1992   -0.7005    0.0000 C   0  0  0  0  0  0  0  0  0  0  0  0
   -2.0758   -1.1935    0.0016 H   0  0  0  0  0  0  0  0  0  0  0  0
    0.0051   -1.4011   -0.0011 C   0  0  0  0  0  0  0  0  0  0  0  0
   -0.0029   -2.3976   -0.0033 H   0  0  0  0  0  0  0  0  0  0  0  0
    1.1992   -0.7042    0.0000 C   0  0  0  0  0  0  0  0  0  0  0  0
    2.0859   -1.1927    0.0013 H   0  0  0  0  0  0  0  0  0  0  0  0
    1.1945    0.7000    0.0011 C   0  0  0  0  0  0  0  0  0  0  0  0
    2.0637    1.1897    0.0029 H   0  0  0  0  0  0  0  0  0  0  0  0
  1  5  1  0
  5  6  1  0
  5  7  2  0
  1  2  1  0
  1  3  1  0
  1  4  1  0
  8 12  1  0
 12 13  2  0
 13 15  1  0
 15 17  2  0
 17 19  1  0
 19 21  2  0
 21 12  1  0
  8  9  1  0
  8 10  1  0
  8 11  1  0
 13 14  1  0
 15 16  1  0
 17 18  1  0
 19 20  1  0
 21 22  1  0
M  CHG  1   6  -1
M  END
>  <PDB_ID>  (484) 
pdb2ise

>  <RESIDUE_NAME>  (484) 
GLU   PHE

>  <FRAG_NAME>  (484) 
ACET   MBZ

>  <FRAG_ATOM_NUM>  (484) 
fragi: 7  fragj: 15

>  <atom.prop.CHAIN_ID>  (484) 
A A A A A A A Z Z Z Z Z Z Z Z Z Z Z Z Z Z Z

>  <atom.prop.IS_HEAVY_ATOM>  (484) 
1 0 0 0 1 1 1 1 0 0 0 1 1 0 1 0 1 0 1 0 1 0

>  <DIFUSE_FUNC_ATOM>  (484) 
atom 6   atom 7   

>  <FINAL_SINGLE_POINT_ENERGY>  (484) 
0

>  <NONCOV_INTER_ENERGY_QM>  (484) 
0

>  <FF_Energy>  (484) 
-1.2

>  <QM_Energy>  (484) 
-3.36

>  <source>  (484) 
ACET_MBZ_00

>  <Index>  (484) 
17463

$$$$
ACET-pdb2iu8-A-GLU-9:MBZ-pdb2iu8-A-PHE-19
     RDKit          3D

 22 21  0  0  0  0  0  0  0  0999 V2000
    2.4663   -2.0175   -2.6114 C   0  0  0  0  0  0  0  0  0  0  0  0
    3.3396   -1.6138   -2.8646 H   0  0  0  0  0  0  0  0  0  0  0  0
    2.1267   -1.6071   -1.7717 H   0  0  0  0  0  0  0  0  0  0  0  0
    1.7513   -1.8129   -3.4082 H   0  0  0  0  0  0  0  0  0  0  0  0
    2.6959   -3.4663   -2.3469 C   0  0  0  0  0  0  0  0  0  0  0  0
    1.7249   -4.2587   -2.3690 O   0  0  0  0  0  1  0  0  0  0  0  0
    3.8708   -3.8066   -2.0890 O   0  0  0  0  0  0  0  0  0  0  0  0
   -0.0018    2.9103    0.0122 C   0  0  0  0  0  0  0  0  0  0  0  0
   -0.8434    3.2118   -0.4122 H   0  0  0  0  0  0  0  0  0  0  0  0
    0.7878    3.2154   -0.5013 H   0  0  0  0  0  0  0  0  0  0  0  0
    0.0517    3.3547    1.0061 H   0  0  0  0  0  0  0  0  0  0  0  0
    0.0008    1.4014    0.0100 C   0  0  0  0  0  0  0  0  0  0  0  0
   -1.1951    0.6900   -0.0046 C   0  0  0  0  0  0  0  0  0  0  0  0
   -2.0626    1.1818   -0.0196 H   0  0  0  0  0  0  0  0  0  0  0  0
   -1.2024   -0.7001    0.0000 C   0  0  0  0  0  0  0  0  0  0  0  0
   -2.0782   -1.1922    0.0088 H   0  0  0  0  0  0  0  0  0  0  0  0
   -0.0017   -1.3949   -0.0056 C   0  0  0  0  0  0  0  0  0  0  0  0
    0.0006   -2.3912   -0.0140 H   0  0  0  0  0  0  0  0  0  0  0  0
    1.2024   -0.6905   -0.0000 C   0  0  0  0  0  0  0  0  0  0  0  0
    2.0828   -1.1917    0.0056 H   0  0  0  0  0  0  0  0  0  0  0  0
    1.1960    0.6941    0.0002 C   0  0  0  0  0  0  0  0  0  0  0  0
    2.0640    1.1940   -0.0075 H   0  0  0  0  0  0  0  0  0  0  0  0
  1  5  1  0
  5  6  1  0
  5  7  2  0
  1  2  1  0
  1  3  1  0
  1  4  1  0
  8 12  1  0
 12 13  2  0
 13 15  1  0
 15 17  2  0
 17 19  1  0
 19 21  2  0
 21 12  1  0
  8  9  1  0
  8 10  1  0
  8 11  1  0
 13 14  1  0
 15 16  1  0
 17 18  1  0
 19 20  1  0
 21 22  1  0
M  CHG  1   6  -1
M  END
>  <PDB_ID>  (485) 
pdb2iu8

>  <RESIDUE_NAME>  (485) 
GLU   PHE

>  <FRAG_NAME>  (485) 
ACET   MBZ

>  <FRAG_ATOM_NUM>  (485) 
fragi: 7  fragj: 15

>  <atom.prop.CHAIN_ID>  (485) 
A A A A A A A Z Z Z Z Z Z Z Z Z Z Z Z Z Z Z

>  <atom.prop.IS_HEAVY_ATOM>  (485) 
1 0 0 0 1 1 1 1 0 0 0 1 1 0 1 0 1 0 1 0 1 0

>  <DIFUSE_FUNC_ATOM>  (485) 
atom 6   atom 7   

>  <FINAL_SINGLE_POINT_ENERGY>  (485) 
0

>  <NONCOV_INTER_ENERGY_QM>  (485) 
0

>  <FF_Energy>  (485) 
6.23

>  <QM_Energy>  (485) 
0.56

>  <source>  (485) 
ACET_MBZ_00

>  <Index>  (485) 
17561

$$$$
ACET-pdb2iuk-A-ASP-114:MBZ-pdb2iuk-A-PHE-117
     RDKit          3D

 22 21  0  0  0  0  0  0  0  0999 V2000
    1.9586    6.4913    3.0129 C   0  0  0  0  0  0  0  0  0  0  0  0
    2.5676    7.3007    2.7738 H   0  0  0  0  0  0  0  0  0  0  0  0
    2.1784    6.3127    4.0141 H   0  0  0  0  0  0  0  0  0  0  0  0
    0.9398    6.8787    3.0010 H   0  0  0  0  0  0  0  0  0  0  0  0
    2.4382    5.2836    2.2015 C   0  0  0  0  0  0  0  0  0  0  0  0
    1.9116    4.1783    2.3628 O   0  0  0  0  0  1  0  0  0  0  0  0
    3.3935    5.4526    1.4394 O   0  0  0  0  0  0  0  0  0  0  0  0
   -0.0282    2.9278   -0.0444 C   0  0  0  0  0  0  0  0  0  0  0  0
    0.4873    3.2550    0.7247 H   0  0  0  0  0  0  0  0  0  0  0  0
   -0.9674    3.2119   -0.0165 H   0  0  0  0  0  0  0  0  0  0  0  0
    0.4198    3.3400   -0.9486 H   0  0  0  0  0  0  0  0  0  0  0  0
   -0.0052    1.3961   -0.0006 C   0  0  0  0  0  0  0  0  0  0  0  0
   -1.2071    0.6805    0.0025 C   0  0  0  0  0  0  0  0  0  0  0  0
   -2.0719    1.1684    0.0053 H   0  0  0  0  0  0  0  0  0  0  0  0
   -1.2018   -0.7092   -0.0000 C   0  0  0  0  0  0  0  0  0  0  0  0
   -2.0745   -1.2093    0.0017 H   0  0  0  0  0  0  0  0  0  0  0  0
    0.0029   -1.3915   -0.0027 C   0  0  0  0  0  0  0  0  0  0  0  0
    0.0112   -2.3910   -0.0075 H   0  0  0  0  0  0  0  0  0  0  0  0
    1.2018   -0.6845    0.0000 C   0  0  0  0  0  0  0  0  0  0  0  0
    2.0874   -1.1857    0.0028 H   0  0  0  0  0  0  0  0  0  0  0  0
    1.2095    0.7086    0.0008 C   0  0  0  0  0  0  0  0  0  0  0  0
    2.0635    1.2048    0.0014 H   0  0  0  0  0  0  0  0  0  0  0  0
  1  5  1  0
  5  6  1  0
  5  7  2  0
  1  2  1  0
  1  3  1  0
  1  4  1  0
  8 12  1  0
 12 13  2  0
 13 15  1  0
 15 17  2  0
 17 19  1  0
 19 21  2  0
 21 12  1  0
  8  9  1  0
  8 10  1  0
  8 11  1  0
 13 14  1  0
 15 16  1  0
 17 18  1  0
 19 20  1  0
 21 22  1  0
M  CHG  1   6  -1
M  END
>  <PDB_ID>  (486) 
pdb2iuk

>  <RESIDUE_NAME>  (486) 
ASP   PHE

>  <FRAG_NAME>  (486) 
ACET   MBZ

>  <FRAG_ATOM_NUM>  (486) 
fragi: 7  fragj: 15

>  <atom.prop.CHAIN_ID>  (486) 
A A A A A A A Z Z Z Z Z Z Z Z Z Z Z Z Z Z Z

>  <atom.prop.IS_HEAVY_ATOM>  (486) 
1 0 0 0 1 1 1 1 0 0 0 1 1 0 1 0 1 0 1 0 1 0

>  <DIFUSE_FUNC_ATOM>  (486) 
atom 6   atom 7   

>  <FINAL_SINGLE_POINT_ENERGY>  (486) 
0

>  <NONCOV_INTER_ENERGY_QM>  (486) 
0

>  <FF_Energy>  (486) 
-0.55

>  <QM_Energy>  (486) 
-5.95

>  <source>  (486) 
ACET_MBZ_00

>  <Index>  (486) 
17600

$$$$
ACET-pdb2iwf-B-GLU-450:MBZ-pdb2iwf-A-PHE-581
     RDKit          3D

 22 21  0  0  0  0  0  0  0  0999 V2000
    3.1574    6.1549    2.3100 C   0  0  0  0  0  0  0  0  0  0  0  0
    3.6039    5.6147    2.9919 H   0  0  0  0  0  0  0  0  0  0  0  0
    2.3625    6.6160    2.6454 H   0  0  0  0  0  0  0  0  0  0  0  0
    3.8649    6.9208    1.9924 H   0  0  0  0  0  0  0  0  0  0  0  0
    2.7204    5.2203    1.1738 C   0  0  0  0  0  0  0  0  0  0  0  0
    1.9906    5.6841    0.2798 O   0  0  0  0  0  1  0  0  0  0  0  0
    3.1255    4.0255    1.1464 O   0  0  0  0  0  0  0  0  0  0  0  0
    0.0067    2.8976   -0.0174 C   0  0  0  0  0  0  0  0  0  0  0  0
    0.9127    3.2053    0.2207 H   0  0  0  0  0  0  0  0  0  0  0  0
   -0.6679    3.2135    0.6290 H   0  0  0  0  0  0  0  0  0  0  0  0
   -0.2430    3.3175   -0.9918 H   0  0  0  0  0  0  0  0  0  0  0  0
    0.0037    1.3969   -0.0015 C   0  0  0  0  0  0  0  0  0  0  0  0
   -1.1916    0.6968   -0.0085 C   0  0  0  0  0  0  0  0  0  0  0  0
   -2.0587    1.1874   -0.0215 H   0  0  0  0  0  0  0  0  0  0  0  0
   -1.2047   -0.6991   -0.0000 C   0  0  0  0  0  0  0  0  0  0  0  0
   -2.0879   -1.1817    0.0060 H   0  0  0  0  0  0  0  0  0  0  0  0
   -0.0168   -1.3909    0.0022 C   0  0  0  0  0  0  0  0  0  0  0  0
   -0.0094   -2.3900    0.0050 H   0  0  0  0  0  0  0  0  0  0  0  0
    1.2047   -0.6927   -0.0000 C   0  0  0  0  0  0  0  0  0  0  0  0
    2.0752   -1.2045   -0.0055 H   0  0  0  0  0  0  0  0  0  0  0  0
    1.2047    0.6891    0.0079 C   0  0  0  0  0  0  0  0  0  0  0  0
    2.0690    1.1887    0.0193 H   0  0  0  0  0  0  0  0  0  0  0  0
  1  5  1  0
  5  6  1  0
  5  7  2  0
  1  2  1  0
  1  3  1  0
  1  4  1  0
  8 12  1  0
 12 13  2  0
 13 15  1  0
 15 17  2  0
 17 19  1  0
 19 21  2  0
 21 12  1  0
  8  9  1  0
  8 10  1  0
  8 11  1  0
 13 14  1  0
 15 16  1  0
 17 18  1  0
 19 20  1  0
 21 22  1  0
M  CHG  1   6  -1
M  END
>  <PDB_ID>  (487) 
pdb2iwf

>  <RESIDUE_NAME>  (487) 
GLU   PHE

>  <FRAG_NAME>  (487) 
ACET   MBZ

>  <FRAG_ATOM_NUM>  (487) 
fragi: 7  fragj: 15

>  <atom.prop.CHAIN_ID>  (487) 
A A A A A A A Z Z Z Z Z Z Z Z Z Z Z Z Z Z Z

>  <atom.prop.IS_HEAVY_ATOM>  (487) 
1 0 0 0 1 1 1 1 0 0 0 1 1 0 1 0 1 0 1 0 1 0

>  <DIFUSE_FUNC_ATOM>  (487) 
atom 6   atom 7   

>  <FINAL_SINGLE_POINT_ENERGY>  (487) 
0

>  <NONCOV_INTER_ENERGY_QM>  (487) 
0

>  <FF_Energy>  (487) 
0.19

>  <QM_Energy>  (487) 
-7.73

>  <source>  (487) 
ACET_MBZ_00

>  <Index>  (487) 
17682

$$$$
ACET-pdb2iwf-A-GLU-450:MBZ-pdb2iwf-B-PHE-581
     RDKit          3D

 22 21  0  0  0  0  0  0  0  0999 V2000
    2.6118    6.5678    2.3419 C   0  0  0  0  0  0  0  0  0  0  0  0
    3.1174    6.0229    2.9857 H   0  0  0  0  0  0  0  0  0  0  0  0
    1.7954    6.9476    2.7399 H   0  0  0  0  0  0  0  0  0  0  0  0
    3.2509    7.4025    2.0540 H   0  0  0  0  0  0  0  0  0  0  0  0
    2.2107    5.6869    1.1864 C   0  0  0  0  0  0  0  0  0  0  0  0
    1.4801    6.1630    0.3112 O   0  0  0  0  0  1  0  0  0  0  0  0
    2.5798    4.4776    1.1992 O   0  0  0  0  0  0  0  0  0  0  0  0
   -0.0193    2.8795   -0.0145 C   0  0  0  0  0  0  0  0  0  0  0  0
    0.8949    3.2045    0.1643 H   0  0  0  0  0  0  0  0  0  0  0  0
   -0.6571    3.1908    0.6708 H   0  0  0  0  0  0  0  0  0  0  0  0
   -0.3364    3.2827   -0.9763 H   0  0  0  0  0  0  0  0  0  0  0  0
    0.0004    1.3895    0.0084 C   0  0  0  0  0  0  0  0  0  0  0  0
   -1.1897    0.6795   -0.0080 C   0  0  0  0  0  0  0  0  0  0  0  0
   -2.0593    1.1784   -0.0279 H   0  0  0  0  0  0  0  0  0  0  0  0
   -1.2008   -0.6957    0.0000 C   0  0  0  0  0  0  0  0  0  0  0  0
   -2.0786   -1.1909    0.0056 H   0  0  0  0  0  0  0  0  0  0  0  0
   -0.0067   -1.3883    0.0026 C   0  0  0  0  0  0  0  0  0  0  0  0
   -0.0007   -2.3848    0.0055 H   0  0  0  0  0  0  0  0  0  0  0  0
    1.2008   -0.6832   -0.0000 C   0  0  0  0  0  0  0  0  0  0  0  0
    2.0795   -1.1877    0.0021 H   0  0  0  0  0  0  0  0  0  0  0  0
    1.1961    0.6983   -0.0030 C   0  0  0  0  0  0  0  0  0  0  0  0
    2.0610    1.1984   -0.0142 H   0  0  0  0  0  0  0  0  0  0  0  0
  1  5  1  0
  5  6  1  0
  5  7  2  0
  1  2  1  0
  1  3  1  0
  1  4  1  0
  8 12  1  0
 12 13  2  0
 13 15  1  0
 15 17  2  0
 17 19  1  0
 19 21  2  0
 21 12  1  0
  8  9  1  0
  8 10  1  0
  8 11  1  0
 13 14  1  0
 15 16  1  0
 17 18  1  0
 19 20  1  0
 21 22  1  0
M  CHG  1   6  -1
M  END
>  <PDB_ID>  (488) 
pdb2iwf

>  <RESIDUE_NAME>  (488) 
GLU   PHE

>  <FRAG_NAME>  (488) 
ACET   MBZ

>  <FRAG_ATOM_NUM>  (488) 
fragi: 7  fragj: 15

>  <atom.prop.CHAIN_ID>  (488) 
A A A A A A A Z Z Z Z Z Z Z Z Z Z Z Z Z Z Z

>  <atom.prop.IS_HEAVY_ATOM>  (488) 
1 0 0 0 1 1 1 1 0 0 0 1 1 0 1 0 1 0 1 0 1 0

>  <DIFUSE_FUNC_ATOM>  (488) 
atom 6   atom 7   

>  <FINAL_SINGLE_POINT_ENERGY>  (488) 
0

>  <NONCOV_INTER_ENERGY_QM>  (488) 
0

>  <FF_Energy>  (488) 
-1.23

>  <QM_Energy>  (488) 
-6.95

>  <source>  (488) 
ACET_MBZ_00

>  <Index>  (488) 
17685

$$$$
ACET-pdb2iya-A-ASP-155:MBZ-pdb2iya-A-PHE-187
     RDKit          3D

 22 21  0  0  0  0  0  0  0  0999 V2000
    1.8894    0.4557   -3.6147 C   0  0  0  0  0  0  0  0  0  0  0  0
    2.3824   -0.1278   -2.9764 H   0  0  0  0  0  0  0  0  0  0  0  0
    2.2784    0.3738   -4.5269 H   0  0  0  0  0  0  0  0  0  0  0  0
    0.8588    0.1034   -3.6591 H   0  0  0  0  0  0  0  0  0  0  0  0
    2.0093    1.8938   -3.1567 C   0  0  0  0  0  0  0  0  0  0  0  0
    1.0207    2.6546   -3.2248 O   0  0  0  0  0  1  0  0  0  0  0  0
    3.1142    2.2641   -2.7104 O   0  0  0  0  0  0  0  0  0  0  0  0
   -0.0247    2.8994    0.0394 C   0  0  0  0  0  0  0  0  0  0  0  0
   -0.8689    3.2149   -0.3563 H   0  0  0  0  0  0  0  0  0  0  0  0
    0.7605    3.2341   -0.4513 H   0  0  0  0  0  0  0  0  0  0  0  0
    0.0299    3.2916    1.0549 H   0  0  0  0  0  0  0  0  0  0  0  0
   -0.0099    1.4063   -0.0073 C   0  0  0  0  0  0  0  0  0  0  0  0
   -1.1997    0.6895    0.0111 C   0  0  0  0  0  0  0  0  0  0  0  0
   -2.0712    1.1822    0.0315 H   0  0  0  0  0  0  0  0  0  0  0  0
   -1.2074   -0.6935   -0.0000 C   0  0  0  0  0  0  0  0  0  0  0  0
   -2.0776   -1.1956   -0.0022 H   0  0  0  0  0  0  0  0  0  0  0  0
    0.0091   -1.4044   -0.0068 C   0  0  0  0  0  0  0  0  0  0  0  0
   -0.0048   -2.3962   -0.0173 H   0  0  0  0  0  0  0  0  0  0  0  0
    1.2074   -0.7036    0.0000 C   0  0  0  0  0  0  0  0  0  0  0  0
    2.0927   -1.1902    0.0040 H   0  0  0  0  0  0  0  0  0  0  0  0
    1.2004    0.7056    0.0030 C   0  0  0  0  0  0  0  0  0  0  0  0
    2.0617    1.1989    0.0121 H   0  0  0  0  0  0  0  0  0  0  0  0
  1  5  1  0
  5  6  1  0
  5  7  2  0
  1  2  1  0
  1  3  1  0
  1  4  1  0
  8 12  1  0
 12 13  2  0
 13 15  1  0
 15 17  2  0
 17 19  1  0
 19 21  2  0
 21 12  1  0
  8  9  1  0
  8 10  1  0
  8 11  1  0
 13 14  1  0
 15 16  1  0
 17 18  1  0
 19 20  1  0
 21 22  1  0
M  CHG  1   6  -1
M  END
>  <PDB_ID>  (489) 
pdb2iya

>  <RESIDUE_NAME>  (489) 
ASP   PHE

>  <FRAG_NAME>  (489) 
ACET   MBZ

>  <FRAG_ATOM_NUM>  (489) 
fragi: 7  fragj: 15

>  <atom.prop.CHAIN_ID>  (489) 
A A A A A A A Z Z Z Z Z Z Z Z Z Z Z Z Z Z Z

>  <atom.prop.IS_HEAVY_ATOM>  (489) 
1 0 0 0 1 1 1 1 0 0 0 1 1 0 1 0 1 0 1 0 1 0

>  <DIFUSE_FUNC_ATOM>  (489) 
atom 6   atom 7   

>  <FINAL_SINGLE_POINT_ENERGY>  (489) 
0

>  <NONCOV_INTER_ENERGY_QM>  (489) 
0

>  <FF_Energy>  (489) 
-0.62

>  <QM_Energy>  (489) 
-6.1

>  <source>  (489) 
ACET_MBZ_00

>  <Index>  (489) 
17775

$$$$
ACET-pdb1iar-B-GLU-32:MBZ-pdb1iar-B-PHE-1
     RDKit          3D

 22 21  0  0  0  0  0  0  0  0999 V2000
    1.2155   -4.7237   -2.3320 C   0  0  0  0  0  0  0  0  0  0  0  0
    0.9095   -5.3970   -1.6879 H   0  0  0  0  0  0  0  0  0  0  0  0
    1.7995   -5.1002   -3.0236 H   0  0  0  0  0  0  0  0  0  0  0  0
    0.3423   -4.2849   -2.8148 H   0  0  0  0  0  0  0  0  0  0  0  0
    2.0155   -3.6912   -1.5710 C   0  0  0  0  0  0  0  0  0  0  0  0
    2.8191   -2.9539   -2.1894 O   0  0  0  0  0  1  0  0  0  0  0  0
    1.8286   -3.6145   -0.3377 O   0  0  0  0  0  0  0  0  0  0  0  0
   -0.0007    2.8938    0.0252 C   0  0  0  0  0  0  0  0  0  0  0  0
   -0.4391    3.2168   -0.8017 H   0  0  0  0  0  0  0  0  0  0  0  0
    0.9376    3.2064    0.0772 H   0  0  0  0  0  0  0  0  0  0  0  0
   -0.5382    3.3203    0.8721 H   0  0  0  0  0  0  0  0  0  0  0  0
    0.0048    1.3994    0.0001 C   0  0  0  0  0  0  0  0  0  0  0  0
   -1.1984    0.6800   -0.0028 C   0  0  0  0  0  0  0  0  0  0  0  0
   -2.0634    1.1772   -0.0085 H   0  0  0  0  0  0  0  0  0  0  0  0
   -1.2101   -0.7084   -0.0000 C   0  0  0  0  0  0  0  0  0  0  0  0
   -2.0850   -1.1988    0.0020 H   0  0  0  0  0  0  0  0  0  0  0  0
   -0.0112   -1.3945    0.0017 C   0  0  0  0  0  0  0  0  0  0  0  0
    0.0044   -2.3915    0.0032 H   0  0  0  0  0  0  0  0  0  0  0  0
    1.2101   -0.6825    0.0000 C   0  0  0  0  0  0  0  0  0  0  0  0
    2.0826   -1.1883   -0.0007 H   0  0  0  0  0  0  0  0  0  0  0  0
    1.2048    0.7061    0.0010 C   0  0  0  0  0  0  0  0  0  0  0  0
    2.0688    1.2050    0.0016 H   0  0  0  0  0  0  0  0  0  0  0  0
  1  5  1  0
  5  6  1  0
  5  7  2  0
  1  2  1  0
  1  3  1  0
  1  4  1  0
  8 12  1  0
 12 13  2  0
 13 15  1  0
 15 17  2  0
 17 19  1  0
 19 21  2  0
 21 12  1  0
  8  9  1  0
  8 10  1  0
  8 11  1  0
 13 14  1  0
 15 16  1  0
 17 18  1  0
 19 20  1  0
 21 22  1  0
M  CHG  1   6  -1
M  END
>  <PDB_ID>  (490) 
pdb1iar

>  <RESIDUE_NAME>  (490) 
GLU   PHE

>  <FRAG_NAME>  (490) 
ACET   MBZ

>  <FRAG_ATOM_NUM>  (490) 
fragi: 7  fragj: 15

>  <atom.prop.CHAIN_ID>  (490) 
A A A A A A A Z Z Z Z Z Z Z Z Z Z Z Z Z Z Z

>  <atom.prop.IS_HEAVY_ATOM>  (490) 
1 0 0 0 1 1 1 1 0 0 0 1 1 0 1 0 1 0 1 0 1 0

>  <DIFUSE_FUNC_ATOM>  (490) 
atom 6   atom 7   

>  <FINAL_SINGLE_POINT_ENERGY>  (490) 
0

>  <NONCOV_INTER_ENERGY_QM>  (490) 
0

>  <FF_Energy>  (490) 
0.41

>  <QM_Energy>  (490) 
-6.23

>  <source>  (490) 
ACET_MBZ_00

>  <Index>  (490) 
17823

$$$$
ACET-pdb2j0w-A-ASP-218:MBZ-pdb2j0w-A-PHE-275
     RDKit          3D

 22 21  0  0  0  0  0  0  0  0999 V2000
    4.4720    3.8083   -0.5263 C   0  0  0  0  0  0  0  0  0  0  0  0
    5.3057    4.2344   -0.8579 H   0  0  0  0  0  0  0  0  0  0  0  0
    4.6579    2.8934   -0.1898 H   0  0  0  0  0  0  0  0  0  0  0  0
    4.0995    4.4039    0.3071 H   0  0  0  0  0  0  0  0  0  0  0  0
    3.4801    3.7145   -1.6761 C   0  0  0  0  0  0  0  0  0  0  0  0
    2.2637    3.5973   -1.4098 O   0  0  0  0  0  1  0  0  0  0  0  0
    3.9236    3.7480   -2.8482 O   0  0  0  0  0  0  0  0  0  0  0  0
   -0.0148    2.8792    0.0979 C   0  0  0  0  0  0  0  0  0  0  0  0
   -0.6583    3.2283   -0.5636 H   0  0  0  0  0  0  0  0  0  0  0  0
    0.8991    3.2101   -0.0723 H   0  0  0  0  0  0  0  0  0  0  0  0
   -0.3210    3.2324    1.0826 H   0  0  0  0  0  0  0  0  0  0  0  0
   -0.0009    1.3947    0.0001 C   0  0  0  0  0  0  0  0  0  0  0  0
   -1.1938    0.6892    0.0004 C   0  0  0  0  0  0  0  0  0  0  0  0
   -2.0614    1.1852    0.0001 H   0  0  0  0  0  0  0  0  0  0  0  0
   -1.2038   -0.6920    0.0000 C   0  0  0  0  0  0  0  0  0  0  0  0
   -2.0806   -1.1880   -0.0012 H   0  0  0  0  0  0  0  0  0  0  0  0
   -0.0029   -1.3927    0.0026 C   0  0  0  0  0  0  0  0  0  0  0  0
   -0.0067   -2.3894    0.0061 H   0  0  0  0  0  0  0  0  0  0  0  0
    1.2038   -0.6945   -0.0000 C   0  0  0  0  0  0  0  0  0  0  0  0
    2.0820   -1.1943    0.0021 H   0  0  0  0  0  0  0  0  0  0  0  0
    1.1976    0.6953   -0.0031 C   0  0  0  0  0  0  0  0  0  0  0  0
    2.0632    1.1934   -0.0080 H   0  0  0  0  0  0  0  0  0  0  0  0
  1  5  1  0
  5  6  1  0
  5  7  2  0
  1  2  1  0
  1  3  1  0
  1  4  1  0
  8 12  1  0
 12 13  2  0
 13 15  1  0
 15 17  2  0
 17 19  1  0
 19 21  2  0
 21 12  1  0
  8  9  1  0
  8 10  1  0
  8 11  1  0
 13 14  1  0
 15 16  1  0
 17 18  1  0
 19 20  1  0
 21 22  1  0
M  CHG  1   6  -1
M  END
>  <PDB_ID>  (491) 
pdb2j0w

>  <RESIDUE_NAME>  (491) 
ASP   PHE

>  <FRAG_NAME>  (491) 
ACET   MBZ

>  <FRAG_ATOM_NUM>  (491) 
fragi: 7  fragj: 15

>  <atom.prop.CHAIN_ID>  (491) 
A A A A A A A Z Z Z Z Z Z Z Z Z Z Z Z Z Z Z

>  <atom.prop.IS_HEAVY_ATOM>  (491) 
1 0 0 0 1 1 1 1 0 0 0 1 1 0 1 0 1 0 1 0 1 0

>  <DIFUSE_FUNC_ATOM>  (491) 
atom 6   atom 7   

>  <FINAL_SINGLE_POINT_ENERGY>  (491) 
0

>  <NONCOV_INTER_ENERGY_QM>  (491) 
0

>  <FF_Energy>  (491) 
9.58

>  <QM_Energy>  (491) 
-4.9

>  <source>  (491) 
ACET_MBZ_00

>  <Index>  (491) 
17892

$$$$
ACET-pdb2j0y-A-ASP-208:MBZ-pdb2j0y-A-PHE-201
     RDKit          3D

 22 21  0  0  0  0  0  0  0  0999 V2000
   -1.3944    1.5665   -3.4998 C   0  0  0  0  0  0  0  0  0  0  0  0
   -0.6318    1.3309   -2.9185 H   0  0  0  0  0  0  0  0  0  0  0  0
   -1.1171    1.6506   -4.4433 H   0  0  0  0  0  0  0  0  0  0  0  0
   -2.1379    0.7724   -3.4293 H   0  0  0  0  0  0  0  0  0  0  0  0
   -1.9578    2.9156   -3.0376 C   0  0  0  0  0  0  0  0  0  0  0  0
   -1.0314    3.9413   -2.5968 O   0  0  0  0  0  1  0  0  0  0  0  0
   -3.3027    3.0035   -3.1503 O   0  0  0  0  0  0  0  0  0  0  0  0
   -0.0026    2.9019   -0.0091 C   0  0  0  0  0  0  0  0  0  0  0  0
   -0.7596    3.2034   -0.5709 H   0  0  0  0  0  0  0  0  0  0  0  0
    0.8621    3.2059   -0.3829 H   0  0  0  0  0  0  0  0  0  0  0  0
   -0.1169    3.3592    0.9737 H   0  0  0  0  0  0  0  0  0  0  0  0
   -0.0014    1.3974    0.0038 C   0  0  0  0  0  0  0  0  0  0  0  0
   -1.1836    0.6901   -0.0054 C   0  0  0  0  0  0  0  0  0  0  0  0
   -2.0574    1.1770   -0.0176 H   0  0  0  0  0  0  0  0  0  0  0  0
   -1.1887   -0.6959    0.0000 C   0  0  0  0  0  0  0  0  0  0  0  0
   -2.0733   -1.1852    0.0027 H   0  0  0  0  0  0  0  0  0  0  0  0
   -0.0046   -1.3857    0.0036 C   0  0  0  0  0  0  0  0  0  0  0  0
   -0.0068   -2.3894    0.0081 H   0  0  0  0  0  0  0  0  0  0  0  0
    1.1887   -0.6968   -0.0000 C   0  0  0  0  0  0  0  0  0  0  0  0
    2.0734   -1.1960    0.0005 H   0  0  0  0  0  0  0  0  0  0  0  0
    1.1896    0.6909   -0.0019 C   0  0  0  0  0  0  0  0  0  0  0  0
    2.0598    1.1839   -0.0085 H   0  0  0  0  0  0  0  0  0  0  0  0
  1  5  1  0
  5  6  1  0
  5  7  2  0
  1  2  1  0
  1  3  1  0
  1  4  1  0
  8 12  1  0
 12 13  2  0
 13 15  1  0
 15 17  2  0
 17 19  1  0
 19 21  2  0
 21 12  1  0
  8  9  1  0
  8 10  1  0
  8 11  1  0
 13 14  1  0
 15 16  1  0
 17 18  1  0
 19 20  1  0
 21 22  1  0
M  CHG  1   6  -1
M  END
>  <PDB_ID>  (492) 
pdb2j0y

>  <RESIDUE_NAME>  (492) 
ASP   PHE

>  <FRAG_NAME>  (492) 
ACET   MBZ

>  <FRAG_ATOM_NUM>  (492) 
fragi: 7  fragj: 15

>  <atom.prop.CHAIN_ID>  (492) 
A A A A A A A Z Z Z Z Z Z Z Z Z Z Z Z Z Z Z

>  <atom.prop.IS_HEAVY_ATOM>  (492) 
1 0 0 0 1 1 1 1 0 0 0 1 1 0 1 0 1 0 1 0 1 0

>  <DIFUSE_FUNC_ATOM>  (492) 
atom 6   atom 7   

>  <FINAL_SINGLE_POINT_ENERGY>  (492) 
0

>  <NONCOV_INTER_ENERGY_QM>  (492) 
0

>  <FF_Energy>  (492) 
1.14

>  <QM_Energy>  (492) 
-5.17

>  <source>  (492) 
ACET_MBZ_00

>  <Index>  (492) 
17898

$$$$
ACET-pdb1icp-A-GLU-291:MBZ-pdb1icp-A-PHE-243
     RDKit          3D

 22 21  0  0  0  0  0  0  0  0999 V2000
    3.5717    0.3032   -2.5770 C   0  0  0  0  0  0  0  0  0  0  0  0
    3.6743   -0.2710   -1.7841 H   0  0  0  0  0  0  0  0  0  0  0  0
    4.3017    0.1725   -3.2244 H   0  0  0  0  0  0  0  0  0  0  0  0
    2.6325    0.0428   -3.0650 H   0  0  0  0  0  0  0  0  0  0  0  0
    3.6237    1.7442   -2.1106 C   0  0  0  0  0  0  0  0  0  0  0  0
    3.4377    2.6527   -2.9467 O   0  0  0  0  0  1  0  0  0  0  0  0
    3.8555    1.9676   -0.9021 O   0  0  0  0  0  0  0  0  0  0  0  0
    0.0008    2.9061    0.0900 C   0  0  0  0  0  0  0  0  0  0  0  0
   -0.8717    3.2338   -0.2318 H   0  0  0  0  0  0  0  0  0  0  0  0
    0.7442    3.2455   -0.4617 H   0  0  0  0  0  0  0  0  0  0  0  0
    0.1425    3.2789    1.1044 H   0  0  0  0  0  0  0  0  0  0  0  0
   -0.0007    1.4046    0.0008 C   0  0  0  0  0  0  0  0  0  0  0  0
   -1.2001    0.6922   -0.0014 C   0  0  0  0  0  0  0  0  0  0  0  0
   -2.0661    1.1838   -0.0053 H   0  0  0  0  0  0  0  0  0  0  0  0
   -1.2040   -0.6979   -0.0000 C   0  0  0  0  0  0  0  0  0  0  0  0
   -2.0787   -1.1939   -0.0006 H   0  0  0  0  0  0  0  0  0  0  0  0
    0.0012   -1.3964    0.0035 C   0  0  0  0  0  0  0  0  0  0  0  0
   -0.0040   -2.3937    0.0077 H   0  0  0  0  0  0  0  0  0  0  0  0
    1.2040   -0.6993   -0.0000 C   0  0  0  0  0  0  0  0  0  0  0  0
    2.0845   -1.1952    0.0013 H   0  0  0  0  0  0  0  0  0  0  0  0
    1.1996    0.6969   -0.0029 C   0  0  0  0  0  0  0  0  0  0  0  0
    2.0662    1.1915   -0.0087 H   0  0  0  0  0  0  0  0  0  0  0  0
  1  5  1  0
  5  6  1  0
  5  7  2  0
  1  2  1  0
  1  3  1  0
  1  4  1  0
  8 12  1  0
 12 13  2  0
 13 15  1  0
 15 17  2  0
 17 19  1  0
 19 21  2  0
 21 12  1  0
  8  9  1  0
  8 10  1  0
  8 11  1  0
 13 14  1  0
 15 16  1  0
 17 18  1  0
 19 20  1  0
 21 22  1  0
M  CHG  1   6  -1
M  END
>  <PDB_ID>  (493) 
pdb1icp

>  <RESIDUE_NAME>  (493) 
GLU   PHE

>  <FRAG_NAME>  (493) 
ACET   MBZ

>  <FRAG_ATOM_NUM>  (493) 
fragi: 7  fragj: 15

>  <atom.prop.CHAIN_ID>  (493) 
A A A A A A A Z Z Z Z Z Z Z Z Z Z Z Z Z Z Z

>  <atom.prop.IS_HEAVY_ATOM>  (493) 
1 0 0 0 1 1 1 1 0 0 0 1 1 0 1 0 1 0 1 0 1 0

>  <DIFUSE_FUNC_ATOM>  (493) 
atom 6   atom 7   

>  <FINAL_SINGLE_POINT_ENERGY>  (493) 
0

>  <NONCOV_INTER_ENERGY_QM>  (493) 
0

>  <FF_Energy>  (493) 
-0.64

>  <QM_Energy>  (493) 
-6.95

>  <source>  (493) 
ACET_MBZ_00

>  <Index>  (493) 
17915

$$$$
ACET-pdb2j3v-A-ASP-54:MBZ-pdb2j3v-A-PHE-146
     RDKit          3D

 22 21  0  0  0  0  0  0  0  0999 V2000
    5.6577    3.8050   -1.0998 C   0  0  0  0  0  0  0  0  0  0  0  0
    6.5343    4.0662   -0.7134 H   0  0  0  0  0  0  0  0  0  0  0  0
    5.4653    4.3303   -1.9194 H   0  0  0  0  0  0  0  0  0  0  0  0
    5.6937    2.7479   -1.3631 H   0  0  0  0  0  0  0  0  0  0  0  0
    4.5639    4.1315   -0.0576 C   0  0  0  0  0  0  0  0  0  0  0  0
    3.6676    3.3128    0.1942 O   0  0  0  0  0  1  0  0  0  0  0  0
    4.5542    5.1822    0.5967 O   0  0  0  0  0  0  0  0  0  0  0  0
   -0.0108    2.8661    0.0229 C   0  0  0  0  0  0  0  0  0  0  0  0
    0.9106    3.1808    0.2072 H   0  0  0  0  0  0  0  0  0  0  0  0
   -0.6373    3.1711    0.7280 H   0  0  0  0  0  0  0  0  0  0  0  0
   -0.3302    3.3152   -0.9176 H   0  0  0  0  0  0  0  0  0  0  0  0
   -0.0052    1.3787    0.0111 C   0  0  0  0  0  0  0  0  0  0  0  0
   -1.2027    0.6660   -0.0131 C   0  0  0  0  0  0  0  0  0  0  0  0
   -2.0645    1.1705   -0.0414 H   0  0  0  0  0  0  0  0  0  0  0  0
   -1.1949   -0.6851   -0.0000 C   0  0  0  0  0  0  0  0  0  0  0  0
   -2.0605   -1.2077    0.0204 H   0  0  0  0  0  0  0  0  0  0  0  0
    0.0172   -1.3731   -0.0130 C   0  0  0  0  0  0  0  0  0  0  0  0
    0.0108   -2.3737   -0.0321 H   0  0  0  0  0  0  0  0  0  0  0  0
    1.1949   -0.6744    0.0000 C   0  0  0  0  0  0  0  0  0  0  0  0
    2.0871   -1.1777    0.0001 H   0  0  0  0  0  0  0  0  0  0  0  0
    1.1907    0.6879    0.0150 C   0  0  0  0  0  0  0  0  0  0  0  0
    2.0532    1.1974    0.0285 H   0  0  0  0  0  0  0  0  0  0  0  0
  1  5  1  0
  5  6  1  0
  5  7  2  0
  1  2  1  0
  1  3  1  0
  1  4  1  0
  8 12  1  0
 12 13  2  0
 13 15  1  0
 15 17  2  0
 17 19  1  0
 19 21  2  0
 21 12  1  0
  8  9  1  0
  8 10  1  0
  8 11  1  0
 13 14  1  0
 15 16  1  0
 17 18  1  0
 19 20  1  0
 21 22  1  0
M  CHG  1   6  -1
M  END
>  <PDB_ID>  (494) 
pdb2j3v

>  <RESIDUE_NAME>  (494) 
ASP   PHE

>  <FRAG_NAME>  (494) 
ACET   MBZ

>  <FRAG_ATOM_NUM>  (494) 
fragi: 7  fragj: 15

>  <atom.prop.CHAIN_ID>  (494) 
A A A A A A A Z Z Z Z Z Z Z Z Z Z Z Z Z Z Z

>  <atom.prop.IS_HEAVY_ATOM>  (494) 
1 0 0 0 1 1 1 1 0 0 0 1 1 0 1 0 1 0 1 0 1 0

>  <DIFUSE_FUNC_ATOM>  (494) 
atom 6   atom 7   

>  <FINAL_SINGLE_POINT_ENERGY>  (494) 
0

>  <NONCOV_INTER_ENERGY_QM>  (494) 
0

>  <FF_Energy>  (494) 
-2.35

>  <QM_Energy>  (494) 
-7.43

>  <source>  (494) 
ACET_MBZ_00

>  <Index>  (494) 
18008

$$$$
ACET-pdb2j4b-E-GLU-20:MBZ-pdb2j4b-E-PHE-68
     RDKit          3D

 22 21  0  0  0  0  0  0  0  0999 V2000
   -4.6187    0.4481   -1.8264 C   0  0  0  0  0  0  0  0  0  0  0  0
   -5.5894    0.4138   -1.9564 H   0  0  0  0  0  0  0  0  0  0  0  0
   -4.2991   -0.2216   -1.1856 H   0  0  0  0  0  0  0  0  0  0  0  0
   -4.1437    0.2499   -2.7873 H   0  0  0  0  0  0  0  0  0  0  0  0
   -4.2726    1.8214   -1.2728 C   0  0  0  0  0  0  0  0  0  0  0  0
   -3.1494    2.2865   -1.5234 O   0  0  0  0  0  1  0  0  0  0  0  0
   -5.1127    2.4361   -0.5926 O   0  0  0  0  0  0  0  0  0  0  0  0
   -0.0022    2.9070   -0.0328 C   0  0  0  0  0  0  0  0  0  0  0  0
   -0.6535    3.1922   -0.7225 H   0  0  0  0  0  0  0  0  0  0  0  0
    0.9141    3.2060   -0.2621 H   0  0  0  0  0  0  0  0  0  0  0  0
   -0.2829    3.3778    0.9093 H   0  0  0  0  0  0  0  0  0  0  0  0
    0.0006    1.3977    0.0027 C   0  0  0  0  0  0  0  0  0  0  0  0
   -1.1849    0.6844    0.0053 C   0  0  0  0  0  0  0  0  0  0  0  0
   -2.0577    1.1763    0.0099 H   0  0  0  0  0  0  0  0  0  0  0  0
   -1.1878   -0.6939    0.0000 C   0  0  0  0  0  0  0  0  0  0  0  0
   -2.0706   -1.1889   -0.0020 H   0  0  0  0  0  0  0  0  0  0  0  0
   -0.0007   -1.3842   -0.0006 C   0  0  0  0  0  0  0  0  0  0  0  0
   -0.0054   -2.3884   -0.0018 H   0  0  0  0  0  0  0  0  0  0  0  0
    1.1878   -0.6969   -0.0000 C   0  0  0  0  0  0  0  0  0  0  0  0
    2.0747   -1.1907    0.0077 H   0  0  0  0  0  0  0  0  0  0  0  0
    1.1850    0.6930   -0.0075 C   0  0  0  0  0  0  0  0  0  0  0  0
    2.0588    1.1845   -0.0215 H   0  0  0  0  0  0  0  0  0  0  0  0
  1  5  1  0
  5  6  1  0
  5  7  2  0
  1  2  1  0
  1  3  1  0
  1  4  1  0
  8 12  1  0
 12 13  2  0
 13 15  1  0
 15 17  2  0
 17 19  1  0
 19 21  2  0
 21 12  1  0
  8  9  1  0
  8 10  1  0
  8 11  1  0
 13 14  1  0
 15 16  1  0
 17 18  1  0
 19 20  1  0
 21 22  1  0
M  CHG  1   6  -1
M  END
>  <PDB_ID>  (495) 
pdb2j4b

>  <RESIDUE_NAME>  (495) 
GLU   PHE

>  <FRAG_NAME>  (495) 
ACET   MBZ

>  <FRAG_ATOM_NUM>  (495) 
fragi: 7  fragj: 15

>  <atom.prop.CHAIN_ID>  (495) 
A A A A A A A Z Z Z Z Z Z Z Z Z Z Z Z Z Z Z

>  <atom.prop.IS_HEAVY_ATOM>  (495) 
1 0 0 0 1 1 1 1 0 0 0 1 1 0 1 0 1 0 1 0 1 0

>  <DIFUSE_FUNC_ATOM>  (495) 
atom 6   atom 7   

>  <FINAL_SINGLE_POINT_ENERGY>  (495) 
0

>  <NONCOV_INTER_ENERGY_QM>  (495) 
0

>  <FF_Energy>  (495) 
-0.28

>  <QM_Energy>  (495) 
-6.3

>  <source>  (495) 
ACET_MBZ_00

>  <Index>  (495) 
18048

$$$$
ACET-pdb1ig8-A-GLU-359:MBZ-pdb1ig8-A-PHE-355
     RDKit          3D

 22 21  0  0  0  0  0  0  0  0999 V2000
    5.4220    3.4264   -1.2290 C   0  0  0  0  0  0  0  0  0  0  0  0
    5.8186    2.7367   -0.6309 H   0  0  0  0  0  0  0  0  0  0  0  0
    5.9921    4.2428   -1.2371 H   0  0  0  0  0  0  0  0  0  0  0  0
    5.4081    3.0200   -2.2404 H   0  0  0  0  0  0  0  0  0  0  0  0
    4.0847    3.8057   -0.6705 C   0  0  0  0  0  0  0  0  0  0  0  0
    3.0651    3.8854   -1.3853 O   0  0  0  0  0  1  0  0  0  0  0  0
    3.8969    4.0725    0.5288 O   0  0  0  0  0  0  0  0  0  0  0  0
    0.0145    2.9228   -0.0342 C   0  0  0  0  0  0  0  0  0  0  0  0
    0.9015    3.2117   -0.3959 H   0  0  0  0  0  0  0  0  0  0  0  0
   -0.0753    3.2345    0.9127 H   0  0  0  0  0  0  0  0  0  0  0  0
   -0.7589    3.4197   -0.6200 H   0  0  0  0  0  0  0  0  0  0  0  0
   -0.0017    1.4112   -0.0200 C   0  0  0  0  0  0  0  0  0  0  0  0
   -1.1846    0.6833    0.0221 C   0  0  0  0  0  0  0  0  0  0  0  0
   -2.0613    1.1743    0.0693 H   0  0  0  0  0  0  0  0  0  0  0  0
   -1.2002   -0.7069   -0.0000 C   0  0  0  0  0  0  0  0  0  0  0  0
   -2.0732   -1.1961   -0.0187 H   0  0  0  0  0  0  0  0  0  0  0  0
    0.0030   -1.3970    0.0063 C   0  0  0  0  0  0  0  0  0  0  0  0
    0.0069   -2.3941    0.0145 H   0  0  0  0  0  0  0  0  0  0  0  0
    1.2002   -0.6909    0.0000 C   0  0  0  0  0  0  0  0  0  0  0  0
    2.0842   -1.1814    0.0033 H   0  0  0  0  0  0  0  0  0  0  0  0
    1.1833    0.7002   -0.0084 C   0  0  0  0  0  0  0  0  0  0  0  0
    2.0591    1.1978   -0.0061 H   0  0  0  0  0  0  0  0  0  0  0  0
  1  5  1  0
  5  6  1  0
  5  7  2  0
  1  2  1  0
  1  3  1  0
  1  4  1  0
  8 12  1  0
 12 13  2  0
 13 15  1  0
 15 17  2  0
 17 19  1  0
 19 21  2  0
 21 12  1  0
  8  9  1  0
  8 10  1  0
  8 11  1  0
 13 14  1  0
 15 16  1  0
 17 18  1  0
 19 20  1  0
 21 22  1  0
M  CHG  1   6  -1
M  END
>  <PDB_ID>  (496) 
pdb1ig8

>  <RESIDUE_NAME>  (496) 
GLU   PHE

>  <FRAG_NAME>  (496) 
ACET   MBZ

>  <FRAG_ATOM_NUM>  (496) 
fragi: 7  fragj: 15

>  <atom.prop.CHAIN_ID>  (496) 
A A A A A A A Z Z Z Z Z Z Z Z Z Z Z Z Z Z Z

>  <atom.prop.IS_HEAVY_ATOM>  (496) 
1 0 0 0 1 1 1 1 0 0 0 1 1 0 1 0 1 0 1 0 1 0

>  <DIFUSE_FUNC_ATOM>  (496) 
atom 6   atom 7   

>  <FINAL_SINGLE_POINT_ENERGY>  (496) 
0

>  <NONCOV_INTER_ENERGY_QM>  (496) 
0

>  <FF_Energy>  (496) 
-2.22

>  <QM_Energy>  (496) 
-7.8

>  <source>  (496) 
ACET_MBZ_00

>  <Index>  (496) 
18072

$$$$
ACET-pdb2j5z-B-GLU-159:MBZ-pdb2j5z-B-PHE-169
     RDKit          3D

 22 21  0  0  0  0  0  0  0  0999 V2000
   -4.5594    0.7450    0.5596 C   0  0  0  0  0  0  0  0  0  0  0  0
   -3.5951    0.8665    0.6750 H   0  0  0  0  0  0  0  0  0  0  0  0
   -5.0842    1.4895    0.9177 H   0  0  0  0  0  0  0  0  0  0  0  0
   -4.7656    0.6663   -0.5078 H   0  0  0  0  0  0  0  0  0  0  0  0
   -4.9616   -0.5116    1.3199 C   0  0  0  0  0  0  0  0  0  0  0  0
   -5.6967   -1.3447    0.7534 O   0  0  0  0  0  1  0  0  0  0  0  0
   -4.5588   -0.6564    2.4939 O   0  0  0  0  0  0  0  0  0  0  0  0
    0.0061    2.8961   -0.0087 C   0  0  0  0  0  0  0  0  0  0  0  0
    0.8434    3.2027    0.4159 H   0  0  0  0  0  0  0  0  0  0  0  0
   -0.7879    3.2096    0.4901 H   0  0  0  0  0  0  0  0  0  0  0  0
   -0.0374    3.3322   -1.0067 H   0  0  0  0  0  0  0  0  0  0  0  0
    0.0003    1.3945   -0.0018 C   0  0  0  0  0  0  0  0  0  0  0  0
   -1.1923    0.6911   -0.0007 C   0  0  0  0  0  0  0  0  0  0  0  0
   -2.0593    1.1813   -0.0015 H   0  0  0  0  0  0  0  0  0  0  0  0
   -1.1944   -0.6933    0.0000 C   0  0  0  0  0  0  0  0  0  0  0  0
   -2.0731   -1.1888   -0.0001 H   0  0  0  0  0  0  0  0  0  0  0  0
    0.0006   -1.3827    0.0027 C   0  0  0  0  0  0  0  0  0  0  0  0
   -0.0047   -2.3863    0.0062 H   0  0  0  0  0  0  0  0  0  0  0  0
    1.1944   -0.6957    0.0000 C   0  0  0  0  0  0  0  0  0  0  0  0
    2.0770   -1.1956   -0.0008 H   0  0  0  0  0  0  0  0  0  0  0  0
    1.1914    0.6862   -0.0002 C   0  0  0  0  0  0  0  0  0  0  0  0
    2.0618    1.1844   -0.0005 H   0  0  0  0  0  0  0  0  0  0  0  0
  1  5  1  0
  5  6  1  0
  5  7  2  0
  1  2  1  0
  1  3  1  0
  1  4  1  0
  8 12  1  0
 12 13  2  0
 13 15  1  0
 15 17  2  0
 17 19  1  0
 19 21  2  0
 21 12  1  0
  8  9  1  0
  8 10  1  0
  8 11  1  0
 13 14  1  0
 15 16  1  0
 17 18  1  0
 19 20  1  0
 21 22  1  0
M  CHG  1   6  -1
M  END
>  <PDB_ID>  (497) 
pdb2j5z

>  <RESIDUE_NAME>  (497) 
GLU   PHE

>  <FRAG_NAME>  (497) 
ACET   MBZ

>  <FRAG_ATOM_NUM>  (497) 
fragi: 7  fragj: 15

>  <atom.prop.CHAIN_ID>  (497) 
A A A A A A A Z Z Z Z Z Z Z Z Z Z Z Z Z Z Z

>  <atom.prop.IS_HEAVY_ATOM>  (497) 
1 0 0 0 1 1 1 1 0 0 0 1 1 0 1 0 1 0 1 0 1 0

>  <DIFUSE_FUNC_ATOM>  (497) 
atom 6   atom 7   

>  <FINAL_SINGLE_POINT_ENERGY>  (497) 
0

>  <NONCOV_INTER_ENERGY_QM>  (497) 
0

>  <FF_Energy>  (497) 
5.6

>  <QM_Energy>  (497) 
-0.97

>  <source>  (497) 
ACET_MBZ_00

>  <Index>  (497) 
18122

$$$$
ACET-pdb1ihb-A-ASP-67:MBZ-pdb1ihb-A-PHE-71
     RDKit          3D

 22 21  0  0  0  0  0  0  0  0999 V2000
    3.8706    6.0639   -1.6309 C   0  0  0  0  0  0  0  0  0  0  0  0
    4.8559    5.9325   -1.6601 H   0  0  0  0  0  0  0  0  0  0  0  0
    3.6402    6.8097   -1.0160 H   0  0  0  0  0  0  0  0  0  0  0  0
    3.5388    6.3386   -2.6322 H   0  0  0  0  0  0  0  0  0  0  0  0
    3.2243    4.7820   -1.1048 C   0  0  0  0  0  0  0  0  0  0  0  0
    2.8233    3.9208   -1.8971 O   0  0  0  0  0  1  0  0  0  0  0  0
    3.1231    4.6378    0.1297 O   0  0  0  0  0  0  0  0  0  0  0  0
    0.0019    2.8891   -0.0275 C   0  0  0  0  0  0  0  0  0  0  0  0
    0.9295    3.1932   -0.1863 H   0  0  0  0  0  0  0  0  0  0  0  0
   -0.3381    3.2123    0.8432 H   0  0  0  0  0  0  0  0  0  0  0  0
   -0.6275    3.3130   -0.8099 H   0  0  0  0  0  0  0  0  0  0  0  0
    0.0008    1.3920   -0.0019 C   0  0  0  0  0  0  0  0  0  0  0  0
   -1.1920    0.6881    0.0012 C   0  0  0  0  0  0  0  0  0  0  0  0
   -2.0595    1.1805    0.0032 H   0  0  0  0  0  0  0  0  0  0  0  0
   -1.1958   -0.6937   -0.0000 C   0  0  0  0  0  0  0  0  0  0  0  0
   -2.0736   -1.1902    0.0027 H   0  0  0  0  0  0  0  0  0  0  0  0
   -0.0002   -1.3845   -0.0038 C   0  0  0  0  0  0  0  0  0  0  0  0
   -0.0033   -2.3862   -0.0103 H   0  0  0  0  0  0  0  0  0  0  0  0
    1.1958   -0.6920    0.0000 C   0  0  0  0  0  0  0  0  0  0  0  0
    2.0780   -1.1925    0.0011 H   0  0  0  0  0  0  0  0  0  0  0  0
    1.1914    0.6901    0.0045 C   0  0  0  0  0  0  0  0  0  0  0  0
    2.0605    1.1884    0.0119 H   0  0  0  0  0  0  0  0  0  0  0  0
  1  5  1  0
  5  6  1  0
  5  7  2  0
  1  2  1  0
  1  3  1  0
  1  4  1  0
  8 12  1  0
 12 13  2  0
 13 15  1  0
 15 17  2  0
 17 19  1  0
 19 21  2  0
 21 12  1  0
  8  9  1  0
  8 10  1  0
  8 11  1  0
 13 14  1  0
 15 16  1  0
 17 18  1  0
 19 20  1  0
 21 22  1  0
M  CHG  1   6  -1
M  END
>  <PDB_ID>  (498) 
pdb1ihb

>  <RESIDUE_NAME>  (498) 
ASP   PHE

>  <FRAG_NAME>  (498) 
ACET   MBZ

>  <FRAG_ATOM_NUM>  (498) 
fragi: 7  fragj: 15

>  <atom.prop.CHAIN_ID>  (498) 
A A A A A A A Z Z Z Z Z Z Z Z Z Z Z Z Z Z Z

>  <atom.prop.IS_HEAVY_ATOM>  (498) 
1 0 0 0 1 1 1 1 0 0 0 1 1 0 1 0 1 0 1 0 1 0

>  <DIFUSE_FUNC_ATOM>  (498) 
atom 6   atom 7   

>  <FINAL_SINGLE_POINT_ENERGY>  (498) 
0

>  <NONCOV_INTER_ENERGY_QM>  (498) 
0

>  <FF_Energy>  (498) 
-1.88

>  <QM_Energy>  (498) 
-7.54

>  <source>  (498) 
ACET_MBZ_00

>  <Index>  (498) 
18146

$$$$
ACET-pdb1ihj-B-ASP-21:MBZ-pdb1ihj-B-PHE-96
     RDKit          3D

 22 21  0  0  0  0  0  0  0  0999 V2000
   -5.7592    0.8199    1.4738 C   0  0  0  0  0  0  0  0  0  0  0  0
   -5.7170   -0.0225    2.0018 H   0  0  0  0  0  0  0  0  0  0  0  0
   -6.6936    0.9994    1.1850 H   0  0  0  0  0  0  0  0  0  0  0  0
   -5.4481    1.6372    2.1244 H   0  0  0  0  0  0  0  0  0  0  0  0
   -4.8856    0.6783    0.2543 C   0  0  0  0  0  0  0  0  0  0  0  0
   -4.5461    1.7107   -0.3524 O   0  0  0  0  0  1  0  0  0  0  0  0
   -4.5507   -0.4725   -0.0975 O   0  0  0  0  0  0  0  0  0  0  0  0
   -0.0011    2.8994    0.0493 C   0  0  0  0  0  0  0  0  0  0  0  0
   -0.8633    3.2186   -0.3128 H   0  0  0  0  0  0  0  0  0  0  0  0
    0.7601    3.2260   -0.4900 H   0  0  0  0  0  0  0  0  0  0  0  0
    0.1073    3.3046    1.0554 H   0  0  0  0  0  0  0  0  0  0  0  0
    0.0000    1.4006    0.0006 C   0  0  0  0  0  0  0  0  0  0  0  0
   -1.1967    0.6918   -0.0011 C   0  0  0  0  0  0  0  0  0  0  0  0
   -2.0637    1.1833   -0.0047 H   0  0  0  0  0  0  0  0  0  0  0  0
   -1.2016   -0.6968   -0.0000 C   0  0  0  0  0  0  0  0  0  0  0  0
   -2.0779   -1.1918    0.0007 H   0  0  0  0  0  0  0  0  0  0  0  0
    0.0005   -1.3930    0.0017 C   0  0  0  0  0  0  0  0  0  0  0  0
   -0.0040   -2.3918    0.0035 H   0  0  0  0  0  0  0  0  0  0  0  0
    1.2016   -0.6968    0.0000 C   0  0  0  0  0  0  0  0  0  0  0  0
    2.0827   -1.1935    0.0009 H   0  0  0  0  0  0  0  0  0  0  0  0
    1.1962    0.6941   -0.0012 C   0  0  0  0  0  0  0  0  0  0  0  0
    2.0644    1.1910   -0.0047 H   0  0  0  0  0  0  0  0  0  0  0  0
  1  5  1  0
  5  6  1  0
  5  7  2  0
  1  2  1  0
  1  3  1  0
  1  4  1  0
  8 12  1  0
 12 13  2  0
 13 15  1  0
 15 17  2  0
 17 19  1  0
 19 21  2  0
 21 12  1  0
  8  9  1  0
  8 10  1  0
  8 11  1  0
 13 14  1  0
 15 16  1  0
 17 18  1  0
 19 20  1  0
 21 22  1  0
M  CHG  1   6  -1
M  END
>  <PDB_ID>  (499) 
pdb1ihj

>  <RESIDUE_NAME>  (499) 
ASP   PHE

>  <FRAG_NAME>  (499) 
ACET   MBZ

>  <FRAG_ATOM_NUM>  (499) 
fragi: 7  fragj: 15

>  <atom.prop.CHAIN_ID>  (499) 
A A A A A A A Z Z Z Z Z Z Z Z Z Z Z Z Z Z Z

>  <atom.prop.IS_HEAVY_ATOM>  (499) 
1 0 0 0 1 1 1 1 0 0 0 1 1 0 1 0 1 0 1 0 1 0

>  <DIFUSE_FUNC_ATOM>  (499) 
atom 6   atom 7   

>  <FINAL_SINGLE_POINT_ENERGY>  (499) 
0

>  <NONCOV_INTER_ENERGY_QM>  (499) 
0

>  <FF_Energy>  (499) 
-3.4

>  <QM_Energy>  (499) 
-8.51

>  <source>  (499) 
ACET_MBZ_00

>  <Index>  (499) 
18163

$$$$
ACET-pdb1ihk-A-ASP-111:MBZ-pdb1ihk-A-PHE-92
     RDKit          3D

 22 21  0  0  0  0  0  0  0  0999 V2000
    3.8310    1.0061    3.1163 C   0  0  0  0  0  0  0  0  0  0  0  0
    3.3125    1.3301    3.8988 H   0  0  0  0  0  0  0  0  0  0  0  0
    3.5681    1.4968    2.2955 H   0  0  0  0  0  0  0  0  0  0  0  0
    4.8858    1.2055    3.3051 H   0  0  0  0  0  0  0  0  0  0  0  0
    3.5491   -0.4666    2.9189 C   0  0  0  0  0  0  0  0  0  0  0  0
    3.5359   -1.2107    3.9254 O   0  0  0  0  0  1  0  0  0  0  0  0
    3.3530   -0.8820    1.7560 O   0  0  0  0  0  0  0  0  0  0  0  0
    0.0034    2.9015    0.0477 C   0  0  0  0  0  0  0  0  0  0  0  0
   -0.8904    3.2200   -0.2263 H   0  0  0  0  0  0  0  0  0  0  0  0
    0.7083    3.2268   -0.5626 H   0  0  0  0  0  0  0  0  0  0  0  0
    0.2108    3.3007    1.0405 H   0  0  0  0  0  0  0  0  0  0  0  0
   -0.0005    1.4027   -0.0005 C   0  0  0  0  0  0  0  0  0  0  0  0
   -1.1968    0.6982   -0.0007 C   0  0  0  0  0  0  0  0  0  0  0  0
   -2.0634    1.1874   -0.0026 H   0  0  0  0  0  0  0  0  0  0  0  0
   -1.2024   -0.6956    0.0000 C   0  0  0  0  0  0  0  0  0  0  0  0
   -2.0791   -1.1881    0.0007 H   0  0  0  0  0  0  0  0  0  0  0  0
    0.0003   -1.3954    0.0013 C   0  0  0  0  0  0  0  0  0  0  0  0
   -0.0070   -2.3940    0.0020 H   0  0  0  0  0  0  0  0  0  0  0  0
    1.2024   -0.7017    0.0000 C   0  0  0  0  0  0  0  0  0  0  0  0
    2.0824   -1.1981    0.0002 H   0  0  0  0  0  0  0  0  0  0  0  0
    1.1970    0.6919   -0.0002 C   0  0  0  0  0  0  0  0  0  0  0  0
    2.0656    1.1872   -0.0010 H   0  0  0  0  0  0  0  0  0  0  0  0
  1  5  1  0
  5  6  1  0
  5  7  2  0
  1  2  1  0
  1  3  1  0
  1  4  1  0
  8 12  1  0
 12 13  2  0
 13 15  1  0
 15 17  2  0
 17 19  1  0
 19 21  2  0
 21 12  1  0
  8  9  1  0
  8 10  1  0
  8 11  1  0
 13 14  1  0
 15 16  1  0
 17 18  1  0
 19 20  1  0
 21 22  1  0
M  CHG  1   6  -1
M  END
>  <PDB_ID>  (500) 
pdb1ihk

>  <RESIDUE_NAME>  (500) 
ASP   PHE

>  <FRAG_NAME>  (500) 
ACET   MBZ

>  <FRAG_ATOM_NUM>  (500) 
fragi: 7  fragj: 15

>  <atom.prop.CHAIN_ID>  (500) 
A A A A A A A Z Z Z Z Z Z Z Z Z Z Z Z Z Z Z

>  <atom.prop.IS_HEAVY_ATOM>  (500) 
1 0 0 0 1 1 1 1 0 0 0 1 1 0 1 0 1 0 1 0 1 0

>  <DIFUSE_FUNC_ATOM>  (500) 
atom 6   atom 7   

>  <FINAL_SINGLE_POINT_ENERGY>  (500) 
0

>  <NONCOV_INTER_ENERGY_QM>  (500) 
0

>  <FF_Energy>  (500) 
2.5

>  <QM_Energy>  (500) 
-3.46

>  <source>  (500) 
ACET_MBZ_00

>  <Index>  (500) 
18165

$$$$
ACET-pdb1ihn-B-GLU-59:MBZ-pdb1ihn-B-PHE-87
     RDKit          3D

 22 21  0  0  0  0  0  0  0  0999 V2000
    1.9311    3.9682   -3.7346 C   0  0  0  0  0  0  0  0  0  0  0  0
    1.5660    4.8790   -3.6572 H   0  0  0  0  0  0  0  0  0  0  0  0
    2.5006    3.8639   -4.5306 H   0  0  0  0  0  0  0  0  0  0  0  0
    2.5381    3.7683   -2.8516 H   0  0  0  0  0  0  0  0  0  0  0  0
    0.7600    3.0159   -3.8815 C   0  0  0  0  0  0  0  0  0  0  0  0
    0.0188    2.8202   -2.8947 O   0  0  0  0  0  1  0  0  0  0  0  0
    0.5747    2.4714   -4.9919 O   0  0  0  0  0  0  0  0  0  0  0  0
    0.0035    2.9112    0.0144 C   0  0  0  0  0  0  0  0  0  0  0  0
   -0.6219    3.2252   -0.6834 H   0  0  0  0  0  0  0  0  0  0  0  0
    0.9265    3.2157   -0.1664 H   0  0  0  0  0  0  0  0  0  0  0  0
   -0.3108    3.3446    0.9639 H   0  0  0  0  0  0  0  0  0  0  0  0
   -0.0006    1.4058   -0.0005 C   0  0  0  0  0  0  0  0  0  0  0  0
   -1.1985    0.6966   -0.0002 C   0  0  0  0  0  0  0  0  0  0  0  0
   -2.0656    1.1858   -0.0012 H   0  0  0  0  0  0  0  0  0  0  0  0
   -1.2040   -0.6984    0.0000 C   0  0  0  0  0  0  0  0  0  0  0  0
   -2.0796   -1.1905    0.0008 H   0  0  0  0  0  0  0  0  0  0  0  0
    0.0010   -1.3982    0.0009 C   0  0  0  0  0  0  0  0  0  0  0  0
   -0.0040   -2.3948    0.0016 H   0  0  0  0  0  0  0  0  0  0  0  0
    1.2040   -0.7004   -0.0000 C   0  0  0  0  0  0  0  0  0  0  0  0
    2.0845   -1.1962    0.0009 H   0  0  0  0  0  0  0  0  0  0  0  0
    1.1980    0.6945   -0.0002 C   0  0  0  0  0  0  0  0  0  0  0  0
    2.0661    1.1909   -0.0009 H   0  0  0  0  0  0  0  0  0  0  0  0
  1  5  1  0
  5  6  1  0
  5  7  2  0
  1  2  1  0
  1  3  1  0
  1  4  1  0
  8 12  1  0
 12 13  2  0
 13 15  1  0
 15 17  2  0
 17 19  1  0
 19 21  2  0
 21 12  1  0
  8  9  1  0
  8 10  1  0
  8 11  1  0
 13 14  1  0
 15 16  1  0
 17 18  1  0
 19 20  1  0
 21 22  1  0
M  CHG  1   6  -1
M  END
>  <PDB_ID>  (501) 
pdb1ihn

>  <RESIDUE_NAME>  (501) 
GLU   PHE

>  <FRAG_NAME>  (501) 
ACET   MBZ

>  <FRAG_ATOM_NUM>  (501) 
fragi: 7  fragj: 15

>  <atom.prop.CHAIN_ID>  (501) 
A A A A A A A Z Z Z Z Z Z Z Z Z Z Z Z Z Z Z

>  <atom.prop.IS_HEAVY_ATOM>  (501) 
1 0 0 0 1 1 1 1 0 0 0 1 1 0 1 0 1 0 1 0 1 0

>  <DIFUSE_FUNC_ATOM>  (501) 
atom 6   atom 7   

>  <FINAL_SINGLE_POINT_ENERGY>  (501) 
0

>  <NONCOV_INTER_ENERGY_QM>  (501) 
0

>  <FF_Energy>  (501) 
3.66

>  <QM_Energy>  (501) 
-2.95

>  <source>  (501) 
ACET_MBZ_00

>  <Index>  (501) 
18173

$$$$
ACET-pdb2j6r-B-GLU-168:MBZ-pdb2j6r-B-PHE-151
     RDKit          3D

 22 21  0  0  0  0  0  0  0  0999 V2000
    3.2030    5.0408   -1.7142 C   0  0  0  0  0  0  0  0  0  0  0  0
    4.1577    4.9731   -1.9538 H   0  0  0  0  0  0  0  0  0  0  0  0
    3.0373    4.7299   -0.7922 H   0  0  0  0  0  0  0  0  0  0  0  0
    2.9155    6.0905   -1.7737 H   0  0  0  0  0  0  0  0  0  0  0  0
    2.4283    4.1009   -2.6572 C   0  0  0  0  0  0  0  0  0  0  0  0
    1.8255    4.5860   -3.6267 O   0  0  0  0  0  1  0  0  0  0  0  0
    2.3825    2.8561   -2.3913 O   0  0  0  0  0  0  0  0  0  0  0  0
   -0.0146    2.9335    0.0067 C   0  0  0  0  0  0  0  0  0  0  0  0
   -0.8182    3.2317   -0.4809 H   0  0  0  0  0  0  0  0  0  0  0  0
    0.8139    3.2478   -0.4245 H   0  0  0  0  0  0  0  0  0  0  0  0
   -0.0526    3.3657    1.0066 H   0  0  0  0  0  0  0  0  0  0  0  0
    0.0002    1.4170   -0.0033 C   0  0  0  0  0  0  0  0  0  0  0  0
   -1.2034    0.6875    0.0051 C   0  0  0  0  0  0  0  0  0  0  0  0
   -2.0713    1.1729    0.0130 H   0  0  0  0  0  0  0  0  0  0  0  0
   -1.2060   -0.7168   -0.0000 C   0  0  0  0  0  0  0  0  0  0  0  0
   -2.0770   -1.2091   -0.0019 H   0  0  0  0  0  0  0  0  0  0  0  0
    0.0065   -1.4101   -0.0007 C   0  0  0  0  0  0  0  0  0  0  0  0
    0.0100   -2.4039   -0.0025 H   0  0  0  0  0  0  0  0  0  0  0  0
    1.2060   -0.6970    0.0000 C   0  0  0  0  0  0  0  0  0  0  0  0
    2.0931   -1.1794    0.0032 H   0  0  0  0  0  0  0  0  0  0  0  0
    1.1967    0.7195   -0.0010 C   0  0  0  0  0  0  0  0  0  0  0  0
    2.0651    1.2054   -0.0008 H   0  0  0  0  0  0  0  0  0  0  0  0
  1  5  1  0
  5  6  1  0
  5  7  2  0
  1  2  1  0
  1  3  1  0
  1  4  1  0
  8 12  1  0
 12 13  2  0
 13 15  1  0
 15 17  2  0
 17 19  1  0
 19 21  2  0
 21 12  1  0
  8  9  1  0
  8 10  1  0
  8 11  1  0
 13 14  1  0
 15 16  1  0
 17 18  1  0
 19 20  1  0
 21 22  1  0
M  CHG  1   6  -1
M  END
>  <PDB_ID>  (502) 
pdb2j6r

>  <RESIDUE_NAME>  (502) 
GLU   PHE

>  <FRAG_NAME>  (502) 
ACET   MBZ

>  <FRAG_ATOM_NUM>  (502) 
fragi: 7  fragj: 15

>  <atom.prop.CHAIN_ID>  (502) 
A A A A A A A Z Z Z Z Z Z Z Z Z Z Z Z Z Z Z

>  <atom.prop.IS_HEAVY_ATOM>  (502) 
1 0 0 0 1 1 1 1 0 0 0 1 1 0 1 0 1 0 1 0 1 0

>  <DIFUSE_FUNC_ATOM>  (502) 
atom 6   atom 7   

>  <FINAL_SINGLE_POINT_ENERGY>  (502) 
0

>  <NONCOV_INTER_ENERGY_QM>  (502) 
0

>  <FF_Energy>  (502) 
-1.85

>  <QM_Energy>  (502) 
-5.44

>  <source>  (502) 
ACET_MBZ_00

>  <Index>  (502) 
18276

$$$$
ACET-pdb1ile-A-GLU-156:MBZ-pdb1ile-A-PHE-473
     RDKit          3D

 22 21  0  0  0  0  0  0  0  0999 V2000
    1.1645    0.0560   -3.9554 C   0  0  0  0  0  0  0  0  0  0  0  0
    1.2589    0.1496   -4.9349 H   0  0  0  0  0  0  0  0  0  0  0  0
    0.2487    0.2791   -3.6584 H   0  0  0  0  0  0  0  0  0  0  0  0
    1.3685   -0.9813   -3.6900 H   0  0  0  0  0  0  0  0  0  0  0  0
    2.1053    1.0461   -3.3105 C   0  0  0  0  0  0  0  0  0  0  0  0
    3.3154    0.7547   -3.2073 O   0  0  0  0  0  1  0  0  0  0  0  0
    1.6360    2.1314   -2.9203 O   0  0  0  0  0  0  0  0  0  0  0  0
    0.0206    2.9500   -0.0086 C   0  0  0  0  0  0  0  0  0  0  0  0
    0.8949    3.2318   -0.3724 H   0  0  0  0  0  0  0  0  0  0  0  0
   -0.0961    3.2517    0.9260 H   0  0  0  0  0  0  0  0  0  0  0  0
   -0.7579    3.4191   -0.6101 H   0  0  0  0  0  0  0  0  0  0  0  0
    0.0007    1.4121   -0.0006 C   0  0  0  0  0  0  0  0  0  0  0  0
   -1.1916    0.6972    0.0017 C   0  0  0  0  0  0  0  0  0  0  0  0
   -2.0631    1.1799    0.0031 H   0  0  0  0  0  0  0  0  0  0  0  0
   -1.1947   -0.7048   -0.0000 C   0  0  0  0  0  0  0  0  0  0  0  0
   -2.0770   -1.1897    0.0015 H   0  0  0  0  0  0  0  0  0  0  0  0
   -0.0033   -1.3986   -0.0014 C   0  0  0  0  0  0  0  0  0  0  0  0
   -0.0034   -2.3977   -0.0041 H   0  0  0  0  0  0  0  0  0  0  0  0
    1.1947   -0.7009    0.0000 C   0  0  0  0  0  0  0  0  0  0  0  0
    2.0788   -1.1971    0.0027 H   0  0  0  0  0  0  0  0  0  0  0  0
    1.1942    0.6949    0.0003 C   0  0  0  0  0  0  0  0  0  0  0  0
    2.0658    1.1862    0.0005 H   0  0  0  0  0  0  0  0  0  0  0  0
  1  5  1  0
  5  6  1  0
  5  7  2  0
  1  2  1  0
  1  3  1  0
  1  4  1  0
  8 12  1  0
 12 13  2  0
 13 15  1  0
 15 17  2  0
 17 19  1  0
 19 21  2  0
 21 12  1  0
  8  9  1  0
  8 10  1  0
  8 11  1  0
 13 14  1  0
 15 16  1  0
 17 18  1  0
 19 20  1  0
 21 22  1  0
M  CHG  1   6  -1
M  END
>  <PDB_ID>  (503) 
pdb1ile

>  <RESIDUE_NAME>  (503) 
GLU   PHE

>  <FRAG_NAME>  (503) 
ACET   MBZ

>  <FRAG_ATOM_NUM>  (503) 
fragi: 7  fragj: 15

>  <atom.prop.CHAIN_ID>  (503) 
A A A A A A A Z Z Z Z Z Z Z Z Z Z Z Z Z Z Z

>  <atom.prop.IS_HEAVY_ATOM>  (503) 
1 0 0 0 1 1 1 1 0 0 0 1 1 0 1 0 1 0 1 0 1 0

>  <DIFUSE_FUNC_ATOM>  (503) 
atom 6   atom 7   

>  <FINAL_SINGLE_POINT_ENERGY>  (503) 
0

>  <NONCOV_INTER_ENERGY_QM>  (503) 
0

>  <FF_Energy>  (503) 
-0.63

>  <QM_Energy>  (503) 
-5.09

>  <source>  (503) 
ACET_MBZ_00

>  <Index>  (503) 
18282

$$$$
ACET-pdb1ile-A-ASP-612:MBZ-pdb1ile-A-PHE-760
     RDKit          3D

 22 21  0  0  0  0  0  0  0  0999 V2000
    4.7459    2.9528    0.3004 C   0  0  0  0  0  0  0  0  0  0  0  0
    4.3061    2.9128    1.1934 H   0  0  0  0  0  0  0  0  0  0  0  0
    5.3570    3.7371    0.2546 H   0  0  0  0  0  0  0  0  0  0  0  0
    5.3476    2.0516    0.1828 H   0  0  0  0  0  0  0  0  0  0  0  0
    3.6911    3.0893   -0.7589 C   0  0  0  0  0  0  0  0  0  0  0  0
    3.4021    2.1025   -1.4786 O   0  0  0  0  0  1  0  0  0  0  0  0
    3.1588    4.2106   -0.8799 O   0  0  0  0  0  0  0  0  0  0  0  0
   -0.0067    2.8883   -0.0645 C   0  0  0  0  0  0  0  0  0  0  0  0
    0.9185    3.2105    0.0766 H   0  0  0  0  0  0  0  0  0  0  0  0
   -0.6141    3.2308    0.6385 H   0  0  0  0  0  0  0  0  0  0  0  0
   -0.3517    3.2849   -1.0193 H   0  0  0  0  0  0  0  0  0  0  0  0
   -0.0027    1.4042   -0.0001 C   0  0  0  0  0  0  0  0  0  0  0  0
   -1.1977    0.7011    0.0012 C   0  0  0  0  0  0  0  0  0  0  0  0
   -2.0644    1.1876    0.0022 H   0  0  0  0  0  0  0  0  0  0  0  0
   -1.1996   -0.6939   -0.0000 C   0  0  0  0  0  0  0  0  0  0  0  0
   -2.0770   -1.1875    0.0032 H   0  0  0  0  0  0  0  0  0  0  0  0
    0.0036   -1.3993   -0.0039 C   0  0  0  0  0  0  0  0  0  0  0  0
   -0.0091   -2.3961   -0.0103 H   0  0  0  0  0  0  0  0  0  0  0  0
    1.1996   -0.7073   -0.0000 C   0  0  0  0  0  0  0  0  0  0  0  0
    2.0840   -1.1978    0.0028 H   0  0  0  0  0  0  0  0  0  0  0  0
    1.1968    0.6952    0.0028 C   0  0  0  0  0  0  0  0  0  0  0  0
    2.0643    1.1865    0.0059 H   0  0  0  0  0  0  0  0  0  0  0  0
  1  5  1  0
  5  6  1  0
  5  7  2  0
  1  2  1  0
  1  3  1  0
  1  4  1  0
  8 12  1  0
 12 13  2  0
 13 15  1  0
 15 17  2  0
 17 19  1  0
 19 21  2  0
 21 12  1  0
  8  9  1  0
  8 10  1  0
  8 11  1  0
 13 14  1  0
 15 16  1  0
 17 18  1  0
 19 20  1  0
 21 22  1  0
M  CHG  1   6  -1
M  END
>  <PDB_ID>  (504) 
pdb1ile

>  <RESIDUE_NAME>  (504) 
ASP   PHE

>  <FRAG_NAME>  (504) 
ACET   MBZ

>  <FRAG_ATOM_NUM>  (504) 
fragi: 7  fragj: 15

>  <atom.prop.CHAIN_ID>  (504) 
A A A A A A A Z Z Z Z Z Z Z Z Z Z Z Z Z Z Z

>  <atom.prop.IS_HEAVY_ATOM>  (504) 
1 0 0 0 1 1 1 1 0 0 0 1 1 0 1 0 1 0 1 0 1 0

>  <DIFUSE_FUNC_ATOM>  (504) 
atom 6   atom 7   

>  <FINAL_SINGLE_POINT_ENERGY>  (504) 
0

>  <NONCOV_INTER_ENERGY_QM>  (504) 
0

>  <FF_Energy>  (504) 
0.61

>  <QM_Energy>  (504) 
-6.77

>  <source>  (504) 
ACET_MBZ_00

>  <Index>  (504) 
18284

$$$$
ACET-pdb1ii6-B-GLU-118:MBZ-pdb1ii6-B-PHE-113
     RDKit          3D

 22 21  0  0  0  0  0  0  0  0999 V2000
   -5.4009    1.2378    0.7119 C   0  0  0  0  0  0  0  0  0  0  0  0
   -6.2751    1.6716    0.6050 H   0  0  0  0  0  0  0  0  0  0  0  0
   -4.7672    1.7922    1.2180 H   0  0  0  0  0  0  0  0  0  0  0  0
   -5.5456    0.3002    1.2486 H   0  0  0  0  0  0  0  0  0  0  0  0
   -4.8206    1.0282   -0.6721 C   0  0  0  0  0  0  0  0  0  0  0  0
   -5.2302    0.0611   -1.3544 O   0  0  0  0  0  1  0  0  0  0  0  0
   -3.9608    1.8368   -1.0821 O   0  0  0  0  0  0  0  0  0  0  0  0
   -0.0062    2.9188    0.0557 C   0  0  0  0  0  0  0  0  0  0  0  0
   -0.6546    3.2468   -0.6104 H   0  0  0  0  0  0  0  0  0  0  0  0
    0.9078    3.2359   -0.1335 H   0  0  0  0  0  0  0  0  0  0  0  0
   -0.2998    3.3177    1.0267 H   0  0  0  0  0  0  0  0  0  0  0  0
   -0.0001    1.4110    0.0008 C   0  0  0  0  0  0  0  0  0  0  0  0
   -1.2047    0.6964    0.0009 C   0  0  0  0  0  0  0  0  0  0  0  0
   -2.0687    1.1854    0.0005 H   0  0  0  0  0  0  0  0  0  0  0  0
   -1.2088   -0.7017   -0.0000 C   0  0  0  0  0  0  0  0  0  0  0  0
   -2.0813   -1.1969    0.0009 H   0  0  0  0  0  0  0  0  0  0  0  0
    0.0048   -1.4059    0.0001 C   0  0  0  0  0  0  0  0  0  0  0  0
   -0.0015   -2.3997   -0.0003 H   0  0  0  0  0  0  0  0  0  0  0  0
    1.2088   -0.7028    0.0000 C   0  0  0  0  0  0  0  0  0  0  0  0
    2.0911   -1.1922    0.0031 H   0  0  0  0  0  0  0  0  0  0  0  0
    1.2001    0.7030   -0.0018 C   0  0  0  0  0  0  0  0  0  0  0  0
    2.0681    1.1950   -0.0054 H   0  0  0  0  0  0  0  0  0  0  0  0
  1  5  1  0
  5  6  1  0
  5  7  2  0
  1  2  1  0
  1  3  1  0
  1  4  1  0
  8 12  1  0
 12 13  2  0
 13 15  1  0
 15 17  2  0
 17 19  1  0
 19 21  2  0
 21 12  1  0
  8  9  1  0
  8 10  1  0
  8 11  1  0
 13 14  1  0
 15 16  1  0
 17 18  1  0
 19 20  1  0
 21 22  1  0
M  CHG  1   6  -1
M  END
>  <PDB_ID>  (505) 
pdb1ii6

>  <RESIDUE_NAME>  (505) 
GLU   PHE

>  <FRAG_NAME>  (505) 
ACET   MBZ

>  <FRAG_ATOM_NUM>  (505) 
fragi: 7  fragj: 15

>  <atom.prop.CHAIN_ID>  (505) 
A A A A A A A Z Z Z Z Z Z Z Z Z Z Z Z Z Z Z

>  <atom.prop.IS_HEAVY_ATOM>  (505) 
1 0 0 0 1 1 1 1 0 0 0 1 1 0 1 0 1 0 1 0 1 0

>  <DIFUSE_FUNC_ATOM>  (505) 
atom 6   atom 7   

>  <FINAL_SINGLE_POINT_ENERGY>  (505) 
0

>  <NONCOV_INTER_ENERGY_QM>  (505) 
0

>  <FF_Energy>  (505) 
-1.3

>  <QM_Energy>  (505) 
-6.36

>  <source>  (505) 
ACET_MBZ_00

>  <Index>  (505) 
18294

$$$$
ACET-pdb2jam-B-GLU-89:MBZ-pdb2jam-E-PHE-17
     RDKit          3D

 22 21  0  0  0  0  0  0  0  0999 V2000
   -3.3910   -4.1418   -1.1668 C   0  0  0  0  0  0  0  0  0  0  0  0
   -4.2597   -4.4922   -0.8480 H   0  0  0  0  0  0  0  0  0  0  0  0
   -3.1134   -4.5852   -2.0066 H   0  0  0  0  0  0  0  0  0  0  0  0
   -3.4861   -3.0708   -1.3459 H   0  0  0  0  0  0  0  0  0  0  0  0
   -2.3572   -4.4932   -0.1162 C   0  0  0  0  0  0  0  0  0  0  0  0
   -1.7219   -3.5800    0.4587 O   0  0  0  0  0  1  0  0  0  0  0  0
   -2.1695   -5.7050    0.1352 O   0  0  0  0  0  0  0  0  0  0  0  0
    0.0409    2.8447    0.0173 C   0  0  0  0  0  0  0  0  0  0  0  0
   -0.0521    3.1645   -0.9170 H   0  0  0  0  0  0  0  0  0  0  0  0
    0.9058    3.1353    0.4060 H   0  0  0  0  0  0  0  0  0  0  0  0
   -0.7571    3.2984    0.6051 H   0  0  0  0  0  0  0  0  0  0  0  0
    0.0074    1.3629    0.0091 C   0  0  0  0  0  0  0  0  0  0  0  0
   -1.1837    0.6663    0.0010 C   0  0  0  0  0  0  0  0  0  0  0  0
   -2.0447    1.1778   -0.0053 H   0  0  0  0  0  0  0  0  0  0  0  0
   -1.1738   -0.6631   -0.0000 C   0  0  0  0  0  0  0  0  0  0  0  0
   -2.0583   -1.1829    0.0054 H   0  0  0  0  0  0  0  0  0  0  0  0
   -0.0029   -1.3390   -0.0059 C   0  0  0  0  0  0  0  0  0  0  0  0
   -0.0154   -2.3575   -0.0153 H   0  0  0  0  0  0  0  0  0  0  0  0
    1.1738   -0.6812    0.0000 C   0  0  0  0  0  0  0  0  0  0  0  0
    2.0566   -1.2021    0.0087 H   0  0  0  0  0  0  0  0  0  0  0  0
    1.1792    0.6542   -0.0042 C   0  0  0  0  0  0  0  0  0  0  0  0
    2.0549    1.1645   -0.0183 H   0  0  0  0  0  0  0  0  0  0  0  0
  1  5  1  0
  5  6  1  0
  5  7  2  0
  1  2  1  0
  1  3  1  0
  1  4  1  0
  8 12  1  0
 12 13  2  0
 13 15  1  0
 15 17  2  0
 17 19  1  0
 19 21  2  0
 21 12  1  0
  8  9  1  0
  8 10  1  0
  8 11  1  0
 13 14  1  0
 15 16  1  0
 17 18  1  0
 19 20  1  0
 21 22  1  0
M  CHG  1   6  -1
M  END
>  <PDB_ID>  (506) 
pdb2jam

>  <RESIDUE_NAME>  (506) 
GLU   PHE

>  <FRAG_NAME>  (506) 
ACET   MBZ

>  <FRAG_ATOM_NUM>  (506) 
fragi: 7  fragj: 15

>  <atom.prop.CHAIN_ID>  (506) 
A A A A A A A Z Z Z Z Z Z Z Z Z Z Z Z Z Z Z

>  <atom.prop.IS_HEAVY_ATOM>  (506) 
1 0 0 0 1 1 1 1 0 0 0 1 1 0 1 0 1 0 1 0 1 0

>  <DIFUSE_FUNC_ATOM>  (506) 
atom 6   atom 7   

>  <FINAL_SINGLE_POINT_ENERGY>  (506) 
0

>  <NONCOV_INTER_ENERGY_QM>  (506) 
0

>  <FF_Energy>  (506) 
1.33

>  <QM_Energy>  (506) 
-5.04

>  <source>  (506) 
ACET_MBZ_00

>  <Index>  (506) 
18312

$$$$
ACET-pdb2jd5-A-ASP-615:MBZ-pdb2jd5-A-PHE-643
     RDKit          3D

 22 21  0  0  0  0  0  0  0  0999 V2000
    3.3260   -3.2638   -0.1223 C   0  0  0  0  0  0  0  0  0  0  0  0
    3.4789   -3.3761    0.8518 H   0  0  0  0  0  0  0  0  0  0  0  0
    2.7277   -2.4918   -0.2971 H   0  0  0  0  0  0  0  0  0  0  0  0
    4.2872   -3.0632   -0.5955 H   0  0  0  0  0  0  0  0  0  0  0  0
    2.6668   -4.5226   -0.6590 C   0  0  0  0  0  0  0  0  0  0  0  0
    3.3894   -5.4744   -1.0337 O   0  0  0  0  0  1  0  0  0  0  0  0
    1.4215   -4.5646   -0.7010 O   0  0  0  0  0  0  0  0  0  0  0  0
    0.0021    2.9015    0.0150 C   0  0  0  0  0  0  0  0  0  0  0  0
   -0.7654    3.2167   -0.5236 H   0  0  0  0  0  0  0  0  0  0  0  0
    0.8601    3.2118   -0.3668 H   0  0  0  0  0  0  0  0  0  0  0  0
   -0.0930    3.3312    1.0123 H   0  0  0  0  0  0  0  0  0  0  0  0
   -0.0002    1.4028   -0.0000 C   0  0  0  0  0  0  0  0  0  0  0  0
   -1.1955    0.6951    0.0004 C   0  0  0  0  0  0  0  0  0  0  0  0
   -2.0633    1.1840    0.0002 H   0  0  0  0  0  0  0  0  0  0  0  0
   -1.2009   -0.6975    0.0000 C   0  0  0  0  0  0  0  0  0  0  0  0
   -2.0782   -1.1896    0.0009 H   0  0  0  0  0  0  0  0  0  0  0  0
    0.0001   -1.3945    0.0004 C   0  0  0  0  0  0  0  0  0  0  0  0
   -0.0046   -2.3934    0.0005 H   0  0  0  0  0  0  0  0  0  0  0  0
    1.2009   -0.6997    0.0000 C   0  0  0  0  0  0  0  0  0  0  0  0
    2.0823   -1.1961    0.0019 H   0  0  0  0  0  0  0  0  0  0  0  0
    1.1956    0.6939   -0.0007 C   0  0  0  0  0  0  0  0  0  0  0  0
    2.0649    1.1887   -0.0025 H   0  0  0  0  0  0  0  0  0  0  0  0
  1  5  1  0
  5  6  1  0
  5  7  2  0
  1  2  1  0
  1  3  1  0
  1  4  1  0
  8 12  1  0
 12 13  2  0
 13 15  1  0
 15 17  2  0
 17 19  1  0
 19 21  2  0
 21 12  1  0
  8  9  1  0
  8 10  1  0
  8 11  1  0
 13 14  1  0
 15 16  1  0
 17 18  1  0
 19 20  1  0
 21 22  1  0
M  CHG  1   6  -1
M  END
>  <PDB_ID>  (507) 
pdb2jd5

>  <RESIDUE_NAME>  (507) 
ASP   PHE

>  <FRAG_NAME>  (507) 
ACET   MBZ

>  <FRAG_ATOM_NUM>  (507) 
fragi: 7  fragj: 15

>  <atom.prop.CHAIN_ID>  (507) 
A A A A A A A Z Z Z Z Z Z Z Z Z Z Z Z Z Z Z

>  <atom.prop.IS_HEAVY_ATOM>  (507) 
1 0 0 0 1 1 1 1 0 0 0 1 1 0 1 0 1 0 1 0 1 0

>  <DIFUSE_FUNC_ATOM>  (507) 
atom 6   atom 7   

>  <FINAL_SINGLE_POINT_ENERGY>  (507) 
0

>  <NONCOV_INTER_ENERGY_QM>  (507) 
0

>  <FF_Energy>  (507) 
36.14

>  <QM_Energy>  (507) 
0.63

>  <source>  (507) 
ACET_MBZ_00

>  <Index>  (507) 
18389

$$$$
ACET-pdb2jd5-B-GLU-675:MBZ-pdb2jd5-B-PHE-671
     RDKit          3D

 22 21  0  0  0  0  0  0  0  0999 V2000
    4.2062    1.7470   -0.9211 C   0  0  0  0  0  0  0  0  0  0  0  0
    3.7195    1.5254   -0.0932 H   0  0  0  0  0  0  0  0  0  0  0  0
    3.6658    1.5567   -1.7242 H   0  0  0  0  0  0  0  0  0  0  0  0
    4.4301    2.8137   -0.9066 H   0  0  0  0  0  0  0  0  0  0  0  0
    5.4437    0.8402   -0.9793 C   0  0  0  0  0  0  0  0  0  0  0  0
    6.1244    0.7892   -2.0313 O   0  0  0  0  0  1  0  0  0  0  0  0
    5.7337    0.1711    0.0402 O   0  0  0  0  0  0  0  0  0  0  0  0
    0.0095    2.9102    0.0192 C   0  0  0  0  0  0  0  0  0  0  0  0
   -0.7331    3.2268   -0.5500 H   0  0  0  0  0  0  0  0  0  0  0  0
    0.8844    3.2158   -0.3236 H   0  0  0  0  0  0  0  0  0  0  0  0
   -0.1260    3.3424    1.0107 H   0  0  0  0  0  0  0  0  0  0  0  0
    0.0013    1.4011    0.0009 C   0  0  0  0  0  0  0  0  0  0  0  0
   -1.1946    0.6937    0.0003 C   0  0  0  0  0  0  0  0  0  0  0  0
   -2.0618    1.1822   -0.0011 H   0  0  0  0  0  0  0  0  0  0  0  0
   -1.1999   -0.7005    0.0000 C   0  0  0  0  0  0  0  0  0  0  0  0
   -2.0775   -1.1913    0.0014 H   0  0  0  0  0  0  0  0  0  0  0  0
   -0.0010   -1.3932   -0.0004 C   0  0  0  0  0  0  0  0  0  0  0  0
   -0.0002   -2.3910   -0.0019 H   0  0  0  0  0  0  0  0  0  0  0  0
    1.1999   -0.6927   -0.0000 C   0  0  0  0  0  0  0  0  0  0  0  0
    2.0810   -1.1926    0.0023 H   0  0  0  0  0  0  0  0  0  0  0  0
    1.1943    0.6916   -0.0008 C   0  0  0  0  0  0  0  0  0  0  0  0
    2.0638    1.1904   -0.0029 H   0  0  0  0  0  0  0  0  0  0  0  0
  1  5  1  0
  5  6  1  0
  5  7  2  0
  1  2  1  0
  1  3  1  0
  1  4  1  0
  8 12  1  0
 12 13  2  0
 13 15  1  0
 15 17  2  0
 17 19  1  0
 19 21  2  0
 21 12  1  0
  8  9  1  0
  8 10  1  0
  8 11  1  0
 13 14  1  0
 15 16  1  0
 17 18  1  0
 19 20  1  0
 21 22  1  0
M  CHG  1   6  -1
M  END
>  <PDB_ID>  (508) 
pdb2jd5

>  <RESIDUE_NAME>  (508) 
GLU   PHE

>  <FRAG_NAME>  (508) 
ACET   MBZ

>  <FRAG_ATOM_NUM>  (508) 
fragi: 7  fragj: 15

>  <atom.prop.CHAIN_ID>  (508) 
A A A A A A A Z Z Z Z Z Z Z Z Z Z Z Z Z Z Z

>  <atom.prop.IS_HEAVY_ATOM>  (508) 
1 0 0 0 1 1 1 1 0 0 0 1 1 0 1 0 1 0 1 0 1 0

>  <DIFUSE_FUNC_ATOM>  (508) 
atom 6   atom 7   

>  <FINAL_SINGLE_POINT_ENERGY>  (508) 
0

>  <NONCOV_INTER_ENERGY_QM>  (508) 
0

>  <FF_Energy>  (508) 
7.36

>  <QM_Energy>  (508) 
-0.71

>  <source>  (508) 
ACET_MBZ_00

>  <Index>  (508) 
18403

$$$$
ACET-pdb2j2m-A-ASP-369:MBZ-pdb2j2m-C-PHE-307
     RDKit          3D

 22 21  0  0  0  0  0  0  0  0999 V2000
   -0.6943    0.0469    3.7480 C   0  0  0  0  0  0  0  0  0  0  0  0
   -0.5053   -0.2048    4.6889 H   0  0  0  0  0  0  0  0  0  0  0  0
   -0.2149   -0.5523    3.1201 H   0  0  0  0  0  0  0  0  0  0  0  0
   -1.7644   -0.0686    3.5761 H   0  0  0  0  0  0  0  0  0  0  0  0
   -0.1813    1.4937    3.5230 C   0  0  0  0  0  0  0  0  0  0  0  0
    1.0504    1.6704    3.5368 O   0  0  0  0  0  1  0  0  0  0  0  0
   -0.9562    2.4549    3.3156 O   0  0  0  0  0  0  0  0  0  0  0  0
    0.0003    2.9139   -0.0299 C   0  0  0  0  0  0  0  0  0  0  0  0
    0.7262    3.2278    0.5591 H   0  0  0  0  0  0  0  0  0  0  0  0
   -0.8827    3.2256    0.2795 H   0  0  0  0  0  0  0  0  0  0  0  0
    0.1721    3.3298   -1.0227 H   0  0  0  0  0  0  0  0  0  0  0  0
   -0.0014    1.4069   -0.0043 C   0  0  0  0  0  0  0  0  0  0  0  0
   -1.2012    0.6916    0.0010 C   0  0  0  0  0  0  0  0  0  0  0  0
   -2.0670    1.1834    0.0043 H   0  0  0  0  0  0  0  0  0  0  0  0
   -1.2051   -0.6980    0.0000 C   0  0  0  0  0  0  0  0  0  0  0  0
   -2.0762   -1.1964   -0.0067 H   0  0  0  0  0  0  0  0  0  0  0  0
    0.0065   -1.3955    0.0108 C   0  0  0  0  0  0  0  0  0  0  0  0
   -0.0036   -2.3951    0.0262 H   0  0  0  0  0  0  0  0  0  0  0  0
    1.2051   -0.7030   -0.0000 C   0  0  0  0  0  0  0  0  0  0  0  0
    2.0874   -1.1931   -0.0006 H   0  0  0  0  0  0  0  0  0  0  0  0
    1.1962    0.6979   -0.0075 C   0  0  0  0  0  0  0  0  0  0  0  0
    2.0654    1.1916   -0.0164 H   0  0  0  0  0  0  0  0  0  0  0  0
  1  5  1  0
  5  6  1  0
  5  7  2  0
  1  2  1  0
  1  3  1  0
  1  4  1  0
  8 12  1  0
 12 13  2  0
 13 15  1  0
 15 17  2  0
 17 19  1  0
 19 21  2  0
 21 12  1  0
  8  9  1  0
  8 10  1  0
  8 11  1  0
 13 14  1  0
 15 16  1  0
 17 18  1  0
 19 20  1  0
 21 22  1  0
M  CHG  1   6  -1
M  END
>  <PDB_ID>  (509) 
pdb2j2m

>  <RESIDUE_NAME>  (509) 
ASP   PHE

>  <FRAG_NAME>  (509) 
ACET   MBZ

>  <FRAG_ATOM_NUM>  (509) 
fragi: 7  fragj: 15

>  <atom.prop.CHAIN_ID>  (509) 
A A A A A A A Z Z Z Z Z Z Z Z Z Z Z Z Z Z Z

>  <atom.prop.IS_HEAVY_ATOM>  (509) 
1 0 0 0 1 1 1 1 0 0 0 1 1 0 1 0 1 0 1 0 1 0

>  <DIFUSE_FUNC_ATOM>  (509) 
atom 6   atom 7   

>  <FINAL_SINGLE_POINT_ENERGY>  (509) 
0

>  <NONCOV_INTER_ENERGY_QM>  (509) 
0

>  <FF_Energy>  (509) 
0.67

>  <QM_Energy>  (509) 
-4.85

>  <source>  (509) 
ACET_MBZ_00

>  <Index>  (509) 
18426

$$$$
ACET-pdb1iq4-A-ASP-163:MBZ-pdb1iq4-A-PHE-122
     RDKit          3D

 22 21  0  0  0  0  0  0  0  0999 V2000
    1.0714    2.8037   -3.6367 C   0  0  0  0  0  0  0  0  0  0  0  0
    0.6979    3.0592   -4.5220 H   0  0  0  0  0  0  0  0  0  0  0  0
    0.4525    2.1850   -3.1654 H   0  0  0  0  0  0  0  0  0  0  0  0
    1.9985    2.2602   -3.8193 H   0  0  0  0  0  0  0  0  0  0  0  0
    1.2714    4.0402   -2.8042 C   0  0  0  0  0  0  0  0  0  0  0  0
    2.3975    4.2690   -2.3148 O   0  0  0  0  0  1  0  0  0  0  0  0
    0.2916    4.7950   -2.6370 O   0  0  0  0  0  0  0  0  0  0  0  0
   -0.0126    2.9077   -0.0643 C   0  0  0  0  0  0  0  0  0  0  0  0
   -0.7232    3.1890   -0.6907 H   0  0  0  0  0  0  0  0  0  0  0  0
    0.8781    3.2057   -0.3709 H   0  0  0  0  0  0  0  0  0  0  0  0
   -0.2094    3.3860    0.8952 H   0  0  0  0  0  0  0  0  0  0  0  0
   -0.0095    1.4097   -0.0020 C   0  0  0  0  0  0  0  0  0  0  0  0
   -1.1977    0.6909    0.0009 C   0  0  0  0  0  0  0  0  0  0  0  0
   -2.0716    1.1716    0.0024 H   0  0  0  0  0  0  0  0  0  0  0  0
   -1.2021   -0.7136   -0.0000 C   0  0  0  0  0  0  0  0  0  0  0  0
   -2.0726   -1.2044    0.0022 H   0  0  0  0  0  0  0  0  0  0  0  0
    0.0090   -1.3979   -0.0015 C   0  0  0  0  0  0  0  0  0  0  0  0
    0.0109   -2.3987   -0.0044 H   0  0  0  0  0  0  0  0  0  0  0  0
    1.2021   -0.6951    0.0000 C   0  0  0  0  0  0  0  0  0  0  0  0
    2.0899   -1.1854    0.0007 H   0  0  0  0  0  0  0  0  0  0  0  0
    1.1982    0.7061    0.0026 C   0  0  0  0  0  0  0  0  0  0  0  0
    2.0609    1.2012    0.0074 H   0  0  0  0  0  0  0  0  0  0  0  0
  1  5  1  0
  5  6  1  0
  5  7  2  0
  1  2  1  0
  1  3  1  0
  1  4  1  0
  8 12  1  0
 12 13  2  0
 13 15  1  0
 15 17  2  0
 17 19  1  0
 19 21  2  0
 21 12  1  0
  8  9  1  0
  8 10  1  0
  8 11  1  0
 13 14  1  0
 15 16  1  0
 17 18  1  0
 19 20  1  0
 21 22  1  0
M  CHG  1   6  -1
M  END
>  <PDB_ID>  (510) 
pdb1iq4

>  <RESIDUE_NAME>  (510) 
ASP   PHE

>  <FRAG_NAME>  (510) 
ACET   MBZ

>  <FRAG_ATOM_NUM>  (510) 
fragi: 7  fragj: 15

>  <atom.prop.CHAIN_ID>  (510) 
A A A A A A A Z Z Z Z Z Z Z Z Z Z Z Z Z Z Z

>  <atom.prop.IS_HEAVY_ATOM>  (510) 
1 0 0 0 1 1 1 1 0 0 0 1 1 0 1 0 1 0 1 0 1 0

>  <DIFUSE_FUNC_ATOM>  (510) 
atom 6   atom 7   

>  <FINAL_SINGLE_POINT_ENERGY>  (510) 
0

>  <NONCOV_INTER_ENERGY_QM>  (510) 
0

>  <FF_Energy>  (510) 
-0.89

>  <QM_Energy>  (510) 
-6.23

>  <source>  (510) 
ACET_MBZ_00

>  <Index>  (510) 
18448

$$$$
ACET-pdb2jao-A-ASP-149:MBZ-pdb2jao-A-PHE-46
     RDKit          3D

 22 21  0  0  0  0  0  0  0  0999 V2000
   -2.8817    4.6054   -4.5741 C   0  0  0  0  0  0  0  0  0  0  0  0
   -1.9318    4.6687   -4.8593 H   0  0  0  0  0  0  0  0  0  0  0  0
   -3.4142    5.3432   -4.9725 H   0  0  0  0  0  0  0  0  0  0  0  0
   -3.2806    3.6642   -4.9524 H   0  0  0  0  0  0  0  0  0  0  0  0
   -2.9439    4.7254   -3.0501 C   0  0  0  0  0  0  0  0  0  0  0  0
   -2.3033    3.9261   -2.3326 O   0  0  0  0  0  1  0  0  0  0  0  0
   -3.6094    5.6602   -2.5586 O   0  0  0  0  0  0  0  0  0  0  0  0
    0.0020    2.9377    0.0038 C   0  0  0  0  0  0  0  0  0  0  0  0
   -0.5903    3.2446   -0.7259 H   0  0  0  0  0  0  0  0  0  0  0  0
    0.9324    3.2394   -0.1369 H   0  0  0  0  0  0  0  0  0  0  0  0
   -0.3549    3.3871    0.9305 H   0  0  0  0  0  0  0  0  0  0  0  0
   -0.0018    1.4216    0.0003 C   0  0  0  0  0  0  0  0  0  0  0  0
   -1.2087    0.7043    0.0004 C   0  0  0  0  0  0  0  0  0  0  0  0
   -2.0740    1.1839   -0.0009 H   0  0  0  0  0  0  0  0  0  0  0  0
   -1.2100   -0.7135    0.0000 C   0  0  0  0  0  0  0  0  0  0  0  0
   -2.0781   -1.2032   -0.0034 H   0  0  0  0  0  0  0  0  0  0  0  0
    0.0133   -1.4144    0.0067 C   0  0  0  0  0  0  0  0  0  0  0  0
    0.0041   -2.4099    0.0157 H   0  0  0  0  0  0  0  0  0  0  0  0
    1.2100   -0.7131   -0.0000 C   0  0  0  0  0  0  0  0  0  0  0  0
    2.0972   -1.1872    0.0013 H   0  0  0  0  0  0  0  0  0  0  0  0
    1.1973    0.7151   -0.0073 C   0  0  0  0  0  0  0  0  0  0  0  0
    2.0674    1.1972   -0.0190 H   0  0  0  0  0  0  0  0  0  0  0  0
  1  5  1  0
  5  6  1  0
  5  7  2  0
  1  2  1  0
  1  3  1  0
  1  4  1  0
  8 12  1  0
 12 13  2  0
 13 15  1  0
 15 17  2  0
 17 19  1  0
 19 21  2  0
 21 12  1  0
  8  9  1  0
  8 10  1  0
  8 11  1  0
 13 14  1  0
 15 16  1  0
 17 18  1  0
 19 20  1  0
 21 22  1  0
M  CHG  1   6  -1
M  END
>  <PDB_ID>  (511) 
pdb2jao

>  <RESIDUE_NAME>  (511) 
ASP   PHE

>  <FRAG_NAME>  (511) 
ACET   MBZ

>  <FRAG_ATOM_NUM>  (511) 
fragi: 7  fragj: 15

>  <atom.prop.CHAIN_ID>  (511) 
A A A A A A A Z Z Z Z Z Z Z Z Z Z Z Z Z Z Z

>  <atom.prop.IS_HEAVY_ATOM>  (511) 
1 0 0 0 1 1 1 1 0 0 0 1 1 0 1 0 1 0 1 0 1 0

>  <DIFUSE_FUNC_ATOM>  (511) 
atom 6   atom 7   

>  <FINAL_SINGLE_POINT_ENERGY>  (511) 
0

>  <NONCOV_INTER_ENERGY_QM>  (511) 
0

>  <FF_Energy>  (511) 
-0.75

>  <QM_Energy>  (511) 
-5.79

>  <source>  (511) 
ACET_MBZ_00

>  <Index>  (511) 
18632

$$$$
ACET-pdb2j2m-B-ASP-369:MBZ-pdb2j2m-D-PHE-307
     RDKit          3D

 22 21  0  0  0  0  0  0  0  0999 V2000
   -0.5951    0.3789    3.7666 C   0  0  0  0  0  0  0  0  0  0  0  0
   -0.3733    0.1602    4.7067 H   0  0  0  0  0  0  0  0  0  0  0  0
   -0.1462   -0.2427    3.1406 H   0  0  0  0  0  0  0  0  0  0  0  0
   -1.6725    0.2761    3.6372 H   0  0  0  0  0  0  0  0  0  0  0  0
   -0.0675    1.8198    3.4725 C   0  0  0  0  0  0  0  0  0  0  0  0
    1.1676    1.9986    3.4378 O   0  0  0  0  0  1  0  0  0  0  0  0
   -0.8494    2.7749    3.2658 O   0  0  0  0  0  0  0  0  0  0  0  0
    0.0016    2.9060   -0.0314 C   0  0  0  0  0  0  0  0  0  0  0  0
    0.7373    3.2273    0.5412 H   0  0  0  0  0  0  0  0  0  0  0  0
   -0.8754    3.2252    0.2863 H   0  0  0  0  0  0  0  0  0  0  0  0
    0.1584    3.3139   -1.0299 H   0  0  0  0  0  0  0  0  0  0  0  0
   -0.0020    1.4062    0.0038 C   0  0  0  0  0  0  0  0  0  0  0  0
   -1.1986    0.6927   -0.0037 C   0  0  0  0  0  0  0  0  0  0  0  0
   -2.0654    1.1836   -0.0133 H   0  0  0  0  0  0  0  0  0  0  0  0
   -1.2011   -0.6934   -0.0000 C   0  0  0  0  0  0  0  0  0  0  0  0
   -2.0727   -1.1938    0.0014 H   0  0  0  0  0  0  0  0  0  0  0  0
    0.0095   -1.3933    0.0038 C   0  0  0  0  0  0  0  0  0  0  0  0
   -0.0083   -2.3959    0.0084 H   0  0  0  0  0  0  0  0  0  0  0  0
    1.2011   -0.7114    0.0000 C   0  0  0  0  0  0  0  0  0  0  0  0
    2.0860   -1.1936    0.0016 H   0  0  0  0  0  0  0  0  0  0  0  0
    1.1910    0.6992   -0.0039 C   0  0  0  0  0  0  0  0  0  0  0  0
    2.0627    1.1867   -0.0135 H   0  0  0  0  0  0  0  0  0  0  0  0
  1  5  1  0
  5  6  1  0
  5  7  2  0
  1  2  1  0
  1  3  1  0
  1  4  1  0
  8 12  1  0
 12 13  2  0
 13 15  1  0
 15 17  2  0
 17 19  1  0
 19 21  2  0
 21 12  1  0
  8  9  1  0
  8 10  1  0
  8 11  1  0
 13 14  1  0
 15 16  1  0
 17 18  1  0
 19 20  1  0
 21 22  1  0
M  CHG  1   6  -1
M  END
>  <PDB_ID>  (512) 
pdb2j2m

>  <RESIDUE_NAME>  (512) 
ASP   PHE

>  <FRAG_NAME>  (512) 
ACET   MBZ

>  <FRAG_ATOM_NUM>  (512) 
fragi: 7  fragj: 15

>  <atom.prop.CHAIN_ID>  (512) 
A A A A A A A Z Z Z Z Z Z Z Z Z Z Z Z Z Z Z

>  <atom.prop.IS_HEAVY_ATOM>  (512) 
1 0 0 0 1 1 1 1 0 0 0 1 1 0 1 0 1 0 1 0 1 0

>  <DIFUSE_FUNC_ATOM>  (512) 
atom 6   atom 7   

>  <FINAL_SINGLE_POINT_ENERGY>  (512) 
0

>  <NONCOV_INTER_ENERGY_QM>  (512) 
0

>  <FF_Energy>  (512) 
0.3

>  <QM_Energy>  (512) 
-5.52

>  <source>  (512) 
ACET_MBZ_00

>  <Index>  (512) 
18647

$$$$
ACET-pdb2jif-A-GLU-106:MBZ-pdb2jif-A-PHE-118
     RDKit          3D

 22 21  0  0  0  0  0  0  0  0999 V2000
   -4.4564    4.4399    1.6784 C   0  0  0  0  0  0  0  0  0  0  0  0
   -3.7265    5.0854    1.5569 H   0  0  0  0  0  0  0  0  0  0  0  0
   -4.5673    4.1731    2.6170 H   0  0  0  0  0  0  0  0  0  0  0  0
   -5.3849    4.8897    1.3271 H   0  0  0  0  0  0  0  0  0  0  0  0
   -4.1054    3.2035    0.8935 C   0  0  0  0  0  0  0  0  0  0  0  0
   -3.5824    3.3478   -0.2270 O   0  0  0  0  0  1  0  0  0  0  0  0
   -4.3486    2.0812    1.4003 O   0  0  0  0  0  0  0  0  0  0  0  0
   -0.0131    2.8800    0.0083 C   0  0  0  0  0  0  0  0  0  0  0  0
   -0.7030    3.1906   -0.6309 H   0  0  0  0  0  0  0  0  0  0  0  0
    0.8863    3.1969   -0.2570 H   0  0  0  0  0  0  0  0  0  0  0  0
   -0.2439    3.3108    0.9826 H   0  0  0  0  0  0  0  0  0  0  0  0
   -0.0043    1.3898   -0.0014 C   0  0  0  0  0  0  0  0  0  0  0  0
   -1.1889    0.6839    0.0008 C   0  0  0  0  0  0  0  0  0  0  0  0
   -2.0598    1.1811    0.0022 H   0  0  0  0  0  0  0  0  0  0  0  0
   -1.1954   -0.6848   -0.0000 C   0  0  0  0  0  0  0  0  0  0  0  0
   -2.0698   -1.1890   -0.0047 H   0  0  0  0  0  0  0  0  0  0  0  0
    0.0076   -1.3886    0.0078 C   0  0  0  0  0  0  0  0  0  0  0  0
   -0.0042   -2.3850    0.0183 H   0  0  0  0  0  0  0  0  0  0  0  0
    1.1954   -0.6923    0.0000 C   0  0  0  0  0  0  0  0  0  0  0  0
    2.0828   -1.1861    0.0013 H   0  0  0  0  0  0  0  0  0  0  0  0
    1.1856    0.6920   -0.0073 C   0  0  0  0  0  0  0  0  0  0  0  0
    2.0556    1.1912   -0.0177 H   0  0  0  0  0  0  0  0  0  0  0  0
  1  5  1  0
  5  6  1  0
  5  7  2  0
  1  2  1  0
  1  3  1  0
  1  4  1  0
  8 12  1  0
 12 13  2  0
 13 15  1  0
 15 17  2  0
 17 19  1  0
 19 21  2  0
 21 12  1  0
  8  9  1  0
  8 10  1  0
  8 11  1  0
 13 14  1  0
 15 16  1  0
 17 18  1  0
 19 20  1  0
 21 22  1  0
M  CHG  1   6  -1
M  END
>  <PDB_ID>  (513) 
pdb2jif

>  <RESIDUE_NAME>  (513) 
GLU   PHE

>  <FRAG_NAME>  (513) 
ACET   MBZ

>  <FRAG_ATOM_NUM>  (513) 
fragi: 7  fragj: 15

>  <atom.prop.CHAIN_ID>  (513) 
A A A A A A A Z Z Z Z Z Z Z Z Z Z Z Z Z Z Z

>  <atom.prop.IS_HEAVY_ATOM>  (513) 
1 0 0 0 1 1 1 1 0 0 0 1 1 0 1 0 1 0 1 0 1 0

>  <DIFUSE_FUNC_ATOM>  (513) 
atom 6   atom 7   

>  <FINAL_SINGLE_POINT_ENERGY>  (513) 
0

>  <NONCOV_INTER_ENERGY_QM>  (513) 
0

>  <FF_Energy>  (513) 
-2.91

>  <QM_Energy>  (513) 
-8.29

>  <source>  (513) 
ACET_MBZ_00

>  <Index>  (513) 
18662

$$$$
ACET-pdb2jkf-A-ASP-45:MBZ-pdb2jkf-A-PHE-48
     RDKit          3D

 22 21  0  0  0  0  0  0  0  0999 V2000
   -1.9586    4.1876   -2.3240 C   0  0  0  0  0  0  0  0  0  0  0  0
   -2.1729    3.5756   -3.0720 H   0  0  0  0  0  0  0  0  0  0  0  0
   -1.0985    3.9435   -1.8998 H   0  0  0  0  0  0  0  0  0  0  0  0
   -1.8674    5.1970   -2.7249 H   0  0  0  0  0  0  0  0  0  0  0  0
   -3.0696    4.0722   -1.2707 C   0  0  0  0  0  0  0  0  0  0  0  0
   -3.2326    5.0095   -0.4484 O   0  0  0  0  0  1  0  0  0  0  0  0
   -3.7706    3.0362   -1.2586 O   0  0  0  0  0  0  0  0  0  0  0  0
   -0.0103    2.8876    0.0441 C   0  0  0  0  0  0  0  0  0  0  0  0
   -0.7265    3.2209   -0.5445 H   0  0  0  0  0  0  0  0  0  0  0  0
    0.8768    3.2137   -0.2355 H   0  0  0  0  0  0  0  0  0  0  0  0
   -0.2008    3.2804    1.0429 H   0  0  0  0  0  0  0  0  0  0  0  0
   -0.0074    1.3949   -0.0091 C   0  0  0  0  0  0  0  0  0  0  0  0
   -1.2051    0.6909   -0.0017 C   0  0  0  0  0  0  0  0  0  0  0  0
   -2.0690    1.1839    0.0009 H   0  0  0  0  0  0  0  0  0  0  0  0
   -1.2061   -0.6913   -0.0000 C   0  0  0  0  0  0  0  0  0  0  0  0
   -2.0712   -1.1979    0.0031 H   0  0  0  0  0  0  0  0  0  0  0  0
    0.0151   -1.3864   -0.0002 C   0  0  0  0  0  0  0  0  0  0  0  0
    0.0037   -2.3861   -0.0011 H   0  0  0  0  0  0  0  0  0  0  0  0
    1.2061   -0.6922   -0.0000 C   0  0  0  0  0  0  0  0  0  0  0  0
    2.0912   -1.1907   -0.0065 H   0  0  0  0  0  0  0  0  0  0  0  0
    1.1974    0.6841    0.0110 C   0  0  0  0  0  0  0  0  0  0  0  0
    2.0605    1.1921    0.0323 H   0  0  0  0  0  0  0  0  0  0  0  0
  1  5  1  0
  5  6  1  0
  5  7  2  0
  1  2  1  0
  1  3  1  0
  1  4  1  0
  8 12  1  0
 12 13  2  0
 13 15  1  0
 15 17  2  0
 17 19  1  0
 19 21  2  0
 21 12  1  0
  8  9  1  0
  8 10  1  0
  8 11  1  0
 13 14  1  0
 15 16  1  0
 17 18  1  0
 19 20  1  0
 21 22  1  0
M  CHG  1   6  -1
M  END
>  <PDB_ID>  (514) 
pdb2jkf

>  <RESIDUE_NAME>  (514) 
ASP   PHE

>  <FRAG_NAME>  (514) 
ACET   MBZ

>  <FRAG_ATOM_NUM>  (514) 
fragi: 7  fragj: 15

>  <atom.prop.CHAIN_ID>  (514) 
A A A A A A A Z Z Z Z Z Z Z Z Z Z Z Z Z Z Z

>  <atom.prop.IS_HEAVY_ATOM>  (514) 
1 0 0 0 1 1 1 1 0 0 0 1 1 0 1 0 1 0 1 0 1 0

>  <DIFUSE_FUNC_ATOM>  (514) 
atom 6   atom 7   

>  <FINAL_SINGLE_POINT_ENERGY>  (514) 
0

>  <NONCOV_INTER_ENERGY_QM>  (514) 
0

>  <FF_Energy>  (514) 
14.21

>  <QM_Energy>  (514) 
-2.39

>  <source>  (514) 
ACET_MBZ_00

>  <Index>  (514) 
18751

$$$$
ACET-pdb1itw-B-ASP-379:MBZ-pdb1itw-B-PHE-181
     RDKit          3D

 22 21  0  0  0  0  0  0  0  0999 V2000
   -4.7124    2.9366    1.1030 C   0  0  0  0  0  0  0  0  0  0  0  0
   -4.3003    2.0767    1.3781 H   0  0  0  0  0  0  0  0  0  0  0  0
   -5.3571    2.7966    0.3636 H   0  0  0  0  0  0  0  0  0  0  0  0
   -5.2592    3.3364    1.9570 H   0  0  0  0  0  0  0  0  0  0  0  0
   -3.6257    3.8734    0.6359 C   0  0  0  0  0  0  0  0  0  0  0  0
   -3.8031    4.4916   -0.4294 O   0  0  0  0  0  1  0  0  0  0  0  0
   -2.6077    4.0033    1.3534 O   0  0  0  0  0  0  0  0  0  0  0  0
   -0.0040    2.9110   -0.0525 C   0  0  0  0  0  0  0  0  0  0  0  0
   -0.9468    3.2136   -0.0722 H   0  0  0  0  0  0  0  0  0  0  0  0
    0.4775    3.1916   -0.8709 H   0  0  0  0  0  0  0  0  0  0  0  0
    0.4799    3.3926    0.7971 H   0  0  0  0  0  0  0  0  0  0  0  0
    0.0027    1.4075   -0.0006 C   0  0  0  0  0  0  0  0  0  0  0  0
   -1.1983    0.6987   -0.0000 C   0  0  0  0  0  0  0  0  0  0  0  0
   -2.0634    1.1889   -0.0010 H   0  0  0  0  0  0  0  0  0  0  0  0
   -1.2075   -0.6989   -0.0000 C   0  0  0  0  0  0  0  0  0  0  0  0
   -2.0856   -1.1874    0.0021 H   0  0  0  0  0  0  0  0  0  0  0  0
   -0.0055   -1.4034   -0.0006 C   0  0  0  0  0  0  0  0  0  0  0  0
   -0.0083   -2.3978   -0.0017 H   0  0  0  0  0  0  0  0  0  0  0  0
    1.2075   -0.7026    0.0000 C   0  0  0  0  0  0  0  0  0  0  0  0
    2.0835   -1.1988    0.0014 H   0  0  0  0  0  0  0  0  0  0  0  0
    1.2011    0.6988    0.0012 C   0  0  0  0  0  0  0  0  0  0  0  0
    2.0693    1.1915    0.0019 H   0  0  0  0  0  0  0  0  0  0  0  0
  1  5  1  0
  5  6  1  0
  5  7  2  0
  1  2  1  0
  1  3  1  0
  1  4  1  0
  8 12  1  0
 12 13  2  0
 13 15  1  0
 15 17  2  0
 17 19  1  0
 19 21  2  0
 21 12  1  0
  8  9  1  0
  8 10  1  0
  8 11  1  0
 13 14  1  0
 15 16  1  0
 17 18  1  0
 19 20  1  0
 21 22  1  0
M  CHG  1   6  -1
M  END
>  <PDB_ID>  (515) 
pdb1itw

>  <RESIDUE_NAME>  (515) 
ASP   PHE

>  <FRAG_NAME>  (515) 
ACET   MBZ

>  <FRAG_ATOM_NUM>  (515) 
fragi: 7  fragj: 15

>  <atom.prop.CHAIN_ID>  (515) 
A A A A A A A Z Z Z Z Z Z Z Z Z Z Z Z Z Z Z

>  <atom.prop.IS_HEAVY_ATOM>  (515) 
1 0 0 0 1 1 1 1 0 0 0 1 1 0 1 0 1 0 1 0 1 0

>  <DIFUSE_FUNC_ATOM>  (515) 
atom 6   atom 7   

>  <FINAL_SINGLE_POINT_ENERGY>  (515) 
0

>  <NONCOV_INTER_ENERGY_QM>  (515) 
0

>  <FF_Energy>  (515) 
-1.23

>  <QM_Energy>  (515) 
-6.66

>  <source>  (515) 
ACET_MBZ_00

>  <Index>  (515) 
18766

$$$$
ACET-pdb1itw-C-ASP-379:MBZ-pdb1itw-C-PHE-181
     RDKit          3D

 22 21  0  0  0  0  0  0  0  0999 V2000
   -4.8374    2.9712    0.8351 C   0  0  0  0  0  0  0  0  0  0  0  0
   -4.4270    2.1124    1.1174 H   0  0  0  0  0  0  0  0  0  0  0  0
   -5.4400    2.8334    0.0596 H   0  0  0  0  0  0  0  0  0  0  0  0
   -5.4378    3.3446    1.6645 H   0  0  0  0  0  0  0  0  0  0  0  0
   -3.7458    3.9326    0.4462 C   0  0  0  0  0  0  0  0  0  0  0  0
   -3.9656    4.7298   -0.4879 O   0  0  0  0  0  1  0  0  0  0  0  0
   -2.6777    3.9010    1.0952 O   0  0  0  0  0  0  0  0  0  0  0  0
   -0.0038    2.9026   -0.0221 C   0  0  0  0  0  0  0  0  0  0  0  0
   -0.9427    3.2070   -0.0927 H   0  0  0  0  0  0  0  0  0  0  0  0
    0.5279    3.1999   -0.8024 H   0  0  0  0  0  0  0  0  0  0  0  0
    0.4287    3.3595    0.8681 H   0  0  0  0  0  0  0  0  0  0  0  0
   -0.0002    1.4033   -0.0006 C   0  0  0  0  0  0  0  0  0  0  0  0
   -1.1991    0.6934    0.0009 C   0  0  0  0  0  0  0  0  0  0  0  0
   -2.0650    1.1835    0.0012 H   0  0  0  0  0  0  0  0  0  0  0  0
   -1.2040   -0.6991   -0.0000 C   0  0  0  0  0  0  0  0  0  0  0  0
   -2.0793   -1.1927    0.0012 H   0  0  0  0  0  0  0  0  0  0  0  0
    0.0003   -1.3956   -0.0005 C   0  0  0  0  0  0  0  0  0  0  0  0
   -0.0035   -2.3937   -0.0020 H   0  0  0  0  0  0  0  0  0  0  0  0
    1.2040   -0.6990   -0.0000 C   0  0  0  0  0  0  0  0  0  0  0  0
    2.0839   -1.1951    0.0020 H   0  0  0  0  0  0  0  0  0  0  0  0
    1.1991    0.6970    0.0002 C   0  0  0  0  0  0  0  0  0  0  0  0
    2.0655    1.1921    0.0002 H   0  0  0  0  0  0  0  0  0  0  0  0
  1  5  1  0
  5  6  1  0
  5  7  2  0
  1  2  1  0
  1  3  1  0
  1  4  1  0
  8 12  1  0
 12 13  2  0
 13 15  1  0
 15 17  2  0
 17 19  1  0
 19 21  2  0
 21 12  1  0
  8  9  1  0
  8 10  1  0
  8 11  1  0
 13 14  1  0
 15 16  1  0
 17 18  1  0
 19 20  1  0
 21 22  1  0
M  CHG  1   6  -1
M  END
>  <PDB_ID>  (516) 
pdb1itw

>  <RESIDUE_NAME>  (516) 
ASP   PHE

>  <FRAG_NAME>  (516) 
ACET   MBZ

>  <FRAG_ATOM_NUM>  (516) 
fragi: 7  fragj: 15

>  <atom.prop.CHAIN_ID>  (516) 
A A A A A A A Z Z Z Z Z Z Z Z Z Z Z Z Z Z Z

>  <atom.prop.IS_HEAVY_ATOM>  (516) 
1 0 0 0 1 1 1 1 0 0 0 1 1 0 1 0 1 0 1 0 1 0

>  <DIFUSE_FUNC_ATOM>  (516) 
atom 6   atom 7   

>  <FINAL_SINGLE_POINT_ENERGY>  (516) 
0

>  <NONCOV_INTER_ENERGY_QM>  (516) 
0

>  <FF_Energy>  (516) 
-0.25

>  <QM_Energy>  (516) 
-6.55

>  <source>  (516) 
ACET_MBZ_00

>  <Index>  (516) 
18772

$$$$
ACET-pdb1itw-D-ASP-379:MBZ-pdb1itw-D-PHE-181
     RDKit          3D

 22 21  0  0  0  0  0  0  0  0999 V2000
   -4.6102    2.9915    1.2317 C   0  0  0  0  0  0  0  0  0  0  0  0
   -4.1876    2.1438    1.5275 H   0  0  0  0  0  0  0  0  0  0  0  0
   -5.2642    2.8230    0.5056 H   0  0  0  0  0  0  0  0  0  0  0  0
   -5.1480    3.4146    2.0801 H   0  0  0  0  0  0  0  0  0  0  0  0
   -3.5337    3.9199    0.7161 C   0  0  0  0  0  0  0  0  0  0  0  0
   -3.7025    4.4769   -0.3840 O   0  0  0  0  0  1  0  0  0  0  0  0
   -2.5212    4.1002    1.4237 O   0  0  0  0  0  0  0  0  0  0  0  0
   -0.0032    2.9024   -0.0732 C   0  0  0  0  0  0  0  0  0  0  0  0
   -0.9452    3.2082   -0.0549 H   0  0  0  0  0  0  0  0  0  0  0  0
    0.4405    3.1688   -0.9178 H   0  0  0  0  0  0  0  0  0  0  0  0
    0.5219    3.3909    0.7476 H   0  0  0  0  0  0  0  0  0  0  0  0
   -0.0009    1.4025   -0.0010 C   0  0  0  0  0  0  0  0  0  0  0  0
   -1.1990    0.6969    0.0007 C   0  0  0  0  0  0  0  0  0  0  0  0
   -2.0643    1.1870    0.0013 H   0  0  0  0  0  0  0  0  0  0  0  0
   -1.2041   -0.6964   -0.0000 C   0  0  0  0  0  0  0  0  0  0  0  0
   -2.0787   -1.1909    0.0026 H   0  0  0  0  0  0  0  0  0  0  0  0
    0.0032   -1.3965   -0.0023 C   0  0  0  0  0  0  0  0  0  0  0  0
   -0.0053   -2.3943   -0.0065 H   0  0  0  0  0  0  0  0  0  0  0  0
    1.2041   -0.7012    0.0000 C   0  0  0  0  0  0  0  0  0  0  0  0
    2.0860   -1.1948    0.0015 H   0  0  0  0  0  0  0  0  0  0  0  0
    1.1967    0.6947    0.0026 C   0  0  0  0  0  0  0  0  0  0  0  0
    2.0646    1.1900    0.0068 H   0  0  0  0  0  0  0  0  0  0  0  0
  1  5  1  0
  5  6  1  0
  5  7  2  0
  1  2  1  0
  1  3  1  0
  1  4  1  0
  8 12  1  0
 12 13  2  0
 13 15  1  0
 15 17  2  0
 17 19  1  0
 19 21  2  0
 21 12  1  0
  8  9  1  0
  8 10  1  0
  8 11  1  0
 13 14  1  0
 15 16  1  0
 17 18  1  0
 19 20  1  0
 21 22  1  0
M  CHG  1   6  -1
M  END
>  <PDB_ID>  (517) 
pdb1itw

>  <RESIDUE_NAME>  (517) 
ASP   PHE

>  <FRAG_NAME>  (517) 
ACET   MBZ

>  <FRAG_ATOM_NUM>  (517) 
fragi: 7  fragj: 15

>  <atom.prop.CHAIN_ID>  (517) 
A A A A A A A Z Z Z Z Z Z Z Z Z Z Z Z Z Z Z

>  <atom.prop.IS_HEAVY_ATOM>  (517) 
1 0 0 0 1 1 1 1 0 0 0 1 1 0 1 0 1 0 1 0 1 0

>  <DIFUSE_FUNC_ATOM>  (517) 
atom 6   atom 7   

>  <FINAL_SINGLE_POINT_ENERGY>  (517) 
0

>  <NONCOV_INTER_ENERGY_QM>  (517) 
0

>  <FF_Energy>  (517) 
-1.25

>  <QM_Energy>  (517) 
-6.62

>  <source>  (517) 
ACET_MBZ_00

>  <Index>  (517) 
18778

$$$$
ACET-pdb1iu4-D-GLU-120:MBZ-pdb1iu4-D-PHE-295
     RDKit          3D

 22 21  0  0  0  0  0  0  0  0999 V2000
   -4.5124   -1.6900    1.2324 C   0  0  0  0  0  0  0  0  0  0  0  0
   -5.3172   -1.4361    1.7025 H   0  0  0  0  0  0  0  0  0  0  0  0
   -3.7418   -1.1329    1.4027 H   0  0  0  0  0  0  0  0  0  0  0  0
   -4.2647   -2.7164    1.5030 H   0  0  0  0  0  0  0  0  0  0  0  0
   -4.8088   -1.6268   -0.2626 C   0  0  0  0  0  0  0  0  0  0  0  0
   -3.9306   -1.2077   -1.0173 O   0  0  0  0  0  1  0  0  0  0  0  0
   -5.8919   -2.0182   -0.7083 O   0  0  0  0  0  0  0  0  0  0  0  0
    0.0445    2.9068    0.0824 C   0  0  0  0  0  0  0  0  0  0  0  0
    0.7275    3.1614    0.7514 H   0  0  0  0  0  0  0  0  0  0  0  0
   -0.8549    3.2195    0.3501 H   0  0  0  0  0  0  0  0  0  0  0  0
    0.3001    3.4007   -0.8551 H   0  0  0  0  0  0  0  0  0  0  0  0
    0.0101    1.4003    0.0010 C   0  0  0  0  0  0  0  0  0  0  0  0
   -1.2272    0.7289   -0.0210 C   0  0  0  0  0  0  0  0  0  0  0  0
   -2.0657    1.2232   -0.0512 H   0  0  0  0  0  0  0  0  0  0  0  0
   -1.2292   -0.6787    0.0000 C   0  0  0  0  0  0  0  0  0  0  0  0
   -2.1016   -1.1722   -0.0110 H   0  0  0  0  0  0  0  0  0  0  0  0
   -0.0106   -1.3972    0.0384 C   0  0  0  0  0  0  0  0  0  0  0  0
   -0.0374   -2.3954    0.0932 H   0  0  0  0  0  0  0  0  0  0  0  0
    1.2292   -0.7305   -0.0000 C   0  0  0  0  0  0  0  0  0  0  0  0
    2.0855   -1.2357   -0.0123 H   0  0  0  0  0  0  0  0  0  0  0  0
    1.2277    0.6771   -0.0185 C   0  0  0  0  0  0  0  0  0  0  0  0
    2.0877    1.1718   -0.0460 H   0  0  0  0  0  0  0  0  0  0  0  0
  1  5  1  0
  5  6  1  0
  5  7  2  0
  1  2  1  0
  1  3  1  0
  1  4  1  0
  8 12  1  0
 12 13  2  0
 13 15  1  0
 15 17  2  0
 17 19  1  0
 19 21  2  0
 21 12  1  0
  8  9  1  0
  8 10  1  0
  8 11  1  0
 13 14  1  0
 15 16  1  0
 17 18  1  0
 19 20  1  0
 21 22  1  0
M  CHG  1   6  -1
M  END
>  <PDB_ID>  (518) 
pdb1iu4

>  <RESIDUE_NAME>  (518) 
GLU   PHE

>  <FRAG_NAME>  (518) 
ACET   MBZ

>  <FRAG_ATOM_NUM>  (518) 
fragi: 7  fragj: 15

>  <atom.prop.CHAIN_ID>  (518) 
A A A A A A A Z Z Z Z Z Z Z Z Z Z Z Z Z Z Z

>  <atom.prop.IS_HEAVY_ATOM>  (518) 
1 0 0 0 1 1 1 1 0 0 0 1 1 0 1 0 1 0 1 0 1 0

>  <DIFUSE_FUNC_ATOM>  (518) 
atom 6   atom 7   

>  <FINAL_SINGLE_POINT_ENERGY>  (518) 
0

>  <NONCOV_INTER_ENERGY_QM>  (518) 
0

>  <FF_Energy>  (518) 
2.86

>  <QM_Energy>  (518) 
-4.78

>  <source>  (518) 
ACET_MBZ_00

>  <Index>  (518) 
18798

$$$$
ACET-pdb1iug-B-GLU-131:MBZ-pdb1iug-B-PHE-86
     RDKit          3D

 22 21  0  0  0  0  0  0  0  0999 V2000
   -5.3092    4.2772    1.2966 C   0  0  0  0  0  0  0  0  0  0  0  0
   -5.5419    5.0001    1.9225 H   0  0  0  0  0  0  0  0  0  0  0  0
   -5.7635    3.4332    1.5198 H   0  0  0  0  0  0  0  0  0  0  0  0
   -5.6265    4.5797    0.2987 H   0  0  0  0  0  0  0  0  0  0  0  0
   -3.8089    4.0351    1.4106 C   0  0  0  0  0  0  0  0  0  0  0  0
   -3.0334    5.0114    1.5095 O   0  0  0  0  0  1  0  0  0  0  0  0
   -3.4072    2.8558    1.4143 O   0  0  0  0  0  0  0  0  0  0  0  0
    0.0066    2.9092    0.0738 C   0  0  0  0  0  0  0  0  0  0  0  0
   -0.9112    3.2258   -0.0877 H   0  0  0  0  0  0  0  0  0  0  0  0
    0.6389    3.2456   -0.6017 H   0  0  0  0  0  0  0  0  0  0  0  0
    0.3243    3.2840    1.0467 H   0  0  0  0  0  0  0  0  0  0  0  0
    0.0017    1.4055    0.0005 C   0  0  0  0  0  0  0  0  0  0  0  0
   -1.1956    0.7009   -0.0012 C   0  0  0  0  0  0  0  0  0  0  0  0
   -2.0621    1.1906   -0.0045 H   0  0  0  0  0  0  0  0  0  0  0  0
   -1.2044   -0.6949   -0.0000 C   0  0  0  0  0  0  0  0  0  0  0  0
   -2.0847   -1.1835    0.0007 H   0  0  0  0  0  0  0  0  0  0  0  0
   -0.0062   -1.3991    0.0017 C   0  0  0  0  0  0  0  0  0  0  0  0
   -0.0130   -2.3957    0.0032 H   0  0  0  0  0  0  0  0  0  0  0  0
    1.2044   -0.7046    0.0000 C   0  0  0  0  0  0  0  0  0  0  0  0
    2.0803   -1.2025    0.0007 H   0  0  0  0  0  0  0  0  0  0  0  0
    1.2002    0.6923   -0.0009 C   0  0  0  0  0  0  0  0  0  0  0  0
    2.0688    1.1861   -0.0034 H   0  0  0  0  0  0  0  0  0  0  0  0
  1  5  1  0
  5  6  1  0
  5  7  2  0
  1  2  1  0
  1  3  1  0
  1  4  1  0
  8 12  1  0
 12 13  2  0
 13 15  1  0
 15 17  2  0
 17 19  1  0
 19 21  2  0
 21 12  1  0
  8  9  1  0
  8 10  1  0
  8 11  1  0
 13 14  1  0
 15 16  1  0
 17 18  1  0
 19 20  1  0
 21 22  1  0
M  CHG  1   6  -1
M  END
>  <PDB_ID>  (519) 
pdb1iug

>  <RESIDUE_NAME>  (519) 
GLU   PHE

>  <FRAG_NAME>  (519) 
ACET   MBZ

>  <FRAG_ATOM_NUM>  (519) 
fragi: 7  fragj: 15

>  <atom.prop.CHAIN_ID>  (519) 
A A A A A A A Z Z Z Z Z Z Z Z Z Z Z Z Z Z Z

>  <atom.prop.IS_HEAVY_ATOM>  (519) 
1 0 0 0 1 1 1 1 0 0 0 1 1 0 1 0 1 0 1 0 1 0

>  <DIFUSE_FUNC_ATOM>  (519) 
atom 6   atom 7   

>  <FINAL_SINGLE_POINT_ENERGY>  (519) 
0

>  <NONCOV_INTER_ENERGY_QM>  (519) 
0

>  <FF_Energy>  (519) 
-2.04

>  <QM_Energy>  (519) 
-7.43

>  <source>  (519) 
ACET_MBZ_00

>  <Index>  (519) 
18820

$$$$
ACET-pdb1iu4-D-GLU-103:MBZ-pdb1iu4-D-PHE-108
     RDKit          3D

 22 21  0  0  0  0  0  0  0  0999 V2000
    3.4759    5.0638    0.2811 C   0  0  0  0  0  0  0  0  0  0  0  0
    2.4991    5.0761    0.3812 H   0  0  0  0  0  0  0  0  0  0  0  0
    3.8003    5.7704   -0.3184 H   0  0  0  0  0  0  0  0  0  0  0  0
    3.9198    5.2200    1.2643 H   0  0  0  0  0  0  0  0  0  0  0  0
    3.8681    3.7461   -0.2978 C   0  0  0  0  0  0  0  0  0  0  0  0
    4.3731    3.7394   -1.3957 O   0  0  0  0  0  1  0  0  0  0  0  0
    3.7012    2.6993    0.3171 O   0  0  0  0  0  0  0  0  0  0  0  0
    0.0099    2.9235   -0.1660 C   0  0  0  0  0  0  0  0  0  0  0  0
    0.6973    3.2807    0.4128 H   0  0  0  0  0  0  0  0  0  0  0  0
   -0.8861    3.2419    0.0157 H   0  0  0  0  0  0  0  0  0  0  0  0
    0.2626    3.1689   -1.1975 H   0  0  0  0  0  0  0  0  0  0  0  0
    0.0079    1.4121   -0.0074 C   0  0  0  0  0  0  0  0  0  0  0  0
   -1.2268    0.7270    0.0345 C   0  0  0  0  0  0  0  0  0  0  0  0
   -2.0679    1.2148    0.0848 H   0  0  0  0  0  0  0  0  0  0  0  0
   -1.2237   -0.6869   -0.0000 C   0  0  0  0  0  0  0  0  0  0  0  0
   -2.0999   -1.1787    0.0126 H   0  0  0  0  0  0  0  0  0  0  0  0
   -0.0084   -1.4107   -0.0493 C   0  0  0  0  0  0  0  0  0  0  0  0
   -0.0316   -2.4019   -0.1198 H   0  0  0  0  0  0  0  0  0  0  0  0
    1.2237   -0.7303    0.0000 C   0  0  0  0  0  0  0  0  0  0  0  0
    2.0871   -1.2290    0.0211 H   0  0  0  0  0  0  0  0  0  0  0  0
    1.2274    0.6888    0.0222 C   0  0  0  0  0  0  0  0  0  0  0  0
    2.0869    1.1762    0.0573 H   0  0  0  0  0  0  0  0  0  0  0  0
  1  5  1  0
  5  6  1  0
  5  7  2  0
  1  2  1  0
  1  3  1  0
  1  4  1  0
  8 12  1  0
 12 13  2  0
 13 15  1  0
 15 17  2  0
 17 19  1  0
 19 21  2  0
 21 12  1  0
  8  9  1  0
  8 10  1  0
  8 11  1  0
 13 14  1  0
 15 16  1  0
 17 18  1  0
 19 20  1  0
 21 22  1  0
M  CHG  1   6  -1
M  END
>  <PDB_ID>  (520) 
pdb1iu4

>  <RESIDUE_NAME>  (520) 
GLU   PHE

>  <FRAG_NAME>  (520) 
ACET   MBZ

>  <FRAG_ATOM_NUM>  (520) 
fragi: 7  fragj: 15

>  <atom.prop.CHAIN_ID>  (520) 
A A A A A A A Z Z Z Z Z Z Z Z Z Z Z Z Z Z Z

>  <atom.prop.IS_HEAVY_ATOM>  (520) 
1 0 0 0 1 1 1 1 0 0 0 1 1 0 1 0 1 0 1 0 1 0

>  <DIFUSE_FUNC_ATOM>  (520) 
atom 6   atom 7   

>  <FINAL_SINGLE_POINT_ENERGY>  (520) 
0

>  <NONCOV_INTER_ENERGY_QM>  (520) 
0

>  <FF_Energy>  (520) 
-1.46

>  <QM_Energy>  (520) 
-8.27

>  <source>  (520) 
ACET_MBZ_00

>  <Index>  (520) 
18827

$$$$
ACET-pdb2jlc-A-GLU-534:MBZ-pdb2jlc-A-PHE-497
     RDKit          3D

 22 21  0  0  0  0  0  0  0  0999 V2000
   -4.8842    2.4371   -1.4837 C   0  0  0  0  0  0  0  0  0  0  0  0
   -5.8549    2.5405   -1.4343 H   0  0  0  0  0  0  0  0  0  0  0  0
   -4.6071    1.6297   -1.9608 H   0  0  0  0  0  0  0  0  0  0  0  0
   -4.4828    3.2983   -2.0177 H   0  0  0  0  0  0  0  0  0  0  0  0
   -4.3553    2.3257   -0.0413 C   0  0  0  0  0  0  0  0  0  0  0  0
   -3.5434    3.1809    0.3792 O   0  0  0  0  0  1  0  0  0  0  0  0
   -4.7408    1.3701    0.6652 O   0  0  0  0  0  0  0  0  0  0  0  0
   -0.0032    2.8908    0.0845 C   0  0  0  0  0  0  0  0  0  0  0  0
   -0.7867    3.2334   -0.3997 H   0  0  0  0  0  0  0  0  0  0  0  0
    0.8421    3.2294   -0.2852 H   0  0  0  0  0  0  0  0  0  0  0  0
   -0.0741    3.2467    1.1123 H   0  0  0  0  0  0  0  0  0  0  0  0
   -0.0007    1.4001   -0.0039 C   0  0  0  0  0  0  0  0  0  0  0  0
   -1.1976    0.6918    0.0116 C   0  0  0  0  0  0  0  0  0  0  0  0
   -2.0645    1.1833    0.0305 H   0  0  0  0  0  0  0  0  0  0  0  0
   -1.2083   -0.7017   -0.0000 C   0  0  0  0  0  0  0  0  0  0  0  0
   -2.0804   -1.1937    0.0092 H   0  0  0  0  0  0  0  0  0  0  0  0
   -0.0011   -1.3952   -0.0222 C   0  0  0  0  0  0  0  0  0  0  0  0
    0.0015   -2.3912   -0.0545 H   0  0  0  0  0  0  0  0  0  0  0  0
    1.2083   -0.6900    0.0000 C   0  0  0  0  0  0  0  0  0  0  0  0
    2.0854   -1.1913    0.0070 H   0  0  0  0  0  0  0  0  0  0  0  0
    1.1994    0.6950    0.0146 C   0  0  0  0  0  0  0  0  0  0  0  0
    2.0645    1.1972    0.0383 H   0  0  0  0  0  0  0  0  0  0  0  0
  1  5  1  0
  5  6  1  0
  5  7  2  0
  1  2  1  0
  1  3  1  0
  1  4  1  0
  8 12  1  0
 12 13  2  0
 13 15  1  0
 15 17  2  0
 17 19  1  0
 19 21  2  0
 21 12  1  0
  8  9  1  0
  8 10  1  0
  8 11  1  0
 13 14  1  0
 15 16  1  0
 17 18  1  0
 19 20  1  0
 21 22  1  0
M  CHG  1   6  -1
M  END
>  <PDB_ID>  (521) 
pdb2jlc

>  <RESIDUE_NAME>  (521) 
GLU   PHE

>  <FRAG_NAME>  (521) 
ACET   MBZ

>  <FRAG_ATOM_NUM>  (521) 
fragi: 7  fragj: 15

>  <atom.prop.CHAIN_ID>  (521) 
A A A A A A A Z Z Z Z Z Z Z Z Z Z Z Z Z Z Z

>  <atom.prop.IS_HEAVY_ATOM>  (521) 
1 0 0 0 1 1 1 1 0 0 0 1 1 0 1 0 1 0 1 0 1 0

>  <DIFUSE_FUNC_ATOM>  (521) 
atom 6   atom 7   

>  <FINAL_SINGLE_POINT_ENERGY>  (521) 
0

>  <NONCOV_INTER_ENERGY_QM>  (521) 
0

>  <FF_Energy>  (521) 
-2.24

>  <QM_Energy>  (521) 
-8.08

>  <source>  (521) 
ACET_MBZ_00

>  <Index>  (521) 
18863

$$$$
ACET-pdb1ixz-A-GLU-212:MBZ-pdb1ixz-A-PHE-155
     RDKit          3D

 22 21  0  0  0  0  0  0  0  0999 V2000
   -0.7216    0.8337    4.0751 C   0  0  0  0  0  0  0  0  0  0  0  0
   -1.0457    0.2616    3.3430 H   0  0  0  0  0  0  0  0  0  0  0  0
   -1.1605    0.6252    4.9307 H   0  0  0  0  0  0  0  0  0  0  0  0
    0.3498    0.6690    4.1893 H   0  0  0  0  0  0  0  0  0  0  0  0
   -1.0672    2.2682    3.7223 C   0  0  0  0  0  0  0  0  0  0  0  0
   -0.2134    2.9545    3.1204 O   0  0  0  0  0  1  0  0  0  0  0  0
   -2.1992    2.7035    4.0288 O   0  0  0  0  0  0  0  0  0  0  0  0
   -0.0135    2.9188   -0.0250 C   0  0  0  0  0  0  0  0  0  0  0  0
   -0.4669    3.2315    0.7969 H   0  0  0  0  0  0  0  0  0  0  0  0
   -0.5022    3.2040   -0.8356 H   0  0  0  0  0  0  0  0  0  0  0  0
    0.9766    3.3738   -0.0543 H   0  0  0  0  0  0  0  0  0  0  0  0
   -0.0005    1.4071   -0.0005 C   0  0  0  0  0  0  0  0  0  0  0  0
   -1.1973    0.6931   -0.0005 C   0  0  0  0  0  0  0  0  0  0  0  0
   -2.0660    1.1810   -0.0021 H   0  0  0  0  0  0  0  0  0  0  0  0
   -1.2025   -0.7027   -0.0000 C   0  0  0  0  0  0  0  0  0  0  0  0
   -2.0782   -1.1941    0.0013 H   0  0  0  0  0  0  0  0  0  0  0  0
    0.0013   -1.3984    0.0001 C   0  0  0  0  0  0  0  0  0  0  0  0
    0.0003   -2.3951   -0.0007 H   0  0  0  0  0  0  0  0  0  0  0  0
    1.2025   -0.6964   -0.0000 C   0  0  0  0  0  0  0  0  0  0  0  0
    2.0848   -1.1923    0.0007 H   0  0  0  0  0  0  0  0  0  0  0  0
    1.1965    0.6974    0.0009 C   0  0  0  0  0  0  0  0  0  0  0  0
    2.0650    1.1929    0.0018 H   0  0  0  0  0  0  0  0  0  0  0  0
  1  5  1  0
  5  6  1  0
  5  7  2  0
  1  2  1  0
  1  3  1  0
  1  4  1  0
  8 12  1  0
 12 13  2  0
 13 15  1  0
 15 17  2  0
 17 19  1  0
 19 21  2  0
 21 12  1  0
  8  9  1  0
  8 10  1  0
  8 11  1  0
 13 14  1  0
 15 16  1  0
 17 18  1  0
 19 20  1  0
 21 22  1  0
M  CHG  1   6  -1
M  END
>  <PDB_ID>  (522) 
pdb1ixz

>  <RESIDUE_NAME>  (522) 
GLU   PHE

>  <FRAG_NAME>  (522) 
ACET   MBZ

>  <FRAG_ATOM_NUM>  (522) 
fragi: 7  fragj: 15

>  <atom.prop.CHAIN_ID>  (522) 
A A A A A A A Z Z Z Z Z Z Z Z Z Z Z Z Z Z Z

>  <atom.prop.IS_HEAVY_ATOM>  (522) 
1 0 0 0 1 1 1 1 0 0 0 1 1 0 1 0 1 0 1 0 1 0

>  <DIFUSE_FUNC_ATOM>  (522) 
atom 6   atom 7   

>  <FINAL_SINGLE_POINT_ENERGY>  (522) 
0

>  <NONCOV_INTER_ENERGY_QM>  (522) 
0

>  <FF_Energy>  (522) 
0.56

>  <QM_Energy>  (522) 
-5.34

>  <source>  (522) 
ACET_MBZ_00

>  <Index>  (522) 
19006

$$$$
ACET-pdb1ixx-C-GLU-96:MBZ-pdb1ixx-A-PHE-64
     RDKit          3D

 22 21  0  0  0  0  0  0  0  0999 V2000
   -0.7753   -2.3889   -3.6722 C   0  0  0  0  0  0  0  0  0  0  0  0
   -0.6041   -2.9838   -4.4352 H   0  0  0  0  0  0  0  0  0  0  0  0
   -0.1275   -1.6505   -3.6235 H   0  0  0  0  0  0  0  0  0  0  0  0
   -1.7742   -1.9665   -3.7816 H   0  0  0  0  0  0  0  0  0  0  0  0
   -0.6220   -3.2138   -2.4074 C   0  0  0  0  0  0  0  0  0  0  0  0
   -1.6134   -3.3442   -1.6564 O   0  0  0  0  0  1  0  0  0  0  0  0
    0.4922   -3.7221   -2.1518 O   0  0  0  0  0  0  0  0  0  0  0  0
    0.0043    2.8912    0.0365 C   0  0  0  0  0  0  0  0  0  0  0  0
    0.9425    3.2002   -0.0352 H   0  0  0  0  0  0  0  0  0  0  0  0
   -0.4019    3.1814    0.8917 H   0  0  0  0  0  0  0  0  0  0  0  0
   -0.5602    3.3548   -0.7725 H   0  0  0  0  0  0  0  0  0  0  0  0
    0.0003    1.3995   -0.0002 C   0  0  0  0  0  0  0  0  0  0  0  0
   -1.1992    0.6920   -0.0009 C   0  0  0  0  0  0  0  0  0  0  0  0
   -2.0636    1.1828   -0.0034 H   0  0  0  0  0  0  0  0  0  0  0  0
   -1.2022   -0.6982   -0.0000 C   0  0  0  0  0  0  0  0  0  0  0  0
   -2.0757   -1.1943   -0.0007 H   0  0  0  0  0  0  0  0  0  0  0  0
    0.0028   -1.3886    0.0032 C   0  0  0  0  0  0  0  0  0  0  0  0
   -0.0016   -2.3904    0.0070 H   0  0  0  0  0  0  0  0  0  0  0  0
    1.2022   -0.6962    0.0000 C   0  0  0  0  0  0  0  0  0  0  0  0
    2.0832   -1.1938    0.0009 H   0  0  0  0  0  0  0  0  0  0  0  0
    1.1961    0.6915   -0.0020 C   0  0  0  0  0  0  0  0  0  0  0  0
    2.0645    1.1899   -0.0058 H   0  0  0  0  0  0  0  0  0  0  0  0
  1  5  1  0
  5  6  1  0
  5  7  2  0
  1  2  1  0
  1  3  1  0
  1  4  1  0
  8 12  1  0
 12 13  2  0
 13 15  1  0
 15 17  2  0
 17 19  1  0
 19 21  2  0
 21 12  1  0
  8  9  1  0
  8 10  1  0
  8 11  1  0
 13 14  1  0
 15 16  1  0
 17 18  1  0
 19 20  1  0
 21 22  1  0
M  CHG  1   6  -1
M  END
>  <PDB_ID>  (523) 
pdb1ixx

>  <RESIDUE_NAME>  (523) 
GLU   PHE

>  <FRAG_NAME>  (523) 
ACET   MBZ

>  <FRAG_ATOM_NUM>  (523) 
fragi: 7  fragj: 15

>  <atom.prop.CHAIN_ID>  (523) 
A A A A A A A Z Z Z Z Z Z Z Z Z Z Z Z Z Z Z

>  <atom.prop.IS_HEAVY_ATOM>  (523) 
1 0 0 0 1 1 1 1 0 0 0 1 1 0 1 0 1 0 1 0 1 0

>  <DIFUSE_FUNC_ATOM>  (523) 
atom 6   atom 7   

>  <FINAL_SINGLE_POINT_ENERGY>  (523) 
0

>  <NONCOV_INTER_ENERGY_QM>  (523) 
0

>  <FF_Energy>  (523) 
-0.45

>  <QM_Energy>  (523) 
-6.05

>  <source>  (523) 
ACET_MBZ_00

>  <Index>  (523) 
19011

$$$$
ACET-pdb2nn4-B-GLU-58:MBZ-pdb2nn4-B-PHE-4
     RDKit          3D

 22 21  0  0  0  0  0  0  0  0999 V2000
   -2.4699    4.5311   -1.8380 C   0  0  0  0  0  0  0  0  0  0  0  0
   -2.9400    5.2798   -1.4141 H   0  0  0  0  0  0  0  0  0  0  0  0
   -2.1965    3.8429   -1.1953 H   0  0  0  0  0  0  0  0  0  0  0  0
   -3.1418    4.0737   -2.5643 H   0  0  0  0  0  0  0  0  0  0  0  0
   -1.2059    5.0876   -2.4809 C   0  0  0  0  0  0  0  0  0  0  0  0
   -0.6962    4.4672   -3.4403 O   0  0  0  0  0  1  0  0  0  0  0  0
   -0.7168    6.1393   -2.0192 O   0  0  0  0  0  0  0  0  0  0  0  0
    0.0111    2.9035   -0.0180 C   0  0  0  0  0  0  0  0  0  0  0  0
   -0.6230    3.2059   -0.7163 H   0  0  0  0  0  0  0  0  0  0  0  0
    0.9331    3.2027   -0.2216 H   0  0  0  0  0  0  0  0  0  0  0  0
   -0.2873    3.3648    0.9235 H   0  0  0  0  0  0  0  0  0  0  0  0
    0.0027    1.4020   -0.0007 C   0  0  0  0  0  0  0  0  0  0  0  0
   -1.1968    0.6915    0.0013 C   0  0  0  0  0  0  0  0  0  0  0  0
   -2.0625    1.1844    0.0022 H   0  0  0  0  0  0  0  0  0  0  0  0
   -1.2040   -0.6973    0.0000 C   0  0  0  0  0  0  0  0  0  0  0  0
   -2.0808   -1.1904    0.0005 H   0  0  0  0  0  0  0  0  0  0  0  0
   -0.0029   -1.3960   -0.0007 C   0  0  0  0  0  0  0  0  0  0  0  0
   -0.0052   -2.3926   -0.0026 H   0  0  0  0  0  0  0  0  0  0  0  0
    1.2040   -0.6970   -0.0000 C   0  0  0  0  0  0  0  0  0  0  0  0
    2.0825   -1.1941    0.0020 H   0  0  0  0  0  0  0  0  0  0  0  0
    1.1970    0.6968    0.0001 C   0  0  0  0  0  0  0  0  0  0  0  0
    2.0661    1.1915   -0.0000 H   0  0  0  0  0  0  0  0  0  0  0  0
  1  5  1  0
  5  6  1  0
  5  7  2  0
  1  2  1  0
  1  3  1  0
  1  4  1  0
  8 12  1  0
 12 13  2  0
 13 15  1  0
 15 17  2  0
 17 19  1  0
 19 21  2  0
 21 12  1  0
  8  9  1  0
  8 10  1  0
  8 11  1  0
 13 14  1  0
 15 16  1  0
 17 18  1  0
 19 20  1  0
 21 22  1  0
M  CHG  1   6  -1
M  END
>  <PDB_ID>  (524) 
pdb2nn4

>  <RESIDUE_NAME>  (524) 
GLU   PHE

>  <FRAG_NAME>  (524) 
ACET   MBZ

>  <FRAG_ATOM_NUM>  (524) 
fragi: 7  fragj: 15

>  <atom.prop.CHAIN_ID>  (524) 
A A A A A A A Z Z Z Z Z Z Z Z Z Z Z Z Z Z Z

>  <atom.prop.IS_HEAVY_ATOM>  (524) 
1 0 0 0 1 1 1 1 0 0 0 1 1 0 1 0 1 0 1 0 1 0

>  <DIFUSE_FUNC_ATOM>  (524) 
atom 6   atom 7   

>  <FINAL_SINGLE_POINT_ENERGY>  (524) 
0

>  <NONCOV_INTER_ENERGY_QM>  (524) 
0

>  <FF_Energy>  (524) 
3.8

>  <QM_Energy>  (524) 
-2.19

>  <source>  (524) 
ACET_MBZ_00

>  <Index>  (524) 
19103

$$$$
ACET-pdb2nox-F-GLU-225:MBZ-pdb2nox-F-PHE-198
     RDKit          3D

 22 21  0  0  0  0  0  0  0  0999 V2000
    4.6968   -2.9532    0.9644 C   0  0  0  0  0  0  0  0  0  0  0  0
    4.1561   -3.7417    1.1877 H   0  0  0  0  0  0  0  0  0  0  0  0
    5.6543   -3.0973    1.1315 H   0  0  0  0  0  0  0  0  0  0  0  0
    4.5584   -2.7259   -0.0927 H   0  0  0  0  0  0  0  0  0  0  0  0
    4.2425   -1.8177    1.8782 C   0  0  0  0  0  0  0  0  0  0  0  0
    3.6918   -0.8131    1.3718 O   0  0  0  0  0  1  0  0  0  0  0  0
    4.4394   -1.9284    3.1080 O   0  0  0  0  0  0  0  0  0  0  0  0
   -0.0094    2.8940   -0.0036 C   0  0  0  0  0  0  0  0  0  0  0  0
   -0.8417    3.2009   -0.4355 H   0  0  0  0  0  0  0  0  0  0  0  0
    0.7902    3.2088   -0.4880 H   0  0  0  0  0  0  0  0  0  0  0  0
    0.0213    3.3219    0.9985 H   0  0  0  0  0  0  0  0  0  0  0  0
   -0.0025    1.3962   -0.0082 C   0  0  0  0  0  0  0  0  0  0  0  0
   -1.1953    0.6857    0.0026 C   0  0  0  0  0  0  0  0  0  0  0  0
   -2.0629    1.1833    0.0116 H   0  0  0  0  0  0  0  0  0  0  0  0
   -1.2022   -0.6892    0.0000 C   0  0  0  0  0  0  0  0  0  0  0  0
   -2.0764   -1.1916   -0.0037 H   0  0  0  0  0  0  0  0  0  0  0  0
    0.0034   -1.3934    0.0043 C   0  0  0  0  0  0  0  0  0  0  0  0
   -0.0067   -2.3898    0.0097 H   0  0  0  0  0  0  0  0  0  0  0  0
    1.2022   -0.6978    0.0000 C   0  0  0  0  0  0  0  0  0  0  0  0
    2.0851   -1.1901   -0.0024 H   0  0  0  0  0  0  0  0  0  0  0  0
    1.1943    0.6985    0.0012 C   0  0  0  0  0  0  0  0  0  0  0  0
    2.0614    1.1934    0.0085 H   0  0  0  0  0  0  0  0  0  0  0  0
  1  5  1  0
  5  6  1  0
  5  7  2  0
  1  2  1  0
  1  3  1  0
  1  4  1  0
  8 12  1  0
 12 13  2  0
 13 15  1  0
 15 17  2  0
 17 19  1  0
 19 21  2  0
 21 12  1  0
  8  9  1  0
  8 10  1  0
  8 11  1  0
 13 14  1  0
 15 16  1  0
 17 18  1  0
 19 20  1  0
 21 22  1  0
M  CHG  1   6  -1
M  END
>  <PDB_ID>  (525) 
pdb2nox

>  <RESIDUE_NAME>  (525) 
GLU   PHE

>  <FRAG_NAME>  (525) 
ACET   MBZ

>  <FRAG_ATOM_NUM>  (525) 
fragi: 7  fragj: 15

>  <atom.prop.CHAIN_ID>  (525) 
A A A A A A A Z Z Z Z Z Z Z Z Z Z Z Z Z Z Z

>  <atom.prop.IS_HEAVY_ATOM>  (525) 
1 0 0 0 1 1 1 1 0 0 0 1 1 0 1 0 1 0 1 0 1 0

>  <DIFUSE_FUNC_ATOM>  (525) 
atom 6   atom 7   

>  <FINAL_SINGLE_POINT_ENERGY>  (525) 
0

>  <NONCOV_INTER_ENERGY_QM>  (525) 
0

>  <FF_Energy>  (525) 
2.39

>  <QM_Energy>  (525) 
-4.07

>  <source>  (525) 
ACET_MBZ_00

>  <Index>  (525) 
19198

$$$$
ACET-pdb1izo-A-GLU-236:MBZ-pdb1izo-A-PHE-99
     RDKit          3D

 22 21  0  0  0  0  0  0  0  0999 V2000
    1.5690   -3.6075   -1.7612 C   0  0  0  0  0  0  0  0  0  0  0  0
    2.3862   -3.4393   -2.2969 H   0  0  0  0  0  0  0  0  0  0  0  0
    1.1461   -2.7544   -1.4842 H   0  0  0  0  0  0  0  0  0  0  0  0
    0.8606   -4.1502   -2.3870 H   0  0  0  0  0  0  0  0  0  0  0  0
    2.0083   -4.3304   -0.4813 C   0  0  0  0  0  0  0  0  0  0  0  0
    1.1587   -4.6014    0.3935 O   0  0  0  0  0  1  0  0  0  0  0  0
    3.2248   -4.5965   -0.3413 O   0  0  0  0  0  0  0  0  0  0  0  0
   -0.0129    2.8971    0.0150 C   0  0  0  0  0  0  0  0  0  0  0  0
    0.8604    3.2144    0.3547 H   0  0  0  0  0  0  0  0  0  0  0  0
   -0.7541    3.1966    0.5974 H   0  0  0  0  0  0  0  0  0  0  0  0
   -0.1652    3.3460   -0.9665 H   0  0  0  0  0  0  0  0  0  0  0  0
    0.0001    1.4060   -0.0004 C   0  0  0  0  0  0  0  0  0  0  0  0
   -1.2068    0.6935   -0.0017 C   0  0  0  0  0  0  0  0  0  0  0  0
   -2.0693    1.1927   -0.0051 H   0  0  0  0  0  0  0  0  0  0  0  0
   -1.2206   -0.6964    0.0000 C   0  0  0  0  0  0  0  0  0  0  0  0
   -2.0886   -1.1941   -0.0002 H   0  0  0  0  0  0  0  0  0  0  0  0
    0.0016   -1.4089    0.0046 C   0  0  0  0  0  0  0  0  0  0  0  0
   -0.0060   -2.3984    0.0108 H   0  0  0  0  0  0  0  0  0  0  0  0
    1.2206   -0.7011    0.0000 C   0  0  0  0  0  0  0  0  0  0  0  0
    2.0946   -1.1920   -0.0000 H   0  0  0  0  0  0  0  0  0  0  0  0
    1.2051    0.7069   -0.0025 C   0  0  0  0  0  0  0  0  0  0  0  0
    2.0695    1.2030   -0.0064 H   0  0  0  0  0  0  0  0  0  0  0  0
  1  5  1  0
  5  6  1  0
  5  7  2  0
  1  2  1  0
  1  3  1  0
  1  4  1  0
  8 12  1  0
 12 13  2  0
 13 15  1  0
 15 17  2  0
 17 19  1  0
 19 21  2  0
 21 12  1  0
  8  9  1  0
  8 10  1  0
  8 11  1  0
 13 14  1  0
 15 16  1  0
 17 18  1  0
 19 20  1  0
 21 22  1  0
M  CHG  1   6  -1
M  END
>  <PDB_ID>  (526) 
pdb1izo

>  <RESIDUE_NAME>  (526) 
GLU   PHE

>  <FRAG_NAME>  (526) 
ACET   MBZ

>  <FRAG_ATOM_NUM>  (526) 
fragi: 7  fragj: 15

>  <atom.prop.CHAIN_ID>  (526) 
A A A A A A A Z Z Z Z Z Z Z Z Z Z Z Z Z Z Z

>  <atom.prop.IS_HEAVY_ATOM>  (526) 
1 0 0 0 1 1 1 1 0 0 0 1 1 0 1 0 1 0 1 0 1 0

>  <DIFUSE_FUNC_ATOM>  (526) 
atom 6   atom 7   

>  <FINAL_SINGLE_POINT_ENERGY>  (526) 
0

>  <NONCOV_INTER_ENERGY_QM>  (526) 
0

>  <FF_Energy>  (526) 
2.71

>  <QM_Energy>  (526) 
-3.04

>  <source>  (526) 
ACET_MBZ_00

>  <Index>  (526) 
19277

$$$$
ACET-pdb2nqo-A-ASP-204:MBZ-pdb2nqo-A-PHE-198
     RDKit          3D

 22 21  0  0  0  0  0  0  0  0999 V2000
   -5.9036   -0.2668    0.6165 C   0  0  0  0  0  0  0  0  0  0  0  0
   -6.5312   -0.1985    1.3850 H   0  0  0  0  0  0  0  0  0  0  0  0
   -6.4078   -0.3578   -0.2348 H   0  0  0  0  0  0  0  0  0  0  0  0
   -5.3323    0.6602    0.5697 H   0  0  0  0  0  0  0  0  0  0  0  0
   -5.0312   -1.4924    0.8031 C   0  0  0  0  0  0  0  0  0  0  0  0
   -3.9672   -1.5774    0.1568 O   0  0  0  0  0  1  0  0  0  0  0  0
   -5.4233   -2.3812    1.5845 O   0  0  0  0  0  0  0  0  0  0  0  0
    0.0085    2.9031    0.0479 C   0  0  0  0  0  0  0  0  0  0  0  0
    0.9435    3.2094   -0.0657 H   0  0  0  0  0  0  0  0  0  0  0  0
   -0.3546    3.1856    0.9254 H   0  0  0  0  0  0  0  0  0  0  0  0
   -0.5914    3.3815   -0.7263 H   0  0  0  0  0  0  0  0  0  0  0  0
    0.0002    1.4025    0.0009 C   0  0  0  0  0  0  0  0  0  0  0  0
   -1.1976    0.6948   -0.0002 C   0  0  0  0  0  0  0  0  0  0  0  0
   -2.0635    1.1843   -0.0029 H   0  0  0  0  0  0  0  0  0  0  0  0
   -1.2030   -0.6985   -0.0000 C   0  0  0  0  0  0  0  0  0  0  0  0
   -2.0790   -1.1907    0.0012 H   0  0  0  0  0  0  0  0  0  0  0  0
   -0.0002   -1.3951    0.0002 C   0  0  0  0  0  0  0  0  0  0  0  0
   -0.0035   -2.3931    0.0001 H   0  0  0  0  0  0  0  0  0  0  0  0
    1.2030   -0.6974    0.0000 C   0  0  0  0  0  0  0  0  0  0  0  0
    2.0836   -1.1957    0.0021 H   0  0  0  0  0  0  0  0  0  0  0  0
    1.1976    0.6938   -0.0009 C   0  0  0  0  0  0  0  0  0  0  0  0
    2.0659    1.1905   -0.0039 H   0  0  0  0  0  0  0  0  0  0  0  0
  1  5  1  0
  5  6  1  0
  5  7  2  0
  1  2  1  0
  1  3  1  0
  1  4  1  0
  8 12  1  0
 12 13  2  0
 13 15  1  0
 15 17  2  0
 17 19  1  0
 19 21  2  0
 21 12  1  0
  8  9  1  0
  8 10  1  0
  8 11  1  0
 13 14  1  0
 15 16  1  0
 17 18  1  0
 19 20  1  0
 21 22  1  0
M  CHG  1   6  -1
M  END
>  <PDB_ID>  (527) 
pdb2nqo

>  <RESIDUE_NAME>  (527) 
ASP   PHE

>  <FRAG_NAME>  (527) 
ACET   MBZ

>  <FRAG_ATOM_NUM>  (527) 
fragi: 7  fragj: 15

>  <atom.prop.CHAIN_ID>  (527) 
A A A A A A A Z Z Z Z Z Z Z Z Z Z Z Z Z Z Z

>  <atom.prop.IS_HEAVY_ATOM>  (527) 
1 0 0 0 1 1 1 1 0 0 0 1 1 0 1 0 1 0 1 0 1 0

>  <DIFUSE_FUNC_ATOM>  (527) 
atom 6   atom 7   

>  <FINAL_SINGLE_POINT_ENERGY>  (527) 
0

>  <NONCOV_INTER_ENERGY_QM>  (527) 
0

>  <FF_Energy>  (527) 
9.58

>  <QM_Energy>  (527) 
-5.83

>  <source>  (527) 
ACET_MBZ_00

>  <Index>  (527) 
19280

$$$$
ACET-pdb1j0a-A-ASP-250:MBZ-pdb1j0a-A-PHE-219
     RDKit          3D

 22 21  0  0  0  0  0  0  0  0999 V2000
   -4.4454    1.3878   -0.9053 C   0  0  0  0  0  0  0  0  0  0  0  0
   -3.4887    1.1646   -0.7634 H   0  0  0  0  0  0  0  0  0  0  0  0
   -4.7395    1.1061   -1.8098 H   0  0  0  0  0  0  0  0  0  0  0  0
   -5.0335    0.8382   -0.1704 H   0  0  0  0  0  0  0  0  0  0  0  0
   -4.6201    2.8882   -0.7806 C   0  0  0  0  0  0  0  0  0  0  0  0
   -5.7754    3.3633   -0.7571 O   0  0  0  0  0  1  0  0  0  0  0  0
   -3.5974    3.5962   -0.7036 O   0  0  0  0  0  0  0  0  0  0  0  0
    0.0026    2.9133    0.0863 C   0  0  0  0  0  0  0  0  0  0  0  0
   -0.8551    3.2382   -0.2700 H   0  0  0  0  0  0  0  0  0  0  0  0
    0.7695    3.2447   -0.4347 H   0  0  0  0  0  0  0  0  0  0  0  0
    0.1045    3.2804    1.1076 H   0  0  0  0  0  0  0  0  0  0  0  0
   -0.0001    1.4061    0.0006 C   0  0  0  0  0  0  0  0  0  0  0  0
   -1.1994    0.7003   -0.0003 C   0  0  0  0  0  0  0  0  0  0  0  0
   -2.0652    1.1912   -0.0026 H   0  0  0  0  0  0  0  0  0  0  0  0
   -1.2059   -0.6932    0.0000 C   0  0  0  0  0  0  0  0  0  0  0  0
   -2.0810   -1.1869    0.0017 H   0  0  0  0  0  0  0  0  0  0  0  0
    0.0009   -1.3979    0.0007 C   0  0  0  0  0  0  0  0  0  0  0  0
   -0.0089   -2.3942    0.0012 H   0  0  0  0  0  0  0  0  0  0  0  0
    1.2059   -0.7037    0.0000 C   0  0  0  0  0  0  0  0  0  0  0  0
    2.0847   -1.2010    0.0020 H   0  0  0  0  0  0  0  0  0  0  0  0
    1.1986    0.6884   -0.0010 C   0  0  0  0  0  0  0  0  0  0  0  0
    2.0678    1.1866   -0.0031 H   0  0  0  0  0  0  0  0  0  0  0  0
  1  5  1  0
  5  6  1  0
  5  7  2  0
  1  2  1  0
  1  3  1  0
  1  4  1  0
  8 12  1  0
 12 13  2  0
 13 15  1  0
 15 17  2  0
 17 19  1  0
 19 21  2  0
 21 12  1  0
  8  9  1  0
  8 10  1  0
  8 11  1  0
 13 14  1  0
 15 16  1  0
 17 18  1  0
 19 20  1  0
 21 22  1  0
M  CHG  1   6  -1
M  END
>  <PDB_ID>  (528) 
pdb1j0a

>  <RESIDUE_NAME>  (528) 
ASP   PHE

>  <FRAG_NAME>  (528) 
ACET   MBZ

>  <FRAG_ATOM_NUM>  (528) 
fragi: 7  fragj: 15

>  <atom.prop.CHAIN_ID>  (528) 
A A A A A A A Z Z Z Z Z Z Z Z Z Z Z Z Z Z Z

>  <atom.prop.IS_HEAVY_ATOM>  (528) 
1 0 0 0 1 1 1 1 0 0 0 1 1 0 1 0 1 0 1 0 1 0

>  <DIFUSE_FUNC_ATOM>  (528) 
atom 6   atom 7   

>  <FINAL_SINGLE_POINT_ENERGY>  (528) 
0

>  <NONCOV_INTER_ENERGY_QM>  (528) 
0

>  <FF_Energy>  (528) 
11.32

>  <QM_Energy>  (528) 
-3.34

>  <source>  (528) 
ACET_MBZ_00

>  <Index>  (528) 
19321

$$$$
ACET-pdb1j0h-B-ASP-65:MBZ-pdb1j0h-B-PHE-68
     RDKit          3D

 22 21  0  0  0  0  0  0  0  0999 V2000
    5.0226    4.0376   -2.6246 C   0  0  0  0  0  0  0  0  0  0  0  0
    5.5943    3.4827   -3.2247 H   0  0  0  0  0  0  0  0  0  0  0  0
    5.5916    4.5161   -1.9613 H   0  0  0  0  0  0  0  0  0  0  0  0
    4.5301    4.7897   -3.2410 H   0  0  0  0  0  0  0  0  0  0  0  0
    4.0622    3.1286   -1.8832 C   0  0  0  0  0  0  0  0  0  0  0  0
    2.8662    3.0618   -2.2276 O   0  0  0  0  0  1  0  0  0  0  0  0
    4.5333    2.4510   -0.9469 O   0  0  0  0  0  0  0  0  0  0  0  0
    0.0055    2.9081    0.0365 C   0  0  0  0  0  0  0  0  0  0  0  0
    0.9274    3.2056    0.2420 H   0  0  0  0  0  0  0  0  0  0  0  0
   -0.6284    3.1993    0.7390 H   0  0  0  0  0  0  0  0  0  0  0  0
   -0.2950    3.3811   -0.8984 H   0  0  0  0  0  0  0  0  0  0  0  0
   -0.0004    1.4025    0.0002 C   0  0  0  0  0  0  0  0  0  0  0  0
   -1.1963    0.6955   -0.0019 C   0  0  0  0  0  0  0  0  0  0  0  0
   -2.0629    1.1856   -0.0062 H   0  0  0  0  0  0  0  0  0  0  0  0
   -1.2020   -0.6963   -0.0000 C   0  0  0  0  0  0  0  0  0  0  0  0
   -2.0792   -1.1891    0.0019 H   0  0  0  0  0  0  0  0  0  0  0  0
   -0.0004   -1.3944    0.0016 C   0  0  0  0  0  0  0  0  0  0  0  0
   -0.0067   -2.3939    0.0029 H   0  0  0  0  0  0  0  0  0  0  0  0
    1.2020   -0.7011   -0.0000 C   0  0  0  0  0  0  0  0  0  0  0  0
    2.0825   -1.1970    0.0004 H   0  0  0  0  0  0  0  0  0  0  0  0
    1.1971    0.6938    0.0001 C   0  0  0  0  0  0  0  0  0  0  0  0
    2.0647    1.1883   -0.0004 H   0  0  0  0  0  0  0  0  0  0  0  0
  1  5  1  0
  5  6  1  0
  5  7  2  0
  1  2  1  0
  1  3  1  0
  1  4  1  0
  8 12  1  0
 12 13  2  0
 13 15  1  0
 15 17  2  0
 17 19  1  0
 19 21  2  0
 21 12  1  0
  8  9  1  0
  8 10  1  0
  8 11  1  0
 13 14  1  0
 15 16  1  0
 17 18  1  0
 19 20  1  0
 21 22  1  0
M  CHG  1   6  -1
M  END
>  <PDB_ID>  (529) 
pdb1j0h

>  <RESIDUE_NAME>  (529) 
ASP   PHE

>  <FRAG_NAME>  (529) 
ACET   MBZ

>  <FRAG_ATOM_NUM>  (529) 
fragi: 7  fragj: 15

>  <atom.prop.CHAIN_ID>  (529) 
A A A A A A A Z Z Z Z Z Z Z Z Z Z Z Z Z Z Z

>  <atom.prop.IS_HEAVY_ATOM>  (529) 
1 0 0 0 1 1 1 1 0 0 0 1 1 0 1 0 1 0 1 0 1 0

>  <DIFUSE_FUNC_ATOM>  (529) 
atom 6   atom 7   

>  <FINAL_SINGLE_POINT_ENERGY>  (529) 
0

>  <NONCOV_INTER_ENERGY_QM>  (529) 
0

>  <FF_Energy>  (529) 
-1.83

>  <QM_Energy>  (529) 
-6.86

>  <source>  (529) 
ACET_MBZ_00

>  <Index>  (529) 
19333

$$$$
ACET-pdb1j0x-P-GLU-169:MBZ-pdb1j0x-O-PHE-304
     RDKit          3D

 22 21  0  0  0  0  0  0  0  0999 V2000
    1.5598    0.3428   -3.5819 C   0  0  0  0  0  0  0  0  0  0  0  0
    1.2940   -0.1193   -4.4076 H   0  0  0  0  0  0  0  0  0  0  0  0
    1.2927   -0.1520   -2.7757 H   0  0  0  0  0  0  0  0  0  0  0  0
    2.6446    0.4490   -3.5795 H   0  0  0  0  0  0  0  0  0  0  0  0
    0.8423    1.6782   -3.5559 C   0  0  0  0  0  0  0  0  0  0  0  0
    1.4987    2.7049   -3.2593 O   0  0  0  0  0  1  0  0  0  0  0  0
   -0.3818    1.6963   -3.8260 O   0  0  0  0  0  0  0  0  0  0  0  0
    0.0046    2.8954   -0.0371 C   0  0  0  0  0  0  0  0  0  0  0  0
   -0.2762    3.1845   -0.9412 H   0  0  0  0  0  0  0  0  0  0  0  0
    0.9214    3.2083    0.1692 H   0  0  0  0  0  0  0  0  0  0  0  0
   -0.6709    3.3605    0.6808 H   0  0  0  0  0  0  0  0  0  0  0  0
    0.0001    1.3998   -0.0004 C   0  0  0  0  0  0  0  0  0  0  0  0
   -1.1989    0.6951    0.0006 C   0  0  0  0  0  0  0  0  0  0  0  0
   -2.0639    1.1873    0.0008 H   0  0  0  0  0  0  0  0  0  0  0  0
   -1.2055   -0.6940   -0.0000 C   0  0  0  0  0  0  0  0  0  0  0  0
   -2.0782   -1.1909    0.0016 H   0  0  0  0  0  0  0  0  0  0  0  0
    0.0037   -1.3955   -0.0004 C   0  0  0  0  0  0  0  0  0  0  0  0
   -0.0037   -2.3915   -0.0011 H   0  0  0  0  0  0  0  0  0  0  0  0
    1.2055   -0.6978    0.0000 C   0  0  0  0  0  0  0  0  0  0  0  0
    2.0864   -1.1931    0.0020 H   0  0  0  0  0  0  0  0  0  0  0  0
    1.1951    0.6924    0.0002 C   0  0  0  0  0  0  0  0  0  0  0  0
    2.0645    1.1912    0.0001 H   0  0  0  0  0  0  0  0  0  0  0  0
  1  5  1  0
  5  6  1  0
  5  7  2  0
  1  2  1  0
  1  3  1  0
  1  4  1  0
  8 12  1  0
 12 13  2  0
 13 15  1  0
 15 17  2  0
 17 19  1  0
 19 21  2  0
 21 12  1  0
  8  9  1  0
  8 10  1  0
  8 11  1  0
 13 14  1  0
 15 16  1  0
 17 18  1  0
 19 20  1  0
 21 22  1  0
M  CHG  1   6  -1
M  END
>  <PDB_ID>  (530) 
pdb1j0x

>  <RESIDUE_NAME>  (530) 
GLU   PHE

>  <FRAG_NAME>  (530) 
ACET   MBZ

>  <FRAG_ATOM_NUM>  (530) 
fragi: 7  fragj: 15

>  <atom.prop.CHAIN_ID>  (530) 
A A A A A A A Z Z Z Z Z Z Z Z Z Z Z Z Z Z Z

>  <atom.prop.IS_HEAVY_ATOM>  (530) 
1 0 0 0 1 1 1 1 0 0 0 1 1 0 1 0 1 0 1 0 1 0

>  <DIFUSE_FUNC_ATOM>  (530) 
atom 6   atom 7   

>  <FINAL_SINGLE_POINT_ENERGY>  (530) 
0

>  <NONCOV_INTER_ENERGY_QM>  (530) 
0

>  <FF_Energy>  (530) 
0.3

>  <QM_Energy>  (530) 
-4.9

>  <source>  (530) 
ACET_MBZ_00

>  <Index>  (530) 
19347

$$$$
ACET-pdb1j1b-A-ASP-90:MBZ-pdb1j1b-A-PHE-93
     RDKit          3D

 22 21  0  0  0  0  0  0  0  0999 V2000
    4.5240    2.8844    0.3610 C   0  0  0  0  0  0  0  0  0  0  0  0
    4.9074    3.0371    1.2624 H   0  0  0  0  0  0  0  0  0  0  0  0
    3.6383    3.3203    0.2757 H   0  0  0  0  0  0  0  0  0  0  0  0
    5.1953    3.3311   -0.3726 H   0  0  0  0  0  0  0  0  0  0  0  0
    4.3510    1.3859    0.1530 C   0  0  0  0  0  0  0  0  0  0  0  0
    3.7759    0.7225    1.0452 O   0  0  0  0  0  1  0  0  0  0  0  0
    4.7931    0.8731   -0.9030 O   0  0  0  0  0  0  0  0  0  0  0  0
    0.0025    2.9064   -0.0513 C   0  0  0  0  0  0  0  0  0  0  0  0
    0.8237    3.2266    0.3922 H   0  0  0  0  0  0  0  0  0  0  0  0
   -0.8094    3.2300    0.4071 H   0  0  0  0  0  0  0  0  0  0  0  0
   -0.0059    3.3050   -1.0658 H   0  0  0  0  0  0  0  0  0  0  0  0
   -0.0005    1.4043    0.0002 C   0  0  0  0  0  0  0  0  0  0  0  0
   -1.1995    0.6970    0.0013 C   0  0  0  0  0  0  0  0  0  0  0  0
   -2.0654    1.1868    0.0016 H   0  0  0  0  0  0  0  0  0  0  0  0
   -1.2058   -0.6990   -0.0000 C   0  0  0  0  0  0  0  0  0  0  0  0
   -2.0795   -1.1919    0.0022 H   0  0  0  0  0  0  0  0  0  0  0  0
    0.0022   -1.3972   -0.0023 C   0  0  0  0  0  0  0  0  0  0  0  0
   -0.0031   -2.3950   -0.0058 H   0  0  0  0  0  0  0  0  0  0  0  0
    1.2058   -0.6998    0.0000 C   0  0  0  0  0  0  0  0  0  0  0  0
    2.0865   -1.1950    0.0027 H   0  0  0  0  0  0  0  0  0  0  0  0
    1.1978    0.6946    0.0007 C   0  0  0  0  0  0  0  0  0  0  0  0
    2.0657    1.1911    0.0010 H   0  0  0  0  0  0  0  0  0  0  0  0
  1  5  1  0
  5  6  1  0
  5  7  2  0
  1  2  1  0
  1  3  1  0
  1  4  1  0
  8 12  1  0
 12 13  2  0
 13 15  1  0
 15 17  2  0
 17 19  1  0
 19 21  2  0
 21 12  1  0
  8  9  1  0
  8 10  1  0
  8 11  1  0
 13 14  1  0
 15 16  1  0
 17 18  1  0
 19 20  1  0
 21 22  1  0
M  CHG  1   6  -1
M  END
>  <PDB_ID>  (531) 
pdb1j1b

>  <RESIDUE_NAME>  (531) 
ASP   PHE

>  <FRAG_NAME>  (531) 
ACET   MBZ

>  <FRAG_ATOM_NUM>  (531) 
fragi: 7  fragj: 15

>  <atom.prop.CHAIN_ID>  (531) 
A A A A A A A Z Z Z Z Z Z Z Z Z Z Z Z Z Z Z

>  <atom.prop.IS_HEAVY_ATOM>  (531) 
1 0 0 0 1 1 1 1 0 0 0 1 1 0 1 0 1 0 1 0 1 0

>  <DIFUSE_FUNC_ATOM>  (531) 
atom 6   atom 7   

>  <FINAL_SINGLE_POINT_ENERGY>  (531) 
0

>  <NONCOV_INTER_ENERGY_QM>  (531) 
0

>  <FF_Energy>  (531) 
8.28

>  <QM_Energy>  (531) 
-3.98

>  <source>  (531) 
ACET_MBZ_00

>  <Index>  (531) 
19372

$$$$
ACET-pdb2nru-C-GLU-233:MBZ-pdb2nru-C-PHE-330
     RDKit          3D

 22 21  0  0  0  0  0  0  0  0999 V2000
    4.9546    4.1167    0.4017 C   0  0  0  0  0  0  0  0  0  0  0  0
    5.8340    4.2664   -0.0180 H   0  0  0  0  0  0  0  0  0  0  0  0
    5.0436    3.7690    1.3206 H   0  0  0  0  0  0  0  0  0  0  0  0
    4.4304    5.0713    0.4451 H   0  0  0  0  0  0  0  0  0  0  0  0
    4.2354    3.0401   -0.4224 C   0  0  0  0  0  0  0  0  0  0  0  0
    4.7836    1.9137   -0.5499 O   0  0  0  0  0  1  0  0  0  0  0  0
    3.1364    3.3106   -0.9670 O   0  0  0  0  0  0  0  0  0  0  0  0
    0.0288    2.8730   -0.0476 C   0  0  0  0  0  0  0  0  0  0  0  0
    0.8626    3.1944    0.3659 H   0  0  0  0  0  0  0  0  0  0  0  0
   -0.7695    3.2193    0.4120 H   0  0  0  0  0  0  0  0  0  0  0  0
    0.0057    3.2639   -1.0647 H   0  0  0  0  0  0  0  0  0  0  0  0
    0.0070    1.3895   -0.0006 C   0  0  0  0  0  0  0  0  0  0  0  0
   -1.2176    0.6864   -0.0052 C   0  0  0  0  0  0  0  0  0  0  0  0
   -2.0647    1.1879   -0.0132 H   0  0  0  0  0  0  0  0  0  0  0  0
   -1.2037   -0.6843    0.0000 C   0  0  0  0  0  0  0  0  0  0  0  0
   -2.0725   -1.2008    0.0101 H   0  0  0  0  0  0  0  0  0  0  0  0
    0.0109   -1.3810   -0.0069 C   0  0  0  0  0  0  0  0  0  0  0  0
   -0.0035   -2.3833   -0.0174 H   0  0  0  0  0  0  0  0  0  0  0  0
    1.2037   -0.6951   -0.0000 C   0  0  0  0  0  0  0  0  0  0  0  0
    2.0862   -1.1955   -0.0024 H   0  0  0  0  0  0  0  0  0  0  0  0
    1.1996    0.6845    0.0127 C   0  0  0  0  0  0  0  0  0  0  0  0
    2.0682    1.1848    0.0311 H   0  0  0  0  0  0  0  0  0  0  0  0
  1  5  1  0
  5  6  1  0
  5  7  2  0
  1  2  1  0
  1  3  1  0
  1  4  1  0
  8 12  1  0
 12 13  2  0
 13 15  1  0
 15 17  2  0
 17 19  1  0
 19 21  2  0
 21 12  1  0
  8  9  1  0
  8 10  1  0
  8 11  1  0
 13 14  1  0
 15 16  1  0
 17 18  1  0
 19 20  1  0
 21 22  1  0
M  CHG  1   6  -1
M  END
>  <PDB_ID>  (532) 
pdb2nru

>  <RESIDUE_NAME>  (532) 
GLU   PHE

>  <FRAG_NAME>  (532) 
ACET   MBZ

>  <FRAG_ATOM_NUM>  (532) 
fragi: 7  fragj: 15

>  <atom.prop.CHAIN_ID>  (532) 
A A A A A A A Z Z Z Z Z Z Z Z Z Z Z Z Z Z Z

>  <atom.prop.IS_HEAVY_ATOM>  (532) 
1 0 0 0 1 1 1 1 0 0 0 1 1 0 1 0 1 0 1 0 1 0

>  <DIFUSE_FUNC_ATOM>  (532) 
atom 6   atom 7   

>  <FINAL_SINGLE_POINT_ENERGY>  (532) 
0

>  <NONCOV_INTER_ENERGY_QM>  (532) 
0

>  <FF_Energy>  (532) 
-2.47

>  <QM_Energy>  (532) 
-8.21

>  <source>  (532) 
ACET_MBZ_00

>  <Index>  (532) 
19423

$$$$
ACET-pdb1j1z-E-GLU-152:MBZ-pdb1j1z-E-PHE-147
     RDKit          3D

 22 21  0  0  0  0  0  0  0  0999 V2000
    4.1491    2.2268   -0.8258 C   0  0  0  0  0  0  0  0  0  0  0  0
    3.2711    1.7804   -0.8814 H   0  0  0  0  0  0  0  0  0  0  0  0
    4.8909    1.5770   -0.8623 H   0  0  0  0  0  0  0  0  0  0  0  0
    4.2439    2.9099   -1.6699 H   0  0  0  0  0  0  0  0  0  0  0  0
    4.2213    2.9202    0.5189 C   0  0  0  0  0  0  0  0  0  0  0  0
    4.1263    2.2008    1.5371 O   0  0  0  0  0  1  0  0  0  0  0  0
    4.3777    4.1645    0.5669 O   0  0  0  0  0  0  0  0  0  0  0  0
   -0.0013    2.8963   -0.0315 C   0  0  0  0  0  0  0  0  0  0  0  0
   -0.9413    3.2042   -0.0014 H   0  0  0  0  0  0  0  0  0  0  0  0
    0.4453    3.1881   -0.8648 H   0  0  0  0  0  0  0  0  0  0  0  0
    0.5251    3.3544    0.8058 H   0  0  0  0  0  0  0  0  0  0  0  0
    0.0005    1.3995   -0.0006 C   0  0  0  0  0  0  0  0  0  0  0  0
   -1.1932    0.6910    0.0002 C   0  0  0  0  0  0  0  0  0  0  0  0
   -2.0619    1.1821    0.0001 H   0  0  0  0  0  0  0  0  0  0  0  0
   -1.2001   -0.6979   -0.0000 C   0  0  0  0  0  0  0  0  0  0  0  0
   -2.0785   -1.1895    0.0016 H   0  0  0  0  0  0  0  0  0  0  0  0
   -0.0040   -1.3908   -0.0010 C   0  0  0  0  0  0  0  0  0  0  0  0
   -0.0041   -2.3908   -0.0034 H   0  0  0  0  0  0  0  0  0  0  0  0
    1.2001   -0.6945    0.0000 C   0  0  0  0  0  0  0  0  0  0  0  0
    2.0798   -1.1957    0.0009 H   0  0  0  0  0  0  0  0  0  0  0  0
    1.1968    0.6926    0.0015 C   0  0  0  0  0  0  0  0  0  0  0  0
    2.0643    1.1902    0.0036 H   0  0  0  0  0  0  0  0  0  0  0  0
  1  5  1  0
  5  6  1  0
  5  7  2  0
  1  2  1  0
  1  3  1  0
  1  4  1  0
  8 12  1  0
 12 13  2  0
 13 15  1  0
 15 17  2  0
 17 19  1  0
 19 21  2  0
 21 12  1  0
  8  9  1  0
  8 10  1  0
  8 11  1  0
 13 14  1  0
 15 16  1  0
 17 18  1  0
 19 20  1  0
 21 22  1  0
M  CHG  1   6  -1
M  END
>  <PDB_ID>  (533) 
pdb1j1z

>  <RESIDUE_NAME>  (533) 
GLU   PHE

>  <FRAG_NAME>  (533) 
ACET   MBZ

>  <FRAG_ATOM_NUM>  (533) 
fragi: 7  fragj: 15

>  <atom.prop.CHAIN_ID>  (533) 
A A A A A A A Z Z Z Z Z Z Z Z Z Z Z Z Z Z Z

>  <atom.prop.IS_HEAVY_ATOM>  (533) 
1 0 0 0 1 1 1 1 0 0 0 1 1 0 1 0 1 0 1 0 1 0

>  <DIFUSE_FUNC_ATOM>  (533) 
atom 6   atom 7   

>  <FINAL_SINGLE_POINT_ENERGY>  (533) 
0

>  <NONCOV_INTER_ENERGY_QM>  (533) 
0

>  <FF_Energy>  (533) 
12.39

>  <QM_Energy>  (533) 
-2.02

>  <source>  (533) 
ACET_MBZ_00

>  <Index>  (533) 
19470

$$$$
ACET-pdb1j1z-D-GLU-271:MBZ-pdb1j1z-D-PHE-200
     RDKit          3D

 22 21  0  0  0  0  0  0  0  0999 V2000
    5.0313    1.9057   -0.4572 C   0  0  0  0  0  0  0  0  0  0  0  0
    4.9613    1.3776    0.3593 H   0  0  0  0  0  0  0  0  0  0  0  0
    5.9142    2.2948   -0.5956 H   0  0  0  0  0  0  0  0  0  0  0  0
    4.7914    1.2678   -1.3078 H   0  0  0  0  0  0  0  0  0  0  0  0
    4.0378    3.0648   -0.3364 C   0  0  0  0  0  0  0  0  0  0  0  0
    4.0692    3.8017    0.6757 O   0  0  0  0  0  1  0  0  0  0  0  0
    3.2252    3.2358   -1.2734 O   0  0  0  0  0  0  0  0  0  0  0  0
    0.0049    2.8997    0.0340 C   0  0  0  0  0  0  0  0  0  0  0  0
   -0.8524    3.2176   -0.3425 H   0  0  0  0  0  0  0  0  0  0  0  0
    0.7729    3.2169   -0.5027 H   0  0  0  0  0  0  0  0  0  0  0  0
    0.1046    3.3123    1.0379 H   0  0  0  0  0  0  0  0  0  0  0  0
    0.0004    1.4024    0.0000 C   0  0  0  0  0  0  0  0  0  0  0  0
   -1.1987    0.6985    0.0000 C   0  0  0  0  0  0  0  0  0  0  0  0
   -2.0638    1.1867   -0.0013 H   0  0  0  0  0  0  0  0  0  0  0  0
   -1.2045   -0.6987    0.0000 C   0  0  0  0  0  0  0  0  0  0  0  0
   -2.0802   -1.1898    0.0010 H   0  0  0  0  0  0  0  0  0  0  0  0
    0.0002   -1.3968    0.0011 C   0  0  0  0  0  0  0  0  0  0  0  0
   -0.0033   -2.3941    0.0017 H   0  0  0  0  0  0  0  0  0  0  0  0
    1.2045   -0.6985   -0.0000 C   0  0  0  0  0  0  0  0  0  0  0  0
    2.0841   -1.1959    0.0012 H   0  0  0  0  0  0  0  0  0  0  0  0
    1.1981    0.6932   -0.0011 C   0  0  0  0  0  0  0  0  0  0  0  0
    2.0659    1.1901   -0.0042 H   0  0  0  0  0  0  0  0  0  0  0  0
  1  5  1  0
  5  6  1  0
  5  7  2  0
  1  2  1  0
  1  3  1  0
  1  4  1  0
  8 12  1  0
 12 13  2  0
 13 15  1  0
 15 17  2  0
 17 19  1  0
 19 21  2  0
 21 12  1  0
  8  9  1  0
  8 10  1  0
  8 11  1  0
 13 14  1  0
 15 16  1  0
 17 18  1  0
 19 20  1  0
 21 22  1  0
M  CHG  1   6  -1
M  END
>  <PDB_ID>  (534) 
pdb1j1z

>  <RESIDUE_NAME>  (534) 
GLU   PHE

>  <FRAG_NAME>  (534) 
ACET   MBZ

>  <FRAG_ATOM_NUM>  (534) 
fragi: 7  fragj: 15

>  <atom.prop.CHAIN_ID>  (534) 
A A A A A A A Z Z Z Z Z Z Z Z Z Z Z Z Z Z Z

>  <atom.prop.IS_HEAVY_ATOM>  (534) 
1 0 0 0 1 1 1 1 0 0 0 1 1 0 1 0 1 0 1 0 1 0

>  <DIFUSE_FUNC_ATOM>  (534) 
atom 6   atom 7   

>  <FINAL_SINGLE_POINT_ENERGY>  (534) 
0

>  <NONCOV_INTER_ENERGY_QM>  (534) 
0

>  <FF_Energy>  (534) 
-2.21

>  <QM_Energy>  (534) 
-7.74

>  <source>  (534) 
ACET_MBZ_00

>  <Index>  (534) 
19481

$$$$
ACET-pdb1j0x-O-ASP-312:MBZ-pdb1j0x-O-PHE-315
     RDKit          3D

 22 21  0  0  0  0  0  0  0  0999 V2000
    0.8106    6.1852   -2.2186 C   0  0  0  0  0  0  0  0  0  0  0  0
    1.3789    6.0174   -3.0159 H   0  0  0  0  0  0  0  0  0  0  0  0
    1.3118    5.9848   -1.3857 H   0  0  0  0  0  0  0  0  0  0  0  0
    0.5526    7.2441   -2.2078 H   0  0  0  0  0  0  0  0  0  0  0  0
   -0.4064    5.2906   -2.2872 C   0  0  0  0  0  0  0  0  0  0  0  0
   -1.3842    5.5666   -1.5629 O   0  0  0  0  0  1  0  0  0  0  0  0
   -0.3834    4.3019   -3.0568 O   0  0  0  0  0  0  0  0  0  0  0  0
    0.0010    2.8920   -0.0293 C   0  0  0  0  0  0  0  0  0  0  0  0
   -0.5212    3.1853   -0.8166 H   0  0  0  0  0  0  0  0  0  0  0  0
    0.9396    3.1994   -0.0878 H   0  0  0  0  0  0  0  0  0  0  0  0
   -0.4443    3.3467    0.8556 H   0  0  0  0  0  0  0  0  0  0  0  0
    0.0005    1.3986   -0.0002 C   0  0  0  0  0  0  0  0  0  0  0  0
   -1.2010    0.6920    0.0016 C   0  0  0  0  0  0  0  0  0  0  0  0
   -2.0649    1.1848    0.0030 H   0  0  0  0  0  0  0  0  0  0  0  0
   -1.2059   -0.6979   -0.0000 C   0  0  0  0  0  0  0  0  0  0  0  0
   -2.0785   -1.1951    0.0013 H   0  0  0  0  0  0  0  0  0  0  0  0
    0.0032   -1.3932   -0.0016 C   0  0  0  0  0  0  0  0  0  0  0  0
    0.0007   -2.3907   -0.0045 H   0  0  0  0  0  0  0  0  0  0  0  0
    1.2059   -0.6931   -0.0000 C   0  0  0  0  0  0  0  0  0  0  0  0
    2.0863   -1.1915    0.0021 H   0  0  0  0  0  0  0  0  0  0  0  0
    1.1973    0.6936    0.0002 C   0  0  0  0  0  0  0  0  0  0  0  0
    2.0643    1.1944    0.0002 H   0  0  0  0  0  0  0  0  0  0  0  0
  1  5  1  0
  5  6  1  0
  5  7  2  0
  1  2  1  0
  1  3  1  0
  1  4  1  0
  8 12  1  0
 12 13  2  0
 13 15  1  0
 15 17  2  0
 17 19  1  0
 19 21  2  0
 21 12  1  0
  8  9  1  0
  8 10  1  0
  8 11  1  0
 13 14  1  0
 15 16  1  0
 17 18  1  0
 19 20  1  0
 21 22  1  0
M  CHG  1   6  -1
M  END
>  <PDB_ID>  (535) 
pdb1j0x

>  <RESIDUE_NAME>  (535) 
ASP   PHE

>  <FRAG_NAME>  (535) 
ACET   MBZ

>  <FRAG_ATOM_NUM>  (535) 
fragi: 7  fragj: 15

>  <atom.prop.CHAIN_ID>  (535) 
A A A A A A A Z Z Z Z Z Z Z Z Z Z Z Z Z Z Z

>  <atom.prop.IS_HEAVY_ATOM>  (535) 
1 0 0 0 1 1 1 1 0 0 0 1 1 0 1 0 1 0 1 0 1 0

>  <DIFUSE_FUNC_ATOM>  (535) 
atom 6   atom 7   

>  <FINAL_SINGLE_POINT_ENERGY>  (535) 
0

>  <NONCOV_INTER_ENERGY_QM>  (535) 
0

>  <FF_Energy>  (535) 
0.0

>  <QM_Energy>  (535) 
-5.79

>  <source>  (535) 
ACET_MBZ_00

>  <Index>  (535) 
19486

$$$$
ACET-pdb1j2t-E-GLU-177:MBZ-pdb1j2t-E-PHE-182
     RDKit          3D

 22 21  0  0  0  0  0  0  0  0999 V2000
   -2.0148    3.7630    2.7497 C   0  0  0  0  0  0  0  0  0  0  0  0
   -1.3609    3.0353    2.6409 H   0  0  0  0  0  0  0  0  0  0  0  0
   -2.9405    3.4459    2.6432 H   0  0  0  0  0  0  0  0  0  0  0  0
   -1.9054    4.1743    3.7533 H   0  0  0  0  0  0  0  0  0  0  0  0
   -1.7520    4.7814    1.6493 C   0  0  0  0  0  0  0  0  0  0  0  0
   -0.7494    5.5135    1.7532 O   0  0  0  0  0  1  0  0  0  0  0  0
   -2.5526    4.8352    0.6757 O   0  0  0  0  0  0  0  0  0  0  0  0
    0.0011    2.8781    0.0308 C   0  0  0  0  0  0  0  0  0  0  0  0
    0.8201    3.1750    0.5074 H   0  0  0  0  0  0  0  0  0  0  0  0
   -0.8132    3.1719    0.5176 H   0  0  0  0  0  0  0  0  0  0  0  0
   -0.0059    3.3612   -0.9464 H   0  0  0  0  0  0  0  0  0  0  0  0
    0.0038    1.3831   -0.0116 C   0  0  0  0  0  0  0  0  0  0  0  0
   -1.1851    0.6773    0.0066 C   0  0  0  0  0  0  0  0  0  0  0  0
   -2.0527    1.1757    0.0237 H   0  0  0  0  0  0  0  0  0  0  0  0
   -1.1843   -0.6870    0.0000 C   0  0  0  0  0  0  0  0  0  0  0  0
   -2.0681   -1.1883   -0.0016 H   0  0  0  0  0  0  0  0  0  0  0  0
   -0.0035   -1.3703   -0.0027 C   0  0  0  0  0  0  0  0  0  0  0  0
   -0.0032   -2.3759   -0.0076 H   0  0  0  0  0  0  0  0  0  0  0  0
    1.1843   -0.6824   -0.0000 C   0  0  0  0  0  0  0  0  0  0  0  0
    2.0687   -1.1912   -0.0023 H   0  0  0  0  0  0  0  0  0  0  0  0
    1.1849    0.6793    0.0078 C   0  0  0  0  0  0  0  0  0  0  0  0
    2.0574    1.1822    0.0273 H   0  0  0  0  0  0  0  0  0  0  0  0
  1  5  1  0
  5  6  1  0
  5  7  2  0
  1  2  1  0
  1  3  1  0
  1  4  1  0
  8 12  1  0
 12 13  2  0
 13 15  1  0
 15 17  2  0
 17 19  1  0
 19 21  2  0
 21 12  1  0
  8  9  1  0
  8 10  1  0
  8 11  1  0
 13 14  1  0
 15 16  1  0
 17 18  1  0
 19 20  1  0
 21 22  1  0
M  CHG  1   6  -1
M  END
>  <PDB_ID>  (536) 
pdb1j2t

>  <RESIDUE_NAME>  (536) 
GLU   PHE

>  <FRAG_NAME>  (536) 
ACET   MBZ

>  <FRAG_ATOM_NUM>  (536) 
fragi: 7  fragj: 15

>  <atom.prop.CHAIN_ID>  (536) 
A A A A A A A Z Z Z Z Z Z Z Z Z Z Z Z Z Z Z

>  <atom.prop.IS_HEAVY_ATOM>  (536) 
1 0 0 0 1 1 1 1 0 0 0 1 1 0 1 0 1 0 1 0 1 0

>  <DIFUSE_FUNC_ATOM>  (536) 
atom 6   atom 7   

>  <FINAL_SINGLE_POINT_ENERGY>  (536) 
0

>  <NONCOV_INTER_ENERGY_QM>  (536) 
0

>  <FF_Energy>  (536) 
6.33

>  <QM_Energy>  (536) 
-4.14

>  <source>  (536) 
ACET_MBZ_00

>  <Index>  (536) 
19539

$$$$
ACET-pdb1iu4-D-ASP-304:MBZ-pdb1iu4-D-PHE-251
     RDKit          3D

 22 21  0  0  0  0  0  0  0  0999 V2000
    3.4911    3.4078   -1.6331 C   0  0  0  0  0  0  0  0  0  0  0  0
    4.2594    3.8702   -2.0934 H   0  0  0  0  0  0  0  0  0  0  0  0
    2.7046    4.0383   -1.6250 H   0  0  0  0  0  0  0  0  0  0  0  0
    3.2187    2.5335   -2.2244 H   0  0  0  0  0  0  0  0  0  0  0  0
    3.8905    3.1251   -0.2079 C   0  0  0  0  0  0  0  0  0  0  0  0
    3.1583    3.5780    0.6724 O   0  0  0  0  0  1  0  0  0  0  0  0
    4.9220    2.4737    0.0116 O   0  0  0  0  0  0  0  0  0  0  0  0
   -0.0236    2.8891   -0.0267 C   0  0  0  0  0  0  0  0  0  0  0  0
   -0.7971    3.1727   -0.5629 H   0  0  0  0  0  0  0  0  0  0  0  0
    0.8276    3.1976   -0.4078 H   0  0  0  0  0  0  0  0  0  0  0  0
   -0.1246    3.3323    0.9640 H   0  0  0  0  0  0  0  0  0  0  0  0
   -0.0040    1.3851    0.0112 C   0  0  0  0  0  0  0  0  0  0  0  0
   -1.2184    0.6932    0.0395 C   0  0  0  0  0  0  0  0  0  0  0  0
   -2.0726    1.1892    0.0861 H   0  0  0  0  0  0  0  0  0  0  0  0
   -1.2308   -0.7032    0.0000 C   0  0  0  0  0  0  0  0  0  0  0  0
   -2.0864   -1.2030    0.0218 H   0  0  0  0  0  0  0  0  0  0  0  0
    0.0035   -1.3883   -0.0701 C   0  0  0  0  0  0  0  0  0  0  0  0
    0.0027   -2.3842   -0.1717 H   0  0  0  0  0  0  0  0  0  0  0  0
    1.2308   -0.6946   -0.0000 C   0  0  0  0  0  0  0  0  0  0  0  0
    2.0963   -1.1940    0.0368 H   0  0  0  0  0  0  0  0  0  0  0  0
    1.2189    0.7078    0.0194 C   0  0  0  0  0  0  0  0  0  0  0  0
    2.0684    1.2105    0.0372 H   0  0  0  0  0  0  0  0  0  0  0  0
  1  5  1  0
  5  6  1  0
  5  7  2  0
  1  2  1  0
  1  3  1  0
  1  4  1  0
  8 12  1  0
 12 13  2  0
 13 15  1  0
 15 17  2  0
 17 19  1  0
 19 21  2  0
 21 12  1  0
  8  9  1  0
  8 10  1  0
  8 11  1  0
 13 14  1  0
 15 16  1  0
 17 18  1  0
 19 20  1  0
 21 22  1  0
M  CHG  1   6  -1
M  END
>  <PDB_ID>  (537) 
pdb1iu4

>  <RESIDUE_NAME>  (537) 
ASP   PHE

>  <FRAG_NAME>  (537) 
ACET   MBZ

>  <FRAG_ATOM_NUM>  (537) 
fragi: 7  fragj: 15

>  <atom.prop.CHAIN_ID>  (537) 
A A A A A A A Z Z Z Z Z Z Z Z Z Z Z Z Z Z Z

>  <atom.prop.IS_HEAVY_ATOM>  (537) 
1 0 0 0 1 1 1 1 0 0 0 1 1 0 1 0 1 0 1 0 1 0

>  <DIFUSE_FUNC_ATOM>  (537) 
atom 6   atom 7   

>  <FINAL_SINGLE_POINT_ENERGY>  (537) 
0

>  <NONCOV_INTER_ENERGY_QM>  (537) 
0

>  <FF_Energy>  (537) 
-2.33

>  <QM_Energy>  (537) 
-7.35

>  <source>  (537) 
ACET_MBZ_00

>  <Index>  (537) 
19547

$$$$
ACET-pdb1j0x-P-GLU-94:MBZ-pdb1j0x-P-PHE-99
     RDKit          3D

 22 21  0  0  0  0  0  0  0  0999 V2000
    3.5743    4.8329    0.4569 C   0  0  0  0  0  0  0  0  0  0  0  0
    2.7760    4.9814    1.0114 H   0  0  0  0  0  0  0  0  0  0  0  0
    3.4833    5.2356   -0.4369 H   0  0  0  0  0  0  0  0  0  0  0  0
    4.4267    5.2945    0.9554 H   0  0  0  0  0  0  0  0  0  0  0  0
    3.7423    3.3486    0.2786 C   0  0  0  0  0  0  0  0  0  0  0  0
    3.9903    2.6577    1.2874 O   0  0  0  0  0  1  0  0  0  0  0  0
    3.6276    2.8828   -0.8741 O   0  0  0  0  0  0  0  0  0  0  0  0
    0.0016    2.9116    0.0159 C   0  0  0  0  0  0  0  0  0  0  0  0
    0.9389    3.2194   -0.0437 H   0  0  0  0  0  0  0  0  0  0  0  0
   -0.4243    3.2107    0.8559 H   0  0  0  0  0  0  0  0  0  0  0  0
   -0.5466    3.3635   -0.8108 H   0  0  0  0  0  0  0  0  0  0  0  0
    0.0014    1.4065    0.0008 C   0  0  0  0  0  0  0  0  0  0  0  0
   -1.1992    0.6911    0.0003 C   0  0  0  0  0  0  0  0  0  0  0  0
   -2.0656    1.1804   -0.0007 H   0  0  0  0  0  0  0  0  0  0  0  0
   -1.2062   -0.7068    0.0000 C   0  0  0  0  0  0  0  0  0  0  0  0
   -2.0819   -1.1965    0.0012 H   0  0  0  0  0  0  0  0  0  0  0  0
   -0.0022   -1.4011   -0.0000 C   0  0  0  0  0  0  0  0  0  0  0  0
    0.0038   -2.3964   -0.0004 H   0  0  0  0  0  0  0  0  0  0  0  0
    1.2062   -0.6915    0.0000 C   0  0  0  0  0  0  0  0  0  0  0  0
    2.0860   -1.1901    0.0024 H   0  0  0  0  0  0  0  0  0  0  0  0
    1.2000    0.7018   -0.0010 C   0  0  0  0  0  0  0  0  0  0  0  0
    2.0670    1.1983   -0.0035 H   0  0  0  0  0  0  0  0  0  0  0  0
  1  5  1  0
  5  6  1  0
  5  7  2  0
  1  2  1  0
  1  3  1  0
  1  4  1  0
  8 12  1  0
 12 13  2  0
 13 15  1  0
 15 17  2  0
 17 19  1  0
 19 21  2  0
 21 12  1  0
  8  9  1  0
  8 10  1  0
  8 11  1  0
 13 14  1  0
 15 16  1  0
 17 18  1  0
 19 20  1  0
 21 22  1  0
M  CHG  1   6  -1
M  END
>  <PDB_ID>  (538) 
pdb1j0x

>  <RESIDUE_NAME>  (538) 
GLU   PHE

>  <FRAG_NAME>  (538) 
ACET   MBZ

>  <FRAG_ATOM_NUM>  (538) 
fragi: 7  fragj: 15

>  <atom.prop.CHAIN_ID>  (538) 
A A A A A A A Z Z Z Z Z Z Z Z Z Z Z Z Z Z Z

>  <atom.prop.IS_HEAVY_ATOM>  (538) 
1 0 0 0 1 1 1 1 0 0 0 1 1 0 1 0 1 0 1 0 1 0

>  <DIFUSE_FUNC_ATOM>  (538) 
atom 6   atom 7   

>  <FINAL_SINGLE_POINT_ENERGY>  (538) 
0

>  <NONCOV_INTER_ENERGY_QM>  (538) 
0

>  <FF_Energy>  (538) 
-2.48

>  <QM_Energy>  (538) 
-8.52

>  <source>  (538) 
ACET_MBZ_00

>  <Index>  (538) 
19549

$$$$
ACET-pdb2nv1-D-ASP-111:MBZ-pdb2nv1-D-PHE-114
     RDKit          3D

 22 21  0  0  0  0  0  0  0  0999 V2000
    4.3170    4.5538   -1.8001 C   0  0  0  0  0  0  0  0  0  0  0  0
    4.9782    4.9145   -1.1408 H   0  0  0  0  0  0  0  0  0  0  0  0
    3.6013    5.2344   -1.9573 H   0  0  0  0  0  0  0  0  0  0  0  0
    4.8405    4.3978   -2.7433 H   0  0  0  0  0  0  0  0  0  0  0  0
    3.7041    3.3146   -1.2532 C   0  0  0  0  0  0  0  0  0  0  0  0
    3.1891    2.4928   -2.0433 O   0  0  0  0  0  1  0  0  0  0  0  0
    3.6737    3.1806    0.0046 O   0  0  0  0  0  0  0  0  0  0  0  0
   -0.0043    2.8847   -0.0493 C   0  0  0  0  0  0  0  0  0  0  0  0
    0.9047    3.1982    0.1702 H   0  0  0  0  0  0  0  0  0  0  0  0
   -0.6710    3.2161    0.5982 H   0  0  0  0  0  0  0  0  0  0  0  0
   -0.2659    3.2868   -1.0281 H   0  0  0  0  0  0  0  0  0  0  0  0
   -0.0083    1.3851   -0.0024 C   0  0  0  0  0  0  0  0  0  0  0  0
   -1.1909    0.6903    0.0157 C   0  0  0  0  0  0  0  0  0  0  0  0
   -2.0604    1.1914    0.0392 H   0  0  0  0  0  0  0  0  0  0  0  0
   -1.2040   -0.6740    0.0000 C   0  0  0  0  0  0  0  0  0  0  0  0
   -2.0721   -1.1820   -0.0177 H   0  0  0  0  0  0  0  0  0  0  0  0
    0.0114   -1.3855    0.0102 C   0  0  0  0  0  0  0  0  0  0  0  0
   -0.0055   -2.3788    0.0235 H   0  0  0  0  0  0  0  0  0  0  0  0
    1.2040   -0.6890    0.0000 C   0  0  0  0  0  0  0  0  0  0  0  0
    2.0863   -1.1921    0.0120 H   0  0  0  0  0  0  0  0  0  0  0  0
    1.1879    0.6731   -0.0234 C   0  0  0  0  0  0  0  0  0  0  0  0
    2.0549    1.1887   -0.0571 H   0  0  0  0  0  0  0  0  0  0  0  0
  1  5  1  0
  5  6  1  0
  5  7  2  0
  1  2  1  0
  1  3  1  0
  1  4  1  0
  8 12  1  0
 12 13  2  0
 13 15  1  0
 15 17  2  0
 17 19  1  0
 19 21  2  0
 21 12  1  0
  8  9  1  0
  8 10  1  0
  8 11  1  0
 13 14  1  0
 15 16  1  0
 17 18  1  0
 19 20  1  0
 21 22  1  0
M  CHG  1   6  -1
M  END
>  <PDB_ID>  (539) 
pdb2nv1

>  <RESIDUE_NAME>  (539) 
ASP   PHE

>  <FRAG_NAME>  (539) 
ACET   MBZ

>  <FRAG_ATOM_NUM>  (539) 
fragi: 7  fragj: 15

>  <atom.prop.CHAIN_ID>  (539) 
A A A A A A A Z Z Z Z Z Z Z Z Z Z Z Z Z Z Z

>  <atom.prop.IS_HEAVY_ATOM>  (539) 
1 0 0 0 1 1 1 1 0 0 0 1 1 0 1 0 1 0 1 0 1 0

>  <DIFUSE_FUNC_ATOM>  (539) 
atom 6   atom 7   

>  <FINAL_SINGLE_POINT_ENERGY>  (539) 
0

>  <NONCOV_INTER_ENERGY_QM>  (539) 
0

>  <FF_Energy>  (539) 
-2.4

>  <QM_Energy>  (539) 
-8.84

>  <source>  (539) 
ACET_MBZ_00

>  <Index>  (539) 
19602

$$$$
ACET-pdb2nv1-E-ASP-111:MBZ-pdb2nv1-E-PHE-114
     RDKit          3D

 22 21  0  0  0  0  0  0  0  0999 V2000
    4.2953    4.5960   -1.8870 C   0  0  0  0  0  0  0  0  0  0  0  0
    4.9229    4.9586   -1.2069 H   0  0  0  0  0  0  0  0  0  0  0  0
    3.5619    5.2423   -2.0620 H   0  0  0  0  0  0  0  0  0  0  0  0
    4.8489    4.4532   -2.8150 H   0  0  0  0  0  0  0  0  0  0  0  0
    3.6832    3.3026   -1.3405 C   0  0  0  0  0  0  0  0  0  0  0  0
    3.2630    2.4526   -2.1310 O   0  0  0  0  0  1  0  0  0  0  0  0
    3.6122    3.1389   -0.0973 O   0  0  0  0  0  0  0  0  0  0  0  0
    0.0139    2.9015   -0.0210 C   0  0  0  0  0  0  0  0  0  0  0  0
    0.9229    3.2006    0.2130 H   0  0  0  0  0  0  0  0  0  0  0  0
   -0.6574    3.2200    0.6254 H   0  0  0  0  0  0  0  0  0  0  0  0
   -0.2363    3.3141   -0.9983 H   0  0  0  0  0  0  0  0  0  0  0  0
    0.0010    1.3951   -0.0001 C   0  0  0  0  0  0  0  0  0  0  0  0
   -1.2058    0.7010   -0.0046 C   0  0  0  0  0  0  0  0  0  0  0  0
   -2.0642    1.1965   -0.0131 H   0  0  0  0  0  0  0  0  0  0  0  0
   -1.2140   -0.6894    0.0000 C   0  0  0  0  0  0  0  0  0  0  0  0
   -2.0837   -1.1874   -0.0078 H   0  0  0  0  0  0  0  0  0  0  0  0
    0.0025   -1.3962    0.0180 C   0  0  0  0  0  0  0  0  0  0  0  0
   -0.0008   -2.3861    0.0429 H   0  0  0  0  0  0  0  0  0  0  0  0
    1.2140   -0.6866   -0.0000 C   0  0  0  0  0  0  0  0  0  0  0  0
    2.0885   -1.1987   -0.0013 H   0  0  0  0  0  0  0  0  0  0  0  0
    1.2023    0.6760   -0.0133 C   0  0  0  0  0  0  0  0  0  0  0  0
    2.0675    1.1912   -0.0338 H   0  0  0  0  0  0  0  0  0  0  0  0
  1  5  1  0
  5  6  1  0
  5  7  2  0
  1  2  1  0
  1  3  1  0
  1  4  1  0
  8 12  1  0
 12 13  2  0
 13 15  1  0
 15 17  2  0
 17 19  1  0
 19 21  2  0
 21 12  1  0
  8  9  1  0
  8 10  1  0
  8 11  1  0
 13 14  1  0
 15 16  1  0
 17 18  1  0
 19 20  1  0
 21 22  1  0
M  CHG  1   6  -1
M  END
>  <PDB_ID>  (540) 
pdb2nv1

>  <RESIDUE_NAME>  (540) 
ASP   PHE

>  <FRAG_NAME>  (540) 
ACET   MBZ

>  <FRAG_ATOM_NUM>  (540) 
fragi: 7  fragj: 15

>  <atom.prop.CHAIN_ID>  (540) 
A A A A A A A Z Z Z Z Z Z Z Z Z Z Z Z Z Z Z

>  <atom.prop.IS_HEAVY_ATOM>  (540) 
1 0 0 0 1 1 1 1 0 0 0 1 1 0 1 0 1 0 1 0 1 0

>  <DIFUSE_FUNC_ATOM>  (540) 
atom 6   atom 7   

>  <FINAL_SINGLE_POINT_ENERGY>  (540) 
0

>  <NONCOV_INTER_ENERGY_QM>  (540) 
0

>  <FF_Energy>  (540) 
-2.35

>  <QM_Energy>  (540) 
-8.97

>  <source>  (540) 
ACET_MBZ_00

>  <Index>  (540) 
19604

$$$$
ACET-pdb2nv1-F-ASP-111:MBZ-pdb2nv1-F-PHE-114
     RDKit          3D

 22 21  0  0  0  0  0  0  0  0999 V2000
    4.3995    4.6233   -1.7668 C   0  0  0  0  0  0  0  0  0  0  0  0
    5.0180    4.9844   -1.0785 H   0  0  0  0  0  0  0  0  0  0  0  0
    3.6799    5.2775   -1.9655 H   0  0  0  0  0  0  0  0  0  0  0  0
    4.9758    4.4821   -2.6812 H   0  0  0  0  0  0  0  0  0  0  0  0
    3.7782    3.3419   -1.2538 C   0  0  0  0  0  0  0  0  0  0  0  0
    3.3390    2.4760   -2.0972 O   0  0  0  0  0  1  0  0  0  0  0  0
    3.7157    3.2002    0.0042 O   0  0  0  0  0  0  0  0  0  0  0  0
    0.0057    2.8775   -0.0467 C   0  0  0  0  0  0  0  0  0  0  0  0
    0.9080    3.1966    0.2048 H   0  0  0  0  0  0  0  0  0  0  0  0
   -0.6815    3.2154    0.5787 H   0  0  0  0  0  0  0  0  0  0  0  0
   -0.2212    3.2866   -1.0313 H   0  0  0  0  0  0  0  0  0  0  0  0
   -0.0025    1.3940   -0.0034 C   0  0  0  0  0  0  0  0  0  0  0  0
   -1.1987    0.6884   -0.0033 C   0  0  0  0  0  0  0  0  0  0  0  0
   -2.0643    1.1823   -0.0072 H   0  0  0  0  0  0  0  0  0  0  0  0
   -1.2016   -0.6916    0.0000 C   0  0  0  0  0  0  0  0  0  0  0  0
   -2.0685   -1.1980   -0.0127 H   0  0  0  0  0  0  0  0  0  0  0  0
    0.0167   -1.3890    0.0232 C   0  0  0  0  0  0  0  0  0  0  0  0
    0.0043   -2.3870    0.0563 H   0  0  0  0  0  0  0  0  0  0  0  0
    1.2016   -0.6931   -0.0000 C   0  0  0  0  0  0  0  0  0  0  0  0
    2.0903   -1.1824   -0.0034 H   0  0  0  0  0  0  0  0  0  0  0  0
    1.1846    0.6913   -0.0165 C   0  0  0  0  0  0  0  0  0  0  0  0
    2.0572    1.1930   -0.0394 H   0  0  0  0  0  0  0  0  0  0  0  0
  1  5  1  0
  5  6  1  0
  5  7  2  0
  1  2  1  0
  1  3  1  0
  1  4  1  0
  8 12  1  0
 12 13  2  0
 13 15  1  0
 15 17  2  0
 17 19  1  0
 19 21  2  0
 21 12  1  0
  8  9  1  0
  8 10  1  0
  8 11  1  0
 13 14  1  0
 15 16  1  0
 17 18  1  0
 19 20  1  0
 21 22  1  0
M  CHG  1   6  -1
M  END
>  <PDB_ID>  (541) 
pdb2nv1

>  <RESIDUE_NAME>  (541) 
ASP   PHE

>  <FRAG_NAME>  (541) 
ACET   MBZ

>  <FRAG_ATOM_NUM>  (541) 
fragi: 7  fragj: 15

>  <atom.prop.CHAIN_ID>  (541) 
A A A A A A A Z Z Z Z Z Z Z Z Z Z Z Z Z Z Z

>  <atom.prop.IS_HEAVY_ATOM>  (541) 
1 0 0 0 1 1 1 1 0 0 0 1 1 0 1 0 1 0 1 0 1 0

>  <DIFUSE_FUNC_ATOM>  (541) 
atom 6   atom 7   

>  <FINAL_SINGLE_POINT_ENERGY>  (541) 
0

>  <NONCOV_INTER_ENERGY_QM>  (541) 
0

>  <FF_Energy>  (541) 
-2.53

>  <QM_Energy>  (541) 
-8.51

>  <source>  (541) 
ACET_MBZ_00

>  <Index>  (541) 
19606

$$$$
ACET-pdb1j3b-B-GLU-254:MBZ-pdb1j3b-B-PHE-200
     RDKit          3D

 22 21  0  0  0  0  0  0  0  0999 V2000
   -0.9724    0.3208   -3.5423 C   0  0  0  0  0  0  0  0  0  0  0  0
   -0.4833   -0.1916   -2.8649 H   0  0  0  0  0  0  0  0  0  0  0  0
   -0.5908    0.2224   -4.4398 H   0  0  0  0  0  0  0  0  0  0  0  0
   -2.0015   -0.0377   -3.5647 H   0  0  0  0  0  0  0  0  0  0  0  0
   -0.8795    1.7905   -3.1636 C   0  0  0  0  0  0  0  0  0  0  0  0
   -1.9350    2.4026   -2.8642 O   0  0  0  0  0  1  0  0  0  0  0  0
    0.2471    2.3325   -3.1676 O   0  0  0  0  0  0  0  0  0  0  0  0
    0.0082    2.9278   -0.0385 C   0  0  0  0  0  0  0  0  0  0  0  0
   -0.1594    3.2080   -0.9715 H   0  0  0  0  0  0  0  0  0  0  0  0
    0.8927    3.2347    0.2781 H   0  0  0  0  0  0  0  0  0  0  0  0
   -0.7496    3.3955    0.5899 H   0  0  0  0  0  0  0  0  0  0  0  0
    0.0005    1.4132   -0.0002 C   0  0  0  0  0  0  0  0  0  0  0  0
   -1.2004    0.7018    0.0005 C   0  0  0  0  0  0  0  0  0  0  0  0
   -2.0667    1.1881   -0.0002 H   0  0  0  0  0  0  0  0  0  0  0  0
   -1.2073   -0.7017   -0.0000 C   0  0  0  0  0  0  0  0  0  0  0  0
   -2.0837   -1.1896    0.0010 H   0  0  0  0  0  0  0  0  0  0  0  0
   -0.0010   -1.4051   -0.0003 C   0  0  0  0  0  0  0  0  0  0  0  0
   -0.0067   -2.4011   -0.0008 H   0  0  0  0  0  0  0  0  0  0  0  0
    1.2073   -0.7065    0.0000 C   0  0  0  0  0  0  0  0  0  0  0  0
    2.0859   -1.1990    0.0020 H   0  0  0  0  0  0  0  0  0  0  0  0
    1.2010    0.6984   -0.0001 C   0  0  0  0  0  0  0  0  0  0  0  0
    2.0697    1.1906   -0.0010 H   0  0  0  0  0  0  0  0  0  0  0  0
  1  5  1  0
  5  6  1  0
  5  7  2  0
  1  2  1  0
  1  3  1  0
  1  4  1  0
  8 12  1  0
 12 13  2  0
 13 15  1  0
 15 17  2  0
 17 19  1  0
 19 21  2  0
 21 12  1  0
  8  9  1  0
  8 10  1  0
  8 11  1  0
 13 14  1  0
 15 16  1  0
 17 18  1  0
 19 20  1  0
 21 22  1  0
M  CHG  1   6  -1
M  END
>  <PDB_ID>  (542) 
pdb1j3b

>  <RESIDUE_NAME>  (542) 
GLU   PHE

>  <FRAG_NAME>  (542) 
ACET   MBZ

>  <FRAG_ATOM_NUM>  (542) 
fragi: 7  fragj: 15

>  <atom.prop.CHAIN_ID>  (542) 
A A A A A A A Z Z Z Z Z Z Z Z Z Z Z Z Z Z Z

>  <atom.prop.IS_HEAVY_ATOM>  (542) 
1 0 0 0 1 1 1 1 0 0 0 1 1 0 1 0 1 0 1 0 1 0

>  <DIFUSE_FUNC_ATOM>  (542) 
atom 6   atom 7   

>  <FINAL_SINGLE_POINT_ENERGY>  (542) 
0

>  <NONCOV_INTER_ENERGY_QM>  (542) 
0

>  <FF_Energy>  (542) 
5.13

>  <QM_Energy>  (542) 
-7.63

>  <source>  (542) 
ACET_MBZ_00

>  <Index>  (542) 
19633

$$$$
ACET-pdb1j0x-Q-GLU-94:MBZ-pdb1j0x-Q-PHE-99
     RDKit          3D

 22 21  0  0  0  0  0  0  0  0999 V2000
    3.2392    4.7726   -1.4370 C   0  0  0  0  0  0  0  0  0  0  0  0
    2.6504    4.9408   -0.6693 H   0  0  0  0  0  0  0  0  0  0  0  0
    2.8943    5.1665   -2.2676 H   0  0  0  0  0  0  0  0  0  0  0  0
    4.2111    5.2181   -1.2245 H   0  0  0  0  0  0  0  0  0  0  0  0
    3.3276    3.2836   -1.6351 C   0  0  0  0  0  0  0  0  0  0  0  0
    3.8947    2.6022   -0.7510 O   0  0  0  0  0  1  0  0  0  0  0  0
    2.8293    2.8041   -2.6753 O   0  0  0  0  0  0  0  0  0  0  0  0
    0.0017    2.9119    0.0011 C   0  0  0  0  0  0  0  0  0  0  0  0
    0.9062    3.2181   -0.2497 H   0  0  0  0  0  0  0  0  0  0  0  0
   -0.2488    3.2178    0.9055 H   0  0  0  0  0  0  0  0  0  0  0  0
   -0.7039    3.3515   -0.7039 H   0  0  0  0  0  0  0  0  0  0  0  0
   -0.0001    1.4056   -0.0001 C   0  0  0  0  0  0  0  0  0  0  0  0
   -1.1993    0.6951    0.0006 C   0  0  0  0  0  0  0  0  0  0  0  0
   -2.0656    1.1836    0.0003 H   0  0  0  0  0  0  0  0  0  0  0  0
   -1.2029   -0.7012   -0.0000 C   0  0  0  0  0  0  0  0  0  0  0  0
   -2.0784   -1.1939    0.0006 H   0  0  0  0  0  0  0  0  0  0  0  0
    0.0019   -1.3978   -0.0001 C   0  0  0  0  0  0  0  0  0  0  0  0
   -0.0016   -2.3957   -0.0008 H   0  0  0  0  0  0  0  0  0  0  0  0
    1.2029   -0.6985   -0.0000 C   0  0  0  0  0  0  0  0  0  0  0  0
    2.0850   -1.1936    0.0013 H   0  0  0  0  0  0  0  0  0  0  0  0
    1.1975    0.6969   -0.0005 C   0  0  0  0  0  0  0  0  0  0  0  0
    2.0663    1.1916   -0.0018 H   0  0  0  0  0  0  0  0  0  0  0  0
  1  5  1  0
  5  6  1  0
  5  7  2  0
  1  2  1  0
  1  3  1  0
  1  4  1  0
  8 12  1  0
 12 13  2  0
 13 15  1  0
 15 17  2  0
 17 19  1  0
 19 21  2  0
 21 12  1  0
  8  9  1  0
  8 10  1  0
  8 11  1  0
 13 14  1  0
 15 16  1  0
 17 18  1  0
 19 20  1  0
 21 22  1  0
M  CHG  1   6  -1
M  END
>  <PDB_ID>  (543) 
pdb1j0x

>  <RESIDUE_NAME>  (543) 
GLU   PHE

>  <FRAG_NAME>  (543) 
ACET   MBZ

>  <FRAG_ATOM_NUM>  (543) 
fragi: 7  fragj: 15

>  <atom.prop.CHAIN_ID>  (543) 
A A A A A A A Z Z Z Z Z Z Z Z Z Z Z Z Z Z Z

>  <atom.prop.IS_HEAVY_ATOM>  (543) 
1 0 0 0 1 1 1 1 0 0 0 1 1 0 1 0 1 0 1 0 1 0

>  <DIFUSE_FUNC_ATOM>  (543) 
atom 6   atom 7   

>  <FINAL_SINGLE_POINT_ENERGY>  (543) 
0

>  <NONCOV_INTER_ENERGY_QM>  (543) 
0

>  <FF_Energy>  (543) 
-1.74

>  <QM_Energy>  (543) 
-7.33

>  <source>  (543) 
ACET_MBZ_00

>  <Index>  (543) 
19729

$$$$
ACET-pdb1j3w-B-ASP-36:MBZ-pdb1j3w-B-PHE-40
     RDKit          3D

 22 21  0  0  0  0  0  0  0  0999 V2000
   -4.3404    5.1283   -0.6385 C   0  0  0  0  0  0  0  0  0  0  0  0
   -5.2622    4.9267   -0.9611 H   0  0  0  0  0  0  0  0  0  0  0  0
   -3.7899    5.4893   -1.3861 H   0  0  0  0  0  0  0  0  0  0  0  0
   -4.4190    5.9066    0.1206 H   0  0  0  0  0  0  0  0  0  0  0  0
   -3.7045    3.8398   -0.1383 C   0  0  0  0  0  0  0  0  0  0  0  0
   -3.5574    2.9200   -0.9712 O   0  0  0  0  0  1  0  0  0  0  0  0
   -3.3541    3.7213    1.0495 O   0  0  0  0  0  0  0  0  0  0  0  0
    0.0029    2.9024   -0.0224 C   0  0  0  0  0  0  0  0  0  0  0  0
   -0.8871    3.2069   -0.3286 H   0  0  0  0  0  0  0  0  0  0  0  0
    0.7155    3.1992   -0.6410 H   0  0  0  0  0  0  0  0  0  0  0  0
    0.1941    3.3605    0.9480 H   0  0  0  0  0  0  0  0  0  0  0  0
    0.0003    1.4011   -0.0008 C   0  0  0  0  0  0  0  0  0  0  0  0
   -1.1990    0.6956    0.0006 C   0  0  0  0  0  0  0  0  0  0  0  0
   -2.0643    1.1845    0.0008 H   0  0  0  0  0  0  0  0  0  0  0  0
   -1.2028   -0.6982   -0.0000 C   0  0  0  0  0  0  0  0  0  0  0  0
   -2.0782   -1.1920    0.0004 H   0  0  0  0  0  0  0  0  0  0  0  0
    0.0017   -1.3943    0.0001 C   0  0  0  0  0  0  0  0  0  0  0  0
   -0.0030   -2.3931   -0.0008 H   0  0  0  0  0  0  0  0  0  0  0  0
    1.2028   -0.6984    0.0000 C   0  0  0  0  0  0  0  0  0  0  0  0
    2.0844   -1.1946    0.0017 H   0  0  0  0  0  0  0  0  0  0  0  0
    1.1970    0.6942    0.0002 C   0  0  0  0  0  0  0  0  0  0  0  0
    2.0650    1.1904    0.0001 H   0  0  0  0  0  0  0  0  0  0  0  0
  1  5  1  0
  5  6  1  0
  5  7  2  0
  1  2  1  0
  1  3  1  0
  1  4  1  0
  8 12  1  0
 12 13  2  0
 13 15  1  0
 15 17  2  0
 17 19  1  0
 19 21  2  0
 21 12  1  0
  8  9  1  0
  8 10  1  0
  8 11  1  0
 13 14  1  0
 15 16  1  0
 17 18  1  0
 19 20  1  0
 21 22  1  0
M  CHG  1   6  -1
M  END
>  <PDB_ID>  (544) 
pdb1j3w

>  <RESIDUE_NAME>  (544) 
ASP   PHE

>  <FRAG_NAME>  (544) 
ACET   MBZ

>  <FRAG_ATOM_NUM>  (544) 
fragi: 7  fragj: 15

>  <atom.prop.CHAIN_ID>  (544) 
A A A A A A A Z Z Z Z Z Z Z Z Z Z Z Z Z Z Z

>  <atom.prop.IS_HEAVY_ATOM>  (544) 
1 0 0 0 1 1 1 1 0 0 0 1 1 0 1 0 1 0 1 0 1 0

>  <DIFUSE_FUNC_ATOM>  (544) 
atom 6   atom 7   

>  <FINAL_SINGLE_POINT_ENERGY>  (544) 
0

>  <NONCOV_INTER_ENERGY_QM>  (544) 
0

>  <FF_Energy>  (544) 
-2.58

>  <QM_Energy>  (544) 
-9.15

>  <source>  (544) 
ACET_MBZ_00

>  <Index>  (544) 
19732

$$$$
ACET-pdb1j4s-A-GLU-35:MBZ-pdb1j4s-A-PHE-86
     RDKit          3D

 22 21  0  0  0  0  0  0  0  0999 V2000
   -0.4266   -4.4249   -2.3554 C   0  0  0  0  0  0  0  0  0  0  0  0
   -1.3554   -4.4704   -2.0564 H   0  0  0  0  0  0  0  0  0  0  0  0
   -0.1719   -5.1610   -2.9449 H   0  0  0  0  0  0  0  0  0  0  0  0
   -0.3032   -3.4957   -2.9118 H   0  0  0  0  0  0  0  0  0  0  0  0
    0.4667   -4.4794   -1.1236 C   0  0  0  0  0  0  0  0  0  0  0  0
    1.4665   -3.7406   -1.0614 O   0  0  0  0  0  1  0  0  0  0  0  0
    0.1956   -5.2829   -0.2060 O   0  0  0  0  0  0  0  0  0  0  0  0
   -0.0319    2.8324    0.0206 C   0  0  0  0  0  0  0  0  0  0  0  0
    0.2543    3.1733   -0.8679 H   0  0  0  0  0  0  0  0  0  0  0  0
    0.5808    3.1588    0.7322 H   0  0  0  0  0  0  0  0  0  0  0  0
   -1.0219    3.2391    0.2266 H   0  0  0  0  0  0  0  0  0  0  0  0
    0.0006    1.3781    0.0001 C   0  0  0  0  0  0  0  0  0  0  0  0
   -1.1892    0.6734   -0.0004 C   0  0  0  0  0  0  0  0  0  0  0  0
   -2.0563    1.1798   -0.0030 H   0  0  0  0  0  0  0  0  0  0  0  0
   -1.1997   -0.6851    0.0000 C   0  0  0  0  0  0  0  0  0  0  0  0
   -2.0782   -1.1876    0.0016 H   0  0  0  0  0  0  0  0  0  0  0  0
   -0.0105   -1.3764    0.0003 C   0  0  0  0  0  0  0  0  0  0  0  0
   -0.0088   -2.3780    0.0006 H   0  0  0  0  0  0  0  0  0  0  0  0
    1.1997   -0.6839   -0.0000 C   0  0  0  0  0  0  0  0  0  0  0  0
    2.0739   -1.1929    0.0014 H   0  0  0  0  0  0  0  0  0  0  0  0
    1.1991    0.6939   -0.0001 C   0  0  0  0  0  0  0  0  0  0  0  0
    2.0605    1.1955   -0.0016 H   0  0  0  0  0  0  0  0  0  0  0  0
  1  5  1  0
  5  6  1  0
  5  7  2  0
  1  2  1  0
  1  3  1  0
  1  4  1  0
  8 12  1  0
 12 13  2  0
 13 15  1  0
 15 17  2  0
 17 19  1  0
 19 21  2  0
 21 12  1  0
  8  9  1  0
  8 10  1  0
  8 11  1  0
 13 14  1  0
 15 16  1  0
 17 18  1  0
 19 20  1  0
 21 22  1  0
M  CHG  1   6  -1
M  END
>  <PDB_ID>  (545) 
pdb1j4s

>  <RESIDUE_NAME>  (545) 
GLU   PHE

>  <FRAG_NAME>  (545) 
ACET   MBZ

>  <FRAG_ATOM_NUM>  (545) 
fragi: 7  fragj: 15

>  <atom.prop.CHAIN_ID>  (545) 
A A A A A A A Z Z Z Z Z Z Z Z Z Z Z Z Z Z Z

>  <atom.prop.IS_HEAVY_ATOM>  (545) 
1 0 0 0 1 1 1 1 0 0 0 1 1 0 1 0 1 0 1 0 1 0

>  <DIFUSE_FUNC_ATOM>  (545) 
atom 6   atom 7   

>  <FINAL_SINGLE_POINT_ENERGY>  (545) 
0

>  <NONCOV_INTER_ENERGY_QM>  (545) 
0

>  <FF_Energy>  (545) 
0.38

>  <QM_Energy>  (545) 
-4.8

>  <source>  (545) 
ACET_MBZ_00

>  <Index>  (545) 
19750

$$$$
ACET-pdb1j4s-B-ASP-45:MBZ-pdb1j4s-B-PHE-71
     RDKit          3D

 22 21  0  0  0  0  0  0  0  0999 V2000
    0.9182   -1.3944   -3.3289 C   0  0  0  0  0  0  0  0  0  0  0  0
    0.7689   -0.4289   -3.1369 H   0  0  0  0  0  0  0  0  0  0  0  0
    0.0710   -1.9032   -3.2155 H   0  0  0  0  0  0  0  0  0  0  0  0
    1.2345   -1.4884   -4.3677 H   0  0  0  0  0  0  0  0  0  0  0  0
    1.9413   -1.9287   -2.3761 C   0  0  0  0  0  0  0  0  0  0  0  0
    1.9806   -3.1522   -2.1620 O   0  0  0  0  0  1  0  0  0  0  0  0
    2.7278   -1.1364   -1.8492 O   0  0  0  0  0  0  0  0  0  0  0  0
    0.0886    2.9939    0.0920 C   0  0  0  0  0  0  0  0  0  0  0  0
   -0.4822    3.3576   -0.5741 H   0  0  0  0  0  0  0  0  0  0  0  0
    1.0072    3.2372    0.0847 H   0  0  0  0  0  0  0  0  0  0  0  0
   -0.3188    3.2711    1.0643 H   0  0  0  0  0  0  0  0  0  0  0  0
    0.0072    1.4381   -0.0085 C   0  0  0  0  0  0  0  0  0  0  0  0
   -1.2073    0.7126   -0.0032 C   0  0  0  0  0  0  0  0  0  0  0  0
   -2.0692    1.1864   -0.0035 H   0  0  0  0  0  0  0  0  0  0  0  0
   -1.1942   -0.7098    0.0000 C   0  0  0  0  0  0  0  0  0  0  0  0
   -2.0746   -1.1964   -0.0108 H   0  0  0  0  0  0  0  0  0  0  0  0
    0.0086   -1.4084    0.0197 C   0  0  0  0  0  0  0  0  0  0  0  0
   -0.0077   -2.4107    0.0476 H   0  0  0  0  0  0  0  0  0  0  0  0
    1.1942   -0.7263   -0.0000 C   0  0  0  0  0  0  0  0  0  0  0  0
    2.0837   -1.2044   -0.0077 H   0  0  0  0  0  0  0  0  0  0  0  0
    1.1915    0.6938   -0.0079 C   0  0  0  0  0  0  0  0  0  0  0  0
    2.0747    1.1711   -0.0142 H   0  0  0  0  0  0  0  0  0  0  0  0
  1  5  1  0
  5  6  1  0
  5  7  2  0
  1  2  1  0
  1  3  1  0
  1  4  1  0
  8 12  1  0
 12 13  2  0
 13 15  1  0
 15 17  2  0
 17 19  1  0
 19 21  2  0
 21 12  1  0
  8  9  1  0
  8 10  1  0
  8 11  1  0
 13 14  1  0
 15 16  1  0
 17 18  1  0
 19 20  1  0
 21 22  1  0
M  CHG  1   6  -1
M  END
>  <PDB_ID>  (546) 
pdb1j4s

>  <RESIDUE_NAME>  (546) 
ASP   PHE

>  <FRAG_NAME>  (546) 
ACET   MBZ

>  <FRAG_ATOM_NUM>  (546) 
fragi: 7  fragj: 15

>  <atom.prop.CHAIN_ID>  (546) 
A A A A A A A Z Z Z Z Z Z Z Z Z Z Z Z Z Z Z

>  <atom.prop.IS_HEAVY_ATOM>  (546) 
1 0 0 0 1 1 1 1 0 0 0 1 1 0 1 0 1 0 1 0 1 0

>  <DIFUSE_FUNC_ATOM>  (546) 
atom 6   atom 7   

>  <FINAL_SINGLE_POINT_ENERGY>  (546) 
0

>  <NONCOV_INTER_ENERGY_QM>  (546) 
0

>  <FF_Energy>  (546) 
26.97

>  <QM_Energy>  (546) 
1.01

>  <source>  (546) 
ACET_MBZ_00

>  <Index>  (546) 
19751

$$$$
ACET-pdb1j4s-C-ASP-45:MBZ-pdb1j4s-C-PHE-71
     RDKit          3D

 22 21  0  0  0  0  0  0  0  0999 V2000
   -1.1491   -1.5824   -3.1463 C   0  0  0  0  0  0  0  0  0  0  0  0
   -0.9092   -0.6326   -2.9936 H   0  0  0  0  0  0  0  0  0  0  0  0
   -1.9266   -1.8457   -2.5923 H   0  0  0  0  0  0  0  0  0  0  0  0
   -1.4088   -1.7120   -4.1969 H   0  0  0  0  0  0  0  0  0  0  0  0
    0.0210   -2.4419   -2.7801 C   0  0  0  0  0  0  0  0  0  0  0  0
    1.1254   -2.1207   -3.2276 O   0  0  0  0  0  1  0  0  0  0  0  0
   -0.1670   -3.4985   -2.1486 O   0  0  0  0  0  0  0  0  0  0  0  0
   -0.0023    2.8959    0.0578 C   0  0  0  0  0  0  0  0  0  0  0  0
   -0.7361    3.2280   -0.4753 H   0  0  0  0  0  0  0  0  0  0  0  0
    0.8722    3.2215   -0.1920 H   0  0  0  0  0  0  0  0  0  0  0  0
   -0.1815    3.2110    1.0858 H   0  0  0  0  0  0  0  0  0  0  0  0
    0.0014    1.3943    0.0014 C   0  0  0  0  0  0  0  0  0  0  0  0
   -1.1927    0.6871   -0.0020 C   0  0  0  0  0  0  0  0  0  0  0  0
   -2.0597    1.1796   -0.0077 H   0  0  0  0  0  0  0  0  0  0  0  0
   -1.1955   -0.6951   -0.0000 C   0  0  0  0  0  0  0  0  0  0  0  0
   -2.0737   -1.1922   -0.0019 H   0  0  0  0  0  0  0  0  0  0  0  0
    0.0005   -1.3861    0.0069 C   0  0  0  0  0  0  0  0  0  0  0  0
   -0.0021   -2.3867    0.0166 H   0  0  0  0  0  0  0  0  0  0  0  0
    1.1955   -0.6915    0.0000 C   0  0  0  0  0  0  0  0  0  0  0  0
    2.0788   -1.1909    0.0013 H   0  0  0  0  0  0  0  0  0  0  0  0
    1.1908    0.6913   -0.0063 C   0  0  0  0  0  0  0  0  0  0  0  0
    2.0614    1.1886   -0.0175 H   0  0  0  0  0  0  0  0  0  0  0  0
  1  5  1  0
  5  6  1  0
  5  7  2  0
  1  2  1  0
  1  3  1  0
  1  4  1  0
  8 12  1  0
 12 13  2  0
 13 15  1  0
 15 17  2  0
 17 19  1  0
 19 21  2  0
 21 12  1  0
  8  9  1  0
  8 10  1  0
  8 11  1  0
 13 14  1  0
 15 16  1  0
 17 18  1  0
 19 20  1  0
 21 22  1  0
M  CHG  1   6  -1
M  END
>  <PDB_ID>  (547) 
pdb1j4s

>  <RESIDUE_NAME>  (547) 
ASP   PHE

>  <FRAG_NAME>  (547) 
ACET   MBZ

>  <FRAG_ATOM_NUM>  (547) 
fragi: 7  fragj: 15

>  <atom.prop.CHAIN_ID>  (547) 
A A A A A A A Z Z Z Z Z Z Z Z Z Z Z Z Z Z Z

>  <atom.prop.IS_HEAVY_ATOM>  (547) 
1 0 0 0 1 1 1 1 0 0 0 1 1 0 1 0 1 0 1 0 1 0

>  <DIFUSE_FUNC_ATOM>  (547) 
atom 6   atom 7   

>  <FINAL_SINGLE_POINT_ENERGY>  (547) 
0

>  <NONCOV_INTER_ENERGY_QM>  (547) 
0

>  <FF_Energy>  (547) 
1.92

>  <QM_Energy>  (547) 
-3.2

>  <source>  (547) 
ACET_MBZ_00

>  <Index>  (547) 
19753

$$$$
ACET-pdb1j4s-D-GLU-35:MBZ-pdb1j4s-D-PHE-86
     RDKit          3D

 22 21  0  0  0  0  0  0  0  0999 V2000
   -0.9923   -4.5378   -1.5384 C   0  0  0  0  0  0  0  0  0  0  0  0
   -1.8217   -4.3961   -1.0274 H   0  0  0  0  0  0  0  0  0  0  0  0
   -1.0406   -5.3443   -2.1012 H   0  0  0  0  0  0  0  0  0  0  0  0
   -0.8406   -3.6759   -2.1883 H   0  0  0  0  0  0  0  0  0  0  0  0
    0.1332   -4.7484   -0.5338 C   0  0  0  0  0  0  0  0  0  0  0  0
    1.1717   -4.0731   -0.6008 O   0  0  0  0  0  1  0  0  0  0  0  0
   -0.0039   -5.6096    0.3422 O   0  0  0  0  0  0  0  0  0  0  0  0
    0.0421    2.9112    0.0449 C   0  0  0  0  0  0  0  0  0  0  0  0
    0.1316    3.2404   -0.8862 H   0  0  0  0  0  0  0  0  0  0  0  0
    0.8262    3.1794    0.5902 H   0  0  0  0  0  0  0  0  0  0  0  0
   -0.8404    3.3802    0.4801 H   0  0  0  0  0  0  0  0  0  0  0  0
    0.0028    1.4029    0.0004 C   0  0  0  0  0  0  0  0  0  0  0  0
   -1.1999    0.6997   -0.0026 C   0  0  0  0  0  0  0  0  0  0  0  0
   -2.0626    1.1870   -0.0076 H   0  0  0  0  0  0  0  0  0  0  0  0
   -1.2003   -0.6971   -0.0000 C   0  0  0  0  0  0  0  0  0  0  0  0
   -2.0763   -1.1905   -0.0002 H   0  0  0  0  0  0  0  0  0  0  0  0
    0.0032   -1.3913    0.0048 C   0  0  0  0  0  0  0  0  0  0  0  0
   -0.0037   -2.3926    0.0100 H   0  0  0  0  0  0  0  0  0  0  0  0
    1.2003   -0.7004   -0.0000 C   0  0  0  0  0  0  0  0  0  0  0  0
    2.0819   -1.1977    0.0017 H   0  0  0  0  0  0  0  0  0  0  0  0
    1.1938    0.6862   -0.0027 C   0  0  0  0  0  0  0  0  0  0  0  0
    2.0667    1.1839   -0.0085 H   0  0  0  0  0  0  0  0  0  0  0  0
  1  5  1  0
  5  6  1  0
  5  7  2  0
  1  2  1  0
  1  3  1  0
  1  4  1  0
  8 12  1  0
 12 13  2  0
 13 15  1  0
 15 17  2  0
 17 19  1  0
 19 21  2  0
 21 12  1  0
  8  9  1  0
  8 10  1  0
  8 11  1  0
 13 14  1  0
 15 16  1  0
 17 18  1  0
 19 20  1  0
 21 22  1  0
M  CHG  1   6  -1
M  END
>  <PDB_ID>  (548) 
pdb1j4s

>  <RESIDUE_NAME>  (548) 
GLU   PHE

>  <FRAG_NAME>  (548) 
ACET   MBZ

>  <FRAG_ATOM_NUM>  (548) 
fragi: 7  fragj: 15

>  <atom.prop.CHAIN_ID>  (548) 
A A A A A A A Z Z Z Z Z Z Z Z Z Z Z Z Z Z Z

>  <atom.prop.IS_HEAVY_ATOM>  (548) 
1 0 0 0 1 1 1 1 0 0 0 1 1 0 1 0 1 0 1 0 1 0

>  <DIFUSE_FUNC_ATOM>  (548) 
atom 6   atom 7   

>  <FINAL_SINGLE_POINT_ENERGY>  (548) 
0

>  <NONCOV_INTER_ENERGY_QM>  (548) 
0

>  <FF_Energy>  (548) 
2.14

>  <QM_Energy>  (548) 
-4.63

>  <source>  (548) 
ACET_MBZ_00

>  <Index>  (548) 
19756

$$$$
ACET-pdb1j0x-Q-ASP-312:MBZ-pdb1j0x-Q-PHE-315
     RDKit          3D

 22 21  0  0  0  0  0  0  0  0999 V2000
    0.8576    6.2205   -2.1431 C   0  0  0  0  0  0  0  0  0  0  0  0
    1.4198    6.0638   -2.9448 H   0  0  0  0  0  0  0  0  0  0  0  0
    1.3523    5.9903   -1.3156 H   0  0  0  0  0  0  0  0  0  0  0  0
    0.6156    7.2827   -2.1052 H   0  0  0  0  0  0  0  0  0  0  0  0
   -0.3799    5.3524   -2.2338 C   0  0  0  0  0  0  0  0  0  0  0  0
   -1.3607    5.6563   -1.5248 O   0  0  0  0  0  1  0  0  0  0  0  0
   -0.3755    4.3635   -3.0040 O   0  0  0  0  0  0  0  0  0  0  0  0
   -0.0068    2.8978   -0.0107 C   0  0  0  0  0  0  0  0  0  0  0  0
   -0.5243    3.1994   -0.7967 H   0  0  0  0  0  0  0  0  0  0  0  0
    0.9291    3.2113   -0.0527 H   0  0  0  0  0  0  0  0  0  0  0  0
   -0.4639    3.3371    0.8760 H   0  0  0  0  0  0  0  0  0  0  0  0
    0.0001    1.4018   -0.0002 C   0  0  0  0  0  0  0  0  0  0  0  0
   -1.1991    0.6960    0.0015 C   0  0  0  0  0  0  0  0  0  0  0  0
   -2.0639    1.1880    0.0023 H   0  0  0  0  0  0  0  0  0  0  0  0
   -1.2075   -0.6966   -0.0000 C   0  0  0  0  0  0  0  0  0  0  0  0
   -2.0827   -1.1893    0.0006 H   0  0  0  0  0  0  0  0  0  0  0  0
   -0.0019   -1.3974   -0.0008 C   0  0  0  0  0  0  0  0  0  0  0  0
   -0.0060   -2.3944   -0.0024 H   0  0  0  0  0  0  0  0  0  0  0  0
    1.2075   -0.6993   -0.0000 C   0  0  0  0  0  0  0  0  0  0  0  0
    2.0847   -1.1970    0.0019 H   0  0  0  0  0  0  0  0  0  0  0  0
    1.2009    0.6956   -0.0004 C   0  0  0  0  0  0  0  0  0  0  0  0
    2.0670    1.1922   -0.0011 H   0  0  0  0  0  0  0  0  0  0  0  0
  1  5  1  0
  5  6  1  0
  5  7  2  0
  1  2  1  0
  1  3  1  0
  1  4  1  0
  8 12  1  0
 12 13  2  0
 13 15  1  0
 15 17  2  0
 17 19  1  0
 19 21  2  0
 21 12  1  0
  8  9  1  0
  8 10  1  0
  8 11  1  0
 13 14  1  0
 15 16  1  0
 17 18  1  0
 19 20  1  0
 21 22  1  0
M  CHG  1   6  -1
M  END
>  <PDB_ID>  (549) 
pdb1j0x

>  <RESIDUE_NAME>  (549) 
ASP   PHE

>  <FRAG_NAME>  (549) 
ACET   MBZ

>  <FRAG_ATOM_NUM>  (549) 
fragi: 7  fragj: 15

>  <atom.prop.CHAIN_ID>  (549) 
A A A A A A A Z Z Z Z Z Z Z Z Z Z Z Z Z Z Z

>  <atom.prop.IS_HEAVY_ATOM>  (549) 
1 0 0 0 1 1 1 1 0 0 0 1 1 0 1 0 1 0 1 0 1 0

>  <DIFUSE_FUNC_ATOM>  (549) 
atom 6   atom 7   

>  <FINAL_SINGLE_POINT_ENERGY>  (549) 
0

>  <NONCOV_INTER_ENERGY_QM>  (549) 
0

>  <FF_Energy>  (549) 
-0.12

>  <QM_Energy>  (549) 
-5.79

>  <source>  (549) 
ACET_MBZ_00

>  <Index>  (549) 
19767

$$$$
ACET-pdb2nxw-A-ASP-119:MBZ-pdb2nxw-A-PHE-122
     RDKit          3D

 22 21  0  0  0  0  0  0  0  0999 V2000
   -0.8920    6.5048   -2.9699 C   0  0  0  0  0  0  0  0  0  0  0  0
   -1.2810    7.3062   -2.5345 H   0  0  0  0  0  0  0  0  0  0  0  0
   -1.2498    6.3950   -3.8875 H   0  0  0  0  0  0  0  0  0  0  0  0
    0.1858    6.6504   -3.0424 H   0  0  0  0  0  0  0  0  0  0  0  0
   -1.2633    5.2753   -2.1499 C   0  0  0  0  0  0  0  0  0  0  0  0
   -0.8243    4.1690   -2.5351 O   0  0  0  0  0  1  0  0  0  0  0  0
   -1.9914    5.4103   -1.1300 O   0  0  0  0  0  0  0  0  0  0  0  0
    0.0006    2.9076   -0.0035 C   0  0  0  0  0  0  0  0  0  0  0  0
   -0.8592    3.2150   -0.3857 H   0  0  0  0  0  0  0  0  0  0  0  0
    0.7649    3.2147   -0.5515 H   0  0  0  0  0  0  0  0  0  0  0  0
    0.1018    3.3560    0.9848 H   0  0  0  0  0  0  0  0  0  0  0  0
    0.0009    1.4055   -0.0004 C   0  0  0  0  0  0  0  0  0  0  0  0
   -1.1981    0.6971    0.0000 C   0  0  0  0  0  0  0  0  0  0  0  0
   -2.0640    1.1829   -0.0005 H   0  0  0  0  0  0  0  0  0  0  0  0
   -1.2035   -0.7055   -0.0000 C   0  0  0  0  0  0  0  0  0  0  0  0
   -2.0790   -1.1940    0.0012 H   0  0  0  0  0  0  0  0  0  0  0  0
   -0.0000   -1.3961    0.0003 C   0  0  0  0  0  0  0  0  0  0  0  0
   -0.0013   -2.3972    0.0002 H   0  0  0  0  0  0  0  0  0  0  0  0
    1.2035   -0.7011   -0.0000 C   0  0  0  0  0  0  0  0  0  0  0  0
    2.0836   -1.1932    0.0011 H   0  0  0  0  0  0  0  0  0  0  0  0
    1.1972    0.7001    0.0001 C   0  0  0  0  0  0  0  0  0  0  0  0
    2.0664    1.1918   -0.0005 H   0  0  0  0  0  0  0  0  0  0  0  0
  1  5  1  0
  5  6  1  0
  5  7  2  0
  1  2  1  0
  1  3  1  0
  1  4  1  0
  8 12  1  0
 12 13  2  0
 13 15  1  0
 15 17  2  0
 17 19  1  0
 19 21  2  0
 21 12  1  0
  8  9  1  0
  8 10  1  0
  8 11  1  0
 13 14  1  0
 15 16  1  0
 17 18  1  0
 19 20  1  0
 21 22  1  0
M  CHG  1   6  -1
M  END
>  <PDB_ID>  (550) 
pdb2nxw

>  <RESIDUE_NAME>  (550) 
ASP   PHE

>  <FRAG_NAME>  (550) 
ACET   MBZ

>  <FRAG_ATOM_NUM>  (550) 
fragi: 7  fragj: 15

>  <atom.prop.CHAIN_ID>  (550) 
A A A A A A A Z Z Z Z Z Z Z Z Z Z Z Z Z Z Z

>  <atom.prop.IS_HEAVY_ATOM>  (550) 
1 0 0 0 1 1 1 1 0 0 0 1 1 0 1 0 1 0 1 0 1 0

>  <DIFUSE_FUNC_ATOM>  (550) 
atom 6   atom 7   

>  <FINAL_SINGLE_POINT_ENERGY>  (550) 
0

>  <NONCOV_INTER_ENERGY_QM>  (550) 
0

>  <FF_Energy>  (550) 
1.04

>  <QM_Energy>  (550) 
-5.55

>  <source>  (550) 
ACET_MBZ_00

>  <Index>  (550) 
19808

$$$$
ACET-pdb1j72-A-GLU-97:MBZ-pdb1j72-A-PHE-106
     RDKit          3D

 22 21  0  0  0  0  0  0  0  0999 V2000
   -0.9049    1.9739   -3.9865 C   0  0  0  0  0  0  0  0  0  0  0  0
   -1.6838    1.9240   -4.5829 H   0  0  0  0  0  0  0  0  0  0  0  0
   -1.0863    1.5840   -3.1023 H   0  0  0  0  0  0  0  0  0  0  0  0
   -0.0780    1.4323   -4.4459 H   0  0  0  0  0  0  0  0  0  0  0  0
   -0.5881    3.4430   -3.7768 C   0  0  0  0  0  0  0  0  0  0  0  0
    0.0142    4.0827   -4.6739 O   0  0  0  0  0  1  0  0  0  0  0  0
   -0.9544    3.9679   -2.7099 O   0  0  0  0  0  0  0  0  0  0  0  0
    0.0048    2.9183   -0.0138 C   0  0  0  0  0  0  0  0  0  0  0  0
   -0.5784    3.2112   -0.7539 H   0  0  0  0  0  0  0  0  0  0  0  0
    0.9366    3.2154   -0.1457 H   0  0  0  0  0  0  0  0  0  0  0  0
   -0.3675    3.3624    0.9095 H   0  0  0  0  0  0  0  0  0  0  0  0
    0.0034    1.4040    0.0001 C   0  0  0  0  0  0  0  0  0  0  0  0
   -1.1955    0.6940    0.0014 C   0  0  0  0  0  0  0  0  0  0  0  0
   -2.0616    1.1868    0.0019 H   0  0  0  0  0  0  0  0  0  0  0  0
   -1.2022   -0.6959    0.0000 C   0  0  0  0  0  0  0  0  0  0  0  0
   -2.0841   -1.1857    0.0017 H   0  0  0  0  0  0  0  0  0  0  0  0
   -0.0101   -1.3945   -0.0024 C   0  0  0  0  0  0  0  0  0  0  0  0
   -0.0116   -2.3929   -0.0066 H   0  0  0  0  0  0  0  0  0  0  0  0
    1.2022   -0.7000    0.0000 C   0  0  0  0  0  0  0  0  0  0  0  0
    2.0772   -1.2034    0.0025 H   0  0  0  0  0  0  0  0  0  0  0  0
    1.2023    0.6924    0.0009 C   0  0  0  0  0  0  0  0  0  0  0  0
    2.0695    1.1865    0.0010 H   0  0  0  0  0  0  0  0  0  0  0  0
  1  5  1  0
  5  6  1  0
  5  7  2  0
  1  2  1  0
  1  3  1  0
  1  4  1  0
  8 12  1  0
 12 13  2  0
 13 15  1  0
 15 17  2  0
 17 19  1  0
 19 21  2  0
 21 12  1  0
  8  9  1  0
  8 10  1  0
  8 11  1  0
 13 14  1  0
 15 16  1  0
 17 18  1  0
 19 20  1  0
 21 22  1  0
M  CHG  1   6  -1
M  END
>  <PDB_ID>  (551) 
pdb1j72

>  <RESIDUE_NAME>  (551) 
GLU   PHE

>  <FRAG_NAME>  (551) 
ACET   MBZ

>  <FRAG_ATOM_NUM>  (551) 
fragi: 7  fragj: 15

>  <atom.prop.CHAIN_ID>  (551) 
A A A A A A A Z Z Z Z Z Z Z Z Z Z Z Z Z Z Z

>  <atom.prop.IS_HEAVY_ATOM>  (551) 
1 0 0 0 1 1 1 1 0 0 0 1 1 0 1 0 1 0 1 0 1 0

>  <DIFUSE_FUNC_ATOM>  (551) 
atom 6   atom 7   

>  <FINAL_SINGLE_POINT_ENERGY>  (551) 
0

>  <NONCOV_INTER_ENERGY_QM>  (551) 
0

>  <FF_Energy>  (551) 
1.9

>  <QM_Energy>  (551) 
-5.11

>  <source>  (551) 
ACET_MBZ_00

>  <Index>  (551) 
19876

$$$$
ACET-pdb1j78-B-GLU-50:MBZ-pdb1j78-B-PHE-86
     RDKit          3D

 22 21  0  0  0  0  0  0  0  0999 V2000
    0.8899   -4.1698   -1.4760 C   0  0  0  0  0  0  0  0  0  0  0  0
    1.8679   -4.0934   -1.4813 H   0  0  0  0  0  0  0  0  0  0  0  0
    0.4603   -3.4758   -0.9298 H   0  0  0  0  0  0  0  0  0  0  0  0
    0.5326   -4.0726   -2.5013 H   0  0  0  0  0  0  0  0  0  0  0  0
    0.5385   -5.5143   -0.8662 C   0  0  0  0  0  0  0  0  0  0  0  0
   -0.6690   -5.8125   -0.7385 O   0  0  0  0  0  1  0  0  0  0  0  0
    1.4698   -6.2735   -0.5170 O   0  0  0  0  0  0  0  0  0  0  0  0
   -0.0083    2.9027   -0.0225 C   0  0  0  0  0  0  0  0  0  0  0  0
   -0.7204    3.2137    0.5906 H   0  0  0  0  0  0  0  0  0  0  0  0
   -0.1852    3.1937   -0.9520 H   0  0  0  0  0  0  0  0  0  0  0  0
    0.9295    3.3572    0.2968 H   0  0  0  0  0  0  0  0  0  0  0  0
    0.0008    1.4013   -0.0004 C   0  0  0  0  0  0  0  0  0  0  0  0
   -1.1961    0.6939    0.0001 C   0  0  0  0  0  0  0  0  0  0  0  0
   -2.0627    1.1836   -0.0010 H   0  0  0  0  0  0  0  0  0  0  0  0
   -1.2025   -0.6991   -0.0000 C   0  0  0  0  0  0  0  0  0  0  0  0
   -2.0791   -1.1904    0.0007 H   0  0  0  0  0  0  0  0  0  0  0  0
   -0.0021   -1.3936    0.0002 C   0  0  0  0  0  0  0  0  0  0  0  0
   -0.0031   -2.3923   -0.0003 H   0  0  0  0  0  0  0  0  0  0  0  0
    1.2025   -0.6957    0.0000 C   0  0  0  0  0  0  0  0  0  0  0  0
    2.0820   -1.1958    0.0009 H   0  0  0  0  0  0  0  0  0  0  0  0
    1.1975    0.6932   -0.0000 C   0  0  0  0  0  0  0  0  0  0  0  0
    2.0656    1.1911   -0.0001 H   0  0  0  0  0  0  0  0  0  0  0  0
  1  5  1  0
  5  6  1  0
  5  7  2  0
  1  2  1  0
  1  3  1  0
  1  4  1  0
  8 12  1  0
 12 13  2  0
 13 15  1  0
 15 17  2  0
 17 19  1  0
 19 21  2  0
 21 12  1  0
  8  9  1  0
  8 10  1  0
  8 11  1  0
 13 14  1  0
 15 16  1  0
 17 18  1  0
 19 20  1  0
 21 22  1  0
M  CHG  1   6  -1
M  END
>  <PDB_ID>  (552) 
pdb1j78

>  <RESIDUE_NAME>  (552) 
GLU   PHE

>  <FRAG_NAME>  (552) 
ACET   MBZ

>  <FRAG_ATOM_NUM>  (552) 
fragi: 7  fragj: 15

>  <atom.prop.CHAIN_ID>  (552) 
A A A A A A A Z Z Z Z Z Z Z Z Z Z Z Z Z Z Z

>  <atom.prop.IS_HEAVY_ATOM>  (552) 
1 0 0 0 1 1 1 1 0 0 0 1 1 0 1 0 1 0 1 0 1 0

>  <DIFUSE_FUNC_ATOM>  (552) 
atom 6   atom 7   

>  <FINAL_SINGLE_POINT_ENERGY>  (552) 
0

>  <NONCOV_INTER_ENERGY_QM>  (552) 
0

>  <FF_Energy>  (552) 
30.93

>  <QM_Energy>  (552) 
2.95

>  <source>  (552) 
ACET_MBZ_00

>  <Index>  (552) 
19897

$$$$
ACET-pdb2nzu-L-ASP-69:MBZ-pdb2nzu-L-PHE-29
     RDKit          3D

 22 21  0  0  0  0  0  0  0  0999 V2000
   -5.1876    2.0244    1.4644 C   0  0  0  0  0  0  0  0  0  0  0  0
   -4.8225    1.1049    1.3773 H   0  0  0  0  0  0  0  0  0  0  0  0
   -5.9695    2.1469    0.8653 H   0  0  0  0  0  0  0  0  0  0  0  0
   -5.5284    2.1532    2.4918 H   0  0  0  0  0  0  0  0  0  0  0  0
   -4.1088    3.0188    1.0708 C   0  0  0  0  0  0  0  0  0  0  0  0
   -4.1367    4.1681    1.5593 O   0  0  0  0  0  1  0  0  0  0  0  0
   -3.2429    2.6572    0.2530 O   0  0  0  0  0  0  0  0  0  0  0  0
   -0.0037    2.9149   -0.0588 C   0  0  0  0  0  0  0  0  0  0  0  0
    0.8671    3.2347    0.2768 H   0  0  0  0  0  0  0  0  0  0  0  0
   -0.7510    3.2403    0.4967 H   0  0  0  0  0  0  0  0  0  0  0  0
   -0.1387    3.3106   -1.0654 H   0  0  0  0  0  0  0  0  0  0  0  0
   -0.0011    1.4094   -0.0016 C   0  0  0  0  0  0  0  0  0  0  0  0
   -1.1975    0.6971    0.0008 C   0  0  0  0  0  0  0  0  0  0  0  0
   -2.0658    1.1845    0.0015 H   0  0  0  0  0  0  0  0  0  0  0  0
   -1.2041   -0.7008   -0.0000 C   0  0  0  0  0  0  0  0  0  0  0  0
   -2.0792   -1.1917    0.0014 H   0  0  0  0  0  0  0  0  0  0  0  0
    0.0022   -1.4022   -0.0009 C   0  0  0  0  0  0  0  0  0  0  0  0
   -0.0044   -2.3978   -0.0026 H   0  0  0  0  0  0  0  0  0  0  0  0
    1.2041   -0.7034   -0.0000 C   0  0  0  0  0  0  0  0  0  0  0  0
    2.0860   -1.1942    0.0008 H   0  0  0  0  0  0  0  0  0  0  0  0
    1.1964    0.6998    0.0017 C   0  0  0  0  0  0  0  0  0  0  0  0
    2.0661    1.1920    0.0047 H   0  0  0  0  0  0  0  0  0  0  0  0
  1  5  1  0
  5  6  1  0
  5  7  2  0
  1  2  1  0
  1  3  1  0
  1  4  1  0
  8 12  1  0
 12 13  2  0
 13 15  1  0
 15 17  2  0
 17 19  1  0
 19 21  2  0
 21 12  1  0
  8  9  1  0
  8 10  1  0
  8 11  1  0
 13 14  1  0
 15 16  1  0
 17 18  1  0
 19 20  1  0
 21 22  1  0
M  CHG  1   6  -1
M  END
>  <PDB_ID>  (553) 
pdb2nzu

>  <RESIDUE_NAME>  (553) 
ASP   PHE

>  <FRAG_NAME>  (553) 
ACET   MBZ

>  <FRAG_ATOM_NUM>  (553) 
fragi: 7  fragj: 15

>  <atom.prop.CHAIN_ID>  (553) 
A A A A A A A Z Z Z Z Z Z Z Z Z Z Z Z Z Z Z

>  <atom.prop.IS_HEAVY_ATOM>  (553) 
1 0 0 0 1 1 1 1 0 0 0 1 1 0 1 0 1 0 1 0 1 0

>  <DIFUSE_FUNC_ATOM>  (553) 
atom 6   atom 7   

>  <FINAL_SINGLE_POINT_ENERGY>  (553) 
0

>  <NONCOV_INTER_ENERGY_QM>  (553) 
0

>  <FF_Energy>  (553) 
13.66

>  <QM_Energy>  (553) 
-7.12

>  <source>  (553) 
ACET_MBZ_00

>  <Index>  (553) 
19924

$$$$
ACET-pdb1jal-B-ASP-98:MBZ-pdb1jal-B-PHE-3
     RDKit          3D

 22 21  0  0  0  0  0  0  0  0999 V2000
   -4.4043    2.5763    2.1742 C   0  0  0  0  0  0  0  0  0  0  0  0
   -3.5396    2.8724    2.5693 H   0  0  0  0  0  0  0  0  0  0  0  0
   -4.6913    1.7166    2.5843 H   0  0  0  0  0  0  0  0  0  0  0  0
   -5.1556    3.3282    2.4160 H   0  0  0  0  0  0  0  0  0  0  0  0
   -4.2198    2.3737    0.6868 C   0  0  0  0  0  0  0  0  0  0  0  0
   -3.8004    3.3119   -0.0374 O   0  0  0  0  0  1  0  0  0  0  0  0
   -4.4321    1.2710    0.1602 O   0  0  0  0  0  0  0  0  0  0  0  0
   -0.0086    2.9024   -0.0364 C   0  0  0  0  0  0  0  0  0  0  0  0
    0.9118    3.2242    0.0991 H   0  0  0  0  0  0  0  0  0  0  0  0
   -0.6216    3.2362    0.6577 H   0  0  0  0  0  0  0  0  0  0  0  0
   -0.3554    3.2878   -0.9952 H   0  0  0  0  0  0  0  0  0  0  0  0
   -0.0001    1.4103    0.0178 C   0  0  0  0  0  0  0  0  0  0  0  0
   -1.1986    0.7061   -0.0138 C   0  0  0  0  0  0  0  0  0  0  0  0
   -2.0657    1.1841   -0.0478 H   0  0  0  0  0  0  0  0  0  0  0  0
   -1.2100   -0.7166    0.0000 C   0  0  0  0  0  0  0  0  0  0  0  0
   -2.0842   -1.1935    0.0087 H   0  0  0  0  0  0  0  0  0  0  0  0
   -0.0017   -1.4073    0.0029 C   0  0  0  0  0  0  0  0  0  0  0  0
    0.0093   -2.4008    0.0064 H   0  0  0  0  0  0  0  0  0  0  0  0
    1.2100   -0.6904   -0.0000 C   0  0  0  0  0  0  0  0  0  0  0  0
    2.0887   -1.1916    0.0044 H   0  0  0  0  0  0  0  0  0  0  0  0
    1.2004    0.6979   -0.0068 C   0  0  0  0  0  0  0  0  0  0  0  0
    2.0666    1.1999   -0.0304 H   0  0  0  0  0  0  0  0  0  0  0  0
  1  5  1  0
  5  6  1  0
  5  7  2  0
  1  2  1  0
  1  3  1  0
  1  4  1  0
  8 12  1  0
 12 13  2  0
 13 15  1  0
 15 17  2  0
 17 19  1  0
 19 21  2  0
 21 12  1  0
  8  9  1  0
  8 10  1  0
  8 11  1  0
 13 14  1  0
 15 16  1  0
 17 18  1  0
 19 20  1  0
 21 22  1  0
M  CHG  1   6  -1
M  END
>  <PDB_ID>  (554) 
pdb1jal

>  <RESIDUE_NAME>  (554) 
ASP   PHE

>  <FRAG_NAME>  (554) 
ACET   MBZ

>  <FRAG_ATOM_NUM>  (554) 
fragi: 7  fragj: 15

>  <atom.prop.CHAIN_ID>  (554) 
A A A A A A A Z Z Z Z Z Z Z Z Z Z Z Z Z Z Z

>  <atom.prop.IS_HEAVY_ATOM>  (554) 
1 0 0 0 1 1 1 1 0 0 0 1 1 0 1 0 1 0 1 0 1 0

>  <DIFUSE_FUNC_ATOM>  (554) 
atom 6   atom 7   

>  <FINAL_SINGLE_POINT_ENERGY>  (554) 
0

>  <NONCOV_INTER_ENERGY_QM>  (554) 
0

>  <FF_Energy>  (554) 
-2.23

>  <QM_Energy>  (554) 
-8.47

>  <source>  (554) 
ACET_MBZ_00

>  <Index>  (554) 
20124

$$$$
ACET-pdb1jal-B-ASP-136:MBZ-pdb1jal-B-PHE-196
     RDKit          3D

 22 21  0  0  0  0  0  0  0  0999 V2000
   -4.3395    1.3007    2.6534 C   0  0  0  0  0  0  0  0  0  0  0  0
   -4.9018    1.5550    3.4354 H   0  0  0  0  0  0  0  0  0  0  0  0
   -3.6173    0.6788    2.9390 H   0  0  0  0  0  0  0  0  0  0  0  0
   -4.9800    0.7545    1.9610 H   0  0  0  0  0  0  0  0  0  0  0  0
   -3.7419    2.5208    2.0462 C   0  0  0  0  0  0  0  0  0  0  0  0
   -4.0098    2.7600    0.8422 O   0  0  0  0  0  1  0  0  0  0  0  0
   -2.9817    3.2834    2.6970 O   0  0  0  0  0  0  0  0  0  0  0  0
    0.0112    2.9333    0.0169 C   0  0  0  0  0  0  0  0  0  0  0  0
    0.9433    3.2349   -0.1307 H   0  0  0  0  0  0  0  0  0  0  0  0
   -0.3202    3.2253    0.9043 H   0  0  0  0  0  0  0  0  0  0  0  0
   -0.6140    3.4026   -0.7427 H   0  0  0  0  0  0  0  0  0  0  0  0
   -0.0003    1.4297   -0.0107 C   0  0  0  0  0  0  0  0  0  0  0  0
   -1.2180    0.7243    0.0106 C   0  0  0  0  0  0  0  0  0  0  0  0
   -2.0778    1.2019    0.0318 H   0  0  0  0  0  0  0  0  0  0  0  0
   -1.2305   -0.7143   -0.0000 C   0  0  0  0  0  0  0  0  0  0  0  0
   -2.0935   -1.1950   -0.0075 H   0  0  0  0  0  0  0  0  0  0  0  0
    0.0088   -1.4315    0.0031 C   0  0  0  0  0  0  0  0  0  0  0  0
   -0.0058   -2.4201    0.0067 H   0  0  0  0  0  0  0  0  0  0  0  0
    1.2305   -0.7270   -0.0000 C   0  0  0  0  0  0  0  0  0  0  0  0
    2.1060   -1.1983    0.0013 H   0  0  0  0  0  0  0  0  0  0  0  0
    1.2095    0.7189   -0.0030 C   0  0  0  0  0  0  0  0  0  0  0  0
    2.0769    1.2003   -0.0007 H   0  0  0  0  0  0  0  0  0  0  0  0
  1  5  1  0
  5  6  1  0
  5  7  2  0
  1  2  1  0
  1  3  1  0
  1  4  1  0
  8 12  1  0
 12 13  2  0
 13 15  1  0
 15 17  2  0
 17 19  1  0
 19 21  2  0
 21 12  1  0
  8  9  1  0
  8 10  1  0
  8 11  1  0
 13 14  1  0
 15 16  1  0
 17 18  1  0
 19 20  1  0
 21 22  1  0
M  CHG  1   6  -1
M  END
>  <PDB_ID>  (555) 
pdb1jal

>  <RESIDUE_NAME>  (555) 
ASP   PHE

>  <FRAG_NAME>  (555) 
ACET   MBZ

>  <FRAG_ATOM_NUM>  (555) 
fragi: 7  fragj: 15

>  <atom.prop.CHAIN_ID>  (555) 
A A A A A A A Z Z Z Z Z Z Z Z Z Z Z Z Z Z Z

>  <atom.prop.IS_HEAVY_ATOM>  (555) 
1 0 0 0 1 1 1 1 0 0 0 1 1 0 1 0 1 0 1 0 1 0

>  <DIFUSE_FUNC_ATOM>  (555) 
atom 6   atom 7   

>  <FINAL_SINGLE_POINT_ENERGY>  (555) 
0

>  <NONCOV_INTER_ENERGY_QM>  (555) 
0

>  <FF_Energy>  (555) 
-2.34

>  <QM_Energy>  (555) 
-7.55

>  <source>  (555) 
ACET_MBZ_00

>  <Index>  (555) 
20126

$$$$
ACET-pdb1jey-B-GLU-53:MBZ-pdb1jey-B-PHE-127
     RDKit          3D

 22 21  0  0  0  0  0  0  0  0999 V2000
    2.2140   -3.7767   -0.3778 C   0  0  0  0  0  0  0  0  0  0  0  0
    3.0776   -3.7000    0.0914 H   0  0  0  0  0  0  0  0  0  0  0  0
    1.6161   -3.0203   -0.1707 H   0  0  0  0  0  0  0  0  0  0  0  0
    2.4041   -3.7838   -1.4511 H   0  0  0  0  0  0  0  0  0  0  0  0
    1.5385   -5.0380    0.1152 C   0  0  0  0  0  0  0  0  0  0  0  0
    1.5159   -5.2467    1.3457 O   0  0  0  0  0  1  0  0  0  0  0  0
    1.0220   -5.8116   -0.7196 O   0  0  0  0  0  0  0  0  0  0  0  0
    0.0070    2.8907   -0.0289 C   0  0  0  0  0  0  0  0  0  0  0  0
   -0.8548    3.1963   -0.4094 H   0  0  0  0  0  0  0  0  0  0  0  0
    0.7674    3.1848   -0.5904 H   0  0  0  0  0  0  0  0  0  0  0  0
    0.1200    3.3493    0.9535 H   0  0  0  0  0  0  0  0  0  0  0  0
   -0.0004    1.3971   -0.0009 C   0  0  0  0  0  0  0  0  0  0  0  0
   -1.1994    0.6945    0.0013 C   0  0  0  0  0  0  0  0  0  0  0  0
   -2.0635    1.1872    0.0031 H   0  0  0  0  0  0  0  0  0  0  0  0
   -1.2060   -0.6948   -0.0000 C   0  0  0  0  0  0  0  0  0  0  0  0
   -2.0789   -1.1904    0.0016 H   0  0  0  0  0  0  0  0  0  0  0  0
    0.0012   -1.3915   -0.0018 C   0  0  0  0  0  0  0  0  0  0  0  0
   -0.0026   -2.3896   -0.0043 H   0  0  0  0  0  0  0  0  0  0  0  0
    1.2060   -0.6937   -0.0000 C   0  0  0  0  0  0  0  0  0  0  0  0
    2.0851   -1.1957    0.0020 H   0  0  0  0  0  0  0  0  0  0  0  0
    1.1985    0.6884    0.0014 C   0  0  0  0  0  0  0  0  0  0  0  0
    2.0645    1.1912    0.0027 H   0  0  0  0  0  0  0  0  0  0  0  0
  1  5  1  0
  5  6  1  0
  5  7  2  0
  1  2  1  0
  1  3  1  0
  1  4  1  0
  8 12  1  0
 12 13  2  0
 13 15  1  0
 15 17  2  0
 17 19  1  0
 19 21  2  0
 21 12  1  0
  8  9  1  0
  8 10  1  0
  8 11  1  0
 13 14  1  0
 15 16  1  0
 17 18  1  0
 19 20  1  0
 21 22  1  0
M  CHG  1   6  -1
M  END
>  <PDB_ID>  (556) 
pdb1jey

>  <RESIDUE_NAME>  (556) 
GLU   PHE

>  <FRAG_NAME>  (556) 
ACET   MBZ

>  <FRAG_ATOM_NUM>  (556) 
fragi: 7  fragj: 15

>  <atom.prop.CHAIN_ID>  (556) 
A A A A A A A Z Z Z Z Z Z Z Z Z Z Z Z Z Z Z

>  <atom.prop.IS_HEAVY_ATOM>  (556) 
1 0 0 0 1 1 1 1 0 0 0 1 1 0 1 0 1 0 1 0 1 0

>  <DIFUSE_FUNC_ATOM>  (556) 
atom 6   atom 7   

>  <FINAL_SINGLE_POINT_ENERGY>  (556) 
0

>  <NONCOV_INTER_ENERGY_QM>  (556) 
0

>  <FF_Energy>  (556) 
10.21

>  <QM_Energy>  (556) 
1.3

>  <source>  (556) 
ACET_MBZ_00

>  <Index>  (556) 
20291

$$$$
ACET-pdb2o56-B-GLU-271:MBZ-pdb2o56-A-PHE-84
     RDKit          3D

 22 21  0  0  0  0  0  0  0  0999 V2000
    2.5142   -4.6888    1.0429 C   0  0  0  0  0  0  0  0  0  0  0  0
    2.3633   -5.0210    1.9547 H   0  0  0  0  0  0  0  0  0  0  0  0
    2.6349   -3.7136    1.0151 H   0  0  0  0  0  0  0  0  0  0  0  0
    3.4098   -5.1643    0.6429 H   0  0  0  0  0  0  0  0  0  0  0  0
    1.2925   -5.0189    0.2292 C   0  0  0  0  0  0  0  0  0  0  0  0
    0.7278   -6.1323    0.3955 O   0  0  0  0  0  1  0  0  0  0  0  0
    0.9006   -4.1635   -0.5861 O   0  0  0  0  0  0  0  0  0  0  0  0
   -0.0081    2.8964    0.0383 C   0  0  0  0  0  0  0  0  0  0  0  0
   -0.7775    3.2147   -0.4896 H   0  0  0  0  0  0  0  0  0  0  0  0
    0.8479    3.2212   -0.3296 H   0  0  0  0  0  0  0  0  0  0  0  0
   -0.1090    3.2952    1.0477 H   0  0  0  0  0  0  0  0  0  0  0  0
    0.0014    1.4045    0.0007 C   0  0  0  0  0  0  0  0  0  0  0  0
   -1.1959    0.6917   -0.0074 C   0  0  0  0  0  0  0  0  0  0  0  0
   -2.0625    1.1793   -0.0199 H   0  0  0  0  0  0  0  0  0  0  0  0
   -1.1985   -0.7032   -0.0000 C   0  0  0  0  0  0  0  0  0  0  0  0
   -2.0778   -1.1924    0.0149 H   0  0  0  0  0  0  0  0  0  0  0  0
   -0.0044   -1.3917   -0.0116 C   0  0  0  0  0  0  0  0  0  0  0  0
   -0.0084   -2.3967   -0.0292 H   0  0  0  0  0  0  0  0  0  0  0  0
    1.1985   -0.7072   -0.0000 C   0  0  0  0  0  0  0  0  0  0  0  0
    2.0789   -1.1971   -0.0028 H   0  0  0  0  0  0  0  0  0  0  0  0
    1.1988    0.7058    0.0183 C   0  0  0  0  0  0  0  0  0  0  0  0
    2.0661    1.1888    0.0425 H   0  0  0  0  0  0  0  0  0  0  0  0
  1  5  1  0
  5  6  1  0
  5  7  2  0
  1  2  1  0
  1  3  1  0
  1  4  1  0
  8 12  1  0
 12 13  2  0
 13 15  1  0
 15 17  2  0
 17 19  1  0
 19 21  2  0
 21 12  1  0
  8  9  1  0
  8 10  1  0
  8 11  1  0
 13 14  1  0
 15 16  1  0
 17 18  1  0
 19 20  1  0
 21 22  1  0
M  CHG  1   6  -1
M  END
>  <PDB_ID>  (557) 
pdb2o56

>  <RESIDUE_NAME>  (557) 
GLU   PHE

>  <FRAG_NAME>  (557) 
ACET   MBZ

>  <FRAG_ATOM_NUM>  (557) 
fragi: 7  fragj: 15

>  <atom.prop.CHAIN_ID>  (557) 
A A A A A A A Z Z Z Z Z Z Z Z Z Z Z Z Z Z Z

>  <atom.prop.IS_HEAVY_ATOM>  (557) 
1 0 0 0 1 1 1 1 0 0 0 1 1 0 1 0 1 0 1 0 1 0

>  <DIFUSE_FUNC_ATOM>  (557) 
atom 6   atom 7   

>  <FINAL_SINGLE_POINT_ENERGY>  (557) 
0

>  <NONCOV_INTER_ENERGY_QM>  (557) 
0

>  <FF_Energy>  (557) 
2.29

>  <QM_Energy>  (557) 
-5.27

>  <source>  (557) 
ACET_MBZ_00

>  <Index>  (557) 
20315

$$$$
ACET-pdb2o56-E-GLU-271:MBZ-pdb2o56-D-PHE-84
     RDKit          3D

 22 21  0  0  0  0  0  0  0  0999 V2000
    2.4689   -4.7453    1.0815 C   0  0  0  0  0  0  0  0  0  0  0  0
    2.2859   -5.1549    1.9483 H   0  0  0  0  0  0  0  0  0  0  0  0
    2.5463   -3.7728    1.1192 H   0  0  0  0  0  0  0  0  0  0  0  0
    3.3982   -5.1577    0.6886 H   0  0  0  0  0  0  0  0  0  0  0  0
    1.3199   -5.0779    0.1651 C   0  0  0  0  0  0  0  0  0  0  0  0
    0.7717   -6.2060    0.2697 O   0  0  0  0  0  1  0  0  0  0  0  0
    0.9773   -4.2211   -0.6773 O   0  0  0  0  0  0  0  0  0  0  0  0
   -0.0127    2.8999    0.0432 C   0  0  0  0  0  0  0  0  0  0  0  0
   -0.7598    3.2202   -0.5132 H   0  0  0  0  0  0  0  0  0  0  0  0
    0.8574    3.2242   -0.2887 H   0  0  0  0  0  0  0  0  0  0  0  0
   -0.1540    3.2910    1.0508 H   0  0  0  0  0  0  0  0  0  0  0  0
   -0.0027    1.4070   -0.0001 C   0  0  0  0  0  0  0  0  0  0  0  0
   -1.1997    0.6988    0.0019 C   0  0  0  0  0  0  0  0  0  0  0  0
   -2.0675    1.1817    0.0034 H   0  0  0  0  0  0  0  0  0  0  0  0
   -1.2033   -0.7049   -0.0000 C   0  0  0  0  0  0  0  0  0  0  0  0
   -2.0755   -1.1963    0.0070 H   0  0  0  0  0  0  0  0  0  0  0  0
    0.0073   -1.3984   -0.0098 C   0  0  0  0  0  0  0  0  0  0  0  0
   -0.0019   -2.4000   -0.0244 H   0  0  0  0  0  0  0  0  0  0  0  0
    1.2033   -0.7078    0.0000 C   0  0  0  0  0  0  0  0  0  0  0  0
    2.0875   -1.1908    0.0033 H   0  0  0  0  0  0  0  0  0  0  0  0
    1.1951    0.7053    0.0080 C   0  0  0  0  0  0  0  0  0  0  0  0
    2.0638    1.1927    0.0185 H   0  0  0  0  0  0  0  0  0  0  0  0
  1  5  1  0
  5  6  1  0
  5  7  2  0
  1  2  1  0
  1  3  1  0
  1  4  1  0
  8 12  1  0
 12 13  2  0
 13 15  1  0
 15 17  2  0
 17 19  1  0
 19 21  2  0
 21 12  1  0
  8  9  1  0
  8 10  1  0
  8 11  1  0
 13 14  1  0
 15 16  1  0
 17 18  1  0
 19 20  1  0
 21 22  1  0
M  CHG  1   6  -1
M  END
>  <PDB_ID>  (558) 
pdb2o56

>  <RESIDUE_NAME>  (558) 
GLU   PHE

>  <FRAG_NAME>  (558) 
ACET   MBZ

>  <FRAG_ATOM_NUM>  (558) 
fragi: 7  fragj: 15

>  <atom.prop.CHAIN_ID>  (558) 
A A A A A A A Z Z Z Z Z Z Z Z Z Z Z Z Z Z Z

>  <atom.prop.IS_HEAVY_ATOM>  (558) 
1 0 0 0 1 1 1 1 0 0 0 1 1 0 1 0 1 0 1 0 1 0

>  <DIFUSE_FUNC_ATOM>  (558) 
atom 6   atom 7   

>  <FINAL_SINGLE_POINT_ENERGY>  (558) 
0

>  <NONCOV_INTER_ENERGY_QM>  (558) 
0

>  <FF_Energy>  (558) 
-0.37

>  <QM_Energy>  (558) 
-5.43

>  <source>  (558) 
ACET_MBZ_00

>  <Index>  (558) 
20327

$$$$
ACET-pdb2o6k-A-GLU-26:MBZ-pdb2o6k-A-PHE-53
     RDKit          3D

 22 21  0  0  0  0  0  0  0  0999 V2000
   -5.2340    2.2686    1.1887 C   0  0  0  0  0  0  0  0  0  0  0  0
   -6.0230    2.2206    0.6042 H   0  0  0  0  0  0  0  0  0  0  0  0
   -5.4760    2.4462    2.1254 H   0  0  0  0  0  0  0  0  0  0  0  0
   -4.7241    1.3062    1.1470 H   0  0  0  0  0  0  0  0  0  0  0  0
   -4.3746    3.4356    0.7066 C   0  0  0  0  0  0  0  0  0  0  0  0
   -3.1279    3.3480    0.7377 O   0  0  0  0  0  1  0  0  0  0  0  0
   -4.9576    4.4606    0.3069 O   0  0  0  0  0  0  0  0  0  0  0  0
   -0.0013    2.8858   -0.0054 C   0  0  0  0  0  0  0  0  0  0  0  0
    0.9294    3.1968    0.1169 H   0  0  0  0  0  0  0  0  0  0  0  0
   -0.5843    3.1982    0.7294 H   0  0  0  0  0  0  0  0  0  0  0  0
   -0.3765    3.3174   -0.9333 H   0  0  0  0  0  0  0  0  0  0  0  0
    0.0005    1.3898    0.0019 C   0  0  0  0  0  0  0  0  0  0  0  0
   -1.1864    0.6850   -0.0003 C   0  0  0  0  0  0  0  0  0  0  0  0
   -2.0564    1.1776   -0.0032 H   0  0  0  0  0  0  0  0  0  0  0  0
   -1.1883   -0.6916    0.0000 C   0  0  0  0  0  0  0  0  0  0  0  0
   -2.0708   -1.1873    0.0016 H   0  0  0  0  0  0  0  0  0  0  0  0
   -0.0029   -1.3786    0.0003 C   0  0  0  0  0  0  0  0  0  0  0  0
   -0.0047   -2.3833    0.0003 H   0  0  0  0  0  0  0  0  0  0  0  0
    1.1883   -0.6900   -0.0000 C   0  0  0  0  0  0  0  0  0  0  0  0
    2.0718   -1.1940    0.0026 H   0  0  0  0  0  0  0  0  0  0  0  0
    1.1888    0.6855   -0.0018 C   0  0  0  0  0  0  0  0  0  0  0  0
    2.0589    1.1842   -0.0071 H   0  0  0  0  0  0  0  0  0  0  0  0
  1  5  1  0
  5  6  1  0
  5  7  2  0
  1  2  1  0
  1  3  1  0
  1  4  1  0
  8 12  1  0
 12 13  2  0
 13 15  1  0
 15 17  2  0
 17 19  1  0
 19 21  2  0
 21 12  1  0
  8  9  1  0
  8 10  1  0
  8 11  1  0
 13 14  1  0
 15 16  1  0
 17 18  1  0
 19 20  1  0
 21 22  1  0
M  CHG  1   6  -1
M  END
>  <PDB_ID>  (559) 
pdb2o6k

>  <RESIDUE_NAME>  (559) 
GLU   PHE

>  <FRAG_NAME>  (559) 
ACET   MBZ

>  <FRAG_ATOM_NUM>  (559) 
fragi: 7  fragj: 15

>  <atom.prop.CHAIN_ID>  (559) 
A A A A A A A Z Z Z Z Z Z Z Z Z Z Z Z Z Z Z

>  <atom.prop.IS_HEAVY_ATOM>  (559) 
1 0 0 0 1 1 1 1 0 0 0 1 1 0 1 0 1 0 1 0 1 0

>  <DIFUSE_FUNC_ATOM>  (559) 
atom 6   atom 7   

>  <FINAL_SINGLE_POINT_ENERGY>  (559) 
0

>  <NONCOV_INTER_ENERGY_QM>  (559) 
0

>  <FF_Energy>  (559) 
-1.85

>  <QM_Energy>  (559) 
-7.65

>  <source>  (559) 
ACET_MBZ_00

>  <Index>  (559) 
20386

$$$$
ACET-pdb1jgt-A-GLU-157:MBZ-pdb1jgt-A-PHE-28
     RDKit          3D

 22 21  0  0  0  0  0  0  0  0999 V2000
   -4.0902    2.1106    2.5556 C   0  0  0  0  0  0  0  0  0  0  0  0
   -4.7037    2.5497    3.1897 H   0  0  0  0  0  0  0  0  0  0  0  0
   -3.5534    1.4094    2.9928 H   0  0  0  0  0  0  0  0  0  0  0  0
   -4.6900    1.6414    1.7757 H   0  0  0  0  0  0  0  0  0  0  0  0
   -3.1255    3.1721    2.0395 C   0  0  0  0  0  0  0  0  0  0  0  0
   -3.4531    3.8450    1.0388 O   0  0  0  0  0  1  0  0  0  0  0  0
   -2.0460    3.3499    2.6562 O   0  0  0  0  0  0  0  0  0  0  0  0
    0.0091    2.9113    0.0945 C   0  0  0  0  0  0  0  0  0  0  0  0
    0.9533    3.2126    0.1019 H   0  0  0  0  0  0  0  0  0  0  0  0
   -0.4523    3.1684    0.9327 H   0  0  0  0  0  0  0  0  0  0  0  0
   -0.4942    3.4164   -0.7299 H   0  0  0  0  0  0  0  0  0  0  0  0
    0.0007    1.4107    0.0017 C   0  0  0  0  0  0  0  0  0  0  0  0
   -1.1970    0.7018   -0.0024 C   0  0  0  0  0  0  0  0  0  0  0  0
   -2.0645    1.1885   -0.0083 H   0  0  0  0  0  0  0  0  0  0  0  0
   -1.2073   -0.7009   -0.0000 C   0  0  0  0  0  0  0  0  0  0  0  0
   -2.0845   -1.1870    0.0003 H   0  0  0  0  0  0  0  0  0  0  0  0
   -0.0040   -1.4056    0.0040 C   0  0  0  0  0  0  0  0  0  0  0  0
   -0.0080   -2.4001    0.0095 H   0  0  0  0  0  0  0  0  0  0  0  0
    1.2073   -0.7049    0.0000 C   0  0  0  0  0  0  0  0  0  0  0  0
    2.0842   -1.1989    0.0009 H   0  0  0  0  0  0  0  0  0  0  0  0
    1.2003    0.6989   -0.0033 C   0  0  0  0  0  0  0  0  0  0  0  0
    2.0687    1.1911   -0.0104 H   0  0  0  0  0  0  0  0  0  0  0  0
  1  5  1  0
  5  6  1  0
  5  7  2  0
  1  2  1  0
  1  3  1  0
  1  4  1  0
  8 12  1  0
 12 13  2  0
 13 15  1  0
 15 17  2  0
 17 19  1  0
 19 21  2  0
 21 12  1  0
  8  9  1  0
  8 10  1  0
  8 11  1  0
 13 14  1  0
 15 16  1  0
 17 18  1  0
 19 20  1  0
 21 22  1  0
M  CHG  1   6  -1
M  END
>  <PDB_ID>  (560) 
pdb1jgt

>  <RESIDUE_NAME>  (560) 
GLU   PHE

>  <FRAG_NAME>  (560) 
ACET   MBZ

>  <FRAG_ATOM_NUM>  (560) 
fragi: 7  fragj: 15

>  <atom.prop.CHAIN_ID>  (560) 
A A A A A A A Z Z Z Z Z Z Z Z Z Z Z Z Z Z Z

>  <atom.prop.IS_HEAVY_ATOM>  (560) 
1 0 0 0 1 1 1 1 0 0 0 1 1 0 1 0 1 0 1 0 1 0

>  <DIFUSE_FUNC_ATOM>  (560) 
atom 6   atom 7   

>  <FINAL_SINGLE_POINT_ENERGY>  (560) 
0

>  <NONCOV_INTER_ENERGY_QM>  (560) 
0

>  <FF_Energy>  (560) 
-1.29

>  <QM_Energy>  (560) 
-7.94

>  <source>  (560) 
ACET_MBZ_00

>  <Index>  (560) 
20419

$$$$
ACET-pdb1jgt-A-GLU-325:MBZ-pdb1jgt-A-PHE-456
     RDKit          3D

 22 21  0  0  0  0  0  0  0  0999 V2000
   -4.2521    2.6506    0.8751 C   0  0  0  0  0  0  0  0  0  0  0  0
   -3.4177    2.4576    1.3529 H   0  0  0  0  0  0  0  0  0  0  0  0
   -4.7011    1.8384    0.5566 H   0  0  0  0  0  0  0  0  0  0  0  0
   -4.9247    3.1826    1.5479 H   0  0  0  0  0  0  0  0  0  0  0  0
   -3.8914    3.4793   -0.3509 C   0  0  0  0  0  0  0  0  0  0  0  0
   -4.8090    4.0284   -0.9980 O   0  0  0  0  0  1  0  0  0  0  0  0
   -2.6898    3.5772   -0.6674 O   0  0  0  0  0  0  0  0  0  0  0  0
   -0.0110    2.9092    0.0234 C   0  0  0  0  0  0  0  0  0  0  0  0
   -0.3955    3.1983    0.8884 H   0  0  0  0  0  0  0  0  0  0  0  0
   -0.5629    3.2221   -0.7359 H   0  0  0  0  0  0  0  0  0  0  0  0
    0.9755    3.3631   -0.0716 H   0  0  0  0  0  0  0  0  0  0  0  0
   -0.0006    1.4044   -0.0000 C   0  0  0  0  0  0  0  0  0  0  0  0
   -1.1968    0.6944   -0.0004 C   0  0  0  0  0  0  0  0  0  0  0  0
   -2.0644    1.1850   -0.0024 H   0  0  0  0  0  0  0  0  0  0  0  0
   -1.2035   -0.6983   -0.0000 C   0  0  0  0  0  0  0  0  0  0  0  0
   -2.0790   -1.1913    0.0015 H   0  0  0  0  0  0  0  0  0  0  0  0
   -0.0003   -1.3967    0.0004 C   0  0  0  0  0  0  0  0  0  0  0  0
   -0.0044   -2.3945    0.0004 H   0  0  0  0  0  0  0  0  0  0  0  0
    1.2035   -0.6988    0.0000 C   0  0  0  0  0  0  0  0  0  0  0  0
    2.0841   -1.1950    0.0014 H   0  0  0  0  0  0  0  0  0  0  0  0
    1.1977    0.6950    0.0001 C   0  0  0  0  0  0  0  0  0  0  0  0
    2.0653    1.1908   -0.0006 H   0  0  0  0  0  0  0  0  0  0  0  0
  1  5  1  0
  5  6  1  0
  5  7  2  0
  1  2  1  0
  1  3  1  0
  1  4  1  0
  8 12  1  0
 12 13  2  0
 13 15  1  0
 15 17  2  0
 17 19  1  0
 19 21  2  0
 21 12  1  0
  8  9  1  0
  8 10  1  0
  8 11  1  0
 13 14  1  0
 15 16  1  0
 17 18  1  0
 19 20  1  0
 21 22  1  0
M  CHG  1   6  -1
M  END
>  <PDB_ID>  (561) 
pdb1jgt

>  <RESIDUE_NAME>  (561) 
GLU   PHE

>  <FRAG_NAME>  (561) 
ACET   MBZ

>  <FRAG_ATOM_NUM>  (561) 
fragi: 7  fragj: 15

>  <atom.prop.CHAIN_ID>  (561) 
A A A A A A A Z Z Z Z Z Z Z Z Z Z Z Z Z Z Z

>  <atom.prop.IS_HEAVY_ATOM>  (561) 
1 0 0 0 1 1 1 1 0 0 0 1 1 0 1 0 1 0 1 0 1 0

>  <DIFUSE_FUNC_ATOM>  (561) 
atom 6   atom 7   

>  <FINAL_SINGLE_POINT_ENERGY>  (561) 
0

>  <NONCOV_INTER_ENERGY_QM>  (561) 
0

>  <FF_Energy>  (561) 
2.08

>  <QM_Energy>  (561) 
-5.99

>  <source>  (561) 
ACET_MBZ_00

>  <Index>  (561) 
20421

$$$$
ACET-pdb1jgt-B-GLU-325:MBZ-pdb1jgt-B-PHE-456
     RDKit          3D

 22 21  0  0  0  0  0  0  0  0999 V2000
    3.7213    3.0367   -0.2867 C   0  0  0  0  0  0  0  0  0  0  0  0
    2.9400    3.2108   -0.8557 H   0  0  0  0  0  0  0  0  0  0  0  0
    3.8442    2.0800   -0.1011 H   0  0  0  0  0  0  0  0  0  0  0  0
    4.6105    3.4094   -0.7950 H   0  0  0  0  0  0  0  0  0  0  0  0
    3.4846    3.7306    1.0380 C   0  0  0  0  0  0  0  0  0  0  0  0
    3.7334    4.9511    1.1230 O   0  0  0  0  0  1  0  0  0  0  0  0
    3.0364    3.0621    1.9903 O   0  0  0  0  0  0  0  0  0  0  0  0
    0.0133    2.9134   -0.0437 C   0  0  0  0  0  0  0  0  0  0  0  0
    0.3105    3.1894   -0.9461 H   0  0  0  0  0  0  0  0  0  0  0  0
    0.6398    3.2324    0.6535 H   0  0  0  0  0  0  0  0  0  0  0  0
   -0.9563    3.3749    0.1432 H   0  0  0  0  0  0  0  0  0  0  0  0
    0.0003    1.4060   -0.0007 C   0  0  0  0  0  0  0  0  0  0  0  0
   -1.1986    0.6965    0.0000 C   0  0  0  0  0  0  0  0  0  0  0  0
   -2.0650    1.1876   -0.0005 H   0  0  0  0  0  0  0  0  0  0  0  0
   -1.2060   -0.6972    0.0000 C   0  0  0  0  0  0  0  0  0  0  0  0
   -2.0818   -1.1898    0.0014 H   0  0  0  0  0  0  0  0  0  0  0  0
   -0.0017   -1.3998   -0.0003 C   0  0  0  0  0  0  0  0  0  0  0  0
   -0.0061   -2.3950   -0.0016 H   0  0  0  0  0  0  0  0  0  0  0  0
    1.2060   -0.6997   -0.0000 C   0  0  0  0  0  0  0  0  0  0  0  0
    2.0845   -1.1978    0.0010 H   0  0  0  0  0  0  0  0  0  0  0  0
    1.2000    0.6942    0.0010 C   0  0  0  0  0  0  0  0  0  0  0  0
    2.0678    1.1907    0.0019 H   0  0  0  0  0  0  0  0  0  0  0  0
  1  5  1  0
  5  6  1  0
  5  7  2  0
  1  2  1  0
  1  3  1  0
  1  4  1  0
  8 12  1  0
 12 13  2  0
 13 15  1  0
 15 17  2  0
 17 19  1  0
 19 21  2  0
 21 12  1  0
  8  9  1  0
  8 10  1  0
  8 11  1  0
 13 14  1  0
 15 16  1  0
 17 18  1  0
 19 20  1  0
 21 22  1  0
M  CHG  1   6  -1
M  END
>  <PDB_ID>  (562) 
pdb1jgt

>  <RESIDUE_NAME>  (562) 
GLU   PHE

>  <FRAG_NAME>  (562) 
ACET   MBZ

>  <FRAG_ATOM_NUM>  (562) 
fragi: 7  fragj: 15

>  <atom.prop.CHAIN_ID>  (562) 
A A A A A A A Z Z Z Z Z Z Z Z Z Z Z Z Z Z Z

>  <atom.prop.IS_HEAVY_ATOM>  (562) 
1 0 0 0 1 1 1 1 0 0 0 1 1 0 1 0 1 0 1 0 1 0

>  <DIFUSE_FUNC_ATOM>  (562) 
atom 6   atom 7   

>  <FINAL_SINGLE_POINT_ENERGY>  (562) 
0

>  <NONCOV_INTER_ENERGY_QM>  (562) 
0

>  <FF_Energy>  (562) 
0.27

>  <QM_Energy>  (562) 
-5.35

>  <source>  (562) 
ACET_MBZ_00

>  <Index>  (562) 
20424

$$$$
ACET-pdb1jgt-A-GLU-297:MBZ-pdb1jgt-A-PHE-281
     RDKit          3D

 22 21  0  0  0  0  0  0  0  0999 V2000
   -1.2239    0.8597    4.1007 C   0  0  0  0  0  0  0  0  0  0  0  0
   -1.9177    1.1252    3.4593 H   0  0  0  0  0  0  0  0  0  0  0  0
   -1.4997    0.9970    5.0327 H   0  0  0  0  0  0  0  0  0  0  0  0
   -1.0081   -0.1988    3.9558 H   0  0  0  0  0  0  0  0  0  0  0  0
   -0.0102    1.7322    3.8502 C   0  0  0  0  0  0  0  0  0  0  0  0
    1.1182    1.2451    4.0612 O   0  0  0  0  0  1  0  0  0  0  0  0
   -0.1811    2.9052    3.4565 O   0  0  0  0  0  0  0  0  0  0  0  0
    0.0046    2.9094    0.0379 C   0  0  0  0  0  0  0  0  0  0  0  0
    0.8171    3.2237   -0.4278 H   0  0  0  0  0  0  0  0  0  0  0  0
   -0.0001    3.1915    0.9850 H   0  0  0  0  0  0  0  0  0  0  0  0
   -0.8569    3.3659   -0.4495 H   0  0  0  0  0  0  0  0  0  0  0  0
    0.0008    1.4033    0.0002 C   0  0  0  0  0  0  0  0  0  0  0  0
   -1.1997    0.6941   -0.0002 C   0  0  0  0  0  0  0  0  0  0  0  0
   -2.0644    1.1866   -0.0016 H   0  0  0  0  0  0  0  0  0  0  0  0
   -1.2053   -0.6962   -0.0000 C   0  0  0  0  0  0  0  0  0  0  0  0
   -2.0790   -1.1919    0.0003 H   0  0  0  0  0  0  0  0  0  0  0  0
    0.0016   -1.3954    0.0012 C   0  0  0  0  0  0  0  0  0  0  0  0
   -0.0045   -2.3931    0.0029 H   0  0  0  0  0  0  0  0  0  0  0  0
    1.2053   -0.6997   -0.0000 C   0  0  0  0  0  0  0  0  0  0  0  0
    2.0847   -1.1959    0.0017 H   0  0  0  0  0  0  0  0  0  0  0  0
    1.1974    0.6939   -0.0013 C   0  0  0  0  0  0  0  0  0  0  0  0
    2.0661    1.1902   -0.0043 H   0  0  0  0  0  0  0  0  0  0  0  0
  1  5  1  0
  5  6  1  0
  5  7  2  0
  1  2  1  0
  1  3  1  0
  1  4  1  0
  8 12  1  0
 12 13  2  0
 13 15  1  0
 15 17  2  0
 17 19  1  0
 19 21  2  0
 21 12  1  0
  8  9  1  0
  8 10  1  0
  8 11  1  0
 13 14  1  0
 15 16  1  0
 17 18  1  0
 19 20  1  0
 21 22  1  0
M  CHG  1   6  -1
M  END
>  <PDB_ID>  (563) 
pdb1jgt

>  <RESIDUE_NAME>  (563) 
GLU   PHE

>  <FRAG_NAME>  (563) 
ACET   MBZ

>  <FRAG_ATOM_NUM>  (563) 
fragi: 7  fragj: 15

>  <atom.prop.CHAIN_ID>  (563) 
A A A A A A A Z Z Z Z Z Z Z Z Z Z Z Z Z Z Z

>  <atom.prop.IS_HEAVY_ATOM>  (563) 
1 0 0 0 1 1 1 1 0 0 0 1 1 0 1 0 1 0 1 0 1 0

>  <DIFUSE_FUNC_ATOM>  (563) 
atom 6   atom 7   

>  <FINAL_SINGLE_POINT_ENERGY>  (563) 
0

>  <NONCOV_INTER_ENERGY_QM>  (563) 
0

>  <FF_Energy>  (563) 
0.55

>  <QM_Energy>  (563) 
-4.5

>  <source>  (563) 
ACET_MBZ_00

>  <Index>  (563) 
20425

$$$$
ACET-pdb1jji-B-GLU-15:MBZ-pdb1jji-C-PHE-230
     RDKit          3D

 22 21  0  0  0  0  0  0  0  0999 V2000
   -1.4388    2.9890   -2.5556 C   0  0  0  0  0  0  0  0  0  0  0  0
   -1.8860    2.5299   -1.8046 H   0  0  0  0  0  0  0  0  0  0  0  0
   -0.4773    3.1237   -2.3779 H   0  0  0  0  0  0  0  0  0  0  0  0
   -1.5449    2.3748   -3.4498 H   0  0  0  0  0  0  0  0  0  0  0  0
   -2.0706    4.3621   -2.6872 C   0  0  0  0  0  0  0  0  0  0  0  0
   -3.3199    4.4324   -2.7580 O   0  0  0  0  0  1  0  0  0  0  0  0
   -1.3122    5.3646   -2.7192 O   0  0  0  0  0  0  0  0  0  0  0  0
    0.0130    2.9131    0.0103 C   0  0  0  0  0  0  0  0  0  0  0  0
   -0.7130    3.2285   -0.5856 H   0  0  0  0  0  0  0  0  0  0  0  0
    0.8985    3.2135   -0.3181 H   0  0  0  0  0  0  0  0  0  0  0  0
   -0.1456    3.3613    0.9911 H   0  0  0  0  0  0  0  0  0  0  0  0
    0.0005    1.4054    0.0012 C   0  0  0  0  0  0  0  0  0  0  0  0
   -1.2046    0.6986   -0.0008 C   0  0  0  0  0  0  0  0  0  0  0  0
   -2.0668    1.1855   -0.0042 H   0  0  0  0  0  0  0  0  0  0  0  0
   -1.2042   -0.7001   -0.0000 C   0  0  0  0  0  0  0  0  0  0  0  0
   -2.0772   -1.1951    0.0013 H   0  0  0  0  0  0  0  0  0  0  0  0
    0.0058   -1.3968    0.0009 C   0  0  0  0  0  0  0  0  0  0  0  0
   -0.0010   -2.3952    0.0014 H   0  0  0  0  0  0  0  0  0  0  0  0
    1.2042   -0.7013   -0.0000 C   0  0  0  0  0  0  0  0  0  0  0  0
    2.0872   -1.1949    0.0016 H   0  0  0  0  0  0  0  0  0  0  0  0
    1.1982    0.6942   -0.0013 C   0  0  0  0  0  0  0  0  0  0  0  0
    2.0665    1.1894   -0.0052 H   0  0  0  0  0  0  0  0  0  0  0  0
  1  5  1  0
  5  6  1  0
  5  7  2  0
  1  2  1  0
  1  3  1  0
  1  4  1  0
  8 12  1  0
 12 13  2  0
 13 15  1  0
 15 17  2  0
 17 19  1  0
 19 21  2  0
 21 12  1  0
  8  9  1  0
  8 10  1  0
  8 11  1  0
 13 14  1  0
 15 16  1  0
 17 18  1  0
 19 20  1  0
 21 22  1  0
M  CHG  1   6  -1
M  END
>  <PDB_ID>  (564) 
pdb1jji

>  <RESIDUE_NAME>  (564) 
GLU   PHE

>  <FRAG_NAME>  (564) 
ACET   MBZ

>  <FRAG_ATOM_NUM>  (564) 
fragi: 7  fragj: 15

>  <atom.prop.CHAIN_ID>  (564) 
A A A A A A A Z Z Z Z Z Z Z Z Z Z Z Z Z Z Z

>  <atom.prop.IS_HEAVY_ATOM>  (564) 
1 0 0 0 1 1 1 1 0 0 0 1 1 0 1 0 1 0 1 0 1 0

>  <DIFUSE_FUNC_ATOM>  (564) 
atom 6   atom 7   

>  <FINAL_SINGLE_POINT_ENERGY>  (564) 
0

>  <NONCOV_INTER_ENERGY_QM>  (564) 
0

>  <FF_Energy>  (564) 
18.79

>  <QM_Energy>  (564) 
2.3

>  <source>  (564) 
ACET_MBZ_00

>  <Index>  (564) 
20573

$$$$
ACET-pdb1jk3-A-ASP-198:MBZ-pdb1jk3-A-PHE-174
     RDKit          3D

 22 21  0  0  0  0  0  0  0  0999 V2000
    0.1648    0.6230    3.6022 C   0  0  0  0  0  0  0  0  0  0  0  0
   -0.4148    0.3232    2.8466 H   0  0  0  0  0  0  0  0  0  0  0  0
   -0.2713    0.3953    4.4712 H   0  0  0  0  0  0  0  0  0  0  0  0
    1.1029    0.0711    3.5430 H   0  0  0  0  0  0  0  0  0  0  0  0
    0.3352    2.1216    3.5203 C   0  0  0  0  0  0  0  0  0  0  0  0
   -0.6999    2.8263    3.3789 O   0  0  0  0  0  1  0  0  0  0  0  0
    1.4712    2.6344    3.5479 O   0  0  0  0  0  0  0  0  0  0  0  0
    0.0357    2.9301    0.0974 C   0  0  0  0  0  0  0  0  0  0  0  0
    0.9291    3.2239   -0.2136 H   0  0  0  0  0  0  0  0  0  0  0  0
   -0.1075    3.1715    1.0473 H   0  0  0  0  0  0  0  0  0  0  0  0
   -0.7192    3.4397   -0.5014 H   0  0  0  0  0  0  0  0  0  0  0  0
   -0.0024    1.4122    0.0026 C   0  0  0  0  0  0  0  0  0  0  0  0
   -1.1927    0.7063    0.0170 C   0  0  0  0  0  0  0  0  0  0  0  0
   -2.0630    1.1733    0.0383 H   0  0  0  0  0  0  0  0  0  0  0  0
   -1.1785   -0.7090   -0.0000 C   0  0  0  0  0  0  0  0  0  0  0  0
   -2.0607   -1.1943    0.0103 H   0  0  0  0  0  0  0  0  0  0  0  0
    0.0095   -1.3808   -0.0278 C   0  0  0  0  0  0  0  0  0  0  0  0
    0.0015   -2.3950   -0.0703 H   0  0  0  0  0  0  0  0  0  0  0  0
    1.1785   -0.7099    0.0000 C   0  0  0  0  0  0  0  0  0  0  0  0
    2.0728   -1.2007    0.0169 H   0  0  0  0  0  0  0  0  0  0  0  0
    1.1855    0.6813    0.0082 C   0  0  0  0  0  0  0  0  0  0  0  0
    2.0613    1.1694    0.0182 H   0  0  0  0  0  0  0  0  0  0  0  0
  1  5  1  0
  5  6  1  0
  5  7  2  0
  1  2  1  0
  1  3  1  0
  1  4  1  0
  8 12  1  0
 12 13  2  0
 13 15  1  0
 15 17  2  0
 17 19  1  0
 19 21  2  0
 21 12  1  0
  8  9  1  0
  8 10  1  0
  8 11  1  0
 13 14  1  0
 15 16  1  0
 17 18  1  0
 19 20  1  0
 21 22  1  0
M  CHG  1   6  -1
M  END
>  <PDB_ID>  (565) 
pdb1jk3

>  <RESIDUE_NAME>  (565) 
ASP   PHE

>  <FRAG_NAME>  (565) 
ACET   MBZ

>  <FRAG_ATOM_NUM>  (565) 
fragi: 7  fragj: 15

>  <atom.prop.CHAIN_ID>  (565) 
A A A A A A A Z Z Z Z Z Z Z Z Z Z Z Z Z Z Z

>  <atom.prop.IS_HEAVY_ATOM>  (565) 
1 0 0 0 1 1 1 1 0 0 0 1 1 0 1 0 1 0 1 0 1 0

>  <DIFUSE_FUNC_ATOM>  (565) 
atom 6   atom 7   

>  <FINAL_SINGLE_POINT_ENERGY>  (565) 
0

>  <NONCOV_INTER_ENERGY_QM>  (565) 
0

>  <FF_Energy>  (565) 
-0.34

>  <QM_Energy>  (565) 
-6.91

>  <source>  (565) 
ACET_MBZ_00

>  <Index>  (565) 
20579

$$$$
ACET-pdb1jkg-A-ASP-29:MBZ-pdb1jkg-A-PHE-70
     RDKit          3D

 22 21  0  0  0  0  0  0  0  0999 V2000
   -5.5250    3.8328   -1.1585 C   0  0  0  0  0  0  0  0  0  0  0  0
   -5.3343    4.4222   -1.9374 H   0  0  0  0  0  0  0  0  0  0  0  0
   -6.0643    4.3228   -0.4817 H   0  0  0  0  0  0  0  0  0  0  0  0
   -6.1195    2.9914   -1.5146 H   0  0  0  0  0  0  0  0  0  0  0  0
   -4.2163    3.4105   -0.5313 C   0  0  0  0  0  0  0  0  0  0  0  0
   -4.0141    2.1981   -0.3199 O   0  0  0  0  0  1  0  0  0  0  0  0
   -3.3954    4.3050   -0.2394 O   0  0  0  0  0  0  0  0  0  0  0  0
    0.0086    2.9076   -0.0266 C   0  0  0  0  0  0  0  0  0  0  0  0
   -0.7292    3.2114   -0.6132 H   0  0  0  0  0  0  0  0  0  0  0  0
    0.8870    3.2030   -0.3765 H   0  0  0  0  0  0  0  0  0  0  0  0
   -0.1319    3.3753    0.9479 H   0  0  0  0  0  0  0  0  0  0  0  0
   -0.0030    1.4059   -0.0006 C   0  0  0  0  0  0  0  0  0  0  0  0
   -1.1994    0.6992    0.0016 C   0  0  0  0  0  0  0  0  0  0  0  0
   -2.0668    1.1865    0.0035 H   0  0  0  0  0  0  0  0  0  0  0  0
   -1.2050   -0.6988    0.0000 C   0  0  0  0  0  0  0  0  0  0  0  0
   -2.0784   -1.1926    0.0010 H   0  0  0  0  0  0  0  0  0  0  0  0
    0.0064   -1.4009   -0.0009 C   0  0  0  0  0  0  0  0  0  0  0  0
   -0.0013   -2.3959   -0.0028 H   0  0  0  0  0  0  0  0  0  0  0  0
    1.2050   -0.6995   -0.0000 C   0  0  0  0  0  0  0  0  0  0  0  0
    2.0886   -1.1931    0.0027 H   0  0  0  0  0  0  0  0  0  0  0  0
    1.1961    0.6942   -0.0000 C   0  0  0  0  0  0  0  0  0  0  0  0
    2.0636    1.1918   -0.0004 H   0  0  0  0  0  0  0  0  0  0  0  0
  1  5  1  0
  5  6  1  0
  5  7  2  0
  1  2  1  0
  1  3  1  0
  1  4  1  0
  8 12  1  0
 12 13  2  0
 13 15  1  0
 15 17  2  0
 17 19  1  0
 19 21  2  0
 21 12  1  0
  8  9  1  0
  8 10  1  0
  8 11  1  0
 13 14  1  0
 15 16  1  0
 17 18  1  0
 19 20  1  0
 21 22  1  0
M  CHG  1   6  -1
M  END
>  <PDB_ID>  (566) 
pdb1jkg

>  <RESIDUE_NAME>  (566) 
ASP   PHE

>  <FRAG_NAME>  (566) 
ACET   MBZ

>  <FRAG_ATOM_NUM>  (566) 
fragi: 7  fragj: 15

>  <atom.prop.CHAIN_ID>  (566) 
A A A A A A A Z Z Z Z Z Z Z Z Z Z Z Z Z Z Z

>  <atom.prop.IS_HEAVY_ATOM>  (566) 
1 0 0 0 1 1 1 1 0 0 0 1 1 0 1 0 1 0 1 0 1 0

>  <DIFUSE_FUNC_ATOM>  (566) 
atom 6   atom 7   

>  <FINAL_SINGLE_POINT_ENERGY>  (566) 
0

>  <NONCOV_INTER_ENERGY_QM>  (566) 
0

>  <FF_Energy>  (566) 
-1.46

>  <QM_Energy>  (566) 
-9.01

>  <source>  (566) 
ACET_MBZ_00

>  <Index>  (566) 
20630

$$$$
ACET-pdb1jkf-A-GLU-530:MBZ-pdb1jkf-B-PHE-497
     RDKit          3D

 22 21  0  0  0  0  0  0  0  0999 V2000
   -0.1770    0.4870    3.7117 C   0  0  0  0  0  0  0  0  0  0  0  0
   -0.0673    0.6304    4.6781 H   0  0  0  0  0  0  0  0  0  0  0  0
    0.6339    0.1163    3.2972 H   0  0  0  0  0  0  0  0  0  0  0  0
   -0.9875   -0.2274    3.5674 H   0  0  0  0  0  0  0  0  0  0  0  0
   -0.4303    1.8634    3.0702 C   0  0  0  0  0  0  0  0  0  0  0  0
    0.5050    2.7159    3.1046 O   0  0  0  0  0  1  0  0  0  0  0  0
   -1.5535    2.0851    2.5364 O   0  0  0  0  0  0  0  0  0  0  0  0
    0.0032    2.9054   -0.0495 C   0  0  0  0  0  0  0  0  0  0  0  0
    0.7069    3.2304    0.5617 H   0  0  0  0  0  0  0  0  0  0  0  0
   -0.8914    3.2223    0.2250 H   0  0  0  0  0  0  0  0  0  0  0  0
    0.2093    3.3133   -1.0390 H   0  0  0  0  0  0  0  0  0  0  0  0
    0.0010    1.4007   -0.0012 C   0  0  0  0  0  0  0  0  0  0  0  0
   -1.2050    0.6897    0.0015 C   0  0  0  0  0  0  0  0  0  0  0  0
   -2.0667    1.1910    0.0026 H   0  0  0  0  0  0  0  0  0  0  0  0
   -1.2177   -0.6935   -0.0000 C   0  0  0  0  0  0  0  0  0  0  0  0
   -2.0864   -1.1923    0.0014 H   0  0  0  0  0  0  0  0  0  0  0  0
   -0.0020   -1.3984   -0.0023 C   0  0  0  0  0  0  0  0  0  0  0  0
   -0.0065   -2.3921   -0.0058 H   0  0  0  0  0  0  0  0  0  0  0  0
    1.2177   -0.6962    0.0000 C   0  0  0  0  0  0  0  0  0  0  0  0
    2.0899   -1.1955    0.0014 H   0  0  0  0  0  0  0  0  0  0  0  0
    1.2060    0.6979    0.0020 C   0  0  0  0  0  0  0  0  0  0  0  0
    2.0691    1.1985    0.0055 H   0  0  0  0  0  0  0  0  0  0  0  0
  1  5  1  0
  5  6  1  0
  5  7  2  0
  1  2  1  0
  1  3  1  0
  1  4  1  0
  8 12  1  0
 12 13  2  0
 13 15  1  0
 15 17  2  0
 17 19  1  0
 19 21  2  0
 21 12  1  0
  8  9  1  0
  8 10  1  0
  8 11  1  0
 13 14  1  0
 15 16  1  0
 17 18  1  0
 19 20  1  0
 21 22  1  0
M  CHG  1   6  -1
M  END
>  <PDB_ID>  (567) 
pdb1jkf

>  <RESIDUE_NAME>  (567) 
GLU   PHE

>  <FRAG_NAME>  (567) 
ACET   MBZ

>  <FRAG_ATOM_NUM>  (567) 
fragi: 7  fragj: 15

>  <atom.prop.CHAIN_ID>  (567) 
A A A A A A A Z Z Z Z Z Z Z Z Z Z Z Z Z Z Z

>  <atom.prop.IS_HEAVY_ATOM>  (567) 
1 0 0 0 1 1 1 1 0 0 0 1 1 0 1 0 1 0 1 0 1 0

>  <DIFUSE_FUNC_ATOM>  (567) 
atom 6   atom 7   

>  <FINAL_SINGLE_POINT_ENERGY>  (567) 
0

>  <NONCOV_INTER_ENERGY_QM>  (567) 
0

>  <FF_Energy>  (567) 
3.65

>  <QM_Energy>  (567) 
-6.2

>  <source>  (567) 
ACET_MBZ_00

>  <Index>  (567) 
20640

$$$$
ACET-pdb2obe-A-ASP-769:MBZ-pdb2obe-A-PHE-775
     RDKit          3D

 22 21  0  0  0  0  0  0  0  0999 V2000
    4.1351    4.8059   -2.4265 C   0  0  0  0  0  0  0  0  0  0  0  0
    3.6161    4.5402   -3.2364 H   0  0  0  0  0  0  0  0  0  0  0  0
    5.0338    4.3738   -2.4436 H   0  0  0  0  0  0  0  0  0  0  0  0
    4.2894    5.8837   -2.4770 H   0  0  0  0  0  0  0  0  0  0  0  0
    3.3935    4.3589   -1.1955 C   0  0  0  0  0  0  0  0  0  0  0  0
    2.5925    5.1572   -0.6040 O   0  0  0  0  0  1  0  0  0  0  0  0
    3.5722    3.1493   -0.8541 O   0  0  0  0  0  0  0  0  0  0  0  0
   -0.0118    2.9030    0.0210 C   0  0  0  0  0  0  0  0  0  0  0  0
   -0.7790    3.2129   -0.5177 H   0  0  0  0  0  0  0  0  0  0  0  0
    0.8455    3.2132   -0.3586 H   0  0  0  0  0  0  0  0  0  0  0  0
   -0.1103    3.3105    1.0272 H   0  0  0  0  0  0  0  0  0  0  0  0
   -0.0086    1.3993   -0.0103 C   0  0  0  0  0  0  0  0  0  0  0  0
   -1.2000    0.7046    0.0144 C   0  0  0  0  0  0  0  0  0  0  0  0
   -2.0684    1.1988    0.0419 H   0  0  0  0  0  0  0  0  0  0  0  0
   -1.2213   -0.6882    0.0000 C   0  0  0  0  0  0  0  0  0  0  0  0
   -2.0819   -1.1865   -0.0110 H   0  0  0  0  0  0  0  0  0  0  0  0
    0.0152   -1.4100    0.0031 C   0  0  0  0  0  0  0  0  0  0  0  0
   -0.0065   -2.3985    0.0068 H   0  0  0  0  0  0  0  0  0  0  0  0
    1.2213   -0.7082    0.0000 C   0  0  0  0  0  0  0  0  0  0  0  0
    2.1011   -1.1874    0.0044 H   0  0  0  0  0  0  0  0  0  0  0  0
    1.1934    0.7027   -0.0072 C   0  0  0  0  0  0  0  0  0  0  0  0
    2.0601    1.2012   -0.0114 H   0  0  0  0  0  0  0  0  0  0  0  0
  1  5  1  0
  5  6  1  0
  5  7  2  0
  1  2  1  0
  1  3  1  0
  1  4  1  0
  8 12  1  0
 12 13  2  0
 13 15  1  0
 15 17  2  0
 17 19  1  0
 19 21  2  0
 21 12  1  0
  8  9  1  0
  8 10  1  0
  8 11  1  0
 13 14  1  0
 15 16  1  0
 17 18  1  0
 19 20  1  0
 21 22  1  0
M  CHG  1   6  -1
M  END
>  <PDB_ID>  (568) 
pdb2obe

>  <RESIDUE_NAME>  (568) 
ASP   PHE

>  <FRAG_NAME>  (568) 
ACET   MBZ

>  <FRAG_ATOM_NUM>  (568) 
fragi: 7  fragj: 15

>  <atom.prop.CHAIN_ID>  (568) 
A A A A A A A Z Z Z Z Z Z Z Z Z Z Z Z Z Z Z

>  <atom.prop.IS_HEAVY_ATOM>  (568) 
1 0 0 0 1 1 1 1 0 0 0 1 1 0 1 0 1 0 1 0 1 0

>  <DIFUSE_FUNC_ATOM>  (568) 
atom 6   atom 7   

>  <FINAL_SINGLE_POINT_ENERGY>  (568) 
0

>  <NONCOV_INTER_ENERGY_QM>  (568) 
0

>  <FF_Energy>  (568) 
-2.69

>  <QM_Energy>  (568) 
-8.71

>  <source>  (568) 
ACET_MBZ_00

>  <Index>  (568) 
20663

$$$$
ACET-pdb2obe-B-ASP-769:MBZ-pdb2obe-B-PHE-775
     RDKit          3D

 22 21  0  0  0  0  0  0  0  0999 V2000
    3.9762    4.9653   -2.5846 C   0  0  0  0  0  0  0  0  0  0  0  0
    3.3419    4.7467   -3.3176 H   0  0  0  0  0  0  0  0  0  0  0  0
    4.8491    4.5166   -2.7353 H   0  0  0  0  0  0  0  0  0  0  0  0
    4.1429    6.0425   -2.5901 H   0  0  0  0  0  0  0  0  0  0  0  0
    3.3880    4.4519   -1.2675 C   0  0  0  0  0  0  0  0  0  0  0  0
    2.7909    5.2576   -0.5031 O   0  0  0  0  0  1  0  0  0  0  0  0
    3.4951    3.2293   -0.9879 O   0  0  0  0  0  0  0  0  0  0  0  0
    0.0029    2.8952    0.0232 C   0  0  0  0  0  0  0  0  0  0  0  0
   -0.7772    3.2301   -0.4655 H   0  0  0  0  0  0  0  0  0  0  0  0
    0.8516    3.2090   -0.3536 H   0  0  0  0  0  0  0  0  0  0  0  0
   -0.0617    3.2743    1.0430 H   0  0  0  0  0  0  0  0  0  0  0  0
   -0.0144    1.4009   -0.0170 C   0  0  0  0  0  0  0  0  0  0  0  0
   -1.2037    0.7236    0.0005 C   0  0  0  0  0  0  0  0  0  0  0  0
   -2.0700    1.1978    0.0120 H   0  0  0  0  0  0  0  0  0  0  0  0
   -1.1996   -0.6849   -0.0000 C   0  0  0  0  0  0  0  0  0  0  0  0
   -2.0637   -1.1862   -0.0144 H   0  0  0  0  0  0  0  0  0  0  0  0
    0.0340   -1.3967    0.0220 C   0  0  0  0  0  0  0  0  0  0  0  0
    0.0030   -2.3917    0.0529 H   0  0  0  0  0  0  0  0  0  0  0  0
    1.1996   -0.7071    0.0000 C   0  0  0  0  0  0  0  0  0  0  0  0
    2.0961   -1.1964   -0.0110 H   0  0  0  0  0  0  0  0  0  0  0  0
    1.1841    0.6643   -0.0055 C   0  0  0  0  0  0  0  0  0  0  0  0
    2.0557    1.1766   -0.0018 H   0  0  0  0  0  0  0  0  0  0  0  0
  1  5  1  0
  5  6  1  0
  5  7  2  0
  1  2  1  0
  1  3  1  0
  1  4  1  0
  8 12  1  0
 12 13  2  0
 13 15  1  0
 15 17  2  0
 17 19  1  0
 19 21  2  0
 21 12  1  0
  8  9  1  0
  8 10  1  0
  8 11  1  0
 13 14  1  0
 15 16  1  0
 17 18  1  0
 19 20  1  0
 21 22  1  0
M  CHG  1   6  -1
M  END
>  <PDB_ID>  (569) 
pdb2obe

>  <RESIDUE_NAME>  (569) 
ASP   PHE

>  <FRAG_NAME>  (569) 
ACET   MBZ

>  <FRAG_ATOM_NUM>  (569) 
fragi: 7  fragj: 15

>  <atom.prop.CHAIN_ID>  (569) 
A A A A A A A Z Z Z Z Z Z Z Z Z Z Z Z Z Z Z

>  <atom.prop.IS_HEAVY_ATOM>  (569) 
1 0 0 0 1 1 1 1 0 0 0 1 1 0 1 0 1 0 1 0 1 0

>  <DIFUSE_FUNC_ATOM>  (569) 
atom 6   atom 7   

>  <FINAL_SINGLE_POINT_ENERGY>  (569) 
0

>  <NONCOV_INTER_ENERGY_QM>  (569) 
0

>  <FF_Energy>  (569) 
-2.62

>  <QM_Energy>  (569) 
-8.25

>  <source>  (569) 
ACET_MBZ_00

>  <Index>  (569) 
20676

$$$$
ACET-pdb2obe-C-ASP-568:MBZ-pdb2obe-C-PHE-675
     RDKit          3D

 22 21  0  0  0  0  0  0  0  0999 V2000
   -4.4284   -1.1264    0.7682 C   0  0  0  0  0  0  0  0  0  0  0  0
   -3.7102   -0.7713    0.1917 H   0  0  0  0  0  0  0  0  0  0  0  0
   -4.9620   -0.4021    1.1731 H   0  0  0  0  0  0  0  0  0  0  0  0
   -5.0994   -1.6979    0.1269 H   0  0  0  0  0  0  0  0  0  0  0  0
   -3.8111   -1.9790    1.8755 C   0  0  0  0  0  0  0  0  0  0  0  0
   -3.7017   -3.3032    1.8114 O   0  0  0  0  0  1  0  0  0  0  0  0
   -3.4166   -1.4022    2.9284 O   0  0  0  0  0  0  0  0  0  0  0  0
    0.0006    2.9348   -0.0044 C   0  0  0  0  0  0  0  0  0  0  0  0
   -0.5310    3.2336   -0.7795 H   0  0  0  0  0  0  0  0  0  0  0  0
    0.9375    3.2373   -0.0651 H   0  0  0  0  0  0  0  0  0  0  0  0
   -0.4349    3.3831    0.8887 H   0  0  0  0  0  0  0  0  0  0  0  0
    0.0009    1.4146    0.0017 C   0  0  0  0  0  0  0  0  0  0  0  0
   -1.2130    0.6966   -0.0039 C   0  0  0  0  0  0  0  0  0  0  0  0
   -2.0742    1.1856   -0.0116 H   0  0  0  0  0  0  0  0  0  0  0  0
   -1.2195   -0.7120    0.0000 C   0  0  0  0  0  0  0  0  0  0  0  0
   -2.0853   -1.2049    0.0061 H   0  0  0  0  0  0  0  0  0  0  0  0
    0.0052   -1.4101   -0.0032 C   0  0  0  0  0  0  0  0  0  0  0  0
    0.0090   -2.4009   -0.0084 H   0  0  0  0  0  0  0  0  0  0  0  0
    1.2195   -0.6927   -0.0000 C   0  0  0  0  0  0  0  0  0  0  0  0
    2.0976   -1.1890   -0.0004 H   0  0  0  0  0  0  0  0  0  0  0  0
    1.2068    0.7037    0.0054 C   0  0  0  0  0  0  0  0  0  0  0  0
    2.0717    1.2040    0.0110 H   0  0  0  0  0  0  0  0  0  0  0  0
  1  5  1  0
  5  6  1  0
  5  7  2  0
  1  2  1  0
  1  3  1  0
  1  4  1  0
  8 12  1  0
 12 13  2  0
 13 15  1  0
 15 17  2  0
 17 19  1  0
 19 21  2  0
 21 12  1  0
  8  9  1  0
  8 10  1  0
  8 11  1  0
 13 14  1  0
 15 16  1  0
 17 18  1  0
 19 20  1  0
 21 22  1  0
M  CHG  1   6  -1
M  END
>  <PDB_ID>  (570) 
pdb2obe

>  <RESIDUE_NAME>  (570) 
ASP   PHE

>  <FRAG_NAME>  (570) 
ACET   MBZ

>  <FRAG_ATOM_NUM>  (570) 
fragi: 7  fragj: 15

>  <atom.prop.CHAIN_ID>  (570) 
A A A A A A A Z Z Z Z Z Z Z Z Z Z Z Z Z Z Z

>  <atom.prop.IS_HEAVY_ATOM>  (570) 
1 0 0 0 1 1 1 1 0 0 0 1 1 0 1 0 1 0 1 0 1 0

>  <DIFUSE_FUNC_ATOM>  (570) 
atom 6   atom 7   

>  <FINAL_SINGLE_POINT_ENERGY>  (570) 
0

>  <NONCOV_INTER_ENERGY_QM>  (570) 
0

>  <FF_Energy>  (570) 
-2.55

>  <QM_Energy>  (570) 
-0.27

>  <source>  (570) 
ACET_MBZ_00

>  <Index>  (570) 
20679

$$$$
ACET-pdb2obe-C-ASP-769:MBZ-pdb2obe-C-PHE-775
     RDKit          3D

 22 21  0  0  0  0  0  0  0  0999 V2000
    3.8240    5.1106   -2.4806 C   0  0  0  0  0  0  0  0  0  0  0  0
    3.2269    4.8601   -3.2373 H   0  0  0  0  0  0  0  0  0  0  0  0
    4.7089    4.6667   -2.5818 H   0  0  0  0  0  0  0  0  0  0  0  0
    3.9798    6.1888   -2.5165 H   0  0  0  0  0  0  0  0  0  0  0  0
    3.1903    4.6422   -1.1858 C   0  0  0  0  0  0  0  0  0  0  0  0
    2.5152    5.4234   -0.4532 O   0  0  0  0  0  1  0  0  0  0  0  0
    3.3668    3.4474   -0.9161 O   0  0  0  0  0  0  0  0  0  0  0  0
    0.0146    2.8970    0.0550 C   0  0  0  0  0  0  0  0  0  0  0  0
   -0.7622    3.2383   -0.4409 H   0  0  0  0  0  0  0  0  0  0  0  0
    0.8659    3.2158   -0.3196 H   0  0  0  0  0  0  0  0  0  0  0  0
   -0.0563    3.2583    1.0810 H   0  0  0  0  0  0  0  0  0  0  0  0
   -0.0010    1.4067   -0.0163 C   0  0  0  0  0  0  0  0  0  0  0  0
   -1.2017    0.7248    0.0207 C   0  0  0  0  0  0  0  0  0  0  0  0
   -2.0620    1.2096    0.0604 H   0  0  0  0  0  0  0  0  0  0  0  0
   -1.2113   -0.6821   -0.0000 C   0  0  0  0  0  0  0  0  0  0  0  0
   -2.0880   -1.1695   -0.0159 H   0  0  0  0  0  0  0  0  0  0  0  0
    0.0008   -1.4042    0.0038 C   0  0  0  0  0  0  0  0  0  0  0  0
   -0.0262   -2.4000    0.0088 H   0  0  0  0  0  0  0  0  0  0  0  0
    1.2113   -0.7246   -0.0000 C   0  0  0  0  0  0  0  0  0  0  0  0
    2.0855   -1.2167    0.0048 H   0  0  0  0  0  0  0  0  0  0  0  0
    1.2020    0.6795   -0.0082 C   0  0  0  0  0  0  0  0  0  0  0  0
    2.0714    1.1747   -0.0093 H   0  0  0  0  0  0  0  0  0  0  0  0
  1  5  1  0
  5  6  1  0
  5  7  2  0
  1  2  1  0
  1  3  1  0
  1  4  1  0
  8 12  1  0
 12 13  2  0
 13 15  1  0
 15 17  2  0
 17 19  1  0
 19 21  2  0
 21 12  1  0
  8  9  1  0
  8 10  1  0
  8 11  1  0
 13 14  1  0
 15 16  1  0
 17 18  1  0
 19 20  1  0
 21 22  1  0
M  CHG  1   6  -1
M  END
>  <PDB_ID>  (571) 
pdb2obe

>  <RESIDUE_NAME>  (571) 
ASP   PHE

>  <FRAG_NAME>  (571) 
ACET   MBZ

>  <FRAG_ATOM_NUM>  (571) 
fragi: 7  fragj: 15

>  <atom.prop.CHAIN_ID>  (571) 
A A A A A A A Z Z Z Z Z Z Z Z Z Z Z Z Z Z Z

>  <atom.prop.IS_HEAVY_ATOM>  (571) 
1 0 0 0 1 1 1 1 0 0 0 1 1 0 1 0 1 0 1 0 1 0

>  <DIFUSE_FUNC_ATOM>  (571) 
atom 6   atom 7   

>  <FINAL_SINGLE_POINT_ENERGY>  (571) 
0

>  <NONCOV_INTER_ENERGY_QM>  (571) 
0

>  <FF_Energy>  (571) 
-2.42

>  <QM_Energy>  (571) 
-8.32

>  <source>  (571) 
ACET_MBZ_00

>  <Index>  (571) 
20680

$$$$
ACET-pdb2obr-A-ASP-449:MBZ-pdb2obr-A-PHE-432
     RDKit          3D

 22 21  0  0  0  0  0  0  0  0999 V2000
    3.2389    2.4494   -1.5466 C   0  0  0  0  0  0  0  0  0  0  0  0
    3.6292    1.5413   -1.4498 H   0  0  0  0  0  0  0  0  0  0  0  0
    2.5519    2.6108   -0.8487 H   0  0  0  0  0  0  0  0  0  0  0  0
    4.0383    3.1780   -1.4112 H   0  0  0  0  0  0  0  0  0  0  0  0
    2.5774    2.5508   -2.9140 C   0  0  0  0  0  0  0  0  0  0  0  0
    1.8115    3.5249   -3.1183 O   0  0  0  0  0  1  0  0  0  0  0  0
    2.8269    1.6693   -3.7821 O   0  0  0  0  0  0  0  0  0  0  0  0
   -0.0088    2.9194    0.0228 C   0  0  0  0  0  0  0  0  0  0  0  0
   -0.5738    3.2343   -0.7231 H   0  0  0  0  0  0  0  0  0  0  0  0
    0.9229    3.2332   -0.0690 H   0  0  0  0  0  0  0  0  0  0  0  0
   -0.4104    3.3444    0.9426 H   0  0  0  0  0  0  0  0  0  0  0  0
    0.0007    1.4104   -0.0012 C   0  0  0  0  0  0  0  0  0  0  0  0
   -1.1911    0.6954    0.0011 C   0  0  0  0  0  0  0  0  0  0  0  0
   -2.0624    1.1797    0.0022 H   0  0  0  0  0  0  0  0  0  0  0  0
   -1.1979   -0.7050    0.0000 C   0  0  0  0  0  0  0  0  0  0  0  0
   -2.0784   -1.1896    0.0000 H   0  0  0  0  0  0  0  0  0  0  0  0
   -0.0043   -1.3953    0.0005 C   0  0  0  0  0  0  0  0  0  0  0  0
   -0.0073   -2.3984    0.0008 H   0  0  0  0  0  0  0  0  0  0  0  0
    1.1979   -0.7060   -0.0000 C   0  0  0  0  0  0  0  0  0  0  0  0
    2.0786   -1.1966    0.0011 H   0  0  0  0  0  0  0  0  0  0  0  0
    1.1947    0.7006   -0.0003 C   0  0  0  0  0  0  0  0  0  0  0  0
    2.0660    1.1872   -0.0007 H   0  0  0  0  0  0  0  0  0  0  0  0
  1  5  1  0
  5  6  1  0
  5  7  2  0
  1  2  1  0
  1  3  1  0
  1  4  1  0
  8 12  1  0
 12 13  2  0
 13 15  1  0
 15 17  2  0
 17 19  1  0
 19 21  2  0
 21 12  1  0
  8  9  1  0
  8 10  1  0
  8 11  1  0
 13 14  1  0
 15 16  1  0
 17 18  1  0
 19 20  1  0
 21 22  1  0
M  CHG  1   6  -1
M  END
>  <PDB_ID>  (572) 
pdb2obr

>  <RESIDUE_NAME>  (572) 
ASP   PHE

>  <FRAG_NAME>  (572) 
ACET   MBZ

>  <FRAG_ATOM_NUM>  (572) 
fragi: 7  fragj: 15

>  <atom.prop.CHAIN_ID>  (572) 
A A A A A A A Z Z Z Z Z Z Z Z Z Z Z Z Z Z Z

>  <atom.prop.IS_HEAVY_ATOM>  (572) 
1 0 0 0 1 1 1 1 0 0 0 1 1 0 1 0 1 0 1 0 1 0

>  <DIFUSE_FUNC_ATOM>  (572) 
atom 6   atom 7   

>  <FINAL_SINGLE_POINT_ENERGY>  (572) 
0

>  <NONCOV_INTER_ENERGY_QM>  (572) 
0

>  <FF_Energy>  (572) 
12.01

>  <QM_Energy>  (572) 
1.21

>  <source>  (572) 
ACET_MBZ_00

>  <Index>  (572) 
20683

$$$$
ACET-pdb2oay-A-GLU-395:MBZ-pdb2oay-A-PHE-399
     RDKit          3D

 22 21  0  0  0  0  0  0  0  0999 V2000
    5.1753    4.1800   -1.1991 C   0  0  0  0  0  0  0  0  0  0  0  0
    5.5314    3.4238   -1.7188 H   0  0  0  0  0  0  0  0  0  0  0  0
    5.6534    4.3014   -0.3474 H   0  0  0  0  0  0  0  0  0  0  0  0
    5.3017    5.0864   -1.7913 H   0  0  0  0  0  0  0  0  0  0  0  0
    3.7062    3.8433   -0.8523 C   0  0  0  0  0  0  0  0  0  0  0  0
    2.7683    4.4852   -1.4408 O   0  0  0  0  0  1  0  0  0  0  0  0
    3.4993    2.9287    0.0052 O   0  0  0  0  0  0  0  0  0  0  0  0
    0.0017    2.9201    0.0133 C   0  0  0  0  0  0  0  0  0  0  0  0
   -0.8079    3.2304   -0.4634 H   0  0  0  0  0  0  0  0  0  0  0  0
    0.8246    3.2280   -0.4405 H   0  0  0  0  0  0  0  0  0  0  0  0
   -0.0112    3.3692    1.0064 H   0  0  0  0  0  0  0  0  0  0  0  0
   -0.0005    1.4118    0.0098 C   0  0  0  0  0  0  0  0  0  0  0  0
   -1.1892    0.7056    0.0112 C   0  0  0  0  0  0  0  0  0  0  0  0
   -2.0614    1.1817    0.0189 H   0  0  0  0  0  0  0  0  0  0  0  0
   -1.1884   -0.7030   -0.0000 C   0  0  0  0  0  0  0  0  0  0  0  0
   -2.0702   -1.1897   -0.0025 H   0  0  0  0  0  0  0  0  0  0  0  0
    0.0114   -1.4112   -0.0056 C   0  0  0  0  0  0  0  0  0  0  0  0
    0.0001   -2.4039   -0.0143 H   0  0  0  0  0  0  0  0  0  0  0  0
    1.1884   -0.7078    0.0000 C   0  0  0  0  0  0  0  0  0  0  0  0
    2.0852   -1.1835    0.0170 H   0  0  0  0  0  0  0  0  0  0  0  0
    1.1783    0.7046   -0.0154 C   0  0  0  0  0  0  0  0  0  0  0  0
    2.0579    1.1861   -0.0456 H   0  0  0  0  0  0  0  0  0  0  0  0
  1  5  1  0
  5  6  1  0
  5  7  2  0
  1  2  1  0
  1  3  1  0
  1  4  1  0
  8 12  1  0
 12 13  2  0
 13 15  1  0
 15 17  2  0
 17 19  1  0
 19 21  2  0
 21 12  1  0
  8  9  1  0
  8 10  1  0
  8 11  1  0
 13 14  1  0
 15 16  1  0
 17 18  1  0
 19 20  1  0
 21 22  1  0
M  CHG  1   6  -1
M  END
>  <PDB_ID>  (573) 
pdb2oay

>  <RESIDUE_NAME>  (573) 
GLU   PHE

>  <FRAG_NAME>  (573) 
ACET   MBZ

>  <FRAG_ATOM_NUM>  (573) 
fragi: 7  fragj: 15

>  <atom.prop.CHAIN_ID>  (573) 
A A A A A A A Z Z Z Z Z Z Z Z Z Z Z Z Z Z Z

>  <atom.prop.IS_HEAVY_ATOM>  (573) 
1 0 0 0 1 1 1 1 0 0 0 1 1 0 1 0 1 0 1 0 1 0

>  <DIFUSE_FUNC_ATOM>  (573) 
atom 6   atom 7   

>  <FINAL_SINGLE_POINT_ENERGY>  (573) 
0

>  <NONCOV_INTER_ENERGY_QM>  (573) 
0

>  <FF_Energy>  (573) 
-1.51

>  <QM_Energy>  (573) 
-9.59

>  <source>  (573) 
ACET_MBZ_00

>  <Index>  (573) 
20706

$$$$
ACET-pdb1jms-A-ASP-179:MBZ-pdb1jms-A-PHE-191
     RDKit          3D

 22 21  0  0  0  0  0  0  0  0999 V2000
    6.1349    1.3001    0.9465 C   0  0  0  0  0  0  0  0  0  0  0  0
    5.4412    1.9861    1.1332 H   0  0  0  0  0  0  0  0  0  0  0  0
    6.6771    1.5584    0.1561 H   0  0  0  0  0  0  0  0  0  0  0  0
    6.8000    1.2529    1.8088 H   0  0  0  0  0  0  0  0  0  0  0  0
    5.4557   -0.0214    0.6661 C   0  0  0  0  0  0  0  0  0  0  0  0
    6.1503   -1.0615    0.6603 O   0  0  0  0  0  1  0  0  0  0  0  0
    4.2307   -0.0281    0.4391 O   0  0  0  0  0  0  0  0  0  0  0  0
   -0.0089    2.9020   -0.0416 C   0  0  0  0  0  0  0  0  0  0  0  0
    0.9257    3.2154   -0.1088 H   0  0  0  0  0  0  0  0  0  0  0  0
   -0.4435    3.2319    0.7820 H   0  0  0  0  0  0  0  0  0  0  0  0
   -0.5561    3.3127   -0.8902 H   0  0  0  0  0  0  0  0  0  0  0  0
   -0.0007    1.4054   -0.0010 C   0  0  0  0  0  0  0  0  0  0  0  0
   -1.2026    0.6946    0.0023 C   0  0  0  0  0  0  0  0  0  0  0  0
   -2.0680    1.1860    0.0055 H   0  0  0  0  0  0  0  0  0  0  0  0
   -1.2107   -0.7012    0.0000 C   0  0  0  0  0  0  0  0  0  0  0  0
   -2.0824   -1.1947    0.0017 H   0  0  0  0  0  0  0  0  0  0  0  0
    0.0019   -1.4026   -0.0023 C   0  0  0  0  0  0  0  0  0  0  0  0
   -0.0009   -2.3971   -0.0057 H   0  0  0  0  0  0  0  0  0  0  0  0
    1.2107   -0.6978   -0.0000 C   0  0  0  0  0  0  0  0  0  0  0  0
    2.0899   -1.1921    0.0028 H   0  0  0  0  0  0  0  0  0  0  0  0
    1.2014    0.7015    0.0011 C   0  0  0  0  0  0  0  0  0  0  0  0
    2.0670    1.1975    0.0029 H   0  0  0  0  0  0  0  0  0  0  0  0
  1  5  1  0
  5  6  1  0
  5  7  2  0
  1  2  1  0
  1  3  1  0
  1  4  1  0
  8 12  1  0
 12 13  2  0
 13 15  1  0
 15 17  2  0
 17 19  1  0
 19 21  2  0
 21 12  1  0
  8  9  1  0
  8 10  1  0
  8 11  1  0
 13 14  1  0
 15 16  1  0
 17 18  1  0
 19 20  1  0
 21 22  1  0
M  CHG  1   6  -1
M  END
>  <PDB_ID>  (574) 
pdb1jms

>  <RESIDUE_NAME>  (574) 
ASP   PHE

>  <FRAG_NAME>  (574) 
ACET   MBZ

>  <FRAG_ATOM_NUM>  (574) 
fragi: 7  fragj: 15

>  <atom.prop.CHAIN_ID>  (574) 
A A A A A A A Z Z Z Z Z Z Z Z Z Z Z Z Z Z Z

>  <atom.prop.IS_HEAVY_ATOM>  (574) 
1 0 0 0 1 1 1 1 0 0 0 1 1 0 1 0 1 0 1 0 1 0

>  <DIFUSE_FUNC_ATOM>  (574) 
atom 6   atom 7   

>  <FINAL_SINGLE_POINT_ENERGY>  (574) 
0

>  <NONCOV_INTER_ENERGY_QM>  (574) 
0

>  <FF_Energy>  (574) 
-2.0

>  <QM_Energy>  (574) 
-7.01

>  <source>  (574) 
ACET_MBZ_00

>  <Index>  (574) 
20754

$$$$
ACET-pdb1jog-B-ASP-68:MBZ-pdb1jog-B-PHE-90
     RDKit          3D

 22 21  0  0  0  0  0  0  0  0999 V2000
    3.2443   -1.4985   -2.2487 C   0  0  0  0  0  0  0  0  0  0  0  0
    2.3343   -1.2966   -2.6106 H   0  0  0  0  0  0  0  0  0  0  0  0
    3.1890   -1.6289   -1.2601 H   0  0  0  0  0  0  0  0  0  0  0  0
    3.5734   -2.4401   -2.6884 H   0  0  0  0  0  0  0  0  0  0  0  0
    4.1564   -0.3638   -2.5478 C   0  0  0  0  0  0  0  0  0  0  0  0
    5.3465   -0.6077   -2.8612 O   0  0  0  0  0  1  0  0  0  0  0  0
    3.6714    0.7881   -2.4449 O   0  0  0  0  0  0  0  0  0  0  0  0
   -0.0170    2.8838    0.0421 C   0  0  0  0  0  0  0  0  0  0  0  0
   -0.5278    3.2099   -0.7418 H   0  0  0  0  0  0  0  0  0  0  0  0
    0.9198    3.2057    0.0135 H   0  0  0  0  0  0  0  0  0  0  0  0
   -0.4824    3.2986    0.9362 H   0  0  0  0  0  0  0  0  0  0  0  0
    0.0002    1.3920    0.0013 C   0  0  0  0  0  0  0  0  0  0  0  0
   -1.2036    0.6744   -0.0018 C   0  0  0  0  0  0  0  0  0  0  0  0
   -2.0683    1.1730   -0.0070 H   0  0  0  0  0  0  0  0  0  0  0  0
   -1.2166   -0.7123   -0.0000 C   0  0  0  0  0  0  0  0  0  0  0  0
   -2.0838   -1.2076    0.0014 H   0  0  0  0  0  0  0  0  0  0  0  0
   -0.0051   -1.3946    0.0024 C   0  0  0  0  0  0  0  0  0  0  0  0
    0.0167   -2.3886    0.0052 H   0  0  0  0  0  0  0  0  0  0  0  0
    1.2166   -0.6697   -0.0000 C   0  0  0  0  0  0  0  0  0  0  0  0
    2.0902   -1.1791    0.0010 H   0  0  0  0  0  0  0  0  0  0  0  0
    1.2085    0.7102   -0.0018 C   0  0  0  0  0  0  0  0  0  0  0  0
    2.0643    1.2173   -0.0059 H   0  0  0  0  0  0  0  0  0  0  0  0
  1  5  1  0
  5  6  1  0
  5  7  2  0
  1  2  1  0
  1  3  1  0
  1  4  1  0
  8 12  1  0
 12 13  2  0
 13 15  1  0
 15 17  2  0
 17 19  1  0
 19 21  2  0
 21 12  1  0
  8  9  1  0
  8 10  1  0
  8 11  1  0
 13 14  1  0
 15 16  1  0
 17 18  1  0
 19 20  1  0
 21 22  1  0
M  CHG  1   6  -1
M  END
>  <PDB_ID>  (575) 
pdb1jog

>  <RESIDUE_NAME>  (575) 
ASP   PHE

>  <FRAG_NAME>  (575) 
ACET   MBZ

>  <FRAG_ATOM_NUM>  (575) 
fragi: 7  fragj: 15

>  <atom.prop.CHAIN_ID>  (575) 
A A A A A A A Z Z Z Z Z Z Z Z Z Z Z Z Z Z Z

>  <atom.prop.IS_HEAVY_ATOM>  (575) 
1 0 0 0 1 1 1 1 0 0 0 1 1 0 1 0 1 0 1 0 1 0

>  <DIFUSE_FUNC_ATOM>  (575) 
atom 6   atom 7   

>  <FINAL_SINGLE_POINT_ENERGY>  (575) 
0

>  <NONCOV_INTER_ENERGY_QM>  (575) 
0

>  <FF_Energy>  (575) 
5.94

>  <QM_Energy>  (575) 
-0.45

>  <source>  (575) 
ACET_MBZ_00

>  <Index>  (575) 
20877

$$$$
ACET-pdb2og9-A-GLU-231:MBZ-pdb2og9-A-PHE-257
     RDKit          3D

 22 21  0  0  0  0  0  0  0  0999 V2000
   -4.1974    1.8742    1.8524 C   0  0  0  0  0  0  0  0  0  0  0  0
   -3.4801    1.5576    2.4467 H   0  0  0  0  0  0  0  0  0  0  0  0
   -4.4080    1.2218    1.1470 H   0  0  0  0  0  0  0  0  0  0  0  0
   -5.0935    2.0342    2.4520 H   0  0  0  0  0  0  0  0  0  0  0  0
   -3.6965    3.1409    1.1667 C   0  0  0  0  0  0  0  0  0  0  0  0
   -3.2430    4.0738    1.8632 O   0  0  0  0  0  1  0  0  0  0  0  0
   -3.7566    3.2033   -0.0786 O   0  0  0  0  0  0  0  0  0  0  0  0
   -0.0021    2.9092   -0.0214 C   0  0  0  0  0  0  0  0  0  0  0  0
    0.9066    3.2192    0.2090 H   0  0  0  0  0  0  0  0  0  0  0  0
   -0.6701    3.2234    0.6339 H   0  0  0  0  0  0  0  0  0  0  0  0
   -0.2635    3.3283   -0.9930 H   0  0  0  0  0  0  0  0  0  0  0  0
    0.0004    1.4046    0.0018 C   0  0  0  0  0  0  0  0  0  0  0  0
   -1.1983    0.6965   -0.0007 C   0  0  0  0  0  0  0  0  0  0  0  0
   -2.0646    1.1858   -0.0042 H   0  0  0  0  0  0  0  0  0  0  0  0
   -1.2062   -0.7009   -0.0000 C   0  0  0  0  0  0  0  0  0  0  0  0
   -2.0818   -1.1911    0.0028 H   0  0  0  0  0  0  0  0  0  0  0  0
   -0.0016   -1.3991   -0.0014 C   0  0  0  0  0  0  0  0  0  0  0  0
   -0.0030   -2.3957   -0.0041 H   0  0  0  0  0  0  0  0  0  0  0  0
    1.2062   -0.6971    0.0000 C   0  0  0  0  0  0  0  0  0  0  0  0
    2.0845   -1.1950    0.0022 H   0  0  0  0  0  0  0  0  0  0  0  0
    1.1995    0.6960    0.0003 C   0  0  0  0  0  0  0  0  0  0  0  0
    2.0666    1.1935   -0.0018 H   0  0  0  0  0  0  0  0  0  0  0  0
  1  5  1  0
  5  6  1  0
  5  7  2  0
  1  2  1  0
  1  3  1  0
  1  4  1  0
  8 12  1  0
 12 13  2  0
 13 15  1  0
 15 17  2  0
 17 19  1  0
 19 21  2  0
 21 12  1  0
  8  9  1  0
  8 10  1  0
  8 11  1  0
 13 14  1  0
 15 16  1  0
 17 18  1  0
 19 20  1  0
 21 22  1  0
M  CHG  1   6  -1
M  END
>  <PDB_ID>  (576) 
pdb2og9

>  <RESIDUE_NAME>  (576) 
GLU   PHE

>  <FRAG_NAME>  (576) 
ACET   MBZ

>  <FRAG_ATOM_NUM>  (576) 
fragi: 7  fragj: 15

>  <atom.prop.CHAIN_ID>  (576) 
A A A A A A A Z Z Z Z Z Z Z Z Z Z Z Z Z Z Z

>  <atom.prop.IS_HEAVY_ATOM>  (576) 
1 0 0 0 1 1 1 1 0 0 0 1 1 0 1 0 1 0 1 0 1 0

>  <DIFUSE_FUNC_ATOM>  (576) 
atom 6   atom 7   

>  <FINAL_SINGLE_POINT_ENERGY>  (576) 
0

>  <NONCOV_INTER_ENERGY_QM>  (576) 
0

>  <FF_Energy>  (576) 
-2.65

>  <QM_Energy>  (576) 
-7.8

>  <source>  (576) 
ACET_MBZ_00

>  <Index>  (576) 
20939

$$$$
ACET-pdb1jpl-H-ASP-306:MBZ-pdb1jpl-D-PHE-87
     RDKit          3D

 22 21  0  0  0  0  0  0  0  0999 V2000
    4.5468    4.5040   -2.0057 C   0  0  0  0  0  0  0  0  0  0  0  0
    4.7357    4.7197   -2.9559 H   0  0  0  0  0  0  0  0  0  0  0  0
    4.9598    3.6372   -1.7553 H   0  0  0  0  0  0  0  0  0  0  0  0
    4.9974    5.2817   -1.3890 H   0  0  0  0  0  0  0  0  0  0  0  0
    3.0442    4.4046   -1.8161 C   0  0  0  0  0  0  0  0  0  0  0  0
    2.4066    5.4640   -1.6271 O   0  0  0  0  0  1  0  0  0  0  0  0
    2.5020    3.2754   -1.8701 O   0  0  0  0  0  0  0  0  0  0  0  0
    0.0007    2.8961    0.0202 C   0  0  0  0  0  0  0  0  0  0  0  0
    0.9362    3.2050   -0.0817 H   0  0  0  0  0  0  0  0  0  0  0  0
   -0.3817    3.1952    0.8832 H   0  0  0  0  0  0  0  0  0  0  0  0
   -0.5865    3.3536   -0.7760 H   0  0  0  0  0  0  0  0  0  0  0  0
   -0.0023    1.3994    0.0005 C   0  0  0  0  0  0  0  0  0  0  0  0
   -1.2002    0.6958    0.0012 C   0  0  0  0  0  0  0  0  0  0  0  0
   -2.0649    1.1879    0.0009 H   0  0  0  0  0  0  0  0  0  0  0  0
   -1.2045   -0.6925   -0.0000 C   0  0  0  0  0  0  0  0  0  0  0  0
   -2.0767   -1.1903    0.0008 H   0  0  0  0  0  0  0  0  0  0  0  0
    0.0056   -1.3914   -0.0001 C   0  0  0  0  0  0  0  0  0  0  0  0
   -0.0047   -2.3908   -0.0007 H   0  0  0  0  0  0  0  0  0  0  0  0
    1.2045   -0.7001    0.0000 C   0  0  0  0  0  0  0  0  0  0  0  0
    2.0859   -1.1971    0.0026 H   0  0  0  0  0  0  0  0  0  0  0  0
    1.1970    0.6888   -0.0016 C   0  0  0  0  0  0  0  0  0  0  0  0
    2.0645    1.1888   -0.0051 H   0  0  0  0  0  0  0  0  0  0  0  0
  1  5  1  0
  5  6  1  0
  5  7  2  0
  1  2  1  0
  1  3  1  0
  1  4  1  0
  8 12  1  0
 12 13  2  0
 13 15  1  0
 15 17  2  0
 17 19  1  0
 19 21  2  0
 21 12  1  0
  8  9  1  0
  8 10  1  0
  8 11  1  0
 13 14  1  0
 15 16  1  0
 17 18  1  0
 19 20  1  0
 21 22  1  0
M  CHG  1   6  -1
M  END
>  <PDB_ID>  (577) 
pdb1jpl

>  <RESIDUE_NAME>  (577) 
ASP   PHE

>  <FRAG_NAME>  (577) 
ACET   MBZ

>  <FRAG_ATOM_NUM>  (577) 
fragi: 7  fragj: 15

>  <atom.prop.CHAIN_ID>  (577) 
A A A A A A A Z Z Z Z Z Z Z Z Z Z Z Z Z Z Z

>  <atom.prop.IS_HEAVY_ATOM>  (577) 
1 0 0 0 1 1 1 1 0 0 0 1 1 0 1 0 1 0 1 0 1 0

>  <DIFUSE_FUNC_ATOM>  (577) 
atom 6   atom 7   

>  <FINAL_SINGLE_POINT_ENERGY>  (577) 
0

>  <NONCOV_INTER_ENERGY_QM>  (577) 
0

>  <FF_Energy>  (577) 
-0.63

>  <QM_Energy>  (577) 
-6.69

>  <source>  (577) 
ACET_MBZ_00

>  <Index>  (577) 
20957

$$$$
ACET-pdb1jpx-D-GLU-66:MBZ-pdb1jpx-G-PHE-56
     RDKit          3D

 22 21  0  0  0  0  0  0  0  0999 V2000
    0.5689   -0.7313    3.6807 C   0  0  0  0  0  0  0  0  0  0  0  0
    0.3592   -0.5947    4.6335 H   0  0  0  0  0  0  0  0  0  0  0  0
    1.0219    0.0522    3.2894 H   0  0  0  0  0  0  0  0  0  0  0  0
    1.2476   -1.5810    3.6070 H   0  0  0  0  0  0  0  0  0  0  0  0
   -0.7499   -0.9200    2.9394 C   0  0  0  0  0  0  0  0  0  0  0  0
   -1.5529    0.0439    2.8891 O   0  0  0  0  0  1  0  0  0  0  0  0
   -0.9813   -2.0300    2.4058 O   0  0  0  0  0  0  0  0  0  0  0  0
    0.0090    2.9329   -0.0108 C   0  0  0  0  0  0  0  0  0  0  0  0
   -0.9127    3.2358   -0.1973 H   0  0  0  0  0  0  0  0  0  0  0  0
    0.6357    3.2245   -0.7172 H   0  0  0  0  0  0  0  0  0  0  0  0
    0.3285    3.3812    0.9300 H   0  0  0  0  0  0  0  0  0  0  0  0
    0.0004    1.4137   -0.0026 C   0  0  0  0  0  0  0  0  0  0  0  0
   -1.2065    0.6977    0.0021 C   0  0  0  0  0  0  0  0  0  0  0  0
   -2.0702    1.1874    0.0063 H   0  0  0  0  0  0  0  0  0  0  0  0
   -1.2134   -0.7035   -0.0000 C   0  0  0  0  0  0  0  0  0  0  0  0
   -2.0848   -1.1955   -0.0015 H   0  0  0  0  0  0  0  0  0  0  0  0
   -0.0002   -1.4020    0.0019 C   0  0  0  0  0  0  0  0  0  0  0  0
   -0.0039   -2.3993    0.0043 H   0  0  0  0  0  0  0  0  0  0  0  0
    1.2134   -0.7038   -0.0000 C   0  0  0  0  0  0  0  0  0  0  0  0
    2.0892   -1.1992    0.0011 H   0  0  0  0  0  0  0  0  0  0  0  0
    1.2063    0.6979   -0.0013 C   0  0  0  0  0  0  0  0  0  0  0  0
    2.0718    1.1932   -0.0019 H   0  0  0  0  0  0  0  0  0  0  0  0
  1  5  1  0
  5  6  1  0
  5  7  2  0
  1  2  1  0
  1  3  1  0
  1  4  1  0
  8 12  1  0
 12 13  2  0
 13 15  1  0
 15 17  2  0
 17 19  1  0
 19 21  2  0
 21 12  1  0
  8  9  1  0
  8 10  1  0
  8 11  1  0
 13 14  1  0
 15 16  1  0
 17 18  1  0
 19 20  1  0
 21 22  1  0
M  CHG  1   6  -1
M  END
>  <PDB_ID>  (578) 
pdb1jpx

>  <RESIDUE_NAME>  (578) 
GLU   PHE

>  <FRAG_NAME>  (578) 
ACET   MBZ

>  <FRAG_ATOM_NUM>  (578) 
fragi: 7  fragj: 15

>  <atom.prop.CHAIN_ID>  (578) 
A A A A A A A Z Z Z Z Z Z Z Z Z Z Z Z Z Z Z

>  <atom.prop.IS_HEAVY_ATOM>  (578) 
1 0 0 0 1 1 1 1 0 0 0 1 1 0 1 0 1 0 1 0 1 0

>  <DIFUSE_FUNC_ATOM>  (578) 
atom 6   atom 7   

>  <FINAL_SINGLE_POINT_ENERGY>  (578) 
0

>  <NONCOV_INTER_ENERGY_QM>  (578) 
0

>  <FF_Energy>  (578) 
11.49

>  <QM_Energy>  (578) 
0.88

>  <source>  (578) 
ACET_MBZ_00

>  <Index>  (578) 
20973

$$$$
ACET-pdb1jqn-B-GLU-615:MBZ-pdb1jqn-B-PHE-719
     RDKit          3D

 22 21  0  0  0  0  0  0  0  0999 V2000
   -0.4271   -4.6894    0.1385 C   0  0  0  0  0  0  0  0  0  0  0  0
   -0.2118   -3.7860    0.4664 H   0  0  0  0  0  0  0  0  0  0  0  0
    0.0237   -4.8892   -0.7139 H   0  0  0  0  0  0  0  0  0  0  0  0
   -0.1018   -5.4156    0.8834 H   0  0  0  0  0  0  0  0  0  0  0  0
   -1.9074   -4.7459   -0.1054 C   0  0  0  0  0  0  0  0  0  0  0  0
   -2.6712   -4.3244    0.7954 O   0  0  0  0  0  1  0  0  0  0  0  0
   -2.2982   -5.2185   -1.1916 O   0  0  0  0  0  0  0  0  0  0  0  0
    0.0025    2.9029    0.0428 C   0  0  0  0  0  0  0  0  0  0  0  0
   -0.4377    3.2299   -0.7795 H   0  0  0  0  0  0  0  0  0  0  0  0
    0.9408    3.2086    0.0960 H   0  0  0  0  0  0  0  0  0  0  0  0
   -0.5328    3.3197    0.8959 H   0  0  0  0  0  0  0  0  0  0  0  0
    0.0012    1.4048    0.0079 C   0  0  0  0  0  0  0  0  0  0  0  0
   -1.2000    0.6926   -0.0018 C   0  0  0  0  0  0  0  0  0  0  0  0
   -2.0652    1.1804   -0.0116 H   0  0  0  0  0  0  0  0  0  0  0  0
   -1.2051   -0.7066   -0.0000 C   0  0  0  0  0  0  0  0  0  0  0  0
   -2.0799   -1.1970    0.0061 H   0  0  0  0  0  0  0  0  0  0  0  0
   -0.0002   -1.3987   -0.0043 C   0  0  0  0  0  0  0  0  0  0  0  0
    0.0041   -2.3955   -0.0107 H   0  0  0  0  0  0  0  0  0  0  0  0
    1.2051   -0.6922    0.0000 C   0  0  0  0  0  0  0  0  0  0  0  0
    2.0859   -1.1902    0.0062 H   0  0  0  0  0  0  0  0  0  0  0  0
    1.1990    0.7000   -0.0018 C   0  0  0  0  0  0  0  0  0  0  0  0
    2.0661    1.1962   -0.0112 H   0  0  0  0  0  0  0  0  0  0  0  0
  1  5  1  0
  5  6  1  0
  5  7  2  0
  1  2  1  0
  1  3  1  0
  1  4  1  0
  8 12  1  0
 12 13  2  0
 13 15  1  0
 15 17  2  0
 17 19  1  0
 19 21  2  0
 21 12  1  0
  8  9  1  0
  8 10  1  0
  8 11  1  0
 13 14  1  0
 15 16  1  0
 17 18  1  0
 19 20  1  0
 21 22  1  0
M  CHG  1   6  -1
M  END
>  <PDB_ID>  (579) 
pdb1jqn

>  <RESIDUE_NAME>  (579) 
GLU   PHE

>  <FRAG_NAME>  (579) 
ACET   MBZ

>  <FRAG_ATOM_NUM>  (579) 
fragi: 7  fragj: 15

>  <atom.prop.CHAIN_ID>  (579) 
A A A A A A A Z Z Z Z Z Z Z Z Z Z Z Z Z Z Z

>  <atom.prop.IS_HEAVY_ATOM>  (579) 
1 0 0 0 1 1 1 1 0 0 0 1 1 0 1 0 1 0 1 0 1 0

>  <DIFUSE_FUNC_ATOM>  (579) 
atom 6   atom 7   

>  <FINAL_SINGLE_POINT_ENERGY>  (579) 
0

>  <NONCOV_INTER_ENERGY_QM>  (579) 
0

>  <FF_Energy>  (579) 
35.17

>  <QM_Energy>  (579) 
1.29

>  <source>  (579) 
ACET_MBZ_00

>  <Index>  (579) 
21060

$$$$
ACET-pdb2ohy-A-GLU-82:MBZ-pdb2ohy-A-PHE-197
     RDKit          3D

 22 21  0  0  0  0  0  0  0  0999 V2000
   -0.3174    0.1637   -3.1894 C   0  0  0  0  0  0  0  0  0  0  0  0
   -0.4903    0.9124   -3.7997 H   0  0  0  0  0  0  0  0  0  0  0  0
   -0.6752    0.3198   -2.2900 H   0  0  0  0  0  0  0  0  0  0  0  0
   -0.7904   -0.7291   -3.5985 H   0  0  0  0  0  0  0  0  0  0  0  0
    1.1815    0.0075   -3.0671 C   0  0  0  0  0  0  0  0  0  0  0  0
    1.6525   -1.1466   -2.9793 O   0  0  0  0  0  1  0  0  0  0  0  0
    1.8865    1.0380   -3.0469 O   0  0  0  0  0  0  0  0  0  0  0  0
    0.0015    2.8912   -0.0111 C   0  0  0  0  0  0  0  0  0  0  0  0
    0.9418    3.2000    0.0084 H   0  0  0  0  0  0  0  0  0  0  0  0
   -0.4944    3.2081    0.7846 H   0  0  0  0  0  0  0  0  0  0  0  0
   -0.4719    3.3280   -0.8904 H   0  0  0  0  0  0  0  0  0  0  0  0
   -0.0011    1.3975   -0.0007 C   0  0  0  0  0  0  0  0  0  0  0  0
   -1.1981    0.6950    0.0005 C   0  0  0  0  0  0  0  0  0  0  0  0
   -2.0633    1.1881    0.0002 H   0  0  0  0  0  0  0  0  0  0  0  0
   -1.2046   -0.6924   -0.0000 C   0  0  0  0  0  0  0  0  0  0  0  0
   -2.0787   -1.1888    0.0021 H   0  0  0  0  0  0  0  0  0  0  0  0
    0.0010   -1.3910   -0.0008 C   0  0  0  0  0  0  0  0  0  0  0  0
   -0.0057   -2.3897   -0.0024 H   0  0  0  0  0  0  0  0  0  0  0  0
    1.2046   -0.6971    0.0000 C   0  0  0  0  0  0  0  0  0  0  0  0
    2.0834   -1.1979    0.0012 H   0  0  0  0  0  0  0  0  0  0  0  0
    1.1983    0.6880    0.0011 C   0  0  0  0  0  0  0  0  0  0  0  0
    2.0650    1.1892    0.0024 H   0  0  0  0  0  0  0  0  0  0  0  0
  1  5  1  0
  5  6  1  0
  5  7  2  0
  1  2  1  0
  1  3  1  0
  1  4  1  0
  8 12  1  0
 12 13  2  0
 13 15  1  0
 15 17  2  0
 17 19  1  0
 19 21  2  0
 21 12  1  0
  8  9  1  0
  8 10  1  0
  8 11  1  0
 13 14  1  0
 15 16  1  0
 17 18  1  0
 19 20  1  0
 21 22  1  0
M  CHG  1   6  -1
M  END
>  <PDB_ID>  (580) 
pdb2ohy

>  <RESIDUE_NAME>  (580) 
GLU   PHE

>  <FRAG_NAME>  (580) 
ACET   MBZ

>  <FRAG_ATOM_NUM>  (580) 
fragi: 7  fragj: 15

>  <atom.prop.CHAIN_ID>  (580) 
A A A A A A A Z Z Z Z Z Z Z Z Z Z Z Z Z Z Z

>  <atom.prop.IS_HEAVY_ATOM>  (580) 
1 0 0 0 1 1 1 1 0 0 0 1 1 0 1 0 1 0 1 0 1 0

>  <DIFUSE_FUNC_ATOM>  (580) 
atom 6   atom 7   

>  <FINAL_SINGLE_POINT_ENERGY>  (580) 
0

>  <NONCOV_INTER_ENERGY_QM>  (580) 
0

>  <FF_Energy>  (580) 
6.19

>  <QM_Energy>  (580) 
-1.43

>  <source>  (580) 
ACET_MBZ_00

>  <Index>  (580) 
21064

$$$$
ACET-pdb1js4-A-ASP-575:MBZ-pdb1js4-A-PHE-503
     RDKit          3D

 22 21  0  0  0  0  0  0  0  0999 V2000
   -1.1265    6.6586   -0.7787 C   0  0  0  0  0  0  0  0  0  0  0  0
   -1.1571    7.3406   -1.5007 H   0  0  0  0  0  0  0  0  0  0  0  0
   -0.1885    6.3835   -0.6010 H   0  0  0  0  0  0  0  0  0  0  0  0
   -1.5198    7.1153    0.1295 H   0  0  0  0  0  0  0  0  0  0  0  0
   -1.9179    5.4370   -1.2269 C   0  0  0  0  0  0  0  0  0  0  0  0
   -2.8326    4.9926   -0.4948 O   0  0  0  0  0  1  0  0  0  0  0  0
   -1.6036    4.9090   -2.3211 O   0  0  0  0  0  0  0  0  0  0  0  0
    0.0048    2.9057   -0.0366 C   0  0  0  0  0  0  0  0  0  0  0  0
   -0.8040    3.2039   -0.5266 H   0  0  0  0  0  0  0  0  0  0  0  0
    0.8291    3.2009   -0.5011 H   0  0  0  0  0  0  0  0  0  0  0  0
   -0.0094    3.3808    0.9444 H   0  0  0  0  0  0  0  0  0  0  0  0
    0.0016    1.4056    0.0003 C   0  0  0  0  0  0  0  0  0  0  0  0
   -1.2040    0.6944   -0.0002 C   0  0  0  0  0  0  0  0  0  0  0  0
   -2.0662    1.1872   -0.0018 H   0  0  0  0  0  0  0  0  0  0  0  0
   -1.2084   -0.6970   -0.0000 C   0  0  0  0  0  0  0  0  0  0  0  0
   -2.0813   -1.1933    0.0019 H   0  0  0  0  0  0  0  0  0  0  0  0
    0.0011   -1.3995   -0.0009 C   0  0  0  0  0  0  0  0  0  0  0  0
   -0.0053   -2.3950   -0.0028 H   0  0  0  0  0  0  0  0  0  0  0  0
    1.2084   -0.7004   -0.0000 C   0  0  0  0  0  0  0  0  0  0  0  0
    2.0871   -1.1959    0.0021 H   0  0  0  0  0  0  0  0  0  0  0  0
    1.2013    0.6968    0.0008 C   0  0  0  0  0  0  0  0  0  0  0  0
    2.0684    1.1921    0.0004 H   0  0  0  0  0  0  0  0  0  0  0  0
  1  5  1  0
  5  6  1  0
  5  7  2  0
  1  2  1  0
  1  3  1  0
  1  4  1  0
  8 12  1  0
 12 13  2  0
 13 15  1  0
 15 17  2  0
 17 19  1  0
 19 21  2  0
 21 12  1  0
  8  9  1  0
  8 10  1  0
  8 11  1  0
 13 14  1  0
 15 16  1  0
 17 18  1  0
 19 20  1  0
 21 22  1  0
M  CHG  1   6  -1
M  END
>  <PDB_ID>  (581) 
pdb1js4

>  <RESIDUE_NAME>  (581) 
ASP   PHE

>  <FRAG_NAME>  (581) 
ACET   MBZ

>  <FRAG_ATOM_NUM>  (581) 
fragi: 7  fragj: 15

>  <atom.prop.CHAIN_ID>  (581) 
A A A A A A A Z Z Z Z Z Z Z Z Z Z Z Z Z Z Z

>  <atom.prop.IS_HEAVY_ATOM>  (581) 
1 0 0 0 1 1 1 1 0 0 0 1 1 0 1 0 1 0 1 0 1 0

>  <DIFUSE_FUNC_ATOM>  (581) 
atom 6   atom 7   

>  <FINAL_SINGLE_POINT_ENERGY>  (581) 
0

>  <NONCOV_INTER_ENERGY_QM>  (581) 
0

>  <FF_Energy>  (581) 
-0.93

>  <QM_Energy>  (581) 
-6.16

>  <source>  (581) 
ACET_MBZ_00

>  <Index>  (581) 
21135

$$$$
ACET-pdb1jsg-A-ASP-113:MBZ-pdb1jsg-A-PHE-91
     RDKit          3D

 22 21  0  0  0  0  0  0  0  0999 V2000
    3.1888    3.9870    4.2919 C   0  0  0  0  0  0  0  0  0  0  0  0
    3.3823    3.2157    4.8894 H   0  0  0  0  0  0  0  0  0  0  0  0
    2.7800    4.7310    4.8082 H   0  0  0  0  0  0  0  0  0  0  0  0
    4.1359    4.3412    3.8849 H   0  0  0  0  0  0  0  0  0  0  0  0
    2.2101    3.5401    3.2192 C   0  0  0  0  0  0  0  0  0  0  0  0
    2.2972    4.0428    2.0810 O   0  0  0  0  0  1  0  0  0  0  0  0
    1.3503    2.6835    3.5176 O   0  0  0  0  0  0  0  0  0  0  0  0
   -0.0026    2.9053   -0.0877 C   0  0  0  0  0  0  0  0  0  0  0  0
    0.8202    3.2374    0.3417 H   0  0  0  0  0  0  0  0  0  0  0  0
   -0.8122    3.2368    0.3671 H   0  0  0  0  0  0  0  0  0  0  0  0
   -0.0184    3.2774   -1.1121 H   0  0  0  0  0  0  0  0  0  0  0  0
   -0.0011    1.4033   -0.0012 C   0  0  0  0  0  0  0  0  0  0  0  0
   -1.1990    0.6922    0.0021 C   0  0  0  0  0  0  0  0  0  0  0  0
   -2.0656    1.1822    0.0051 H   0  0  0  0  0  0  0  0  0  0  0  0
   -1.2041   -0.7000   -0.0000 C   0  0  0  0  0  0  0  0  0  0  0  0
   -2.0782   -1.1950    0.0023 H   0  0  0  0  0  0  0  0  0  0  0  0
    0.0033   -1.3974   -0.0032 C   0  0  0  0  0  0  0  0  0  0  0  0
    0.0003   -2.3940   -0.0081 H   0  0  0  0  0  0  0  0  0  0  0  0
    1.2041   -0.6955   -0.0000 C   0  0  0  0  0  0  0  0  0  0  0  0
    2.0867   -1.1909    0.0017 H   0  0  0  0  0  0  0  0  0  0  0  0
    1.1968    0.6974    0.0023 C   0  0  0  0  0  0  0  0  0  0  0  0
    2.0639    1.1947    0.0055 H   0  0  0  0  0  0  0  0  0  0  0  0
  1  5  1  0
  5  6  1  0
  5  7  2  0
  1  2  1  0
  1  3  1  0
  1  4  1  0
  8 12  1  0
 12 13  2  0
 13 15  1  0
 15 17  2  0
 17 19  1  0
 19 21  2  0
 21 12  1  0
  8  9  1  0
  8 10  1  0
  8 11  1  0
 13 14  1  0
 15 16  1  0
 17 18  1  0
 19 20  1  0
 21 22  1  0
M  CHG  1   6  -1
M  END
>  <PDB_ID>  (582) 
pdb1jsg

>  <RESIDUE_NAME>  (582) 
ASP   PHE

>  <FRAG_NAME>  (582) 
ACET   MBZ

>  <FRAG_ATOM_NUM>  (582) 
fragi: 7  fragj: 15

>  <atom.prop.CHAIN_ID>  (582) 
A A A A A A A Z Z Z Z Z Z Z Z Z Z Z Z Z Z Z

>  <atom.prop.IS_HEAVY_ATOM>  (582) 
1 0 0 0 1 1 1 1 0 0 0 1 1 0 1 0 1 0 1 0 1 0

>  <DIFUSE_FUNC_ATOM>  (582) 
atom 6   atom 7   

>  <FINAL_SINGLE_POINT_ENERGY>  (582) 
0

>  <NONCOV_INTER_ENERGY_QM>  (582) 
0

>  <FF_Energy>  (582) 
0.36

>  <QM_Energy>  (582) 
-5.63

>  <source>  (582) 
ACET_MBZ_00

>  <Index>  (582) 
21155

$$$$
ACET-pdb2okj-A-ASP-174:MBZ-pdb2okj-A-PHE-154
     RDKit          3D

 22 21  0  0  0  0  0  0  0  0999 V2000
   -0.4495    0.8007   -3.6367 C   0  0  0  0  0  0  0  0  0  0  0  0
   -1.2444    0.4415   -3.1628 H   0  0  0  0  0  0  0  0  0  0  0  0
    0.3583    0.7366   -3.0639 H   0  0  0  0  0  0  0  0  0  0  0  0
   -0.2826    0.1926   -4.5258 H   0  0  0  0  0  0  0  0  0  0  0  0
   -0.7019    2.2731   -3.9599 C   0  0  0  0  0  0  0  0  0  0  0  0
   -1.1926    2.9988   -3.0691 O   0  0  0  0  0  1  0  0  0  0  0  0
   -0.4087    2.7131   -5.0920 O   0  0  0  0  0  0  0  0  0  0  0  0
    0.0127    2.9135   -0.0085 C   0  0  0  0  0  0  0  0  0  0  0  0
   -0.2480    3.2122   -0.9152 H   0  0  0  0  0  0  0  0  0  0  0  0
    0.9278    3.2149    0.2177 H   0  0  0  0  0  0  0  0  0  0  0  0
   -0.6725    3.3754    0.7024 H   0  0  0  0  0  0  0  0  0  0  0  0
    0.0019    1.4051    0.0062 C   0  0  0  0  0  0  0  0  0  0  0  0
   -1.2000    0.6961   -0.0063 C   0  0  0  0  0  0  0  0  0  0  0  0
   -2.0641    1.1873   -0.0208 H   0  0  0  0  0  0  0  0  0  0  0  0
   -1.2065   -0.6977    0.0000 C   0  0  0  0  0  0  0  0  0  0  0  0
   -2.0825   -1.1894    0.0059 H   0  0  0  0  0  0  0  0  0  0  0  0
   -0.0034   -1.3973   -0.0002 C   0  0  0  0  0  0  0  0  0  0  0  0
   -0.0071   -2.3946   -0.0010 H   0  0  0  0  0  0  0  0  0  0  0  0
    1.2065   -0.6999   -0.0000 C   0  0  0  0  0  0  0  0  0  0  0  0
    2.0828   -1.1993    0.0015 H   0  0  0  0  0  0  0  0  0  0  0  0
    1.2015    0.6937    0.0002 C   0  0  0  0  0  0  0  0  0  0  0  0
    2.0685    1.1904   -0.0051 H   0  0  0  0  0  0  0  0  0  0  0  0
  1  5  1  0
  5  6  1  0
  5  7  2  0
  1  2  1  0
  1  3  1  0
  1  4  1  0
  8 12  1  0
 12 13  2  0
 13 15  1  0
 15 17  2  0
 17 19  1  0
 19 21  2  0
 21 12  1  0
  8  9  1  0
  8 10  1  0
  8 11  1  0
 13 14  1  0
 15 16  1  0
 17 18  1  0
 19 20  1  0
 21 22  1  0
M  CHG  1   6  -1
M  END
>  <PDB_ID>  (583) 
pdb2okj

>  <RESIDUE_NAME>  (583) 
ASP   PHE

>  <FRAG_NAME>  (583) 
ACET   MBZ

>  <FRAG_ATOM_NUM>  (583) 
fragi: 7  fragj: 15

>  <atom.prop.CHAIN_ID>  (583) 
A A A A A A A Z Z Z Z Z Z Z Z Z Z Z Z Z Z Z

>  <atom.prop.IS_HEAVY_ATOM>  (583) 
1 0 0 0 1 1 1 1 0 0 0 1 1 0 1 0 1 0 1 0 1 0

>  <DIFUSE_FUNC_ATOM>  (583) 
atom 6   atom 7   

>  <FINAL_SINGLE_POINT_ENERGY>  (583) 
0

>  <NONCOV_INTER_ENERGY_QM>  (583) 
0

>  <FF_Energy>  (583) 
-0.28

>  <QM_Energy>  (583) 
-5.73

>  <source>  (583) 
ACET_MBZ_00

>  <Index>  (583) 
21196

$$$$
ACET-pdb1jwu-D-ASP-48:MBZ-pdb1jwu-D-PHE-44
     RDKit          3D

 22 21  0  0  0  0  0  0  0  0999 V2000
   -3.4995    6.9786    0.5854 C   0  0  0  0  0  0  0  0  0  0  0  0
   -3.2913    7.3145    1.4973 H   0  0  0  0  0  0  0  0  0  0  0  0
   -4.3661    6.4948    0.5821 H   0  0  0  0  0  0  0  0  0  0  0  0
   -3.5928    7.8398   -0.0760 H   0  0  0  0  0  0  0  0  0  0  0  0
   -2.3971    6.0071    0.1610 C   0  0  0  0  0  0  0  0  0  0  0  0
   -1.2174    6.4165    0.0927 O   0  0  0  0  0  1  0  0  0  0  0  0
   -2.7078    4.8246   -0.0940 O   0  0  0  0  0  0  0  0  0  0  0  0
    0.0004    2.9062   -0.0570 C   0  0  0  0  0  0  0  0  0  0  0  0
    0.5894    3.2411    0.6616 H   0  0  0  0  0  0  0  0  0  0  0  0
   -0.9280    3.2209    0.0592 H   0  0  0  0  0  0  0  0  0  0  0  0
    0.3695    3.3075   -1.0008 H   0  0  0  0  0  0  0  0  0  0  0  0
   -0.0019    1.4052   -0.0009 C   0  0  0  0  0  0  0  0  0  0  0  0
   -1.1984    0.6946    0.0017 C   0  0  0  0  0  0  0  0  0  0  0  0
   -2.0658    1.1850    0.0031 H   0  0  0  0  0  0  0  0  0  0  0  0
   -1.2029   -0.6962   -0.0000 C   0  0  0  0  0  0  0  0  0  0  0  0
   -2.0776   -1.1916    0.0023 H   0  0  0  0  0  0  0  0  0  0  0  0
    0.0027   -1.3973   -0.0033 C   0  0  0  0  0  0  0  0  0  0  0  0
   -0.0059   -2.3950   -0.0086 H   0  0  0  0  0  0  0  0  0  0  0  0
    1.2029   -0.7037    0.0000 C   0  0  0  0  0  0  0  0  0  0  0  0
    2.0854   -1.1958    0.0025 H   0  0  0  0  0  0  0  0  0  0  0  0
    1.1976    0.6974    0.0025 C   0  0  0  0  0  0  0  0  0  0  0  0
    2.0648    1.1899    0.0057 H   0  0  0  0  0  0  0  0  0  0  0  0
  1  5  1  0
  5  6  1  0
  5  7  2  0
  1  2  1  0
  1  3  1  0
  1  4  1  0
  8 12  1  0
 12 13  2  0
 13 15  1  0
 15 17  2  0
 17 19  1  0
 19 21  2  0
 21 12  1  0
  8  9  1  0
  8 10  1  0
  8 11  1  0
 13 14  1  0
 15 16  1  0
 17 18  1  0
 19 20  1  0
 21 22  1  0
M  CHG  1   6  -1
M  END
>  <PDB_ID>  (584) 
pdb1jwu

>  <RESIDUE_NAME>  (584) 
ASP   PHE

>  <FRAG_NAME>  (584) 
ACET   MBZ

>  <FRAG_ATOM_NUM>  (584) 
fragi: 7  fragj: 15

>  <atom.prop.CHAIN_ID>  (584) 
A A A A A A A Z Z Z Z Z Z Z Z Z Z Z Z Z Z Z

>  <atom.prop.IS_HEAVY_ATOM>  (584) 
1 0 0 0 1 1 1 1 0 0 0 1 1 0 1 0 1 0 1 0 1 0

>  <DIFUSE_FUNC_ATOM>  (584) 
atom 6   atom 7   

>  <FINAL_SINGLE_POINT_ENERGY>  (584) 
0

>  <NONCOV_INTER_ENERGY_QM>  (584) 
0

>  <FF_Energy>  (584) 
-1.53

>  <QM_Energy>  (584) 
-6.68

>  <source>  (584) 
ACET_MBZ_00

>  <Index>  (584) 
21413

$$$$
ACET-pdb1jwy-A-GLU-608:MBZ-pdb1jwy-A-PHE-623
     RDKit          3D

 22 21  0  0  0  0  0  0  0  0999 V2000
    5.9788    0.7265   -0.3415 C   0  0  0  0  0  0  0  0  0  0  0  0
    5.9203   -0.2054   -0.6504 H   0  0  0  0  0  0  0  0  0  0  0  0
    6.9090    1.0118   -0.1959 H   0  0  0  0  0  0  0  0  0  0  0  0
    5.5402    1.3670   -1.1067 H   0  0  0  0  0  0  0  0  0  0  0  0
    5.2585    0.8163    0.9889 C   0  0  0  0  0  0  0  0  0  0  0  0
    4.0155    0.9154    0.9816 O   0  0  0  0  0  1  0  0  0  0  0  0
    5.9322    0.7794    2.0439 O   0  0  0  0  0  0  0  0  0  0  0  0
   -0.0032    2.8932    0.1318 C   0  0  0  0  0  0  0  0  0  0  0  0
   -0.7366    3.2535   -0.4195 H   0  0  0  0  0  0  0  0  0  0  0  0
    0.8753    3.2323   -0.1595 H   0  0  0  0  0  0  0  0  0  0  0  0
   -0.1638    3.2270    1.1569 H   0  0  0  0  0  0  0  0  0  0  0  0
   -0.0014    1.4056   -0.0018 C   0  0  0  0  0  0  0  0  0  0  0  0
   -1.2065    0.6976   -0.0019 C   0  0  0  0  0  0  0  0  0  0  0  0
   -2.0683    1.1939   -0.0047 H   0  0  0  0  0  0  0  0  0  0  0  0
   -1.2129   -0.6880    0.0000 C   0  0  0  0  0  0  0  0  0  0  0  0
   -2.0831   -1.1896   -0.0019 H   0  0  0  0  0  0  0  0  0  0  0  0
    0.0038   -1.3992    0.0064 C   0  0  0  0  0  0  0  0  0  0  0  0
   -0.0137   -2.3949    0.0153 H   0  0  0  0  0  0  0  0  0  0  0  0
    1.2129   -0.7095   -0.0000 C   0  0  0  0  0  0  0  0  0  0  0  0
    2.0890   -1.2018   -0.0011 H   0  0  0  0  0  0  0  0  0  0  0  0
    1.2041    0.6934   -0.0027 C   0  0  0  0  0  0  0  0  0  0  0  0
    2.0693    1.1895   -0.0061 H   0  0  0  0  0  0  0  0  0  0  0  0
  1  5  1  0
  5  6  1  0
  5  7  2  0
  1  2  1  0
  1  3  1  0
  1  4  1  0
  8 12  1  0
 12 13  2  0
 13 15  1  0
 15 17  2  0
 17 19  1  0
 19 21  2  0
 21 12  1  0
  8  9  1  0
  8 10  1  0
  8 11  1  0
 13 14  1  0
 15 16  1  0
 17 18  1  0
 19 20  1  0
 21 22  1  0
M  CHG  1   6  -1
M  END
>  <PDB_ID>  (585) 
pdb1jwy

>  <RESIDUE_NAME>  (585) 
GLU   PHE

>  <FRAG_NAME>  (585) 
ACET   MBZ

>  <FRAG_ATOM_NUM>  (585) 
fragi: 7  fragj: 15

>  <atom.prop.CHAIN_ID>  (585) 
A A A A A A A Z Z Z Z Z Z Z Z Z Z Z Z Z Z Z

>  <atom.prop.IS_HEAVY_ATOM>  (585) 
1 0 0 0 1 1 1 1 0 0 0 1 1 0 1 0 1 0 1 0 1 0

>  <DIFUSE_FUNC_ATOM>  (585) 
atom 6   atom 7   

>  <FINAL_SINGLE_POINT_ENERGY>  (585) 
0

>  <NONCOV_INTER_ENERGY_QM>  (585) 
0

>  <FF_Energy>  (585) 
0.18

>  <QM_Energy>  (585) 
-6.04

>  <source>  (585) 
ACET_MBZ_00

>  <Index>  (585) 
21428

$$$$
ACET-pdb2okc-B-ASP-176:MBZ-pdb2okc-B-PHE-184
     RDKit          3D

 22 21  0  0  0  0  0  0  0  0999 V2000
    3.0726    4.2862    3.0746 C   0  0  0  0  0  0  0  0  0  0  0  0
    2.1083    4.2936    2.8352 H   0  0  0  0  0  0  0  0  0  0  0  0
    3.5444    5.0477    2.6461 H   0  0  0  0  0  0  0  0  0  0  0  0
    3.1495    4.4097    4.1548 H   0  0  0  0  0  0  0  0  0  0  0  0
    3.6897    2.9857    2.5788 C   0  0  0  0  0  0  0  0  0  0  0  0
    4.5451    2.4249    3.2838 O   0  0  0  0  0  1  0  0  0  0  0  0
    3.3246    2.5458    1.4647 O   0  0  0  0  0  0  0  0  0  0  0  0
   -0.0100    2.8820   -0.0130 C   0  0  0  0  0  0  0  0  0  0  0  0
    0.8961    3.2035    0.2065 H   0  0  0  0  0  0  0  0  0  0  0  0
   -0.6799    3.2097    0.6328 H   0  0  0  0  0  0  0  0  0  0  0  0
   -0.2729    3.2880   -0.9898 H   0  0  0  0  0  0  0  0  0  0  0  0
   -0.0050    1.3876    0.0256 C   0  0  0  0  0  0  0  0  0  0  0  0
   -1.1801    0.6938    0.0006 C   0  0  0  0  0  0  0  0  0  0  0  0
   -2.0542    1.1855   -0.0189 H   0  0  0  0  0  0  0  0  0  0  0  0
   -1.1868   -0.6787   -0.0000 C   0  0  0  0  0  0  0  0  0  0  0  0
   -2.0690   -1.1751    0.0194 H   0  0  0  0  0  0  0  0  0  0  0  0
    0.0002   -1.3765   -0.0250 C   0  0  0  0  0  0  0  0  0  0  0  0
   -0.0188   -2.3819   -0.0625 H   0  0  0  0  0  0  0  0  0  0  0  0
    1.1868   -0.7064    0.0000 C   0  0  0  0  0  0  0  0  0  0  0  0
    2.0704   -1.2021    0.0214 H   0  0  0  0  0  0  0  0  0  0  0  0
    1.1849    0.6802   -0.0012 C   0  0  0  0  0  0  0  0  0  0  0  0
    2.0560    1.1752   -0.0224 H   0  0  0  0  0  0  0  0  0  0  0  0
  1  5  1  0
  5  6  1  0
  5  7  2  0
  1  2  1  0
  1  3  1  0
  1  4  1  0
  8 12  1  0
 12 13  2  0
 13 15  1  0
 15 17  2  0
 17 19  1  0
 19 21  2  0
 21 12  1  0
  8  9  1  0
  8 10  1  0
  8 11  1  0
 13 14  1  0
 15 16  1  0
 17 18  1  0
 19 20  1  0
 21 22  1  0
M  CHG  1   6  -1
M  END
>  <PDB_ID>  (586) 
pdb2okc

>  <RESIDUE_NAME>  (586) 
ASP   PHE

>  <FRAG_NAME>  (586) 
ACET   MBZ

>  <FRAG_ATOM_NUM>  (586) 
fragi: 7  fragj: 15

>  <atom.prop.CHAIN_ID>  (586) 
A A A A A A A Z Z Z Z Z Z Z Z Z Z Z Z Z Z Z

>  <atom.prop.IS_HEAVY_ATOM>  (586) 
1 0 0 0 1 1 1 1 0 0 0 1 1 0 1 0 1 0 1 0 1 0

>  <DIFUSE_FUNC_ATOM>  (586) 
atom 6   atom 7   

>  <FINAL_SINGLE_POINT_ENERGY>  (586) 
0

>  <NONCOV_INTER_ENERGY_QM>  (586) 
0

>  <FF_Energy>  (586) 
-1.32

>  <QM_Energy>  (586) 
-6.63

>  <source>  (586) 
ACET_MBZ_00

>  <Index>  (586) 
21497

$$$$
ACET-pdb1jzt-B-ASP-173:MBZ-pdb1jzt-B-PHE-143
     RDKit          3D

 22 21  0  0  0  0  0  0  0  0999 V2000
    5.5437    4.0276   -0.0896 C   0  0  0  0  0  0  0  0  0  0  0  0
    6.2417    3.3655    0.1463 H   0  0  0  0  0  0  0  0  0  0  0  0
    5.0698    4.3470    0.7183 H   0  0  0  0  0  0  0  0  0  0  0  0
    6.0291    4.8820   -0.5614 H   0  0  0  0  0  0  0  0  0  0  0  0
    4.5304    3.3568   -1.0139 C   0  0  0  0  0  0  0  0  0  0  0  0
    4.7731    3.3293   -2.2386 O   0  0  0  0  0  1  0  0  0  0  0  0
    3.5114    2.8484   -0.5130 O   0  0  0  0  0  0  0  0  0  0  0  0
    0.0071    2.9082    0.0349 C   0  0  0  0  0  0  0  0  0  0  0  0
   -0.7528    3.2320   -0.5077 H   0  0  0  0  0  0  0  0  0  0  0  0
    0.8712    3.2201   -0.3294 H   0  0  0  0  0  0  0  0  0  0  0  0
   -0.1000    3.3263    1.0358 H   0  0  0  0  0  0  0  0  0  0  0  0
    0.0005    1.4047   -0.0003 C   0  0  0  0  0  0  0  0  0  0  0  0
   -1.1992    0.6939   -0.0000 C   0  0  0  0  0  0  0  0  0  0  0  0
   -2.0652    1.1828   -0.0008 H   0  0  0  0  0  0  0  0  0  0  0  0
   -1.2029   -0.7014    0.0000 C   0  0  0  0  0  0  0  0  0  0  0  0
   -2.0770   -1.1958    0.0010 H   0  0  0  0  0  0  0  0  0  0  0  0
    0.0037   -1.3970    0.0011 C   0  0  0  0  0  0  0  0  0  0  0  0
    0.0008   -2.3946    0.0022 H   0  0  0  0  0  0  0  0  0  0  0  0
    1.2029   -0.6964   -0.0000 C   0  0  0  0  0  0  0  0  0  0  0  0
    2.0860   -1.1909    0.0011 H   0  0  0  0  0  0  0  0  0  0  0  0
    1.1949    0.6962   -0.0008 C   0  0  0  0  0  0  0  0  0  0  0  0
    2.0648    1.1921   -0.0026 H   0  0  0  0  0  0  0  0  0  0  0  0
  1  5  1  0
  5  6  1  0
  5  7  2  0
  1  2  1  0
  1  3  1  0
  1  4  1  0
  8 12  1  0
 12 13  2  0
 13 15  1  0
 15 17  2  0
 17 19  1  0
 19 21  2  0
 21 12  1  0
  8  9  1  0
  8 10  1  0
  8 11  1  0
 13 14  1  0
 15 16  1  0
 17 18  1  0
 19 20  1  0
 21 22  1  0
M  CHG  1   6  -1
M  END
>  <PDB_ID>  (587) 
pdb1jzt

>  <RESIDUE_NAME>  (587) 
ASP   PHE

>  <FRAG_NAME>  (587) 
ACET   MBZ

>  <FRAG_ATOM_NUM>  (587) 
fragi: 7  fragj: 15

>  <atom.prop.CHAIN_ID>  (587) 
A A A A A A A Z Z Z Z Z Z Z Z Z Z Z Z Z Z Z

>  <atom.prop.IS_HEAVY_ATOM>  (587) 
1 0 0 0 1 1 1 1 0 0 0 1 1 0 1 0 1 0 1 0 1 0

>  <DIFUSE_FUNC_ATOM>  (587) 
atom 6   atom 7   

>  <FINAL_SINGLE_POINT_ENERGY>  (587) 
0

>  <NONCOV_INTER_ENERGY_QM>  (587) 
0

>  <FF_Energy>  (587) 
-1.05

>  <QM_Energy>  (587) 
-7.95

>  <source>  (587) 
ACET_MBZ_00

>  <Index>  (587) 
21559

$$$$
ACET-pdb1k0f-A-ASP-54:MBZ-pdb1k0f-A-PHE-163
     RDKit          3D

 22 21  0  0  0  0  0  0  0  0999 V2000
   -1.9371   -4.0199   -0.8917 C   0  0  0  0  0  0  0  0  0  0  0  0
   -1.7376   -3.5132   -0.0567 H   0  0  0  0  0  0  0  0  0  0  0  0
   -1.1302   -4.0463   -1.4747 H   0  0  0  0  0  0  0  0  0  0  0  0
   -2.1876   -5.0436   -0.6138 H   0  0  0  0  0  0  0  0  0  0  0  0
   -3.0464   -3.3458   -1.6203 C   0  0  0  0  0  0  0  0  0  0  0  0
   -3.6137   -3.9683   -2.5399 O   0  0  0  0  0  1  0  0  0  0  0  0
   -3.3518   -2.1952   -1.2659 O   0  0  0  0  0  0  0  0  0  0  0  0
    0.0085    2.8941   -0.0057 C   0  0  0  0  0  0  0  0  0  0  0  0
    0.5000    3.1943   -0.8102 H   0  0  0  0  0  0  0  0  0  0  0  0
    0.4565    3.2004    0.8218 H   0  0  0  0  0  0  0  0  0  0  0  0
   -0.9861    3.3392   -0.0337 H   0  0  0  0  0  0  0  0  0  0  0  0
   -0.0009    1.3957   -0.0000 C   0  0  0  0  0  0  0  0  0  0  0  0
   -1.1972    0.6923    0.0001 C   0  0  0  0  0  0  0  0  0  0  0  0
   -2.0627    1.1858   -0.0010 H   0  0  0  0  0  0  0  0  0  0  0  0
   -1.2040   -0.6923   -0.0000 C   0  0  0  0  0  0  0  0  0  0  0  0
   -2.0773   -1.1903    0.0021 H   0  0  0  0  0  0  0  0  0  0  0  0
    0.0025   -1.3894   -0.0007 C   0  0  0  0  0  0  0  0  0  0  0  0
   -0.0028   -2.3878   -0.0027 H   0  0  0  0  0  0  0  0  0  0  0  0
    1.2040   -0.6934    0.0000 C   0  0  0  0  0  0  0  0  0  0  0  0
    2.0840   -1.1943    0.0020 H   0  0  0  0  0  0  0  0  0  0  0  0
    1.1956    0.6870    0.0006 C   0  0  0  0  0  0  0  0  0  0  0  0
    2.0631    1.1899    0.0008 H   0  0  0  0  0  0  0  0  0  0  0  0
  1  5  1  0
  5  6  1  0
  5  7  2  0
  1  2  1  0
  1  3  1  0
  1  4  1  0
  8 12  1  0
 12 13  2  0
 13 15  1  0
 15 17  2  0
 17 19  1  0
 19 21  2  0
 21 12  1  0
  8  9  1  0
  8 10  1  0
  8 11  1  0
 13 14  1  0
 15 16  1  0
 17 18  1  0
 19 20  1  0
 21 22  1  0
M  CHG  1   6  -1
M  END
>  <PDB_ID>  (588) 
pdb1k0f

>  <RESIDUE_NAME>  (588) 
ASP   PHE

>  <FRAG_NAME>  (588) 
ACET   MBZ

>  <FRAG_ATOM_NUM>  (588) 
fragi: 7  fragj: 15

>  <atom.prop.CHAIN_ID>  (588) 
A A A A A A A Z Z Z Z Z Z Z Z Z Z Z Z Z Z Z

>  <atom.prop.IS_HEAVY_ATOM>  (588) 
1 0 0 0 1 1 1 1 0 0 0 1 1 0 1 0 1 0 1 0 1 0

>  <DIFUSE_FUNC_ATOM>  (588) 
atom 6   atom 7   

>  <FINAL_SINGLE_POINT_ENERGY>  (588) 
0

>  <NONCOV_INTER_ENERGY_QM>  (588) 
0

>  <FF_Energy>  (588) 
4.74

>  <QM_Energy>  (588) 
-3.6

>  <source>  (588) 
ACET_MBZ_00

>  <Index>  (588) 
21581

$$$$
ACET-pdb1k1x-A-GLU-628:MBZ-pdb1k1x-A-PHE-361
     RDKit          3D

 22 21  0  0  0  0  0  0  0  0999 V2000
    4.9643   -0.3573    1.3807 C   0  0  0  0  0  0  0  0  0  0  0  0
    5.8779   -0.5813    1.6689 H   0  0  0  0  0  0  0  0  0  0  0  0
    4.6904   -0.8711    0.5879 H   0  0  0  0  0  0  0  0  0  0  0  0
    4.2824   -0.5999    2.1958 H   0  0  0  0  0  0  0  0  0  0  0  0
    4.9512    1.1162    0.9999 C   0  0  0  0  0  0  0  0  0  0  0  0
    3.8554    1.7099    0.9368 O   0  0  0  0  0  1  0  0  0  0  0  0
    6.0391    1.6799    0.7482 O   0  0  0  0  0  0  0  0  0  0  0  0
    0.0045    2.9121    0.0572 C   0  0  0  0  0  0  0  0  0  0  0  0
   -0.8918    3.2305   -0.2044 H   0  0  0  0  0  0  0  0  0  0  0  0
    0.7019    3.2394   -0.5603 H   0  0  0  0  0  0  0  0  0  0  0  0
    0.2234    3.3110    1.0477 H   0  0  0  0  0  0  0  0  0  0  0  0
    0.0001    1.4073    0.0006 C   0  0  0  0  0  0  0  0  0  0  0  0
   -1.1958    0.6977   -0.0004 C   0  0  0  0  0  0  0  0  0  0  0  0
   -2.0639    1.1827   -0.0032 H   0  0  0  0  0  0  0  0  0  0  0  0
   -1.2006   -0.7034   -0.0000 C   0  0  0  0  0  0  0  0  0  0  0  0
   -2.0785   -1.1919    0.0003 H   0  0  0  0  0  0  0  0  0  0  0  0
    0.0009   -1.3995    0.0019 C   0  0  0  0  0  0  0  0  0  0  0  0
   -0.0009   -2.3966    0.0038 H   0  0  0  0  0  0  0  0  0  0  0  0
    1.2006   -0.6981   -0.0000 C   0  0  0  0  0  0  0  0  0  0  0  0
    2.0837   -1.1933    0.0019 H   0  0  0  0  0  0  0  0  0  0  0  0
    1.1948    0.6961   -0.0021 C   0  0  0  0  0  0  0  0  0  0  0  0
    2.0647    1.1905   -0.0063 H   0  0  0  0  0  0  0  0  0  0  0  0
  1  5  1  0
  5  6  1  0
  5  7  2  0
  1  2  1  0
  1  3  1  0
  1  4  1  0
  8 12  1  0
 12 13  2  0
 13 15  1  0
 15 17  2  0
 17 19  1  0
 19 21  2  0
 21 12  1  0
  8  9  1  0
  8 10  1  0
  8 11  1  0
 13 14  1  0
 15 16  1  0
 17 18  1  0
 19 20  1  0
 21 22  1  0
M  CHG  1   6  -1
M  END
>  <PDB_ID>  (589) 
pdb1k1x

>  <RESIDUE_NAME>  (589) 
GLU   PHE

>  <FRAG_NAME>  (589) 
ACET   MBZ

>  <FRAG_ATOM_NUM>  (589) 
fragi: 7  fragj: 15

>  <atom.prop.CHAIN_ID>  (589) 
A A A A A A A Z Z Z Z Z Z Z Z Z Z Z Z Z Z Z

>  <atom.prop.IS_HEAVY_ATOM>  (589) 
1 0 0 0 1 1 1 1 0 0 0 1 1 0 1 0 1 0 1 0 1 0

>  <DIFUSE_FUNC_ATOM>  (589) 
atom 6   atom 7   

>  <FINAL_SINGLE_POINT_ENERGY>  (589) 
0

>  <NONCOV_INTER_ENERGY_QM>  (589) 
0

>  <FF_Energy>  (589) 
1.76

>  <QM_Energy>  (589) 
-6.2

>  <source>  (589) 
ACET_MBZ_00

>  <Index>  (589) 
21623

$$$$
ACET-pdb2oqd-B-ASP-99:MBZ-pdb2oqd-B-PHE-5
     RDKit          3D

 22 21  0  0  0  0  0  0  0  0999 V2000
   -3.5932    1.9559   -2.1352 C   0  0  0  0  0  0  0  0  0  0  0  0
   -4.3987    2.4003   -2.5135 H   0  0  0  0  0  0  0  0  0  0  0  0
   -3.5742    2.0612   -1.1459 H   0  0  0  0  0  0  0  0  0  0  0  0
   -3.6832    0.8902   -2.3457 H   0  0  0  0  0  0  0  0  0  0  0  0
   -2.3851    2.5097   -2.7275 C   0  0  0  0  0  0  0  0  0  0  0  0
   -1.5776    1.7415   -3.2006 O   0  0  0  0  0  1  0  0  0  0  0  0
   -2.1788    3.7049   -2.7061 O   0  0  0  0  0  0  0  0  0  0  0  0
   -0.0074    2.9033   -0.0225 C   0  0  0  0  0  0  0  0  0  0  0  0
   -0.1699    3.1976   -0.9494 H   0  0  0  0  0  0  0  0  0  0  0  0
    0.8583    3.2295    0.3190 H   0  0  0  0  0  0  0  0  0  0  0  0
   -0.7918    3.3296    0.6028 H   0  0  0  0  0  0  0  0  0  0  0  0
    0.0183    1.4007   -0.0052 C   0  0  0  0  0  0  0  0  0  0  0  0
   -1.1804    0.6872   -0.0013 C   0  0  0  0  0  0  0  0  0  0  0  0
   -2.0489    1.1895   -0.0004 H   0  0  0  0  0  0  0  0  0  0  0  0
   -1.2098   -0.7025    0.0000 C   0  0  0  0  0  0  0  0  0  0  0  0
   -2.1125   -1.1649   -0.0057 H   0  0  0  0  0  0  0  0  0  0  0  0
   -0.0618   -1.3974    0.0101 C   0  0  0  0  0  0  0  0  0  0  0  0
   -0.0254   -2.3902    0.0238 H   0  0  0  0  0  0  0  0  0  0  0  0
    1.2098   -0.6816    0.0000 C   0  0  0  0  0  0  0  0  0  0  0  0
    2.0556   -1.2208   -0.0028 H   0  0  0  0  0  0  0  0  0  0  0  0
    1.2240    0.6936   -0.0036 C   0  0  0  0  0  0  0  0  0  0  0  0
    2.0839    1.1921   -0.0061 H   0  0  0  0  0  0  0  0  0  0  0  0
  1  5  1  0
  5  6  1  0
  5  7  2  0
  1  2  1  0
  1  3  1  0
  1  4  1  0
  8 12  1  0
 12 13  2  0
 13 15  1  0
 15 17  2  0
 17 19  1  0
 19 21  2  0
 21 12  1  0
  8  9  1  0
  8 10  1  0
  8 11  1  0
 13 14  1  0
 15 16  1  0
 17 18  1  0
 19 20  1  0
 21 22  1  0
M  CHG  1   6  -1
M  END
>  <PDB_ID>  (590) 
pdb2oqd

>  <RESIDUE_NAME>  (590) 
ASP   PHE

>  <FRAG_NAME>  (590) 
ACET   MBZ

>  <FRAG_ATOM_NUM>  (590) 
fragi: 7  fragj: 15

>  <atom.prop.CHAIN_ID>  (590) 
A A A A A A A Z Z Z Z Z Z Z Z Z Z Z Z Z Z Z

>  <atom.prop.IS_HEAVY_ATOM>  (590) 
1 0 0 0 1 1 1 1 0 0 0 1 1 0 1 0 1 0 1 0 1 0

>  <DIFUSE_FUNC_ATOM>  (590) 
atom 6   atom 7   

>  <FINAL_SINGLE_POINT_ENERGY>  (590) 
0

>  <NONCOV_INTER_ENERGY_QM>  (590) 
0

>  <FF_Energy>  (590) 
1.12

>  <QM_Energy>  (590) 
-4.5

>  <source>  (590) 
ACET_MBZ_00

>  <Index>  (590) 
21656

$$$$
ACET-pdb2oqo-A-GLU-140:MBZ-pdb2oqo-A-PHE-127
     RDKit          3D

 22 21  0  0  0  0  0  0  0  0999 V2000
    3.8415   -1.4510    1.8821 C   0  0  0  0  0  0  0  0  0  0  0  0
    3.3765   -0.9887    1.1453 H   0  0  0  0  0  0  0  0  0  0  0  0
    3.2163   -1.7284    2.5927 H   0  0  0  0  0  0  0  0  0  0  0  0
    4.3195   -2.3432    1.4776 H   0  0  0  0  0  0  0  0  0  0  0  0
    4.8188   -0.4637    2.4956 C   0  0  0  0  0  0  0  0  0  0  0  0
    5.8989   -0.8895    2.9546 O   0  0  0  0  0  1  0  0  0  0  0  0
    4.4938    0.7432    2.5339 O   0  0  0  0  0  0  0  0  0  0  0  0
   -0.0034    2.9014   -0.0297 C   0  0  0  0  0  0  0  0  0  0  0  0
    0.9204    3.2148    0.1265 H   0  0  0  0  0  0  0  0  0  0  0  0
   -0.6177    3.2224    0.6749 H   0  0  0  0  0  0  0  0  0  0  0  0
   -0.3400    3.3184   -0.9789 H   0  0  0  0  0  0  0  0  0  0  0  0
   -0.0005    1.4030   -0.0004 C   0  0  0  0  0  0  0  0  0  0  0  0
   -1.1973    0.6938    0.0005 C   0  0  0  0  0  0  0  0  0  0  0  0
   -2.0649    1.1829    0.0002 H   0  0  0  0  0  0  0  0  0  0  0  0
   -1.2030   -0.7000   -0.0000 C   0  0  0  0  0  0  0  0  0  0  0  0
   -2.0779   -1.1923    0.0018 H   0  0  0  0  0  0  0  0  0  0  0  0
    0.0006   -1.3957   -0.0014 C   0  0  0  0  0  0  0  0  0  0  0  0
   -0.0020   -2.3939   -0.0040 H   0  0  0  0  0  0  0  0  0  0  0  0
    1.2030   -0.6970    0.0000 C   0  0  0  0  0  0  0  0  0  0  0  0
    2.0842   -1.1935    0.0015 H   0  0  0  0  0  0  0  0  0  0  0  0
    1.1971    0.6958    0.0013 C   0  0  0  0  0  0  0  0  0  0  0  0
    2.0646    1.1921    0.0031 H   0  0  0  0  0  0  0  0  0  0  0  0
  1  5  1  0
  5  6  1  0
  5  7  2  0
  1  2  1  0
  1  3  1  0
  1  4  1  0
  8 12  1  0
 12 13  2  0
 13 15  1  0
 15 17  2  0
 17 19  1  0
 19 21  2  0
 21 12  1  0
  8  9  1  0
  8 10  1  0
  8 11  1  0
 13 14  1  0
 15 16  1  0
 17 18  1  0
 19 20  1  0
 21 22  1  0
M  CHG  1   6  -1
M  END
>  <PDB_ID>  (591) 
pdb2oqo

>  <RESIDUE_NAME>  (591) 
GLU   PHE

>  <FRAG_NAME>  (591) 
ACET   MBZ

>  <FRAG_ATOM_NUM>  (591) 
fragi: 7  fragj: 15

>  <atom.prop.CHAIN_ID>  (591) 
A A A A A A A Z Z Z Z Z Z Z Z Z Z Z Z Z Z Z

>  <atom.prop.IS_HEAVY_ATOM>  (591) 
1 0 0 0 1 1 1 1 0 0 0 1 1 0 1 0 1 0 1 0 1 0

>  <DIFUSE_FUNC_ATOM>  (591) 
atom 6   atom 7   

>  <FINAL_SINGLE_POINT_ENERGY>  (591) 
0

>  <NONCOV_INTER_ENERGY_QM>  (591) 
0

>  <FF_Energy>  (591) 
5.27

>  <QM_Energy>  (591) 
-0.08

>  <source>  (591) 
ACET_MBZ_00

>  <Index>  (591) 
21665

$$$$
ACET-pdb1k3t-A-GLU-109:MBZ-pdb1k3t-A-PHE-114
     RDKit          3D

 22 21  0  0  0  0  0  0  0  0999 V2000
    3.5400    4.7217    0.5383 C   0  0  0  0  0  0  0  0  0  0  0  0
    2.7270    4.7847    1.0598 H   0  0  0  0  0  0  0  0  0  0  0  0
    3.5321    5.2203   -0.2917 H   0  0  0  0  0  0  0  0  0  0  0  0
    4.3632    5.0918    1.1497 H   0  0  0  0  0  0  0  0  0  0  0  0
    3.7645    3.2498    0.1965 C   0  0  0  0  0  0  0  0  0  0  0  0
    3.8539    2.8766   -0.9902 O   0  0  0  0  0  1  0  0  0  0  0  0
    3.8574    2.4862    1.1728 O   0  0  0  0  0  0  0  0  0  0  0  0
   -0.0296    2.9040   -0.0569 C   0  0  0  0  0  0  0  0  0  0  0  0
    0.9030    3.2245   -0.0108 H   0  0  0  0  0  0  0  0  0  0  0  0
   -0.5657    3.2329    0.7031 H   0  0  0  0  0  0  0  0  0  0  0  0
   -0.4711    3.3054   -0.9690 H   0  0  0  0  0  0  0  0  0  0  0  0
   -0.0122    1.3981   -0.0026 C   0  0  0  0  0  0  0  0  0  0  0  0
   -1.1943    0.6750    0.0079 C   0  0  0  0  0  0  0  0  0  0  0  0
   -2.0711    1.1618    0.0199 H   0  0  0  0  0  0  0  0  0  0  0  0
   -1.2025   -0.7157   -0.0000 C   0  0  0  0  0  0  0  0  0  0  0  0
   -2.0616   -1.2161   -0.0151 H   0  0  0  0  0  0  0  0  0  0  0  0
    0.0225   -1.3901    0.0160 C   0  0  0  0  0  0  0  0  0  0  0  0
    0.0359   -2.3861    0.0383 H   0  0  0  0  0  0  0  0  0  0  0  0
    1.2025   -0.6653   -0.0000 C   0  0  0  0  0  0  0  0  0  0  0  0
    2.0971   -1.1623    0.0055 H   0  0  0  0  0  0  0  0  0  0  0  0
    1.1839    0.6981   -0.0213 C   0  0  0  0  0  0  0  0  0  0  0  0
    2.0484    1.2139   -0.0523 H   0  0  0  0  0  0  0  0  0  0  0  0
  1  5  1  0
  5  6  1  0
  5  7  2  0
  1  2  1  0
  1  3  1  0
  1  4  1  0
  8 12  1  0
 12 13  2  0
 13 15  1  0
 15 17  2  0
 17 19  1  0
 19 21  2  0
 21 12  1  0
  8  9  1  0
  8 10  1  0
  8 11  1  0
 13 14  1  0
 15 16  1  0
 17 18  1  0
 19 20  1  0
 21 22  1  0
M  CHG  1   6  -1
M  END
>  <PDB_ID>  (592) 
pdb1k3t

>  <RESIDUE_NAME>  (592) 
GLU   PHE

>  <FRAG_NAME>  (592) 
ACET   MBZ

>  <FRAG_ATOM_NUM>  (592) 
fragi: 7  fragj: 15

>  <atom.prop.CHAIN_ID>  (592) 
A A A A A A A Z Z Z Z Z Z Z Z Z Z Z Z Z Z Z

>  <atom.prop.IS_HEAVY_ATOM>  (592) 
1 0 0 0 1 1 1 1 0 0 0 1 1 0 1 0 1 0 1 0 1 0

>  <DIFUSE_FUNC_ATOM>  (592) 
atom 6   atom 7   

>  <FINAL_SINGLE_POINT_ENERGY>  (592) 
0

>  <NONCOV_INTER_ENERGY_QM>  (592) 
0

>  <FF_Energy>  (592) 
-2.47

>  <QM_Energy>  (592) 
-8.02

>  <source>  (592) 
ACET_MBZ_00

>  <Index>  (592) 
21735

$$$$
ACET-pdb1k4y-A-ASP-469:MBZ-pdb1k4y-A-PHE-354
     RDKit          3D

 22 21  0  0  0  0  0  0  0  0999 V2000
   -3.0428   -4.0863    0.0179 C   0  0  0  0  0  0  0  0  0  0  0  0
   -2.1127   -4.0842   -0.3261 H   0  0  0  0  0  0  0  0  0  0  0  0
   -3.6349   -4.6175   -0.5726 H   0  0  0  0  0  0  0  0  0  0  0  0
   -3.0380   -4.5550    1.0021 H   0  0  0  0  0  0  0  0  0  0  0  0
   -3.5505   -2.6560    0.0607 C   0  0  0  0  0  0  0  0  0  0  0  0
   -4.0372   -2.2289    1.1324 O   0  0  0  0  0  1  0  0  0  0  0  0
   -3.4704   -1.9609   -0.9768 O   0  0  0  0  0  0  0  0  0  0  0  0
   -0.0067    2.9100   -0.0075 C   0  0  0  0  0  0  0  0  0  0  0  0
   -0.7865    3.2157    0.5190 H   0  0  0  0  0  0  0  0  0  0  0  0
   -0.0683    3.2118   -0.9476 H   0  0  0  0  0  0  0  0  0  0  0  0
    0.8843    3.3631    0.4273 H   0  0  0  0  0  0  0  0  0  0  0  0
   -0.0005    1.4030   -0.0009 C   0  0  0  0  0  0  0  0  0  0  0  0
   -1.1951    0.6970   -0.0026 C   0  0  0  0  0  0  0  0  0  0  0  0
   -2.0625    1.1842   -0.0065 H   0  0  0  0  0  0  0  0  0  0  0  0
   -1.1971   -0.6957    0.0000 C   0  0  0  0  0  0  0  0  0  0  0  0
   -2.0752   -1.1888    0.0005 H   0  0  0  0  0  0  0  0  0  0  0  0
    0.0017   -1.3920    0.0033 C   0  0  0  0  0  0  0  0  0  0  0  0
   -0.0051   -2.3919    0.0072 H   0  0  0  0  0  0  0  0  0  0  0  0
    1.1971   -0.6990   -0.0000 C   0  0  0  0  0  0  0  0  0  0  0  0
    2.0804   -1.1977   -0.0007 H   0  0  0  0  0  0  0  0  0  0  0  0
    1.1939    0.6867    0.0002 C   0  0  0  0  0  0  0  0  0  0  0  0
    2.0643    1.1846    0.0004 H   0  0  0  0  0  0  0  0  0  0  0  0
  1  5  1  0
  5  6  1  0
  5  7  2  0
  1  2  1  0
  1  3  1  0
  1  4  1  0
  8 12  1  0
 12 13  2  0
 13 15  1  0
 15 17  2  0
 17 19  1  0
 19 21  2  0
 21 12  1  0
  8  9  1  0
  8 10  1  0
  8 11  1  0
 13 14  1  0
 15 16  1  0
 17 18  1  0
 19 20  1  0
 21 22  1  0
M  CHG  1   6  -1
M  END
>  <PDB_ID>  (593) 
pdb1k4y

>  <RESIDUE_NAME>  (593) 
ASP   PHE

>  <FRAG_NAME>  (593) 
ACET   MBZ

>  <FRAG_ATOM_NUM>  (593) 
fragi: 7  fragj: 15

>  <atom.prop.CHAIN_ID>  (593) 
A A A A A A A Z Z Z Z Z Z Z Z Z Z Z Z Z Z Z

>  <atom.prop.IS_HEAVY_ATOM>  (593) 
1 0 0 0 1 1 1 1 0 0 0 1 1 0 1 0 1 0 1 0 1 0

>  <DIFUSE_FUNC_ATOM>  (593) 
atom 6   atom 7   

>  <FINAL_SINGLE_POINT_ENERGY>  (593) 
0

>  <NONCOV_INTER_ENERGY_QM>  (593) 
0

>  <FF_Energy>  (593) 
31.22

>  <QM_Energy>  (593) 
-1.46

>  <source>  (593) 
ACET_MBZ_00

>  <Index>  (593) 
21779

$$$$
ACET-pdb1k4z-B-GLU-2382:MBZ-pdb1k4z-B-PHE-2402
     RDKit          3D

 22 21  0  0  0  0  0  0  0  0999 V2000
    5.2359   -0.4745    1.3800 C   0  0  0  0  0  0  0  0  0  0  0  0
    4.3267   -0.6204    1.7303 H   0  0  0  0  0  0  0  0  0  0  0  0
    5.5060    0.4713    1.4418 H   0  0  0  0  0  0  0  0  0  0  0  0
    5.9271   -1.0637    1.9826 H   0  0  0  0  0  0  0  0  0  0  0  0
    5.2307   -0.8566   -0.0895 C   0  0  0  0  0  0  0  0  0  0  0  0
    6.3033   -0.8614   -0.7170 O   0  0  0  0  0  1  0  0  0  0  0  0
    4.1440   -1.1429   -0.6288 O   0  0  0  0  0  0  0  0  0  0  0  0
   -0.0000    2.9168    0.0998 C   0  0  0  0  0  0  0  0  0  0  0  0
   -0.6986    3.2599   -0.5033 H   0  0  0  0  0  0  0  0  0  0  0  0
    0.8961    3.2376   -0.1535 H   0  0  0  0  0  0  0  0  0  0  0  0
   -0.2149    3.2795    1.1050 H   0  0  0  0  0  0  0  0  0  0  0  0
    0.0003    1.4097    0.0011 C   0  0  0  0  0  0  0  0  0  0  0  0
   -1.2003    0.6943   -0.0012 C   0  0  0  0  0  0  0  0  0  0  0  0
   -2.0672    1.1824   -0.0048 H   0  0  0  0  0  0  0  0  0  0  0  0
   -1.2055   -0.7049   -0.0000 C   0  0  0  0  0  0  0  0  0  0  0  0
   -2.0806   -1.1959    0.0002 H   0  0  0  0  0  0  0  0  0  0  0  0
   -0.0004   -1.3999    0.0021 C   0  0  0  0  0  0  0  0  0  0  0  0
   -0.0008   -2.3974    0.0042 H   0  0  0  0  0  0  0  0  0  0  0  0
    1.2055   -0.6985    0.0000 C   0  0  0  0  0  0  0  0  0  0  0  0
    2.0853   -1.1940    0.0014 H   0  0  0  0  0  0  0  0  0  0  0  0
    1.2003    0.6993   -0.0021 C   0  0  0  0  0  0  0  0  0  0  0  0
    2.0674    1.1940   -0.0069 H   0  0  0  0  0  0  0  0  0  0  0  0
  1  5  1  0
  5  6  1  0
  5  7  2  0
  1  2  1  0
  1  3  1  0
  1  4  1  0
  8 12  1  0
 12 13  2  0
 13 15  1  0
 15 17  2  0
 17 19  1  0
 19 21  2  0
 21 12  1  0
  8  9  1  0
  8 10  1  0
  8 11  1  0
 13 14  1  0
 15 16  1  0
 17 18  1  0
 19 20  1  0
 21 22  1  0
M  CHG  1   6  -1
M  END
>  <PDB_ID>  (594) 
pdb1k4z

>  <RESIDUE_NAME>  (594) 
GLU   PHE

>  <FRAG_NAME>  (594) 
ACET   MBZ

>  <FRAG_ATOM_NUM>  (594) 
fragi: 7  fragj: 15

>  <atom.prop.CHAIN_ID>  (594) 
A A A A A A A Z Z Z Z Z Z Z Z Z Z Z Z Z Z Z

>  <atom.prop.IS_HEAVY_ATOM>  (594) 
1 0 0 0 1 1 1 1 0 0 0 1 1 0 1 0 1 0 1 0 1 0

>  <DIFUSE_FUNC_ATOM>  (594) 
atom 6   atom 7   

>  <FINAL_SINGLE_POINT_ENERGY>  (594) 
0

>  <NONCOV_INTER_ENERGY_QM>  (594) 
0

>  <FF_Energy>  (594) 
-0.05

>  <QM_Energy>  (594) 
-6.08

>  <source>  (594) 
ACET_MBZ_00

>  <Index>  (594) 
21781

$$$$
ACET-pdb2osh-A-ASP-93:MBZ-pdb2osh-A-PHE-5
     RDKit          3D

 22 21  0  0  0  0  0  0  0  0999 V2000
   -3.0993    2.1632   -2.9239 C   0  0  0  0  0  0  0  0  0  0  0  0
   -3.6923    2.7442   -3.4688 H   0  0  0  0  0  0  0  0  0  0  0  0
   -3.3089    2.2558   -1.9589 H   0  0  0  0  0  0  0  0  0  0  0  0
   -3.2937    1.1294   -3.2091 H   0  0  0  0  0  0  0  0  0  0  0  0
   -1.6662    2.5610   -3.1597 C   0  0  0  0  0  0  0  0  0  0  0  0
   -0.8908    1.6881   -3.5962 O   0  0  0  0  0  1  0  0  0  0  0  0
   -1.3279    3.7430   -2.9301 O   0  0  0  0  0  0  0  0  0  0  0  0
    0.0245    2.9370    0.0000 C   0  0  0  0  0  0  0  0  0  0  0  0
   -0.1953    3.2357   -0.9172 H   0  0  0  0  0  0  0  0  0  0  0  0
    0.9330    3.2256    0.2633 H   0  0  0  0  0  0  0  0  0  0  0  0
   -0.6859    3.4030    0.6828 H   0  0  0  0  0  0  0  0  0  0  0  0
    0.0058    1.4135    0.0054 C   0  0  0  0  0  0  0  0  0  0  0  0
   -1.1996    0.6967    0.0061 C   0  0  0  0  0  0  0  0  0  0  0  0
   -2.0646    1.1870    0.0102 H   0  0  0  0  0  0  0  0  0  0  0  0
   -1.2099   -0.7068    0.0000 C   0  0  0  0  0  0  0  0  0  0  0  0
   -2.0892   -1.1901   -0.0022 H   0  0  0  0  0  0  0  0  0  0  0  0
   -0.0127   -1.4031   -0.0009 C   0  0  0  0  0  0  0  0  0  0  0  0
   -0.0077   -2.3996   -0.0035 H   0  0  0  0  0  0  0  0  0  0  0  0
    1.2099   -0.7014    0.0000 C   0  0  0  0  0  0  0  0  0  0  0  0
    2.0812   -1.2016    0.0093 H   0  0  0  0  0  0  0  0  0  0  0  0
    1.2065    0.7012   -0.0105 C   0  0  0  0  0  0  0  0  0  0  0  0
    2.0735    1.1931   -0.0304 H   0  0  0  0  0  0  0  0  0  0  0  0
  1  5  1  0
  5  6  1  0
  5  7  2  0
  1  2  1  0
  1  3  1  0
  1  4  1  0
  8 12  1  0
 12 13  2  0
 13 15  1  0
 15 17  2  0
 17 19  1  0
 19 21  2  0
 21 12  1  0
  8  9  1  0
  8 10  1  0
  8 11  1  0
 13 14  1  0
 15 16  1  0
 17 18  1  0
 19 20  1  0
 21 22  1  0
M  CHG  1   6  -1
M  END
>  <PDB_ID>  (595) 
pdb2osh

>  <RESIDUE_NAME>  (595) 
ASP   PHE

>  <FRAG_NAME>  (595) 
ACET   MBZ

>  <FRAG_ATOM_NUM>  (595) 
fragi: 7  fragj: 15

>  <atom.prop.CHAIN_ID>  (595) 
A A A A A A A Z Z Z Z Z Z Z Z Z Z Z Z Z Z Z

>  <atom.prop.IS_HEAVY_ATOM>  (595) 
1 0 0 0 1 1 1 1 0 0 0 1 1 0 1 0 1 0 1 0 1 0

>  <DIFUSE_FUNC_ATOM>  (595) 
atom 6   atom 7   

>  <FINAL_SINGLE_POINT_ENERGY>  (595) 
0

>  <NONCOV_INTER_ENERGY_QM>  (595) 
0

>  <FF_Energy>  (595) 
1.14

>  <QM_Energy>  (595) 
-4.65

>  <source>  (595) 
ACET_MBZ_00

>  <Index>  (595) 
21782

$$$$
ACET-pdb2owa-A-ASP-13:MBZ-pdb2owa-A-PHE-17
     RDKit          3D

 22 21  0  0  0  0  0  0  0  0999 V2000
    3.8483    5.5609   -1.9216 C   0  0  0  0  0  0  0  0  0  0  0  0
    4.7912    5.3602   -2.1617 H   0  0  0  0  0  0  0  0  0  0  0  0
    3.8094    6.2513   -1.2092 H   0  0  0  0  0  0  0  0  0  0  0  0
    3.3631    5.9720   -2.8068 H   0  0  0  0  0  0  0  0  0  0  0  0
    3.1890    4.2861   -1.4098 C   0  0  0  0  0  0  0  0  0  0  0  0
    3.2885    4.0349   -0.1883 O   0  0  0  0  0  1  0  0  0  0  0  0
    2.5662    3.5399   -2.2079 O   0  0  0  0  0  0  0  0  0  0  0  0
   -0.0109    2.8859    0.0474 C   0  0  0  0  0  0  0  0  0  0  0  0
    0.9148    3.1989   -0.1244 H   0  0  0  0  0  0  0  0  0  0  0  0
   -0.3175    3.1698    0.9476 H   0  0  0  0  0  0  0  0  0  0  0  0
   -0.6633    3.3547   -0.6892 H   0  0  0  0  0  0  0  0  0  0  0  0
   -0.0116    1.3929    0.0054 C   0  0  0  0  0  0  0  0  0  0  0  0
   -1.2081    0.6825    0.0057 C   0  0  0  0  0  0  0  0  0  0  0  0
   -2.0742    1.1750    0.0084 H   0  0  0  0  0  0  0  0  0  0  0  0
   -1.2115   -0.7025   -0.0000 C   0  0  0  0  0  0  0  0  0  0  0  0
   -2.0681   -1.2111    0.0049 H   0  0  0  0  0  0  0  0  0  0  0  0
    0.0218   -1.3854   -0.0114 C   0  0  0  0  0  0  0  0  0  0  0  0
    0.0208   -2.3846   -0.0287 H   0  0  0  0  0  0  0  0  0  0  0  0
    1.2115   -0.6787   -0.0000 C   0  0  0  0  0  0  0  0  0  0  0  0
    2.0978   -1.1781    0.0103 H   0  0  0  0  0  0  0  0  0  0  0  0
    1.1979    0.6912    0.0003 C   0  0  0  0  0  0  0  0  0  0  0  0
    2.0558    1.2068   -0.0042 H   0  0  0  0  0  0  0  0  0  0  0  0
  1  5  1  0
  5  6  1  0
  5  7  2  0
  1  2  1  0
  1  3  1  0
  1  4  1  0
  8 12  1  0
 12 13  2  0
 13 15  1  0
 15 17  2  0
 17 19  1  0
 19 21  2  0
 21 12  1  0
  8  9  1  0
  8 10  1  0
  8 11  1  0
 13 14  1  0
 15 16  1  0
 17 18  1  0
 19 20  1  0
 21 22  1  0
M  CHG  1   6  -1
M  END
>  <PDB_ID>  (596) 
pdb2owa

>  <RESIDUE_NAME>  (596) 
ASP   PHE

>  <FRAG_NAME>  (596) 
ACET   MBZ

>  <FRAG_ATOM_NUM>  (596) 
fragi: 7  fragj: 15

>  <atom.prop.CHAIN_ID>  (596) 
A A A A A A A Z Z Z Z Z Z Z Z Z Z Z Z Z Z Z

>  <atom.prop.IS_HEAVY_ATOM>  (596) 
1 0 0 0 1 1 1 1 0 0 0 1 1 0 1 0 1 0 1 0 1 0

>  <DIFUSE_FUNC_ATOM>  (596) 
atom 6   atom 7   

>  <FINAL_SINGLE_POINT_ENERGY>  (596) 
0

>  <NONCOV_INTER_ENERGY_QM>  (596) 
0

>  <FF_Energy>  (596) 
-1.79

>  <QM_Energy>  (596) 
-8.27

>  <source>  (596) 
ACET_MBZ_00

>  <Index>  (596) 
21915

$$$$
ACET-pdb1k9a-E-GLU-306:MBZ-pdb1k9a-E-PHE-433
     RDKit          3D

 22 21  0  0  0  0  0  0  0  0999 V2000
   -5.2084    3.3075    0.3706 C   0  0  0  0  0  0  0  0  0  0  0  0
   -5.7548    4.1289    0.3312 H   0  0  0  0  0  0  0  0  0  0  0  0
   -5.7476    2.5263    0.6444 H   0  0  0  0  0  0  0  0  0  0  0  0
   -4.8041    3.1164   -0.6234 H   0  0  0  0  0  0  0  0  0  0  0  0
   -4.1457    3.5192    1.4317 C   0  0  0  0  0  0  0  0  0  0  0  0
   -4.5302    3.6632    2.6125 O   0  0  0  0  0  1  0  0  0  0  0  0
   -2.9373    3.5420    1.0962 O   0  0  0  0  0  0  0  0  0  0  0  0
    0.0129    2.9019    0.0810 C   0  0  0  0  0  0  0  0  0  0  0  0
   -0.9207    3.2155    0.1083 H   0  0  0  0  0  0  0  0  0  0  0  0
    0.4938    3.2466   -0.7068 H   0  0  0  0  0  0  0  0  0  0  0  0
    0.5188    3.2726    0.9724 H   0  0  0  0  0  0  0  0  0  0  0  0
   -0.0007    1.4046    0.0007 C   0  0  0  0  0  0  0  0  0  0  0  0
   -1.1927    0.7013   -0.0018 C   0  0  0  0  0  0  0  0  0  0  0  0
   -2.0612    1.1854   -0.0059 H   0  0  0  0  0  0  0  0  0  0  0  0
   -1.1955   -0.6970   -0.0000 C   0  0  0  0  0  0  0  0  0  0  0  0
   -2.0765   -1.1855    0.0009 H   0  0  0  0  0  0  0  0  0  0  0  0
    0.0001   -1.3969    0.0027 C   0  0  0  0  0  0  0  0  0  0  0  0
   -0.0075   -2.3952    0.0056 H   0  0  0  0  0  0  0  0  0  0  0  0
    1.1955   -0.7034    0.0000 C   0  0  0  0  0  0  0  0  0  0  0  0
    2.0794   -1.1975    0.0003 H   0  0  0  0  0  0  0  0  0  0  0  0
    1.1933    0.6915   -0.0015 C   0  0  0  0  0  0  0  0  0  0  0  0
    2.0639    1.1835   -0.0053 H   0  0  0  0  0  0  0  0  0  0  0  0
  1  5  1  0
  5  6  1  0
  5  7  2  0
  1  2  1  0
  1  3  1  0
  1  4  1  0
  8 12  1  0
 12 13  2  0
 13 15  1  0
 15 17  2  0
 17 19  1  0
 19 21  2  0
 21 12  1  0
  8  9  1  0
  8 10  1  0
  8 11  1  0
 13 14  1  0
 15 16  1  0
 17 18  1  0
 19 20  1  0
 21 22  1  0
M  CHG  1   6  -1
M  END
>  <PDB_ID>  (597) 
pdb1k9a

>  <RESIDUE_NAME>  (597) 
GLU   PHE

>  <FRAG_NAME>  (597) 
ACET   MBZ

>  <FRAG_ATOM_NUM>  (597) 
fragi: 7  fragj: 15

>  <atom.prop.CHAIN_ID>  (597) 
A A A A A A A Z Z Z Z Z Z Z Z Z Z Z Z Z Z Z

>  <atom.prop.IS_HEAVY_ATOM>  (597) 
1 0 0 0 1 1 1 1 0 0 0 1 1 0 1 0 1 0 1 0 1 0

>  <DIFUSE_FUNC_ATOM>  (597) 
atom 6   atom 7   

>  <FINAL_SINGLE_POINT_ENERGY>  (597) 
0

>  <NONCOV_INTER_ENERGY_QM>  (597) 
0

>  <FF_Energy>  (597) 
-0.69

>  <QM_Energy>  (597) 
-7.15

>  <source>  (597) 
ACET_MBZ_00

>  <Index>  (597) 
21943

$$$$
ACET-pdb2owo-A-GLU-579:MBZ-pdb2owo-A-PHE-475
     RDKit          3D

 22 21  0  0  0  0  0  0  0  0999 V2000
   -1.7033    3.9369   -2.5942 C   0  0  0  0  0  0  0  0  0  0  0  0
   -1.9181    3.3674   -1.8226 H   0  0  0  0  0  0  0  0  0  0  0  0
   -0.8228    4.3650   -2.5068 H   0  0  0  0  0  0  0  0  0  0  0  0
   -1.6942    3.3122   -3.4875 H   0  0  0  0  0  0  0  0  0  0  0  0
   -2.7405    5.0290   -2.6640 C   0  0  0  0  0  0  0  0  0  0  0  0
   -3.9454    4.7040   -2.7380 O   0  0  0  0  0  1  0  0  0  0  0  0
   -2.3489    6.2154   -2.6481 O   0  0  0  0  0  0  0  0  0  0  0  0
   -0.0033    2.9001    0.0042 C   0  0  0  0  0  0  0  0  0  0  0  0
   -0.8092    3.2070   -0.4788 H   0  0  0  0  0  0  0  0  0  0  0  0
    0.8235    3.2110   -0.4405 H   0  0  0  0  0  0  0  0  0  0  0  0
   -0.0278    3.3327    1.0045 H   0  0  0  0  0  0  0  0  0  0  0  0
    0.0004    1.4037   -0.0002 C   0  0  0  0  0  0  0  0  0  0  0  0
   -1.1947    0.6971    0.0016 C   0  0  0  0  0  0  0  0  0  0  0  0
   -2.0627    1.1842    0.0032 H   0  0  0  0  0  0  0  0  0  0  0  0
   -1.2031   -0.7015   -0.0000 C   0  0  0  0  0  0  0  0  0  0  0  0
   -2.0810   -1.1891    0.0013 H   0  0  0  0  0  0  0  0  0  0  0  0
   -0.0040   -1.3973   -0.0010 C   0  0  0  0  0  0  0  0  0  0  0  0
   -0.0046   -2.3953   -0.0034 H   0  0  0  0  0  0  0  0  0  0  0  0
    1.2031   -0.6986    0.0000 C   0  0  0  0  0  0  0  0  0  0  0  0
    2.0822   -1.1964    0.0024 H   0  0  0  0  0  0  0  0  0  0  0  0
    1.1984    0.6966   -0.0004 C   0  0  0  0  0  0  0  0  0  0  0  0
    2.0658    1.1911   -0.0013 H   0  0  0  0  0  0  0  0  0  0  0  0
  1  5  1  0
  5  6  1  0
  5  7  2  0
  1  2  1  0
  1  3  1  0
  1  4  1  0
  8 12  1  0
 12 13  2  0
 13 15  1  0
 15 17  2  0
 17 19  1  0
 19 21  2  0
 21 12  1  0
  8  9  1  0
  8 10  1  0
  8 11  1  0
 13 14  1  0
 15 16  1  0
 17 18  1  0
 19 20  1  0
 21 22  1  0
M  CHG  1   6  -1
M  END
>  <PDB_ID>  (598) 
pdb2owo

>  <RESIDUE_NAME>  (598) 
GLU   PHE

>  <FRAG_NAME>  (598) 
ACET   MBZ

>  <FRAG_ATOM_NUM>  (598) 
fragi: 7  fragj: 15

>  <atom.prop.CHAIN_ID>  (598) 
A A A A A A A Z Z Z Z Z Z Z Z Z Z Z Z Z Z Z

>  <atom.prop.IS_HEAVY_ATOM>  (598) 
1 0 0 0 1 1 1 1 0 0 0 1 1 0 1 0 1 0 1 0 1 0

>  <DIFUSE_FUNC_ATOM>  (598) 
atom 6   atom 7   

>  <FINAL_SINGLE_POINT_ENERGY>  (598) 
0

>  <NONCOV_INTER_ENERGY_QM>  (598) 
0

>  <FF_Energy>  (598) 
-1.26

>  <QM_Energy>  (598) 
-0.28

>  <source>  (598) 
ACET_MBZ_00

>  <Index>  (598) 
21958

$$$$
ACET-pdb1k9i-B-GLU-358:MBZ-pdb1k9i-B-PHE-313
     RDKit          3D

 22 21  0  0  0  0  0  0  0  0999 V2000
    4.6889    4.3535   -1.9948 C   0  0  0  0  0  0  0  0  0  0  0  0
    5.0943    4.5436   -2.8739 H   0  0  0  0  0  0  0  0  0  0  0  0
    5.3183    3.8791   -1.3998 H   0  0  0  0  0  0  0  0  0  0  0  0
    4.4505    5.3098   -1.5290 H   0  0  0  0  0  0  0  0  0  0  0  0
    3.4920    3.4552   -2.2176 C   0  0  0  0  0  0  0  0  0  0  0  0
    3.6837    2.3206   -2.7066 O   0  0  0  0  0  1  0  0  0  0  0  0
    2.3574    3.8712   -1.9066 O   0  0  0  0  0  0  0  0  0  0  0  0
    0.0056    2.9112    0.0380 C   0  0  0  0  0  0  0  0  0  0  0  0
   -0.8944    3.2263   -0.2165 H   0  0  0  0  0  0  0  0  0  0  0  0
    0.6943    3.2289   -0.5922 H   0  0  0  0  0  0  0  0  0  0  0  0
    0.2388    3.3155    1.0230 H   0  0  0  0  0  0  0  0  0  0  0  0
   -0.0007    1.4082    0.0003 C   0  0  0  0  0  0  0  0  0  0  0  0
   -1.1978    0.6989    0.0003 C   0  0  0  0  0  0  0  0  0  0  0  0
   -2.0653    1.1839   -0.0003 H   0  0  0  0  0  0  0  0  0  0  0  0
   -1.2025   -0.7026   -0.0000 C   0  0  0  0  0  0  0  0  0  0  0  0
   -2.0772   -1.1926    0.0013 H   0  0  0  0  0  0  0  0  0  0  0  0
    0.0039   -1.3997   -0.0001 C   0  0  0  0  0  0  0  0  0  0  0  0
   -0.0013   -2.3973   -0.0007 H   0  0  0  0  0  0  0  0  0  0  0  0
    1.2025   -0.7019   -0.0000 C   0  0  0  0  0  0  0  0  0  0  0  0
    2.0853   -1.1931    0.0020 H   0  0  0  0  0  0  0  0  0  0  0  0
    1.1946    0.6970   -0.0005 C   0  0  0  0  0  0  0  0  0  0  0  0
    2.0650    1.1903   -0.0019 H   0  0  0  0  0  0  0  0  0  0  0  0
  1  5  1  0
  5  6  1  0
  5  7  2  0
  1  2  1  0
  1  3  1  0
  1  4  1  0
  8 12  1  0
 12 13  2  0
 13 15  1  0
 15 17  2  0
 17 19  1  0
 19 21  2  0
 21 12  1  0
  8  9  1  0
  8 10  1  0
  8 11  1  0
 13 14  1  0
 15 16  1  0
 17 18  1  0
 19 20  1  0
 21 22  1  0
M  CHG  1   6  -1
M  END
>  <PDB_ID>  (599) 
pdb1k9i

>  <RESIDUE_NAME>  (599) 
GLU   PHE

>  <FRAG_NAME>  (599) 
ACET   MBZ

>  <FRAG_ATOM_NUM>  (599) 
fragi: 7  fragj: 15

>  <atom.prop.CHAIN_ID>  (599) 
A A A A A A A Z Z Z Z Z Z Z Z Z Z Z Z Z Z Z

>  <atom.prop.IS_HEAVY_ATOM>  (599) 
1 0 0 0 1 1 1 1 0 0 0 1 1 0 1 0 1 0 1 0 1 0

>  <DIFUSE_FUNC_ATOM>  (599) 
atom 6   atom 7   

>  <FINAL_SINGLE_POINT_ENERGY>  (599) 
0

>  <NONCOV_INTER_ENERGY_QM>  (599) 
0

>  <FF_Energy>  (599) 
0.3

>  <QM_Energy>  (599) 
-6.67

>  <source>  (599) 
ACET_MBZ_00

>  <Index>  (599) 
21982

$$$$
ACET-pdb1k9i-D-GLU-358:MBZ-pdb1k9i-D-PHE-313
     RDKit          3D

 22 21  0  0  0  0  0  0  0  0999 V2000
    4.8749    4.2245   -1.3212 C   0  0  0  0  0  0  0  0  0  0  0  0
    5.3358    4.4735   -2.1538 H   0  0  0  0  0  0  0  0  0  0  0  0
    5.4501    3.6965   -0.7222 H   0  0  0  0  0  0  0  0  0  0  0  0
    4.6019    5.1435   -0.8024 H   0  0  0  0  0  0  0  0  0  0  0  0
    3.6812    3.3705   -1.6880 C   0  0  0  0  0  0  0  0  0  0  0  0
    3.8706    2.2675   -2.2475 O   0  0  0  0  0  1  0  0  0  0  0  0
    2.5434    3.7979   -1.4167 O   0  0  0  0  0  0  0  0  0  0  0  0
   -0.0048    2.8923    0.1234 C   0  0  0  0  0  0  0  0  0  0  0  0
   -0.7940    3.2400   -0.3552 H   0  0  0  0  0  0  0  0  0  0  0  0
    0.8363    3.2366   -0.2594 H   0  0  0  0  0  0  0  0  0  0  0  0
   -0.0643    3.2312    1.1577 H   0  0  0  0  0  0  0  0  0  0  0  0
   -0.0009    1.4052    0.0016 C   0  0  0  0  0  0  0  0  0  0  0  0
   -1.1949    0.6913   -0.0006 C   0  0  0  0  0  0  0  0  0  0  0  0
   -2.0648    1.1816   -0.0042 H   0  0  0  0  0  0  0  0  0  0  0  0
   -1.2027   -0.7007   -0.0000 C   0  0  0  0  0  0  0  0  0  0  0  0
   -2.0798   -1.1919   -0.0000 H   0  0  0  0  0  0  0  0  0  0  0  0
   -0.0022   -1.3964    0.0021 C   0  0  0  0  0  0  0  0  0  0  0  0
   -0.0045   -2.3952    0.0046 H   0  0  0  0  0  0  0  0  0  0  0  0
    1.2027   -0.6999   -0.0000 C   0  0  0  0  0  0  0  0  0  0  0  0
    2.0828   -1.1942    0.0025 H   0  0  0  0  0  0  0  0  0  0  0  0
    1.1979    0.7004   -0.0031 C   0  0  0  0  0  0  0  0  0  0  0  0
    2.0652    1.1933   -0.0094 H   0  0  0  0  0  0  0  0  0  0  0  0
  1  5  1  0
  5  6  1  0
  5  7  2  0
  1  2  1  0
  1  3  1  0
  1  4  1  0
  8 12  1  0
 12 13  2  0
 13 15  1  0
 15 17  2  0
 17 19  1  0
 19 21  2  0
 21 12  1  0
  8  9  1  0
  8 10  1  0
  8 11  1  0
 13 14  1  0
 15 16  1  0
 17 18  1  0
 19 20  1  0
 21 22  1  0
M  CHG  1   6  -1
M  END
>  <PDB_ID>  (600) 
pdb1k9i

>  <RESIDUE_NAME>  (600) 
GLU   PHE

>  <FRAG_NAME>  (600) 
ACET   MBZ

>  <FRAG_ATOM_NUM>  (600) 
fragi: 7  fragj: 15

>  <atom.prop.CHAIN_ID>  (600) 
A A A A A A A Z Z Z Z Z Z Z Z Z Z Z Z Z Z Z

>  <atom.prop.IS_HEAVY_ATOM>  (600) 
1 0 0 0 1 1 1 1 0 0 0 1 1 0 1 0 1 0 1 0 1 0

>  <DIFUSE_FUNC_ATOM>  (600) 
atom 6   atom 7   

>  <FINAL_SINGLE_POINT_ENERGY>  (600) 
0

>  <NONCOV_INTER_ENERGY_QM>  (600) 
0

>  <FF_Energy>  (600) 
1.01

>  <QM_Energy>  (600) 
-7.31

>  <source>  (600) 
ACET_MBZ_00

>  <Index>  (600) 
21987

$$$$
ACET-pdb1k9i-F-GLU-358:MBZ-pdb1k9i-F-PHE-313
     RDKit          3D

 22 21  0  0  0  0  0  0  0  0999 V2000
    4.5610    4.2005   -2.2318 C   0  0  0  0  0  0  0  0  0  0  0  0
    4.8390    4.4433   -3.1451 H   0  0  0  0  0  0  0  0  0  0  0  0
    5.2776    3.7341   -1.7416 H   0  0  0  0  0  0  0  0  0  0  0  0
    4.3376    5.1239   -1.6973 H   0  0  0  0  0  0  0  0  0  0  0  0
    3.3807    3.2542   -2.3404 C   0  0  0  0  0  0  0  0  0  0  0  0
    3.5323    2.1698   -2.9514 O   0  0  0  0  0  1  0  0  0  0  0  0
    2.2992    3.5836   -1.8138 O   0  0  0  0  0  0  0  0  0  0  0  0
    0.0104    2.8936    0.1108 C   0  0  0  0  0  0  0  0  0  0  0  0
   -0.8877    3.2259   -0.1236 H   0  0  0  0  0  0  0  0  0  0  0  0
    0.7023    3.2437   -0.4980 H   0  0  0  0  0  0  0  0  0  0  0  0
    0.2434    3.2424    1.1169 H   0  0  0  0  0  0  0  0  0  0  0  0
    0.0011    1.4012    0.0011 C   0  0  0  0  0  0  0  0  0  0  0  0
   -1.1969    0.6963   -0.0017 C   0  0  0  0  0  0  0  0  0  0  0  0
   -2.0625    1.1883   -0.0056 H   0  0  0  0  0  0  0  0  0  0  0  0
   -1.2055   -0.6947    0.0000 C   0  0  0  0  0  0  0  0  0  0  0  0
   -2.0796   -1.1880    0.0005 H   0  0  0  0  0  0  0  0  0  0  0  0
    0.0002   -1.3946    0.0028 C   0  0  0  0  0  0  0  0  0  0  0  0
   -0.0062   -2.3920    0.0066 H   0  0  0  0  0  0  0  0  0  0  0  0
    1.2055   -0.6993   -0.0000 C   0  0  0  0  0  0  0  0  0  0  0  0
    2.0842   -1.1962    0.0009 H   0  0  0  0  0  0  0  0  0  0  0  0
    1.1956    0.6910   -0.0022 C   0  0  0  0  0  0  0  0  0  0  0  0
    2.0654    1.1887   -0.0072 H   0  0  0  0  0  0  0  0  0  0  0  0
  1  5  1  0
  5  6  1  0
  5  7  2  0
  1  2  1  0
  1  3  1  0
  1  4  1  0
  8 12  1  0
 12 13  2  0
 13 15  1  0
 15 17  2  0
 17 19  1  0
 19 21  2  0
 21 12  1  0
  8  9  1  0
  8 10  1  0
  8 11  1  0
 13 14  1  0
 15 16  1  0
 17 18  1  0
 19 20  1  0
 21 22  1  0
M  CHG  1   6  -1
M  END
>  <PDB_ID>  (601) 
pdb1k9i

>  <RESIDUE_NAME>  (601) 
GLU   PHE

>  <FRAG_NAME>  (601) 
ACET   MBZ

>  <FRAG_ATOM_NUM>  (601) 
fragi: 7  fragj: 15

>  <atom.prop.CHAIN_ID>  (601) 
A A A A A A A Z Z Z Z Z Z Z Z Z Z Z Z Z Z Z

>  <atom.prop.IS_HEAVY_ATOM>  (601) 
1 0 0 0 1 1 1 1 0 0 0 1 1 0 1 0 1 0 1 0 1 0

>  <DIFUSE_FUNC_ATOM>  (601) 
atom 6   atom 7   

>  <FINAL_SINGLE_POINT_ENERGY>  (601) 
0

>  <NONCOV_INTER_ENERGY_QM>  (601) 
0

>  <FF_Energy>  (601) 
2.67

>  <QM_Energy>  (601) 
-6.51

>  <source>  (601) 
ACET_MBZ_00

>  <Index>  (601) 
21991

$$$$
ACET-pdb1k9i-G-GLU-358:MBZ-pdb1k9i-G-PHE-313
     RDKit          3D

 22 21  0  0  0  0  0  0  0  0999 V2000
    4.4657    4.4714   -1.8959 C   0  0  0  0  0  0  0  0  0  0  0  0
    4.9185    4.6301   -2.7577 H   0  0  0  0  0  0  0  0  0  0  0  0
    5.0270    3.9403   -1.2825 H   0  0  0  0  0  0  0  0  0  0  0  0
    4.2795    5.4395   -1.4310 H   0  0  0  0  0  0  0  0  0  0  0  0
    3.2066    3.6650   -2.1792 C   0  0  0  0  0  0  0  0  0  0  0  0
    3.3372    2.4990   -2.6222 O   0  0  0  0  0  1  0  0  0  0  0  0
    2.0845    4.1852   -1.9669 O   0  0  0  0  0  0  0  0  0  0  0  0
    0.0064    2.9010    0.0976 C   0  0  0  0  0  0  0  0  0  0  0  0
   -0.8849    3.2280   -0.1652 H   0  0  0  0  0  0  0  0  0  0  0  0
    0.7143    3.2439   -0.4964 H   0  0  0  0  0  0  0  0  0  0  0  0
    0.2125    3.2547    1.1078 H   0  0  0  0  0  0  0  0  0  0  0  0
    0.0007    1.4072    0.0005 C   0  0  0  0  0  0  0  0  0  0  0  0
   -1.1996    0.6976   -0.0012 C   0  0  0  0  0  0  0  0  0  0  0  0
   -2.0657    1.1830   -0.0050 H   0  0  0  0  0  0  0  0  0  0  0  0
   -1.2030   -0.7041   -0.0000 C   0  0  0  0  0  0  0  0  0  0  0  0
   -2.0805   -1.1929    0.0002 H   0  0  0  0  0  0  0  0  0  0  0  0
   -0.0016   -1.3986    0.0023 C   0  0  0  0  0  0  0  0  0  0  0  0
   -0.0016   -2.3960    0.0051 H   0  0  0  0  0  0  0  0  0  0  0  0
    1.2030   -0.6982    0.0000 C   0  0  0  0  0  0  0  0  0  0  0  0
    2.0835   -1.1970    0.0012 H   0  0  0  0  0  0  0  0  0  0  0  0
    1.2005    0.6961   -0.0016 C   0  0  0  0  0  0  0  0  0  0  0  0
    2.0674    1.1910   -0.0052 H   0  0  0  0  0  0  0  0  0  0  0  0
  1  5  1  0
  5  6  1  0
  5  7  2  0
  1  2  1  0
  1  3  1  0
  1  4  1  0
  8 12  1  0
 12 13  2  0
 13 15  1  0
 15 17  2  0
 17 19  1  0
 19 21  2  0
 21 12  1  0
  8  9  1  0
  8 10  1  0
  8 11  1  0
 13 14  1  0
 15 16  1  0
 17 18  1  0
 19 20  1  0
 21 22  1  0
M  CHG  1   6  -1
M  END
>  <PDB_ID>  (602) 
pdb1k9i

>  <RESIDUE_NAME>  (602) 
GLU   PHE

>  <FRAG_NAME>  (602) 
ACET   MBZ

>  <FRAG_ATOM_NUM>  (602) 
fragi: 7  fragj: 15

>  <atom.prop.CHAIN_ID>  (602) 
A A A A A A A Z Z Z Z Z Z Z Z Z Z Z Z Z Z Z

>  <atom.prop.IS_HEAVY_ATOM>  (602) 
1 0 0 0 1 1 1 1 0 0 0 1 1 0 1 0 1 0 1 0 1 0

>  <DIFUSE_FUNC_ATOM>  (602) 
atom 6   atom 7   

>  <FINAL_SINGLE_POINT_ENERGY>  (602) 
0

>  <NONCOV_INTER_ENERGY_QM>  (602) 
0

>  <FF_Energy>  (602) 
0.38

>  <QM_Energy>  (602) 
-6.43

>  <source>  (602) 
ACET_MBZ_00

>  <Index>  (602) 
21994

$$$$
ACET-pdb1k9i-I-GLU-358:MBZ-pdb1k9i-I-PHE-313
     RDKit          3D

 22 21  0  0  0  0  0  0  0  0999 V2000
   -0.6420    4.5855   -5.0404 C   0  0  0  0  0  0  0  0  0  0  0  0
   -1.5872    4.6917   -5.2931 H   0  0  0  0  0  0  0  0  0  0  0  0
   -0.0698    4.4070   -5.8214 H   0  0  0  0  0  0  0  0  0  0  0  0
   -0.3076    5.5135   -4.5764 H   0  0  0  0  0  0  0  0  0  0  0  0
   -0.5473    3.3797   -4.1183 C   0  0  0  0  0  0  0  0  0  0  0  0
   -0.9472    2.2727   -4.5402 O   0  0  0  0  0  1  0  0  0  0  0  0
   -0.0723    3.5341   -2.9743 O   0  0  0  0  0  0  0  0  0  0  0  0
   -0.0117    2.9037    0.0311 C   0  0  0  0  0  0  0  0  0  0  0  0
   -0.5792    3.1900    0.7890 H   0  0  0  0  0  0  0  0  0  0  0  0
   -0.3777    3.2249   -0.8305 H   0  0  0  0  0  0  0  0  0  0  0  0
    0.9732    3.3516    0.1634 H   0  0  0  0  0  0  0  0  0  0  0  0
   -0.0005    1.4019    0.0004 C   0  0  0  0  0  0  0  0  0  0  0  0
   -1.2023    0.6892   -0.0004 C   0  0  0  0  0  0  0  0  0  0  0  0
   -2.0668    1.1834   -0.0024 H   0  0  0  0  0  0  0  0  0  0  0  0
   -1.2091   -0.6996   -0.0000 C   0  0  0  0  0  0  0  0  0  0  0  0
   -2.0802   -1.1957    0.0001 H   0  0  0  0  0  0  0  0  0  0  0  0
    0.0006   -1.3940    0.0017 C   0  0  0  0  0  0  0  0  0  0  0  0
    0.0010   -2.3913    0.0033 H   0  0  0  0  0  0  0  0  0  0  0  0
    1.2091   -0.6922    0.0000 C   0  0  0  0  0  0  0  0  0  0  0  0
    2.0872   -1.1935    0.0019 H   0  0  0  0  0  0  0  0  0  0  0  0
    1.2022    0.6947   -0.0017 C   0  0  0  0  0  0  0  0  0  0  0  0
    2.0667    1.1967   -0.0058 H   0  0  0  0  0  0  0  0  0  0  0  0
  1  5  1  0
  5  6  1  0
  5  7  2  0
  1  2  1  0
  1  3  1  0
  1  4  1  0
  8 12  1  0
 12 13  2  0
 13 15  1  0
 15 17  2  0
 17 19  1  0
 19 21  2  0
 21 12  1  0
  8  9  1  0
  8 10  1  0
  8 11  1  0
 13 14  1  0
 15 16  1  0
 17 18  1  0
 19 20  1  0
 21 22  1  0
M  CHG  1   6  -1
M  END
>  <PDB_ID>  (603) 
pdb1k9i

>  <RESIDUE_NAME>  (603) 
GLU   PHE

>  <FRAG_NAME>  (603) 
ACET   MBZ

>  <FRAG_ATOM_NUM>  (603) 
fragi: 7  fragj: 15

>  <atom.prop.CHAIN_ID>  (603) 
A A A A A A A Z Z Z Z Z Z Z Z Z Z Z Z Z Z Z

>  <atom.prop.IS_HEAVY_ATOM>  (603) 
1 0 0 0 1 1 1 1 0 0 0 1 1 0 1 0 1 0 1 0 1 0

>  <DIFUSE_FUNC_ATOM>  (603) 
atom 6   atom 7   

>  <FINAL_SINGLE_POINT_ENERGY>  (603) 
0

>  <NONCOV_INTER_ENERGY_QM>  (603) 
0

>  <FF_Energy>  (603) 
3.2

>  <QM_Energy>  (603) 
-4.02

>  <source>  (603) 
ACET_MBZ_00

>  <Index>  (603) 
21999

$$$$
ACET-pdb1k9i-J-GLU-358:MBZ-pdb1k9i-J-PHE-313
     RDKit          3D

 22 21  0  0  0  0  0  0  0  0999 V2000
    2.2311    2.9971   -4.8643 C   0  0  0  0  0  0  0  0  0  0  0  0
    2.0808    2.7778   -5.8116 H   0  0  0  0  0  0  0  0  0  0  0  0
    3.0730    2.6181   -4.5245 H   0  0  0  0  0  0  0  0  0  0  0  0
    2.2881    4.0819   -4.7750 H   0  0  0  0  0  0  0  0  0  0  0  0
    1.0941    2.3860   -4.0625 C   0  0  0  0  0  0  0  0  0  0  0  0
    0.9406    1.1412   -4.0839 O   0  0  0  0  0  1  0  0  0  0  0  0
    0.3521    3.1497   -3.4038 O   0  0  0  0  0  0  0  0  0  0  0  0
    0.0082    2.9125   -0.0187 C   0  0  0  0  0  0  0  0  0  0  0  0
   -0.7642    3.2280    0.5097 H   0  0  0  0  0  0  0  0  0  0  0  0
   -0.0510    3.2049   -0.9597 H   0  0  0  0  0  0  0  0  0  0  0  0
    0.9105    3.3465    0.4121 H   0  0  0  0  0  0  0  0  0  0  0  0
   -0.0003    1.4075    0.0002 C   0  0  0  0  0  0  0  0  0  0  0  0
   -1.1986    0.7018   -0.0005 C   0  0  0  0  0  0  0  0  0  0  0  0
   -2.0652    1.1872   -0.0028 H   0  0  0  0  0  0  0  0  0  0  0  0
   -1.2029   -0.6996    0.0000 C   0  0  0  0  0  0  0  0  0  0  0  0
   -2.0786   -1.1897    0.0014 H   0  0  0  0  0  0  0  0  0  0  0  0
    0.0029   -1.4005    0.0000 C   0  0  0  0  0  0  0  0  0  0  0  0
   -0.0037   -2.3965   -0.0006 H   0  0  0  0  0  0  0  0  0  0  0  0
    1.2029   -0.7024   -0.0000 C   0  0  0  0  0  0  0  0  0  0  0  0
    2.0853   -1.1963    0.0008 H   0  0  0  0  0  0  0  0  0  0  0  0
    1.1960    0.6931    0.0003 C   0  0  0  0  0  0  0  0  0  0  0  0
    2.0658    1.1883    0.0002 H   0  0  0  0  0  0  0  0  0  0  0  0
  1  5  1  0
  5  6  1  0
  5  7  2  0
  1  2  1  0
  1  3  1  0
  1  4  1  0
  8 12  1  0
 12 13  2  0
 13 15  1  0
 15 17  2  0
 17 19  1  0
 19 21  2  0
 21 12  1  0
  8  9  1  0
  8 10  1  0
  8 11  1  0
 13 14  1  0
 15 16  1  0
 17 18  1  0
 19 20  1  0
 21 22  1  0
M  CHG  1   6  -1
M  END
>  <PDB_ID>  (604) 
pdb1k9i

>  <RESIDUE_NAME>  (604) 
GLU   PHE

>  <FRAG_NAME>  (604) 
ACET   MBZ

>  <FRAG_ATOM_NUM>  (604) 
fragi: 7  fragj: 15

>  <atom.prop.CHAIN_ID>  (604) 
A A A A A A A Z Z Z Z Z Z Z Z Z Z Z Z Z Z Z

>  <atom.prop.IS_HEAVY_ATOM>  (604) 
1 0 0 0 1 1 1 1 0 0 0 1 1 0 1 0 1 0 1 0 1 0

>  <DIFUSE_FUNC_ATOM>  (604) 
atom 6   atom 7   

>  <FINAL_SINGLE_POINT_ENERGY>  (604) 
0

>  <NONCOV_INTER_ENERGY_QM>  (604) 
0

>  <FF_Energy>  (604) 
1.84

>  <QM_Energy>  (604) 
-3.34

>  <source>  (604) 
ACET_MBZ_00

>  <Index>  (604) 
22001

$$$$
ACET-pdb1k9x-A-GLU-370:MBZ-pdb1k9x-A-PHE-420
     RDKit          3D

 22 21  0  0  0  0  0  0  0  0999 V2000
   -6.1275    1.9219   -0.4611 C   0  0  0  0  0  0  0  0  0  0  0  0
   -6.7613    1.3132   -0.0213 H   0  0  0  0  0  0  0  0  0  0  0  0
   -5.7016    1.5129   -1.2459 H   0  0  0  0  0  0  0  0  0  0  0  0
   -6.6735    2.8067   -0.7885 H   0  0  0  0  0  0  0  0  0  0  0  0
   -5.0191    2.2342    0.5476 C   0  0  0  0  0  0  0  0  0  0  0  0
   -5.1231    3.2547    1.2718 O   0  0  0  0  0  1  0  0  0  0  0  0
   -4.0488    1.4420    0.6274 O   0  0  0  0  0  0  0  0  0  0  0  0
   -0.0024    2.9108   -0.0401 C   0  0  0  0  0  0  0  0  0  0  0  0
   -0.9420    3.2162    0.0019 H   0  0  0  0  0  0  0  0  0  0  0  0
    0.4288    3.1941   -0.8841 H   0  0  0  0  0  0  0  0  0  0  0  0
    0.5364    3.3817    0.7821 H   0  0  0  0  0  0  0  0  0  0  0  0
   -0.0002    1.4049    0.0005 C   0  0  0  0  0  0  0  0  0  0  0  0
   -1.1981    0.6950   -0.0003 C   0  0  0  0  0  0  0  0  0  0  0  0
   -2.0651    1.1842   -0.0021 H   0  0  0  0  0  0  0  0  0  0  0  0
   -1.2044   -0.6998   -0.0000 C   0  0  0  0  0  0  0  0  0  0  0  0
   -2.0803   -1.1910    0.0027 H   0  0  0  0  0  0  0  0  0  0  0  0
   -0.0022   -1.3968   -0.0017 C   0  0  0  0  0  0  0  0  0  0  0  0
   -0.0050   -2.3955   -0.0048 H   0  0  0  0  0  0  0  0  0  0  0  0
    1.2044   -0.6998    0.0000 C   0  0  0  0  0  0  0  0  0  0  0  0
    2.0830   -1.1971    0.0015 H   0  0  0  0  0  0  0  0  0  0  0  0
    1.2006    0.6965    0.0015 C   0  0  0  0  0  0  0  0  0  0  0  0
    2.0669    1.1916    0.0032 H   0  0  0  0  0  0  0  0  0  0  0  0
  1  5  1  0
  5  6  1  0
  5  7  2  0
  1  2  1  0
  1  3  1  0
  1  4  1  0
  8 12  1  0
 12 13  2  0
 13 15  1  0
 15 17  2  0
 17 19  1  0
 19 21  2  0
 21 12  1  0
  8  9  1  0
  8 10  1  0
  8 11  1  0
 13 14  1  0
 15 16  1  0
 17 18  1  0
 19 20  1  0
 21 22  1  0
M  CHG  1   6  -1
M  END
>  <PDB_ID>  (605) 
pdb1k9x

>  <RESIDUE_NAME>  (605) 
GLU   PHE

>  <FRAG_NAME>  (605) 
ACET   MBZ

>  <FRAG_ATOM_NUM>  (605) 
fragi: 7  fragj: 15

>  <atom.prop.CHAIN_ID>  (605) 
A A A A A A A Z Z Z Z Z Z Z Z Z Z Z Z Z Z Z

>  <atom.prop.IS_HEAVY_ATOM>  (605) 
1 0 0 0 1 1 1 1 0 0 0 1 1 0 1 0 1 0 1 0 1 0

>  <DIFUSE_FUNC_ATOM>  (605) 
atom 6   atom 7   

>  <FINAL_SINGLE_POINT_ENERGY>  (605) 
0

>  <NONCOV_INTER_ENERGY_QM>  (605) 
0

>  <FF_Energy>  (605) 
1.61

>  <QM_Energy>  (605) 
-6.8

>  <source>  (605) 
ACET_MBZ_00

>  <Index>  (605) 
22023

$$$$
ACET-pdb1k9x-D-GLU-370:MBZ-pdb1k9x-D-PHE-420
     RDKit          3D

 22 21  0  0  0  0  0  0  0  0999 V2000
   -5.9195    2.2282    0.3277 C   0  0  0  0  0  0  0  0  0  0  0  0
   -6.4814    1.7419    0.9693 H   0  0  0  0  0  0  0  0  0  0  0  0
   -5.7182    1.6950   -0.4719 H   0  0  0  0  0  0  0  0  0  0  0  0
   -6.4601    3.1212    0.0139 H   0  0  0  0  0  0  0  0  0  0  0  0
   -4.6033    2.5459    1.0128 C   0  0  0  0  0  0  0  0  0  0  0  0
   -4.4797    3.6594    1.5690 O   0  0  0  0  0  1  0  0  0  0  0  0
   -3.6944    1.6793    1.0059 O   0  0  0  0  0  0  0  0  0  0  0  0
    0.0040    2.9159   -0.0319 C   0  0  0  0  0  0  0  0  0  0  0  0
   -0.9197    3.2272    0.1378 H   0  0  0  0  0  0  0  0  0  0  0  0
    0.3214    3.2036   -0.9236 H   0  0  0  0  0  0  0  0  0  0  0  0
    0.6513    3.3759    0.7147 H   0  0  0  0  0  0  0  0  0  0  0  0
    0.0029    1.4134    0.0006 C   0  0  0  0  0  0  0  0  0  0  0  0
   -1.2050    0.7078   -0.0003 C   0  0  0  0  0  0  0  0  0  0  0  0
   -2.0672    1.1947   -0.0021 H   0  0  0  0  0  0  0  0  0  0  0  0
   -1.2143   -0.7015   -0.0000 C   0  0  0  0  0  0  0  0  0  0  0  0
   -2.0906   -1.1867    0.0017 H   0  0  0  0  0  0  0  0  0  0  0  0
   -0.0053   -1.4098   -0.0005 C   0  0  0  0  0  0  0  0  0  0  0  0
   -0.0088   -2.4024   -0.0019 H   0  0  0  0  0  0  0  0  0  0  0  0
    1.2143   -0.7061   -0.0000 C   0  0  0  0  0  0  0  0  0  0  0  0
    2.0879   -1.2038    0.0018 H   0  0  0  0  0  0  0  0  0  0  0  0
    1.2073    0.6962    0.0002 C   0  0  0  0  0  0  0  0  0  0  0  0
    2.0740    1.1910   -0.0004 H   0  0  0  0  0  0  0  0  0  0  0  0
  1  5  1  0
  5  6  1  0
  5  7  2  0
  1  2  1  0
  1  3  1  0
  1  4  1  0
  8 12  1  0
 12 13  2  0
 13 15  1  0
 15 17  2  0
 17 19  1  0
 19 21  2  0
 21 12  1  0
  8  9  1  0
  8 10  1  0
  8 11  1  0
 13 14  1  0
 15 16  1  0
 17 18  1  0
 19 20  1  0
 21 22  1  0
M  CHG  1   6  -1
M  END
>  <PDB_ID>  (606) 
pdb1k9x

>  <RESIDUE_NAME>  (606) 
GLU   PHE

>  <FRAG_NAME>  (606) 
ACET   MBZ

>  <FRAG_ATOM_NUM>  (606) 
fragi: 7  fragj: 15

>  <atom.prop.CHAIN_ID>  (606) 
A A A A A A A Z Z Z Z Z Z Z Z Z Z Z Z Z Z Z

>  <atom.prop.IS_HEAVY_ATOM>  (606) 
1 0 0 0 1 1 1 1 0 0 0 1 1 0 1 0 1 0 1 0 1 0

>  <DIFUSE_FUNC_ATOM>  (606) 
atom 6   atom 7   

>  <FINAL_SINGLE_POINT_ENERGY>  (606) 
0

>  <NONCOV_INTER_ENERGY_QM>  (606) 
0

>  <FF_Energy>  (606) 
7.68

>  <QM_Energy>  (606) 
-6.26

>  <source>  (606) 
ACET_MBZ_00

>  <Index>  (606) 
22042

$$$$
ACET-pdb1kag-B-GLU-56:MBZ-pdb1kag-B-PHE-51
     RDKit          3D

 22 21  0  0  0  0  0  0  0  0999 V2000
    5.0300   -3.7300   -0.4466 C   0  0  0  0  0  0  0  0  0  0  0  0
    5.5145   -4.3521   -1.0323 H   0  0  0  0  0  0  0  0  0  0  0  0
    4.9793   -4.0501    0.4802 H   0  0  0  0  0  0  0  0  0  0  0  0
    5.5557   -2.7751   -0.4524 H   0  0  0  0  0  0  0  0  0  0  0  0
    3.6109   -3.6164   -0.9696 C   0  0  0  0  0  0  0  0  0  0  0  0
    3.2066   -2.4993   -1.3518 O   0  0  0  0  0  1  0  0  0  0  0  0
    2.9039   -4.6465   -0.9958 O   0  0  0  0  0  0  0  0  0  0  0  0
   -0.0035    2.8944   -0.0404 C   0  0  0  0  0  0  0  0  0  0  0  0
   -0.9216    3.2069    0.1617 H   0  0  0  0  0  0  0  0  0  0  0  0
    0.2798    3.1824   -0.9444 H   0  0  0  0  0  0  0  0  0  0  0  0
    0.6696    3.3595    0.6797 H   0  0  0  0  0  0  0  0  0  0  0  0
    0.0021    1.4011   -0.0005 C   0  0  0  0  0  0  0  0  0  0  0  0
   -1.1957    0.6961   -0.0006 C   0  0  0  0  0  0  0  0  0  0  0  0
   -2.0621    1.1852   -0.0020 H   0  0  0  0  0  0  0  0  0  0  0  0
   -1.2021   -0.6986   -0.0000 C   0  0  0  0  0  0  0  0  0  0  0  0
   -2.0810   -1.1875    0.0032 H   0  0  0  0  0  0  0  0  0  0  0  0
   -0.0049   -1.3941   -0.0013 C   0  0  0  0  0  0  0  0  0  0  0  0
   -0.0065   -2.3931   -0.0033 H   0  0  0  0  0  0  0  0  0  0  0  0
    1.2021   -0.6982    0.0000 C   0  0  0  0  0  0  0  0  0  0  0  0
    2.0799   -1.1981    0.0013 H   0  0  0  0  0  0  0  0  0  0  0  0
    1.1986    0.6937    0.0023 C   0  0  0  0  0  0  0  0  0  0  0  0
    2.0664    1.1889    0.0050 H   0  0  0  0  0  0  0  0  0  0  0  0
  1  5  1  0
  5  6  1  0
  5  7  2  0
  1  2  1  0
  1  3  1  0
  1  4  1  0
  8 12  1  0
 12 13  2  0
 13 15  1  0
 15 17  2  0
 17 19  1  0
 19 21  2  0
 21 12  1  0
  8  9  1  0
  8 10  1  0
  8 11  1  0
 13 14  1  0
 15 16  1  0
 17 18  1  0
 19 20  1  0
 21 22  1  0
M  CHG  1   6  -1
M  END
>  <PDB_ID>  (607) 
pdb1kag

>  <RESIDUE_NAME>  (607) 
GLU   PHE

>  <FRAG_NAME>  (607) 
ACET   MBZ

>  <FRAG_ATOM_NUM>  (607) 
fragi: 7  fragj: 15

>  <atom.prop.CHAIN_ID>  (607) 
A A A A A A A Z Z Z Z Z Z Z Z Z Z Z Z Z Z Z

>  <atom.prop.IS_HEAVY_ATOM>  (607) 
1 0 0 0 1 1 1 1 0 0 0 1 1 0 1 0 1 0 1 0 1 0

>  <DIFUSE_FUNC_ATOM>  (607) 
atom 6   atom 7   

>  <FINAL_SINGLE_POINT_ENERGY>  (607) 
0

>  <NONCOV_INTER_ENERGY_QM>  (607) 
0

>  <FF_Energy>  (607) 
-0.07

>  <QM_Energy>  (607) 
-5.21

>  <source>  (607) 
ACET_MBZ_00

>  <Index>  (607) 
22115

$$$$
ACET-pdb2oz3-H-GLU-360:MBZ-pdb2oz3-H-PHE-353
     RDKit          3D

 22 21  0  0  0  0  0  0  0  0999 V2000
    0.1377    4.5035   -5.2553 C   0  0  0  0  0  0  0  0  0  0  0  0
   -0.6271    4.5986   -5.8643 H   0  0  0  0  0  0  0  0  0  0  0  0
    0.7387    3.7730   -5.5197 H   0  0  0  0  0  0  0  0  0  0  0  0
    0.7025    5.4357   -5.2653 H   0  0  0  0  0  0  0  0  0  0  0  0
   -0.4112    4.1684   -3.8801 C   0  0  0  0  0  0  0  0  0  0  0  0
    0.1607    4.6384   -2.8722 O   0  0  0  0  0  1  0  0  0  0  0  0
   -1.4114    3.4272   -3.8105 O   0  0  0  0  0  0  0  0  0  0  0  0
    0.0255    2.9402   -0.0043 C   0  0  0  0  0  0  0  0  0  0  0  0
    0.3389    3.2294   -0.8966 H   0  0  0  0  0  0  0  0  0  0  0  0
    0.6494    3.2307    0.7058 H   0  0  0  0  0  0  0  0  0  0  0  0
   -0.9370    3.4164    0.1823 H   0  0  0  0  0  0  0  0  0  0  0  0
   -0.0008    1.4136    0.0016 C   0  0  0  0  0  0  0  0  0  0  0  0
   -1.1985    0.6913    0.0005 C   0  0  0  0  0  0  0  0  0  0  0  0
   -2.0674    1.1800   -0.0011 H   0  0  0  0  0  0  0  0  0  0  0  0
   -1.2027   -0.7034    0.0000 C   0  0  0  0  0  0  0  0  0  0  0  0
   -2.0768   -1.1979    0.0025 H   0  0  0  0  0  0  0  0  0  0  0  0
    0.0042   -1.4006   -0.0019 C   0  0  0  0  0  0  0  0  0  0  0  0
   -0.0005   -2.3983   -0.0049 H   0  0  0  0  0  0  0  0  0  0  0  0
    1.2027   -0.7011   -0.0000 C   0  0  0  0  0  0  0  0  0  0  0  0
    2.0863   -1.1917    0.0027 H   0  0  0  0  0  0  0  0  0  0  0  0
    1.1951    0.7002   -0.0001 C   0  0  0  0  0  0  0  0  0  0  0  0
    2.0652    1.1927   -0.0022 H   0  0  0  0  0  0  0  0  0  0  0  0
  1  5  1  0
  5  6  1  0
  5  7  2  0
  1  2  1  0
  1  3  1  0
  1  4  1  0
  8 12  1  0
 12 13  2  0
 13 15  1  0
 15 17  2  0
 17 19  1  0
 19 21  2  0
 21 12  1  0
  8  9  1  0
  8 10  1  0
  8 11  1  0
 13 14  1  0
 15 16  1  0
 17 18  1  0
 19 20  1  0
 21 22  1  0
M  CHG  1   6  -1
M  END
>  <PDB_ID>  (608) 
pdb2oz3

>  <RESIDUE_NAME>  (608) 
GLU   PHE

>  <FRAG_NAME>  (608) 
ACET   MBZ

>  <FRAG_ATOM_NUM>  (608) 
fragi: 7  fragj: 15

>  <atom.prop.CHAIN_ID>  (608) 
A A A A A A A Z Z Z Z Z Z Z Z Z Z Z Z Z Z Z

>  <atom.prop.IS_HEAVY_ATOM>  (608) 
1 0 0 0 1 1 1 1 0 0 0 1 1 0 1 0 1 0 1 0 1 0

>  <DIFUSE_FUNC_ATOM>  (608) 
atom 6   atom 7   

>  <FINAL_SINGLE_POINT_ENERGY>  (608) 
0

>  <NONCOV_INTER_ENERGY_QM>  (608) 
0

>  <FF_Energy>  (608) 
0.01

>  <QM_Energy>  (608) 
-5.08

>  <source>  (608) 
ACET_MBZ_00

>  <Index>  (608) 
22237

$$$$
ACET-pdb2ozv-B-GLU-185:MBZ-pdb2ozv-B-PHE-157
     RDKit          3D

 22 21  0  0  0  0  0  0  0  0999 V2000
    3.1502    3.1864    1.9302 C   0  0  0  0  0  0  0  0  0  0  0  0
    2.1994    3.1430    1.6585 H   0  0  0  0  0  0  0  0  0  0  0  0
    3.4264    4.1188    2.1138 H   0  0  0  0  0  0  0  0  0  0  0  0
    3.2631    2.6133    2.8505 H   0  0  0  0  0  0  0  0  0  0  0  0
    3.9882    2.6962    0.7257 C   0  0  0  0  0  0  0  0  0  0  0  0
    4.9814    1.9625    0.9087 O   0  0  0  0  0  1  0  0  0  0  0  0
    3.6650    3.0819   -0.4237 O   0  0  0  0  0  0  0  0  0  0  0  0
   -0.0158    2.9163    0.0072 C   0  0  0  0  0  0  0  0  0  0  0  0
    0.8884    3.2206    0.2493 H   0  0  0  0  0  0  0  0  0  0  0  0
   -0.6922    3.2114    0.6584 H   0  0  0  0  0  0  0  0  0  0  0  0
   -0.2695    3.3455   -0.9621 H   0  0  0  0  0  0  0  0  0  0  0  0
   -0.0086    1.4042   -0.0000 C   0  0  0  0  0  0  0  0  0  0  0  0
   -1.1965    0.6944    0.0001 C   0  0  0  0  0  0  0  0  0  0  0  0
   -2.0700    1.1678   -0.0006 H   0  0  0  0  0  0  0  0  0  0  0  0
   -1.1977   -0.7203    0.0000 C   0  0  0  0  0  0  0  0  0  0  0  0
   -2.0693   -1.2053    0.0019 H   0  0  0  0  0  0  0  0  0  0  0  0
    0.0081   -1.3901   -0.0001 C   0  0  0  0  0  0  0  0  0  0  0  0
    0.0136   -2.3990   -0.0012 H   0  0  0  0  0  0  0  0  0  0  0  0
    1.1977   -0.6965    0.0000 C   0  0  0  0  0  0  0  0  0  0  0  0
    2.0863   -1.1846    0.0016 H   0  0  0  0  0  0  0  0  0  0  0  0
    1.1970    0.7083    0.0000 C   0  0  0  0  0  0  0  0  0  0  0  0
    2.0590    1.1993   -0.0011 H   0  0  0  0  0  0  0  0  0  0  0  0
  1  5  1  0
  5  6  1  0
  5  7  2  0
  1  2  1  0
  1  3  1  0
  1  4  1  0
  8 12  1  0
 12 13  2  0
 13 15  1  0
 15 17  2  0
 17 19  1  0
 19 21  2  0
 21 12  1  0
  8  9  1  0
  8 10  1  0
  8 11  1  0
 13 14  1  0
 15 16  1  0
 17 18  1  0
 19 20  1  0
 21 22  1  0
M  CHG  1   6  -1
M  END
>  <PDB_ID>  (609) 
pdb2ozv

>  <RESIDUE_NAME>  (609) 
GLU   PHE

>  <FRAG_NAME>  (609) 
ACET   MBZ

>  <FRAG_ATOM_NUM>  (609) 
fragi: 7  fragj: 15

>  <atom.prop.CHAIN_ID>  (609) 
A A A A A A A Z Z Z Z Z Z Z Z Z Z Z Z Z Z Z

>  <atom.prop.IS_HEAVY_ATOM>  (609) 
1 0 0 0 1 1 1 1 0 0 0 1 1 0 1 0 1 0 1 0 1 0

>  <DIFUSE_FUNC_ATOM>  (609) 
atom 6   atom 7   

>  <FINAL_SINGLE_POINT_ENERGY>  (609) 
0

>  <NONCOV_INTER_ENERGY_QM>  (609) 
0

>  <FF_Energy>  (609) 
-0.84

>  <QM_Energy>  (609) 
-6.47

>  <source>  (609) 
ACET_MBZ_00

>  <Index>  (609) 
22261

$$$$
ACET-pdb1kfi-A-GLU-175:MBZ-pdb1kfi-A-PHE-76
     RDKit          3D

 22 21  0  0  0  0  0  0  0  0999 V2000
   -1.1097    0.8029    4.6993 C   0  0  0  0  0  0  0  0  0  0  0  0
   -2.0771    0.9299    4.5945 H   0  0  0  0  0  0  0  0  0  0  0  0
   -0.7775    1.1425    5.5588 H   0  0  0  0  0  0  0  0  0  0  0  0
   -0.9021   -0.2662    4.6536 H   0  0  0  0  0  0  0  0  0  0  0  0
   -0.4188    1.5673    3.6007 C   0  0  0  0  0  0  0  0  0  0  0  0
   -0.5733    2.8032    3.5437 O   0  0  0  0  0  1  0  0  0  0  0  0
    0.2900    0.9252    2.7980 O   0  0  0  0  0  0  0  0  0  0  0  0
   -0.0112    2.9069   -0.0774 C   0  0  0  0  0  0  0  0  0  0  0  0
    0.9092    3.2264    0.0704 H   0  0  0  0  0  0  0  0  0  0  0  0
   -0.6327    3.2452    0.6079 H   0  0  0  0  0  0  0  0  0  0  0  0
   -0.3438    3.2837   -1.0446 H   0  0  0  0  0  0  0  0  0  0  0  0
   -0.0038    1.4063   -0.0016 C   0  0  0  0  0  0  0  0  0  0  0  0
   -1.2034    0.6953    0.0012 C   0  0  0  0  0  0  0  0  0  0  0  0
   -2.0681    1.1854    0.0030 H   0  0  0  0  0  0  0  0  0  0  0  0
   -1.2050   -0.6944   -0.0000 C   0  0  0  0  0  0  0  0  0  0  0  0
   -2.0749   -1.1954    0.0011 H   0  0  0  0  0  0  0  0  0  0  0  0
    0.0114   -1.3994   -0.0013 C   0  0  0  0  0  0  0  0  0  0  0  0
   -0.0035   -2.3956   -0.0032 H   0  0  0  0  0  0  0  0  0  0  0  0
    1.2050   -0.7045    0.0000 C   0  0  0  0  0  0  0  0  0  0  0  0
    2.0902   -1.1924    0.0017 H   0  0  0  0  0  0  0  0  0  0  0  0
    1.1958    0.6967    0.0017 C   0  0  0  0  0  0  0  0  0  0  0  0
    2.0638    1.1910    0.0044 H   0  0  0  0  0  0  0  0  0  0  0  0
  1  5  1  0
  5  6  1  0
  5  7  2  0
  1  2  1  0
  1  3  1  0
  1  4  1  0
  8 12  1  0
 12 13  2  0
 13 15  1  0
 15 17  2  0
 17 19  1  0
 19 21  2  0
 21 12  1  0
  8  9  1  0
  8 10  1  0
  8 11  1  0
 13 14  1  0
 15 16  1  0
 17 18  1  0
 19 20  1  0
 21 22  1  0
M  CHG  1   6  -1
M  END
>  <PDB_ID>  (610) 
pdb1kfi

>  <RESIDUE_NAME>  (610) 
GLU   PHE

>  <FRAG_NAME>  (610) 
ACET   MBZ

>  <FRAG_ATOM_NUM>  (610) 
fragi: 7  fragj: 15

>  <atom.prop.CHAIN_ID>  (610) 
A A A A A A A Z Z Z Z Z Z Z Z Z Z Z Z Z Z Z

>  <atom.prop.IS_HEAVY_ATOM>  (610) 
1 0 0 0 1 1 1 1 0 0 0 1 1 0 1 0 1 0 1 0 1 0

>  <DIFUSE_FUNC_ATOM>  (610) 
atom 6   atom 7   

>  <FINAL_SINGLE_POINT_ENERGY>  (610) 
0

>  <NONCOV_INTER_ENERGY_QM>  (610) 
0

>  <FF_Energy>  (610) 
6.98

>  <QM_Energy>  (610) 
-0.58

>  <source>  (610) 
ACET_MBZ_00

>  <Index>  (610) 
22269

$$$$
ACET-pdb2ou4-C-GLU-229:MBZ-pdb2ou4-C-PHE-196
     RDKit          3D

 22 21  0  0  0  0  0  0  0  0999 V2000
   -1.6439    5.7200   -3.1951 C   0  0  0  0  0  0  0  0  0  0  0  0
   -0.7819    6.0254   -2.8318 H   0  0  0  0  0  0  0  0  0  0  0  0
   -2.2373    6.4728   -3.4212 H   0  0  0  0  0  0  0  0  0  0  0  0
   -1.4474    5.1545   -4.1059 H   0  0  0  0  0  0  0  0  0  0  0  0
   -2.3371    4.9056   -2.1026 C   0  0  0  0  0  0  0  0  0  0  0  0
   -3.2696    4.1282   -2.4070 O   0  0  0  0  0  1  0  0  0  0  0  0
   -1.9556    5.0558   -0.9243 O   0  0  0  0  0  0  0  0  0  0  0  0
    0.0093    2.9040   -0.0163 C   0  0  0  0  0  0  0  0  0  0  0  0
   -0.8514    3.2113   -0.3948 H   0  0  0  0  0  0  0  0  0  0  0  0
    0.7713    3.1995   -0.5729 H   0  0  0  0  0  0  0  0  0  0  0  0
    0.1206    3.3546    0.9699 H   0  0  0  0  0  0  0  0  0  0  0  0
    0.0005    1.4045    0.0017 C   0  0  0  0  0  0  0  0  0  0  0  0
   -1.1994    0.6959    0.0014 C   0  0  0  0  0  0  0  0  0  0  0  0
   -2.0648    1.1842    0.0009 H   0  0  0  0  0  0  0  0  0  0  0  0
   -1.2055   -0.7018   -0.0000 C   0  0  0  0  0  0  0  0  0  0  0  0
   -2.0806   -1.1928    0.0038 H   0  0  0  0  0  0  0  0  0  0  0  0
   -0.0007   -1.3991   -0.0043 C   0  0  0  0  0  0  0  0  0  0  0  0
   -0.0007   -2.3954   -0.0104 H   0  0  0  0  0  0  0  0  0  0  0  0
    1.2055   -0.6957    0.0000 C   0  0  0  0  0  0  0  0  0  0  0  0
    2.0850   -1.1948    0.0036 H   0  0  0  0  0  0  0  0  0  0  0  0
    1.1996    0.6961    0.0013 C   0  0  0  0  0  0  0  0  0  0  0  0
    2.0666    1.1933    0.0013 H   0  0  0  0  0  0  0  0  0  0  0  0
  1  5  1  0
  5  6  1  0
  5  7  2  0
  1  2  1  0
  1  3  1  0
  1  4  1  0
  8 12  1  0
 12 13  2  0
 13 15  1  0
 15 17  2  0
 17 19  1  0
 19 21  2  0
 21 12  1  0
  8  9  1  0
  8 10  1  0
  8 11  1  0
 13 14  1  0
 15 16  1  0
 17 18  1  0
 19 20  1  0
 21 22  1  0
M  CHG  1   6  -1
M  END
>  <PDB_ID>  (611) 
pdb2ou4

>  <RESIDUE_NAME>  (611) 
GLU   PHE

>  <FRAG_NAME>  (611) 
ACET   MBZ

>  <FRAG_ATOM_NUM>  (611) 
fragi: 7  fragj: 15

>  <atom.prop.CHAIN_ID>  (611) 
A A A A A A A Z Z Z Z Z Z Z Z Z Z Z Z Z Z Z

>  <atom.prop.IS_HEAVY_ATOM>  (611) 
1 0 0 0 1 1 1 1 0 0 0 1 1 0 1 0 1 0 1 0 1 0

>  <DIFUSE_FUNC_ATOM>  (611) 
atom 6   atom 7   

>  <FINAL_SINGLE_POINT_ENERGY>  (611) 
0

>  <NONCOV_INTER_ENERGY_QM>  (611) 
0

>  <FF_Energy>  (611) 
0.27

>  <QM_Energy>  (611) 
-5.56

>  <source>  (611) 
ACET_MBZ_00

>  <Index>  (611) 
22276

$$$$
ACET-pdb1kfi-B-GLU-175:MBZ-pdb1kfi-B-PHE-76
     RDKit          3D

 22 21  0  0  0  0  0  0  0  0999 V2000
   -0.6067    0.0555    4.7077 C   0  0  0  0  0  0  0  0  0  0  0  0
   -1.4627   -0.1336    5.1526 H   0  0  0  0  0  0  0  0  0  0  0  0
    0.1200    0.2143    5.3502 H   0  0  0  0  0  0  0  0  0  0  0  0
   -0.3420   -0.8029    4.0904 H   0  0  0  0  0  0  0  0  0  0  0  0
   -0.7840    1.3255    3.8974 C   0  0  0  0  0  0  0  0  0  0  0  0
    0.2171    1.8083    3.3316 O   0  0  0  0  0  1  0  0  0  0  0  0
   -1.9201    1.8398    3.8229 O   0  0  0  0  0  0  0  0  0  0  0  0
   -0.0171    2.8990   -0.0635 C   0  0  0  0  0  0  0  0  0  0  0  0
    0.9058    3.2229    0.0593 H   0  0  0  0  0  0  0  0  0  0  0  0
   -0.6189    3.2305    0.6440 H   0  0  0  0  0  0  0  0  0  0  0  0
   -0.3804    3.2851   -1.0159 H   0  0  0  0  0  0  0  0  0  0  0  0
   -0.0013    1.4006   -0.0008 C   0  0  0  0  0  0  0  0  0  0  0  0
   -1.1986    0.6848    0.0011 C   0  0  0  0  0  0  0  0  0  0  0  0
   -2.0662    1.1765    0.0019 H   0  0  0  0  0  0  0  0  0  0  0  0
   -1.2011   -0.7010   -0.0000 C   0  0  0  0  0  0  0  0  0  0  0  0
   -2.0743   -1.1998    0.0015 H   0  0  0  0  0  0  0  0  0  0  0  0
    0.0050   -1.3925   -0.0014 C   0  0  0  0  0  0  0  0  0  0  0  0
    0.0027   -2.3919   -0.0037 H   0  0  0  0  0  0  0  0  0  0  0  0
    1.2011   -0.6929    0.0000 C   0  0  0  0  0  0  0  0  0  0  0  0
    2.0859   -1.1867    0.0020 H   0  0  0  0  0  0  0  0  0  0  0  0
    1.1950    0.7010    0.0011 C   0  0  0  0  0  0  0  0  0  0  0  0
    2.0621    1.1958    0.0023 H   0  0  0  0  0  0  0  0  0  0  0  0
  1  5  1  0
  5  6  1  0
  5  7  2  0
  1  2  1  0
  1  3  1  0
  1  4  1  0
  8 12  1  0
 12 13  2  0
 13 15  1  0
 15 17  2  0
 17 19  1  0
 19 21  2  0
 21 12  1  0
  8  9  1  0
  8 10  1  0
  8 11  1  0
 13 14  1  0
 15 16  1  0
 17 18  1  0
 19 20  1  0
 21 22  1  0
M  CHG  1   6  -1
M  END
>  <PDB_ID>  (612) 
pdb1kfi

>  <RESIDUE_NAME>  (612) 
GLU   PHE

>  <FRAG_NAME>  (612) 
ACET   MBZ

>  <FRAG_ATOM_NUM>  (612) 
fragi: 7  fragj: 15

>  <atom.prop.CHAIN_ID>  (612) 
A A A A A A A Z Z Z Z Z Z Z Z Z Z Z Z Z Z Z

>  <atom.prop.IS_HEAVY_ATOM>  (612) 
1 0 0 0 1 1 1 1 0 0 0 1 1 0 1 0 1 0 1 0 1 0

>  <DIFUSE_FUNC_ATOM>  (612) 
atom 6   atom 7   

>  <FINAL_SINGLE_POINT_ENERGY>  (612) 
0

>  <NONCOV_INTER_ENERGY_QM>  (612) 
0

>  <FF_Energy>  (612) 
1.96

>  <QM_Energy>  (612) 
-3.08

>  <source>  (612) 
ACET_MBZ_00

>  <Index>  (612) 
22278

$$$$
ACET-pdb1kfu-S-ASP-937:MBZ-pdb1kfu-S-PHE-903
     RDKit          3D

 22 21  0  0  0  0  0  0  0  0999 V2000
    0.6153   -4.6684   -0.7095 C   0  0  0  0  0  0  0  0  0  0  0  0
    0.1018   -3.8899   -0.3756 H   0  0  0  0  0  0  0  0  0  0  0  0
    0.1635   -5.0842   -1.4859 H   0  0  0  0  0  0  0  0  0  0  0  0
    1.5961   -4.3185   -1.0315 H   0  0  0  0  0  0  0  0  0  0  0  0
    0.7223   -5.6926    0.3988 C   0  0  0  0  0  0  0  0  0  0  0  0
    0.4219   -6.8943    0.1651 O   0  0  0  0  0  1  0  0  0  0  0  0
    1.1452   -5.2895    1.5037 O   0  0  0  0  0  0  0  0  0  0  0  0
    0.0011    2.9044    0.0152 C   0  0  0  0  0  0  0  0  0  0  0  0
   -0.8675    3.2142   -0.3415 H   0  0  0  0  0  0  0  0  0  0  0  0
    0.7527    3.2161   -0.5472 H   0  0  0  0  0  0  0  0  0  0  0  0
    0.1267    3.3361    1.0081 H   0  0  0  0  0  0  0  0  0  0  0  0
    0.0010    1.4005    0.0003 C   0  0  0  0  0  0  0  0  0  0  0  0
   -1.1945    0.6873   -0.0005 C   0  0  0  0  0  0  0  0  0  0  0  0
   -2.0615    1.1793   -0.0033 H   0  0  0  0  0  0  0  0  0  0  0  0
   -1.1962   -0.6962    0.0000 C   0  0  0  0  0  0  0  0  0  0  0  0
   -2.0768   -1.1905    0.0020 H   0  0  0  0  0  0  0  0  0  0  0  0
   -0.0060   -1.3857   -0.0004 C   0  0  0  0  0  0  0  0  0  0  0  0
   -0.0071   -2.3886   -0.0011 H   0  0  0  0  0  0  0  0  0  0  0  0
    1.1962   -0.6957   -0.0000 C   0  0  0  0  0  0  0  0  0  0  0  0
    2.0758   -1.2002    0.0010 H   0  0  0  0  0  0  0  0  0  0  0  0
    1.1996    0.6897    0.0006 C   0  0  0  0  0  0  0  0  0  0  0  0
    2.0662    1.1856    0.0000 H   0  0  0  0  0  0  0  0  0  0  0  0
  1  5  1  0
  5  6  1  0
  5  7  2  0
  1  2  1  0
  1  3  1  0
  1  4  1  0
  8 12  1  0
 12 13  2  0
 13 15  1  0
 15 17  2  0
 17 19  1  0
 19 21  2  0
 21 12  1  0
  8  9  1  0
  8 10  1  0
  8 11  1  0
 13 14  1  0
 15 16  1  0
 17 18  1  0
 19 20  1  0
 21 22  1  0
M  CHG  1   6  -1
M  END
>  <PDB_ID>  (613) 
pdb1kfu

>  <RESIDUE_NAME>  (613) 
ASP   PHE

>  <FRAG_NAME>  (613) 
ACET   MBZ

>  <FRAG_ATOM_NUM>  (613) 
fragi: 7  fragj: 15

>  <atom.prop.CHAIN_ID>  (613) 
A A A A A A A Z Z Z Z Z Z Z Z Z Z Z Z Z Z Z

>  <atom.prop.IS_HEAVY_ATOM>  (613) 
1 0 0 0 1 1 1 1 0 0 0 1 1 0 1 0 1 0 1 0 1 0

>  <DIFUSE_FUNC_ATOM>  (613) 
atom 6   atom 7   

>  <FINAL_SINGLE_POINT_ENERGY>  (613) 
0

>  <NONCOV_INTER_ENERGY_QM>  (613) 
0

>  <FF_Energy>  (613) 
19.81

>  <QM_Energy>  (613) 
1.41

>  <source>  (613) 
ACET_MBZ_00

>  <Index>  (613) 
22285

$$$$
ACET-pdb2p0g-A-GLU-34:MBZ-pdb2p0g-A-PHE-31
     RDKit          3D

 22 21  0  0  0  0  0  0  0  0999 V2000
   -4.4405    4.0354    1.5984 C   0  0  0  0  0  0  0  0  0  0  0  0
   -4.7406    3.1351    1.8489 H   0  0  0  0  0  0  0  0  0  0  0  0
   -5.1511    4.7061    1.6882 H   0  0  0  0  0  0  0  0  0  0  0  0
   -3.6156    4.3168    2.2530 H   0  0  0  0  0  0  0  0  0  0  0  0
   -4.0324    3.9932    0.1364 C   0  0  0  0  0  0  0  0  0  0  0  0
   -3.2018    3.1277   -0.2198 O   0  0  0  0  0  1  0  0  0  0  0  0
   -4.5387    4.8200   -0.6520 O   0  0  0  0  0  0  0  0  0  0  0  0
    0.0082    2.9087   -0.0150 C   0  0  0  0  0  0  0  0  0  0  0  0
    0.9199    3.2121    0.2157 H   0  0  0  0  0  0  0  0  0  0  0  0
   -0.6548    3.2235    0.6467 H   0  0  0  0  0  0  0  0  0  0  0  0
   -0.2536    3.3410   -0.9808 H   0  0  0  0  0  0  0  0  0  0  0  0
    0.0007    1.4044   -0.0016 C   0  0  0  0  0  0  0  0  0  0  0  0
   -1.1987    0.6955   -0.0009 C   0  0  0  0  0  0  0  0  0  0  0  0
   -2.0646    1.1833   -0.0025 H   0  0  0  0  0  0  0  0  0  0  0  0
   -1.2028   -0.7015   -0.0000 C   0  0  0  0  0  0  0  0  0  0  0  0
   -2.0779   -1.1938    0.0006 H   0  0  0  0  0  0  0  0  0  0  0  0
    0.0019   -1.3969    0.0019 C   0  0  0  0  0  0  0  0  0  0  0  0
    0.0000   -2.3949    0.0045 H   0  0  0  0  0  0  0  0  0  0  0  0
    1.2028   -0.6966   -0.0000 C   0  0  0  0  0  0  0  0  0  0  0  0
    2.0845   -1.1926   -0.0002 H   0  0  0  0  0  0  0  0  0  0  0  0
    1.1961    0.6952    0.0005 C   0  0  0  0  0  0  0  0  0  0  0  0
    2.0652    1.1916    0.0016 H   0  0  0  0  0  0  0  0  0  0  0  0
  1  5  1  0
  5  6  1  0
  5  7  2  0
  1  2  1  0
  1  3  1  0
  1  4  1  0
  8 12  1  0
 12 13  2  0
 13 15  1  0
 15 17  2  0
 17 19  1  0
 19 21  2  0
 21 12  1  0
  8  9  1  0
  8 10  1  0
  8 11  1  0
 13 14  1  0
 15 16  1  0
 17 18  1  0
 19 20  1  0
 21 22  1  0
M  CHG  1   6  -1
M  END
>  <PDB_ID>  (614) 
pdb2p0g

>  <RESIDUE_NAME>  (614) 
GLU   PHE

>  <FRAG_NAME>  (614) 
ACET   MBZ

>  <FRAG_ATOM_NUM>  (614) 
fragi: 7  fragj: 15

>  <atom.prop.CHAIN_ID>  (614) 
A A A A A A A Z Z Z Z Z Z Z Z Z Z Z Z Z Z Z

>  <atom.prop.IS_HEAVY_ATOM>  (614) 
1 0 0 0 1 1 1 1 0 0 0 1 1 0 1 0 1 0 1 0 1 0

>  <DIFUSE_FUNC_ATOM>  (614) 
atom 6   atom 7   

>  <FINAL_SINGLE_POINT_ENERGY>  (614) 
0

>  <NONCOV_INTER_ENERGY_QM>  (614) 
0

>  <FF_Energy>  (614) 
-0.84

>  <QM_Energy>  (614) 
-7.93

>  <source>  (614) 
ACET_MBZ_00

>  <Index>  (614) 
22317

$$$$
ACET-pdb2p0g-B-GLU-34:MBZ-pdb2p0g-B-PHE-31
     RDKit          3D

 22 21  0  0  0  0  0  0  0  0999 V2000
   -4.4816    4.0779    1.5393 C   0  0  0  0  0  0  0  0  0  0  0  0
   -4.8064    3.1900    1.7917 H   0  0  0  0  0  0  0  0  0  0  0  0
   -5.1724    4.7689    1.6018 H   0  0  0  0  0  0  0  0  0  0  0  0
   -3.6562    4.3473    2.1983 H   0  0  0  0  0  0  0  0  0  0  0  0
   -4.0477    4.0026    0.0717 C   0  0  0  0  0  0  0  0  0  0  0  0
   -3.2572    3.0858   -0.2695 O   0  0  0  0  0  1  0  0  0  0  0  0
   -4.4911    4.8605   -0.7301 O   0  0  0  0  0  0  0  0  0  0  0  0
    0.0045    2.9177    0.0037 C   0  0  0  0  0  0  0  0  0  0  0  0
    0.9082    3.2180    0.2679 H   0  0  0  0  0  0  0  0  0  0  0  0
   -0.6803    3.2229    0.6483 H   0  0  0  0  0  0  0  0  0  0  0  0
   -0.2258    3.3647   -0.9635 H   0  0  0  0  0  0  0  0  0  0  0  0
   -0.0006    1.4071    0.0004 C   0  0  0  0  0  0  0  0  0  0  0  0
   -1.1977    0.6973   -0.0008 C   0  0  0  0  0  0  0  0  0  0  0  0
   -2.0652    1.1838   -0.0035 H   0  0  0  0  0  0  0  0  0  0  0  0
   -1.2032   -0.7013    0.0000 C   0  0  0  0  0  0  0  0  0  0  0  0
   -2.0793   -1.1920    0.0018 H   0  0  0  0  0  0  0  0  0  0  0  0
    0.0013   -1.3993    0.0005 C   0  0  0  0  0  0  0  0  0  0  0  0
   -0.0017   -2.3958    0.0007 H   0  0  0  0  0  0  0  0  0  0  0  0
    1.2032   -0.6993    0.0000 C   0  0  0  0  0  0  0  0  0  0  0  0
    2.0849   -1.1948    0.0009 H   0  0  0  0  0  0  0  0  0  0  0  0
    1.1970    0.6955   -0.0001 C   0  0  0  0  0  0  0  0  0  0  0  0
    2.0655    1.1916   -0.0012 H   0  0  0  0  0  0  0  0  0  0  0  0
  1  5  1  0
  5  6  1  0
  5  7  2  0
  1  2  1  0
  1  3  1  0
  1  4  1  0
  8 12  1  0
 12 13  2  0
 13 15  1  0
 15 17  2  0
 17 19  1  0
 19 21  2  0
 21 12  1  0
  8  9  1  0
  8 10  1  0
  8 11  1  0
 13 14  1  0
 15 16  1  0
 17 18  1  0
 19 20  1  0
 21 22  1  0
M  CHG  1   6  -1
M  END
>  <PDB_ID>  (615) 
pdb2p0g

>  <RESIDUE_NAME>  (615) 
GLU   PHE

>  <FRAG_NAME>  (615) 
ACET   MBZ

>  <FRAG_ATOM_NUM>  (615) 
fragi: 7  fragj: 15

>  <atom.prop.CHAIN_ID>  (615) 
A A A A A A A Z Z Z Z Z Z Z Z Z Z Z Z Z Z Z

>  <atom.prop.IS_HEAVY_ATOM>  (615) 
1 0 0 0 1 1 1 1 0 0 0 1 1 0 1 0 1 0 1 0 1 0

>  <DIFUSE_FUNC_ATOM>  (615) 
atom 6   atom 7   

>  <FINAL_SINGLE_POINT_ENERGY>  (615) 
0

>  <NONCOV_INTER_ENERGY_QM>  (615) 
0

>  <FF_Energy>  (615) 
-0.91

>  <QM_Energy>  (615) 
-7.88

>  <source>  (615) 
ACET_MBZ_00

>  <Index>  (615) 
22318

$$$$
ACET-pdb2p0g-D-GLU-34:MBZ-pdb2p0g-D-PHE-31
     RDKit          3D

 22 21  0  0  0  0  0  0  0  0999 V2000
   -4.4699    4.0530    1.4777 C   0  0  0  0  0  0  0  0  0  0  0  0
   -4.7659    3.1519    1.7263 H   0  0  0  0  0  0  0  0  0  0  0  0
   -5.1849    4.7203    1.5557 H   0  0  0  0  0  0  0  0  0  0  0  0
   -3.6548    4.3415    2.1414 H   0  0  0  0  0  0  0  0  0  0  0  0
   -4.0401    4.0100    0.0231 C   0  0  0  0  0  0  0  0  0  0  0  0
   -3.2110    3.1397   -0.3204 O   0  0  0  0  0  1  0  0  0  0  0  0
   -4.5291    4.8425   -0.7727 O   0  0  0  0  0  0  0  0  0  0  0  0
    0.0064    2.9031   -0.0471 C   0  0  0  0  0  0  0  0  0  0  0  0
    0.9147    3.2131    0.1919 H   0  0  0  0  0  0  0  0  0  0  0  0
   -0.6670    3.2326    0.5981 H   0  0  0  0  0  0  0  0  0  0  0  0
   -0.2404    3.3134   -1.0263 H   0  0  0  0  0  0  0  0  0  0  0  0
    0.0004    1.4040    0.0002 C   0  0  0  0  0  0  0  0  0  0  0  0
   -1.1978    0.6957    0.0008 C   0  0  0  0  0  0  0  0  0  0  0  0
   -2.0642    1.1866    0.0008 H   0  0  0  0  0  0  0  0  0  0  0  0
   -1.2046   -0.6981    0.0000 C   0  0  0  0  0  0  0  0  0  0  0  0
   -2.0805   -1.1904    0.0019 H   0  0  0  0  0  0  0  0  0  0  0  0
   -0.0008   -1.3976   -0.0017 C   0  0  0  0  0  0  0  0  0  0  0  0
   -0.0051   -2.3946   -0.0046 H   0  0  0  0  0  0  0  0  0  0  0  0
    1.2046   -0.6995    0.0000 C   0  0  0  0  0  0  0  0  0  0  0  0
    2.0840   -1.1959    0.0025 H   0  0  0  0  0  0  0  0  0  0  0  0
    1.1982    0.6954    0.0007 C   0  0  0  0  0  0  0  0  0  0  0  0
    2.0662    1.1908    0.0007 H   0  0  0  0  0  0  0  0  0  0  0  0
  1  5  1  0
  5  6  1  0
  5  7  2  0
  1  2  1  0
  1  3  1  0
  1  4  1  0
  8 12  1  0
 12 13  2  0
 13 15  1  0
 15 17  2  0
 17 19  1  0
 19 21  2  0
 21 12  1  0
  8  9  1  0
  8 10  1  0
  8 11  1  0
 13 14  1  0
 15 16  1  0
 17 18  1  0
 19 20  1  0
 21 22  1  0
M  CHG  1   6  -1
M  END
>  <PDB_ID>  (616) 
pdb2p0g

>  <RESIDUE_NAME>  (616) 
GLU   PHE

>  <FRAG_NAME>  (616) 
ACET   MBZ

>  <FRAG_ATOM_NUM>  (616) 
fragi: 7  fragj: 15

>  <atom.prop.CHAIN_ID>  (616) 
A A A A A A A Z Z Z Z Z Z Z Z Z Z Z Z Z Z Z

>  <atom.prop.IS_HEAVY_ATOM>  (616) 
1 0 0 0 1 1 1 1 0 0 0 1 1 0 1 0 1 0 1 0 1 0

>  <DIFUSE_FUNC_ATOM>  (616) 
atom 6   atom 7   

>  <FINAL_SINGLE_POINT_ENERGY>  (616) 
0

>  <NONCOV_INTER_ENERGY_QM>  (616) 
0

>  <FF_Energy>  (616) 
-1.07

>  <QM_Energy>  (616) 
-7.87

>  <source>  (616) 
ACET_MBZ_00

>  <Index>  (616) 
22320

$$$$
ACET-pdb1khb-A-ASP-310:MBZ-pdb1khb-A-PHE-332
     RDKit          3D

 22 21  0  0  0  0  0  0  0  0999 V2000
    4.0298    0.4551   -2.7097 C   0  0  0  0  0  0  0  0  0  0  0  0
    4.1071    0.6810   -3.6724 H   0  0  0  0  0  0  0  0  0  0  0  0
    3.2545   -0.1416   -2.5504 H   0  0  0  0  0  0  0  0  0  0  0  0
    4.9339   -0.0769   -2.4135 H   0  0  0  0  0  0  0  0  0  0  0  0
    3.8073    1.7596   -1.9229 C   0  0  0  0  0  0  0  0  0  0  0  0
    4.2642    1.8928   -0.7510 O   0  0  0  0  0  1  0  0  0  0  0  0
    3.0956    2.6979   -2.4187 O   0  0  0  0  0  0  0  0  0  0  0  0
    0.0398    2.9081    0.0069 C   0  0  0  0  0  0  0  0  0  0  0  0
   -0.8822    3.2458    0.0349 H   0  0  0  0  0  0  0  0  0  0  0  0
    0.5335    3.2309   -0.7788 H   0  0  0  0  0  0  0  0  0  0  0  0
    0.5492    3.3051    0.8851 H   0  0  0  0  0  0  0  0  0  0  0  0
    0.0020    1.4054   -0.0292 C   0  0  0  0  0  0  0  0  0  0  0  0
   -1.1950    0.7114    0.0128 C   0  0  0  0  0  0  0  0  0  0  0  0
   -2.0600    1.1713    0.0498 H   0  0  0  0  0  0  0  0  0  0  0  0
   -1.1802   -0.7234   -0.0000 C   0  0  0  0  0  0  0  0  0  0  0  0
   -2.0572   -1.2030   -0.0302 H   0  0  0  0  0  0  0  0  0  0  0  0
    0.0200   -1.3918    0.0308 C   0  0  0  0  0  0  0  0  0  0  0  0
    0.0162   -2.4021    0.0760 H   0  0  0  0  0  0  0  0  0  0  0  0
    1.1802   -0.7076    0.0000 C   0  0  0  0  0  0  0  0  0  0  0  0
    2.0825   -1.1778   -0.0122 H   0  0  0  0  0  0  0  0  0  0  0  0
    1.1730    0.7060   -0.0144 C   0  0  0  0  0  0  0  0  0  0  0  0
    2.0560    1.1826   -0.0145 H   0  0  0  0  0  0  0  0  0  0  0  0
  1  5  1  0
  5  6  1  0
  5  7  2  0
  1  2  1  0
  1  3  1  0
  1  4  1  0
  8 12  1  0
 12 13  2  0
 13 15  1  0
 15 17  2  0
 17 19  1  0
 19 21  2  0
 21 12  1  0
  8  9  1  0
  8 10  1  0
  8 11  1  0
 13 14  1  0
 15 16  1  0
 17 18  1  0
 19 20  1  0
 21 22  1  0
M  CHG  1   6  -1
M  END
>  <PDB_ID>  (617) 
pdb1khb

>  <RESIDUE_NAME>  (617) 
ASP   PHE

>  <FRAG_NAME>  (617) 
ACET   MBZ

>  <FRAG_ATOM_NUM>  (617) 
fragi: 7  fragj: 15

>  <atom.prop.CHAIN_ID>  (617) 
A A A A A A A Z Z Z Z Z Z Z Z Z Z Z Z Z Z Z

>  <atom.prop.IS_HEAVY_ATOM>  (617) 
1 0 0 0 1 1 1 1 0 0 0 1 1 0 1 0 1 0 1 0 1 0

>  <DIFUSE_FUNC_ATOM>  (617) 
atom 6   atom 7   

>  <FINAL_SINGLE_POINT_ENERGY>  (617) 
0

>  <NONCOV_INTER_ENERGY_QM>  (617) 
0

>  <FF_Energy>  (617) 
-2.06

>  <QM_Energy>  (617) 
-8.07

>  <source>  (617) 
ACET_MBZ_00

>  <Index>  (617) 
22321

$$$$
ACET-pdb1khu-B-ASP-448:MBZ-pdb1khu-A-PHE-299
     RDKit          3D

 22 21  0  0  0  0  0  0  0  0999 V2000
   -1.8485    5.7369    3.8973 C   0  0  0  0  0  0  0  0  0  0  0  0
   -1.9915    6.4402    3.2100 H   0  0  0  0  0  0  0  0  0  0  0  0
   -1.7705    6.1438    4.7997 H   0  0  0  0  0  0  0  0  0  0  0  0
   -2.7198    5.0820    3.8961 H   0  0  0  0  0  0  0  0  0  0  0  0
   -0.5540    5.0027    3.5801 C   0  0  0  0  0  0  0  0  0  0  0  0
    0.3598    5.0195    4.4233 O   0  0  0  0  0  1  0  0  0  0  0  0
   -0.4358    4.4171    2.4881 O   0  0  0  0  0  0  0  0  0  0  0  0
   -0.0181    2.8955   -0.1141 C   0  0  0  0  0  0  0  0  0  0  0  0
    0.9095    3.2192   -0.0565 H   0  0  0  0  0  0  0  0  0  0  0  0
   -0.5827    3.2526    0.6085 H   0  0  0  0  0  0  0  0  0  0  0  0
   -0.4331    3.2367   -1.0624 H   0  0  0  0  0  0  0  0  0  0  0  0
   -0.0013    1.4015   -0.0016 C   0  0  0  0  0  0  0  0  0  0  0  0
   -1.1999    0.6887    0.0018 C   0  0  0  0  0  0  0  0  0  0  0  0
   -2.0668    1.1800    0.0039 H   0  0  0  0  0  0  0  0  0  0  0  0
   -1.2060   -0.7021   -0.0000 C   0  0  0  0  0  0  0  0  0  0  0  0
   -2.0777   -1.1978    0.0011 H   0  0  0  0  0  0  0  0  0  0  0  0
    0.0020   -1.3929   -0.0019 C   0  0  0  0  0  0  0  0  0  0  0  0
    0.0022   -2.3919   -0.0049 H   0  0  0  0  0  0  0  0  0  0  0  0
    1.2060   -0.6926    0.0000 C   0  0  0  0  0  0  0  0  0  0  0  0
    2.0866   -1.1907    0.0021 H   0  0  0  0  0  0  0  0  0  0  0  0
    1.1992    0.6974    0.0017 C   0  0  0  0  0  0  0  0  0  0  0  0
    2.0644    1.1968    0.0045 H   0  0  0  0  0  0  0  0  0  0  0  0
  1  5  1  0
  5  6  1  0
  5  7  2  0
  1  2  1  0
  1  3  1  0
  1  4  1  0
  8 12  1  0
 12 13  2  0
 13 15  1  0
 15 17  2  0
 17 19  1  0
 19 21  2  0
 21 12  1  0
  8  9  1  0
  8 10  1  0
  8 11  1  0
 13 14  1  0
 15 16  1  0
 17 18  1  0
 19 20  1  0
 21 22  1  0
M  CHG  1   6  -1
M  END
>  <PDB_ID>  (618) 
pdb1khu

>  <RESIDUE_NAME>  (618) 
ASP   PHE

>  <FRAG_NAME>  (618) 
ACET   MBZ

>  <FRAG_ATOM_NUM>  (618) 
fragi: 7  fragj: 15

>  <atom.prop.CHAIN_ID>  (618) 
A A A A A A A Z Z Z Z Z Z Z Z Z Z Z Z Z Z Z

>  <atom.prop.IS_HEAVY_ATOM>  (618) 
1 0 0 0 1 1 1 1 0 0 0 1 1 0 1 0 1 0 1 0 1 0

>  <DIFUSE_FUNC_ATOM>  (618) 
atom 6   atom 7   

>  <FINAL_SINGLE_POINT_ENERGY>  (618) 
0

>  <NONCOV_INTER_ENERGY_QM>  (618) 
0

>  <FF_Energy>  (618) 
1.84

>  <QM_Energy>  (618) 
-4.61

>  <source>  (618) 
ACET_MBZ_00

>  <Index>  (618) 
22383

$$$$
ACET-pdb1kit-A-ASP-34:MBZ-pdb1kit-A-PHE-37
     RDKit          3D

 22 21  0  0  0  0  0  0  0  0999 V2000
    5.0998    5.1349   -0.2063 C   0  0  0  0  0  0  0  0  0  0  0  0
    5.6431    4.4402   -0.6629 H   0  0  0  0  0  0  0  0  0  0  0  0
    5.4542    5.3137    0.7033 H   0  0  0  0  0  0  0  0  0  0  0  0
    5.1767    6.0555   -0.7847 H   0  0  0  0  0  0  0  0  0  0  0  0
    3.6671    4.6309   -0.0820 C   0  0  0  0  0  0  0  0  0  0  0  0
    2.8970    5.2288    0.6961 O   0  0  0  0  0  1  0  0  0  0  0  0
    3.3088    3.6379   -0.7566 O   0  0  0  0  0  0  0  0  0  0  0  0
    0.0318    2.8797    0.0539 C   0  0  0  0  0  0  0  0  0  0  0  0
    0.9481    3.1551    0.3213 H   0  0  0  0  0  0  0  0  0  0  0  0
   -0.6315    3.1709    0.7340 H   0  0  0  0  0  0  0  0  0  0  0  0
   -0.2107    3.3635   -0.8922 H   0  0  0  0  0  0  0  0  0  0  0  0
    0.0019    1.3916   -0.0034 C   0  0  0  0  0  0  0  0  0  0  0  0
   -1.1948    0.7051   -0.0037 C   0  0  0  0  0  0  0  0  0  0  0  0
   -2.0568    1.1947   -0.0081 H   0  0  0  0  0  0  0  0  0  0  0  0
   -1.1974   -0.6837   -0.0000 C   0  0  0  0  0  0  0  0  0  0  0  0
   -2.0793   -1.1763   -0.0109 H   0  0  0  0  0  0  0  0  0  0  0  0
   -0.0055   -1.3845    0.0198 C   0  0  0  0  0  0  0  0  0  0  0  0
   -0.0162   -2.3853    0.0483 H   0  0  0  0  0  0  0  0  0  0  0  0
    1.1974   -0.7014    0.0000 C   0  0  0  0  0  0  0  0  0  0  0  0
    2.0740   -1.2098   -0.0033 H   0  0  0  0  0  0  0  0  0  0  0  0
    1.1984    0.6730   -0.0128 C   0  0  0  0  0  0  0  0  0  0  0  0
    2.0661    1.1751   -0.0304 H   0  0  0  0  0  0  0  0  0  0  0  0
  1  5  1  0
  5  6  1  0
  5  7  2  0
  1  2  1  0
  1  3  1  0
  1  4  1  0
  8 12  1  0
 12 13  2  0
 13 15  1  0
 15 17  2  0
 17 19  1  0
 19 21  2  0
 21 12  1  0
  8  9  1  0
  8 10  1  0
  8 11  1  0
 13 14  1  0
 15 16  1  0
 17 18  1  0
 19 20  1  0
 21 22  1  0
M  CHG  1   6  -1
M  END
>  <PDB_ID>  (619) 
pdb1kit

>  <RESIDUE_NAME>  (619) 
ASP   PHE

>  <FRAG_NAME>  (619) 
ACET   MBZ

>  <FRAG_ATOM_NUM>  (619) 
fragi: 7  fragj: 15

>  <atom.prop.CHAIN_ID>  (619) 
A A A A A A A Z Z Z Z Z Z Z Z Z Z Z Z Z Z Z

>  <atom.prop.IS_HEAVY_ATOM>  (619) 
1 0 0 0 1 1 1 1 0 0 0 1 1 0 1 0 1 0 1 0 1 0

>  <DIFUSE_FUNC_ATOM>  (619) 
atom 6   atom 7   

>  <FINAL_SINGLE_POINT_ENERGY>  (619) 
0

>  <NONCOV_INTER_ENERGY_QM>  (619) 
0

>  <FF_Energy>  (619) 
-2.37

>  <QM_Energy>  (619) 
-7.89

>  <source>  (619) 
ACET_MBZ_00

>  <Index>  (619) 
22408

$$$$
ACET-pdb1kit-A-ASP-347:MBZ-pdb1kit-A-PHE-331
     RDKit          3D

 22 21  0  0  0  0  0  0  0  0999 V2000
    2.3006   -0.8438    2.7961 C   0  0  0  0  0  0  0  0  0  0  0  0
    2.3045   -0.8885    1.7995 H   0  0  0  0  0  0  0  0  0  0  0  0
    3.0853   -1.3403    3.1592 H   0  0  0  0  0  0  0  0  0  0  0  0
    2.3793    0.2007    3.0977 H   0  0  0  0  0  0  0  0  0  0  0  0
    1.0398   -1.5095    3.2987 C   0  0  0  0  0  0  0  0  0  0  0  0
    0.1705   -0.8649    3.9320 O   0  0  0  0  0  1  0  0  0  0  0  0
    0.9342   -2.7318    3.0575 O   0  0  0  0  0  0  0  0  0  0  0  0
   -0.0101    2.9286   -0.0615 C   0  0  0  0  0  0  0  0  0  0  0  0
   -0.7297    3.2010   -0.6842 H   0  0  0  0  0  0  0  0  0  0  0  0
    0.8765    3.2253   -0.3882 H   0  0  0  0  0  0  0  0  0  0  0  0
   -0.1947    3.4088    0.8994 H   0  0  0  0  0  0  0  0  0  0  0  0
    0.0034    1.4173   -0.0080 C   0  0  0  0  0  0  0  0  0  0  0  0
   -1.1944    0.6935   -0.0089 C   0  0  0  0  0  0  0  0  0  0  0  0
   -2.0642    1.1822   -0.0170 H   0  0  0  0  0  0  0  0  0  0  0  0
   -1.2025   -0.7050   -0.0000 C   0  0  0  0  0  0  0  0  0  0  0  0
   -2.0886   -1.1880   -0.0205 H   0  0  0  0  0  0  0  0  0  0  0  0
   -0.0164   -1.4056    0.0384 C   0  0  0  0  0  0  0  0  0  0  0  0
   -0.0137   -2.3993    0.0922 H   0  0  0  0  0  0  0  0  0  0  0  0
    1.2025   -0.7060   -0.0000 C   0  0  0  0  0  0  0  0  0  0  0  0
    2.0769   -1.2048   -0.0106 H   0  0  0  0  0  0  0  0  0  0  0  0
    1.2073    0.7059   -0.0214 C   0  0  0  0  0  0  0  0  0  0  0  0
    2.0733    1.1907   -0.0469 H   0  0  0  0  0  0  0  0  0  0  0  0
  1  5  1  0
  5  6  1  0
  5  7  2  0
  1  2  1  0
  1  3  1  0
  1  4  1  0
  8 12  1  0
 12 13  2  0
 13 15  1  0
 15 17  2  0
 17 19  1  0
 19 21  2  0
 21 12  1  0
  8  9  1  0
  8 10  1  0
  8 11  1  0
 13 14  1  0
 15 16  1  0
 17 18  1  0
 19 20  1  0
 21 22  1  0
M  CHG  1   6  -1
M  END
>  <PDB_ID>  (620) 
pdb1kit

>  <RESIDUE_NAME>  (620) 
ASP   PHE

>  <FRAG_NAME>  (620) 
ACET   MBZ

>  <FRAG_ATOM_NUM>  (620) 
fragi: 7  fragj: 15

>  <atom.prop.CHAIN_ID>  (620) 
A A A A A A A Z Z Z Z Z Z Z Z Z Z Z Z Z Z Z

>  <atom.prop.IS_HEAVY_ATOM>  (620) 
1 0 0 0 1 1 1 1 0 0 0 1 1 0 1 0 1 0 1 0 1 0

>  <DIFUSE_FUNC_ATOM>  (620) 
atom 6   atom 7   

>  <FINAL_SINGLE_POINT_ENERGY>  (620) 
0

>  <NONCOV_INTER_ENERGY_QM>  (620) 
0

>  <FF_Energy>  (620) 
13.23

>  <QM_Energy>  (620) 
3.0

>  <source>  (620) 
ACET_MBZ_00

>  <Index>  (620) 
22410

$$$$
ACET-pdb1kgn-A-GLU-202:MBZ-pdb1kgn-A-PHE-172
     RDKit          3D

 22 21  0  0  0  0  0  0  0  0999 V2000
    3.2832    1.7092    3.4274 C   0  0  0  0  0  0  0  0  0  0  0  0
    2.5629    2.2081    2.9882 H   0  0  0  0  0  0  0  0  0  0  0  0
    4.1678    2.0993    3.2665 H   0  0  0  0  0  0  0  0  0  0  0  0
    3.0917    1.6453    4.4986 H   0  0  0  0  0  0  0  0  0  0  0  0
    3.2970    0.3256    2.8087 C   0  0  0  0  0  0  0  0  0  0  0  0
    4.3622   -0.3517    2.8000 O   0  0  0  0  0  1  0  0  0  0  0  0
    2.2179   -0.0833    2.3489 O   0  0  0  0  0  0  0  0  0  0  0  0
   -0.0427    2.8862   -0.0037 C   0  0  0  0  0  0  0  0  0  0  0  0
    0.8845    3.2211    0.1014 H   0  0  0  0  0  0  0  0  0  0  0  0
   -0.6125    3.1811    0.7521 H   0  0  0  0  0  0  0  0  0  0  0  0
   -0.4530    3.3100   -0.9203 H   0  0  0  0  0  0  0  0  0  0  0  0
   -0.0015    1.4006    0.0001 C   0  0  0  0  0  0  0  0  0  0  0  0
   -1.1903    0.6708   -0.0013 C   0  0  0  0  0  0  0  0  0  0  0  0
   -2.0637    1.1708   -0.0045 H   0  0  0  0  0  0  0  0  0  0  0  0
   -1.1985   -0.6985    0.0000 C   0  0  0  0  0  0  0  0  0  0  0  0
   -2.0759   -1.1986    0.0024 H   0  0  0  0  0  0  0  0  0  0  0  0
   -0.0034   -1.3948    0.0004 C   0  0  0  0  0  0  0  0  0  0  0  0
   -0.0045   -2.3928    0.0003 H   0  0  0  0  0  0  0  0  0  0  0  0
    1.1985   -0.6971    0.0000 C   0  0  0  0  0  0  0  0  0  0  0  0
    2.0814   -1.1835    0.0005 H   0  0  0  0  0  0  0  0  0  0  0  0
    1.1952    0.7189    0.0008 C   0  0  0  0  0  0  0  0  0  0  0  0
    2.0606    1.2020    0.0006 H   0  0  0  0  0  0  0  0  0  0  0  0
  1  5  1  0
  5  6  1  0
  5  7  2  0
  1  2  1  0
  1  3  1  0
  1  4  1  0
  8 12  1  0
 12 13  2  0
 13 15  1  0
 15 17  2  0
 17 19  1  0
 19 21  2  0
 21 12  1  0
  8  9  1  0
  8 10  1  0
  8 11  1  0
 13 14  1  0
 15 16  1  0
 17 18  1  0
 19 20  1  0
 21 22  1  0
M  CHG  1   6  -1
M  END
>  <PDB_ID>  (621) 
pdb1kgn

>  <RESIDUE_NAME>  (621) 
GLU   PHE

>  <FRAG_NAME>  (621) 
ACET   MBZ

>  <FRAG_ATOM_NUM>  (621) 
fragi: 7  fragj: 15

>  <atom.prop.CHAIN_ID>  (621) 
A A A A A A A Z Z Z Z Z Z Z Z Z Z Z Z Z Z Z

>  <atom.prop.IS_HEAVY_ATOM>  (621) 
1 0 0 0 1 1 1 1 0 0 0 1 1 0 1 0 1 0 1 0 1 0

>  <DIFUSE_FUNC_ATOM>  (621) 
atom 6   atom 7   

>  <FINAL_SINGLE_POINT_ENERGY>  (621) 
0

>  <NONCOV_INTER_ENERGY_QM>  (621) 
0

>  <FF_Energy>  (621) 
8.85

>  <QM_Energy>  (621) 
0.54

>  <source>  (621) 
ACET_MBZ_00

>  <Index>  (621) 
22451

$$$$
ACET-pdb2p11-A-ASP-120:MBZ-pdb2p11-A-PHE-123
     RDKit          3D

 22 21  0  0  0  0  0  0  0  0999 V2000
    4.8779    3.5473   -2.6436 C   0  0  0  0  0  0  0  0  0  0  0  0
    5.0531    2.8399   -3.3203 H   0  0  0  0  0  0  0  0  0  0  0  0
    5.4980    3.4503   -1.8728 H   0  0  0  0  0  0  0  0  0  0  0  0
    5.0536    4.5179   -3.1076 H   0  0  0  0  0  0  0  0  0  0  0  0
    3.4654    3.4074   -2.1502 C   0  0  0  0  0  0  0  0  0  0  0  0
    2.9061    4.4269   -1.7292 O   0  0  0  0  0  1  0  0  0  0  0  0
    2.9074    2.2946   -2.1894 O   0  0  0  0  0  0  0  0  0  0  0  0
    0.0031    2.9020   -0.0169 C   0  0  0  0  0  0  0  0  0  0  0  0
    0.9405    3.2095   -0.0194 H   0  0  0  0  0  0  0  0  0  0  0  0
   -0.4825    3.2189    0.7809 H   0  0  0  0  0  0  0  0  0  0  0  0
   -0.4858    3.3336   -0.8903 H   0  0  0  0  0  0  0  0  0  0  0  0
    0.0013    1.3962   -0.0031 C   0  0  0  0  0  0  0  0  0  0  0  0
   -1.1959    0.6941    0.0068 C   0  0  0  0  0  0  0  0  0  0  0  0
   -2.0612    1.1861    0.0175 H   0  0  0  0  0  0  0  0  0  0  0  0
   -1.2021   -0.6946    0.0000 C   0  0  0  0  0  0  0  0  0  0  0  0
   -2.0798   -1.1870   -0.0069 H   0  0  0  0  0  0  0  0  0  0  0  0
   -0.0055   -1.3880    0.0046 C   0  0  0  0  0  0  0  0  0  0  0  0
   -0.0077   -2.3892    0.0105 H   0  0  0  0  0  0  0  0  0  0  0  0
    1.2021   -0.6958   -0.0000 C   0  0  0  0  0  0  0  0  0  0  0  0
    2.0786   -1.1998    0.0043 H   0  0  0  0  0  0  0  0  0  0  0  0
    1.2001    0.6882   -0.0083 C   0  0  0  0  0  0  0  0  0  0  0  0
    2.0657    1.1872   -0.0188 H   0  0  0  0  0  0  0  0  0  0  0  0
  1  5  1  0
  5  6  1  0
  5  7  2  0
  1  2  1  0
  1  3  1  0
  1  4  1  0
  8 12  1  0
 12 13  2  0
 13 15  1  0
 15 17  2  0
 17 19  1  0
 19 21  2  0
 21 12  1  0
  8  9  1  0
  8 10  1  0
  8 11  1  0
 13 14  1  0
 15 16  1  0
 17 18  1  0
 19 20  1  0
 21 22  1  0
M  CHG  1   6  -1
M  END
>  <PDB_ID>  (622) 
pdb2p11

>  <RESIDUE_NAME>  (622) 
ASP   PHE

>  <FRAG_NAME>  (622) 
ACET   MBZ

>  <FRAG_ATOM_NUM>  (622) 
fragi: 7  fragj: 15

>  <atom.prop.CHAIN_ID>  (622) 
A A A A A A A Z Z Z Z Z Z Z Z Z Z Z Z Z Z Z

>  <atom.prop.IS_HEAVY_ATOM>  (622) 
1 0 0 0 1 1 1 1 0 0 0 1 1 0 1 0 1 0 1 0 1 0

>  <DIFUSE_FUNC_ATOM>  (622) 
atom 6   atom 7   

>  <FINAL_SINGLE_POINT_ENERGY>  (622) 
0

>  <NONCOV_INTER_ENERGY_QM>  (622) 
0

>  <FF_Energy>  (622) 
-1.1

>  <QM_Energy>  (622) 
-6.73

>  <source>  (622) 
ACET_MBZ_00

>  <Index>  (622) 
22461

$$$$
ACET-pdb2p11-B-ASP-120:MBZ-pdb2p11-B-PHE-123
     RDKit          3D

 22 21  0  0  0  0  0  0  0  0999 V2000
    5.2838    3.9357   -1.3113 C   0  0  0  0  0  0  0  0  0  0  0  0
    5.6617    3.2191   -1.8800 H   0  0  0  0  0  0  0  0  0  0  0  0
    5.6430    3.8861   -0.3902 H   0  0  0  0  0  0  0  0  0  0  0  0
    5.5611    4.8991   -1.7393 H   0  0  0  0  0  0  0  0  0  0  0  0
    3.7544    3.7354   -1.2415 C   0  0  0  0  0  0  0  0  0  0  0  0
    3.0497    4.6388   -0.7292 O   0  0  0  0  0  1  0  0  0  0  0  0
    3.2423    2.6874   -1.6900 O   0  0  0  0  0  0  0  0  0  0  0  0
   -0.0051    2.8796    0.0371 C   0  0  0  0  0  0  0  0  0  0  0  0
    0.9167    3.1922    0.2102 H   0  0  0  0  0  0  0  0  0  0  0  0
   -0.6250    3.1750    0.7478 H   0  0  0  0  0  0  0  0  0  0  0  0
   -0.3365    3.3302   -0.8984 H   0  0  0  0  0  0  0  0  0  0  0  0
    0.0004    1.3933    0.0058 C   0  0  0  0  0  0  0  0  0  0  0  0
   -1.1876    0.6915    0.0066 C   0  0  0  0  0  0  0  0  0  0  0  0
   -2.0570    1.1837    0.0104 H   0  0  0  0  0  0  0  0  0  0  0  0
   -1.1926   -0.6888    0.0000 C   0  0  0  0  0  0  0  0  0  0  0  0
   -2.0731   -1.1843    0.0031 H   0  0  0  0  0  0  0  0  0  0  0  0
    0.0005   -1.3852   -0.0091 C   0  0  0  0  0  0  0  0  0  0  0  0
   -0.0092   -2.3867   -0.0224 H   0  0  0  0  0  0  0  0  0  0  0  0
    1.1926   -0.6986   -0.0000 C   0  0  0  0  0  0  0  0  0  0  0  0
    2.0766   -1.1941    0.0104 H   0  0  0  0  0  0  0  0  0  0  0  0
    1.1866    0.6878   -0.0033 C   0  0  0  0  0  0  0  0  0  0  0  0
    2.0595    1.1829   -0.0135 H   0  0  0  0  0  0  0  0  0  0  0  0
  1  5  1  0
  5  6  1  0
  5  7  2  0
  1  2  1  0
  1  3  1  0
  1  4  1  0
  8 12  1  0
 12 13  2  0
 13 15  1  0
 15 17  2  0
 17 19  1  0
 19 21  2  0
 21 12  1  0
  8  9  1  0
  8 10  1  0
  8 11  1  0
 13 14  1  0
 15 16  1  0
 17 18  1  0
 19 20  1  0
 21 22  1  0
M  CHG  1   6  -1
M  END
>  <PDB_ID>  (623) 
pdb2p11

>  <RESIDUE_NAME>  (623) 
ASP   PHE

>  <FRAG_NAME>  (623) 
ACET   MBZ

>  <FRAG_ATOM_NUM>  (623) 
fragi: 7  fragj: 15

>  <atom.prop.CHAIN_ID>  (623) 
A A A A A A A Z Z Z Z Z Z Z Z Z Z Z Z Z Z Z

>  <atom.prop.IS_HEAVY_ATOM>  (623) 
1 0 0 0 1 1 1 1 0 0 0 1 1 0 1 0 1 0 1 0 1 0

>  <DIFUSE_FUNC_ATOM>  (623) 
atom 6   atom 7   

>  <FINAL_SINGLE_POINT_ENERGY>  (623) 
0

>  <NONCOV_INTER_ENERGY_QM>  (623) 
0

>  <FF_Energy>  (623) 
-1.96

>  <QM_Energy>  (623) 
-7.68

>  <source>  (623) 
ACET_MBZ_00

>  <Index>  (623) 
22463

$$$$
ACET-pdb2p12-B-ASP-25:MBZ-pdb2p12-B-PHE-29
     RDKit          3D

 22 21  0  0  0  0  0  0  0  0999 V2000
    3.7182    4.5777   -1.3490 C   0  0  0  0  0  0  0  0  0  0  0  0
    4.6943    4.4059   -1.2586 H   0  0  0  0  0  0  0  0  0  0  0  0
    3.3717    5.0374   -0.5383 H   0  0  0  0  0  0  0  0  0  0  0  0
    3.5702    5.2402   -2.2017 H   0  0  0  0  0  0  0  0  0  0  0  0
    3.0022    3.2456   -1.4973 C   0  0  0  0  0  0  0  0  0  0  0  0
    3.3993    2.2869   -0.7880 O   0  0  0  0  0  1  0  0  0  0  0  0
    2.0826    3.1459   -2.3327 O   0  0  0  0  0  0  0  0  0  0  0  0
    0.0259    2.9265    0.0172 C   0  0  0  0  0  0  0  0  0  0  0  0
    0.9176    3.2202   -0.3094 H   0  0  0  0  0  0  0  0  0  0  0  0
   -0.1093    3.2128    0.9600 H   0  0  0  0  0  0  0  0  0  0  0  0
   -0.7284    3.4263   -0.5906 H   0  0  0  0  0  0  0  0  0  0  0  0
   -0.0035    1.4142   -0.0158 C   0  0  0  0  0  0  0  0  0  0  0  0
   -1.2047    0.7032    0.0095 C   0  0  0  0  0  0  0  0  0  0  0  0
   -2.0705    1.1850    0.0333 H   0  0  0  0  0  0  0  0  0  0  0  0
   -1.2076   -0.7058   -0.0000 C   0  0  0  0  0  0  0  0  0  0  0  0
   -2.0762   -1.1982   -0.0044 H   0  0  0  0  0  0  0  0  0  0  0  0
    0.0128   -1.4054   -0.0006 C   0  0  0  0  0  0  0  0  0  0  0  0
    0.0052   -2.4011   -0.0020 H   0  0  0  0  0  0  0  0  0  0  0  0
    1.2076   -0.7024   -0.0000 C   0  0  0  0  0  0  0  0  0  0  0  0
    2.0936   -1.1908   -0.0035 H   0  0  0  0  0  0  0  0  0  0  0  0
    1.1954    0.6960    0.0068 C   0  0  0  0  0  0  0  0  0  0  0  0
    2.0649    1.1939    0.0274 H   0  0  0  0  0  0  0  0  0  0  0  0
  1  5  1  0
  5  6  1  0
  5  7  2  0
  1  2  1  0
  1  3  1  0
  1  4  1  0
  8 12  1  0
 12 13  2  0
 13 15  1  0
 15 17  2  0
 17 19  1  0
 19 21  2  0
 21 12  1  0
  8  9  1  0
  8 10  1  0
  8 11  1  0
 13 14  1  0
 15 16  1  0
 17 18  1  0
 19 20  1  0
 21 22  1  0
M  CHG  1   6  -1
M  END
>  <PDB_ID>  (624) 
pdb2p12

>  <RESIDUE_NAME>  (624) 
ASP   PHE

>  <FRAG_NAME>  (624) 
ACET   MBZ

>  <FRAG_ATOM_NUM>  (624) 
fragi: 7  fragj: 15

>  <atom.prop.CHAIN_ID>  (624) 
A A A A A A A Z Z Z Z Z Z Z Z Z Z Z Z Z Z Z

>  <atom.prop.IS_HEAVY_ATOM>  (624) 
1 0 0 0 1 1 1 1 0 0 0 1 1 0 1 0 1 0 1 0 1 0

>  <DIFUSE_FUNC_ATOM>  (624) 
atom 6   atom 7   

>  <FINAL_SINGLE_POINT_ENERGY>  (624) 
0

>  <NONCOV_INTER_ENERGY_QM>  (624) 
0

>  <FF_Energy>  (624) 
16.86

>  <QM_Energy>  (624) 
-5.34

>  <source>  (624) 
ACET_MBZ_00

>  <Index>  (624) 
22466

$$$$
ACET-pdb2p0i-A-ASP-193:MBZ-pdb2p0i-A-PHE-189
     RDKit          3D

 22 21  0  0  0  0  0  0  0  0999 V2000
   -2.7645    4.0513    3.1711 C   0  0  0  0  0  0  0  0  0  0  0  0
   -2.1179    4.5825    2.6357 H   0  0  0  0  0  0  0  0  0  0  0  0
   -2.2877    3.3710    3.7163 H   0  0  0  0  0  0  0  0  0  0  0  0
   -3.2754    4.7314    3.8528 H   0  0  0  0  0  0  0  0  0  0  0  0
   -3.7150    3.3433    2.2267 C   0  0  0  0  0  0  0  0  0  0  0  0
   -4.9394    3.3876    2.4508 O   0  0  0  0  0  1  0  0  0  0  0  0
   -3.2379    2.7357    1.2503 O   0  0  0  0  0  0  0  0  0  0  0  0
   -0.0054    2.9103   -0.0311 C   0  0  0  0  0  0  0  0  0  0  0  0
    0.9079    3.2215    0.1689 H   0  0  0  0  0  0  0  0  0  0  0  0
   -0.6576    3.2286    0.6363 H   0  0  0  0  0  0  0  0  0  0  0  0
   -0.2936    3.3141   -1.0016 H   0  0  0  0  0  0  0  0  0  0  0  0
   -0.0009    1.4024    0.0063 C   0  0  0  0  0  0  0  0  0  0  0  0
   -1.1952    0.6880   -0.0079 C   0  0  0  0  0  0  0  0  0  0  0  0
   -2.0634    1.1804   -0.0254 H   0  0  0  0  0  0  0  0  0  0  0  0
   -1.2016   -0.6976   -0.0000 C   0  0  0  0  0  0  0  0  0  0  0  0
   -2.0764   -1.1937    0.0056 H   0  0  0  0  0  0  0  0  0  0  0  0
    0.0016   -1.3945    0.0013 C   0  0  0  0  0  0  0  0  0  0  0  0
   -0.0040   -2.3937    0.0030 H   0  0  0  0  0  0  0  0  0  0  0  0
    1.2016   -0.6992   -0.0000 C   0  0  0  0  0  0  0  0  0  0  0  0
    2.0837   -1.1906    0.0006 H   0  0  0  0  0  0  0  0  0  0  0  0
    1.1945    0.7009    0.0003 C   0  0  0  0  0  0  0  0  0  0  0  0
    2.0632    1.1936   -0.0042 H   0  0  0  0  0  0  0  0  0  0  0  0
  1  5  1  0
  5  6  1  0
  5  7  2  0
  1  2  1  0
  1  3  1  0
  1  4  1  0
  8 12  1  0
 12 13  2  0
 13 15  1  0
 15 17  2  0
 17 19  1  0
 19 21  2  0
 21 12  1  0
  8  9  1  0
  8 10  1  0
  8 11  1  0
 13 14  1  0
 15 16  1  0
 17 18  1  0
 19 20  1  0
 21 22  1  0
M  CHG  1   6  -1
M  END
>  <PDB_ID>  (625) 
pdb2p0i

>  <RESIDUE_NAME>  (625) 
ASP   PHE

>  <FRAG_NAME>  (625) 
ACET   MBZ

>  <FRAG_ATOM_NUM>  (625) 
fragi: 7  fragj: 15

>  <atom.prop.CHAIN_ID>  (625) 
A A A A A A A Z Z Z Z Z Z Z Z Z Z Z Z Z Z Z

>  <atom.prop.IS_HEAVY_ATOM>  (625) 
1 0 0 0 1 1 1 1 0 0 0 1 1 0 1 0 1 0 1 0 1 0

>  <DIFUSE_FUNC_ATOM>  (625) 
atom 6   atom 7   

>  <FINAL_SINGLE_POINT_ENERGY>  (625) 
0

>  <NONCOV_INTER_ENERGY_QM>  (625) 
0

>  <FF_Energy>  (625) 
-1.32

>  <QM_Energy>  (625) 
-7.41

>  <source>  (625) 
ACET_MBZ_00

>  <Index>  (625) 
22481

$$$$
ACET-pdb2p1j-A-ASP-486:MBZ-pdb2p1j-A-PHE-497
     RDKit          3D

 22 21  0  0  0  0  0  0  0  0999 V2000
    3.1943   -0.0832   -3.2896 C   0  0  0  0  0  0  0  0  0  0  0  0
    3.9067   -0.1245   -3.9769 H   0  0  0  0  0  0  0  0  0  0  0  0
    3.2400    0.7667   -2.7831 H   0  0  0  0  0  0  0  0  0  0  0  0
    2.2282   -0.1326   -3.7920 H   0  0  0  0  0  0  0  0  0  0  0  0
    3.4206   -1.2477   -2.2953 C   0  0  0  0  0  0  0  0  0  0  0  0
    3.7556   -0.8907   -1.1414 O   0  0  0  0  0  1  0  0  0  0  0  0
    3.2901   -2.4849   -2.6502 O   0  0  0  0  0  0  0  0  0  0  0  0
    0.0127    2.8967    0.0136 C   0  0  0  0  0  0  0  0  0  0  0  0
   -0.1635    3.2180   -0.9048 H   0  0  0  0  0  0  0  0  0  0  0  0
    0.8967    3.2014    0.3365 H   0  0  0  0  0  0  0  0  0  0  0  0
   -0.7428    3.3350    0.6656 H   0  0  0  0  0  0  0  0  0  0  0  0
    0.0045    1.4041   -0.0002 C   0  0  0  0  0  0  0  0  0  0  0  0
   -1.2094    0.7012   -0.0020 C   0  0  0  0  0  0  0  0  0  0  0  0
   -2.0673    1.2029   -0.0057 H   0  0  0  0  0  0  0  0  0  0  0  0
   -1.2279   -0.6904    0.0000 C   0  0  0  0  0  0  0  0  0  0  0  0
   -2.1027   -1.1803    0.0040 H   0  0  0  0  0  0  0  0  0  0  0  0
   -0.0195   -1.4068   -0.0016 C   0  0  0  0  0  0  0  0  0  0  0  0
   -0.0190   -2.3952   -0.0044 H   0  0  0  0  0  0  0  0  0  0  0  0
    1.2279   -0.6985   -0.0000 C   0  0  0  0  0  0  0  0  0  0  0  0
    2.0863   -1.2150   -0.0004 H   0  0  0  0  0  0  0  0  0  0  0  0
    1.2244    0.6905    0.0038 C   0  0  0  0  0  0  0  0  0  0  0  0
    2.0802    1.1955    0.0088 H   0  0  0  0  0  0  0  0  0  0  0  0
  1  5  1  0
  5  6  1  0
  5  7  2  0
  1  2  1  0
  1  3  1  0
  1  4  1  0
  8 12  1  0
 12 13  2  0
 13 15  1  0
 15 17  2  0
 17 19  1  0
 19 21  2  0
 21 12  1  0
  8  9  1  0
  8 10  1  0
  8 11  1  0
 13 14  1  0
 15 16  1  0
 17 18  1  0
 19 20  1  0
 21 22  1  0
M  CHG  1   6  -1
M  END
>  <PDB_ID>  (626) 
pdb2p1j

>  <RESIDUE_NAME>  (626) 
ASP   PHE

>  <FRAG_NAME>  (626) 
ACET   MBZ

>  <FRAG_ATOM_NUM>  (626) 
fragi: 7  fragj: 15

>  <atom.prop.CHAIN_ID>  (626) 
A A A A A A A Z Z Z Z Z Z Z Z Z Z Z Z Z Z Z

>  <atom.prop.IS_HEAVY_ATOM>  (626) 
1 0 0 0 1 1 1 1 0 0 0 1 1 0 1 0 1 0 1 0 1 0

>  <DIFUSE_FUNC_ATOM>  (626) 
atom 6   atom 7   

>  <FINAL_SINGLE_POINT_ENERGY>  (626) 
0

>  <NONCOV_INTER_ENERGY_QM>  (626) 
0

>  <FF_Energy>  (626) 
5.21

>  <QM_Energy>  (626) 
-4.56

>  <source>  (626) 
ACET_MBZ_00

>  <Index>  (626) 
22493

$$$$
ACET-pdb2p1l-A-GLU-96:MBZ-pdb2p1l-B-PHE-123
     RDKit          3D

 22 21  0  0  0  0  0  0  0  0999 V2000
   -3.5640   -2.9473   -0.1383 C   0  0  0  0  0  0  0  0  0  0  0  0
   -3.0139   -3.0013    0.6799 H   0  0  0  0  0  0  0  0  0  0  0  0
   -3.5120   -2.0525   -0.5521 H   0  0  0  0  0  0  0  0  0  0  0  0
   -3.1812   -3.6762   -0.8527 H   0  0  0  0  0  0  0  0  0  0  0  0
   -5.0177   -3.1746    0.2737 C   0  0  0  0  0  0  0  0  0  0  0  0
   -5.6481   -4.1438   -0.1986 O   0  0  0  0  0  1  0  0  0  0  0  0
   -5.5330   -2.3701    1.0843 O   0  0  0  0  0  0  0  0  0  0  0  0
   -0.0016    2.8929    0.0083 C   0  0  0  0  0  0  0  0  0  0  0  0
   -0.6784    3.2069   -0.6447 H   0  0  0  0  0  0  0  0  0  0  0  0
    0.9046    3.2060   -0.2459 H   0  0  0  0  0  0  0  0  0  0  0  0
   -0.2447    3.3339    0.9751 H   0  0  0  0  0  0  0  0  0  0  0  0
   -0.0006    1.4021    0.0003 C   0  0  0  0  0  0  0  0  0  0  0  0
   -1.1943    0.6981   -0.0000 C   0  0  0  0  0  0  0  0  0  0  0  0
   -2.0617    1.1846   -0.0017 H   0  0  0  0  0  0  0  0  0  0  0  0
   -1.1978   -0.6965    0.0000 C   0  0  0  0  0  0  0  0  0  0  0  0
   -2.0773   -1.1870    0.0006 H   0  0  0  0  0  0  0  0  0  0  0  0
   -0.0006   -1.3954    0.0004 C   0  0  0  0  0  0  0  0  0  0  0  0
   -0.0071   -2.3945    0.0006 H   0  0  0  0  0  0  0  0  0  0  0  0
    1.1978   -0.7025   -0.0000 C   0  0  0  0  0  0  0  0  0  0  0  0
    2.0805   -1.1976    0.0015 H   0  0  0  0  0  0  0  0  0  0  0  0
    1.1955    0.6943   -0.0006 C   0  0  0  0  0  0  0  0  0  0  0  0
    2.0639    1.1862   -0.0019 H   0  0  0  0  0  0  0  0  0  0  0  0
  1  5  1  0
  5  6  1  0
  5  7  2  0
  1  2  1  0
  1  3  1  0
  1  4  1  0
  8 12  1  0
 12 13  2  0
 13 15  1  0
 15 17  2  0
 17 19  1  0
 19 21  2  0
 21 12  1  0
  8  9  1  0
  8 10  1  0
  8 11  1  0
 13 14  1  0
 15 16  1  0
 17 18  1  0
 19 20  1  0
 21 22  1  0
M  CHG  1   6  -1
M  END
>  <PDB_ID>  (627) 
pdb2p1l

>  <RESIDUE_NAME>  (627) 
GLU   PHE

>  <FRAG_NAME>  (627) 
ACET   MBZ

>  <FRAG_ATOM_NUM>  (627) 
fragi: 7  fragj: 15

>  <atom.prop.CHAIN_ID>  (627) 
A A A A A A A Z Z Z Z Z Z Z Z Z Z Z Z Z Z Z

>  <atom.prop.IS_HEAVY_ATOM>  (627) 
1 0 0 0 1 1 1 1 0 0 0 1 1 0 1 0 1 0 1 0 1 0

>  <DIFUSE_FUNC_ATOM>  (627) 
atom 6   atom 7   

>  <FINAL_SINGLE_POINT_ENERGY>  (627) 
0

>  <NONCOV_INTER_ENERGY_QM>  (627) 
0

>  <FF_Energy>  (627) 
6.72

>  <QM_Energy>  (627) 
-0.05

>  <source>  (627) 
ACET_MBZ_00

>  <Index>  (627) 
22501

$$$$
ACET-pdb2p1l-G-GLU-96:MBZ-pdb2p1l-H-PHE-123
     RDKit          3D

 22 21  0  0  0  0  0  0  0  0999 V2000
   -2.8291   -3.6174   -0.1682 C   0  0  0  0  0  0  0  0  0  0  0  0
   -2.4174   -3.6933    0.7259 H   0  0  0  0  0  0  0  0  0  0  0  0
   -2.7874   -2.6908   -0.5092 H   0  0  0  0  0  0  0  0  0  0  0  0
   -2.2804   -4.2623   -0.8547 H   0  0  0  0  0  0  0  0  0  0  0  0
   -4.3026   -3.9791   -0.0200 C   0  0  0  0  0  0  0  0  0  0  0  0
   -4.6790   -5.1529   -0.2476 O   0  0  0  0  0  1  0  0  0  0  0  0
   -5.0839   -3.0728    0.3431 O   0  0  0  0  0  0  0  0  0  0  0  0
   -0.0005    2.8846   -0.0220 C   0  0  0  0  0  0  0  0  0  0  0  0
   -0.5127    3.1836   -0.8171 H   0  0  0  0  0  0  0  0  0  0  0  0
    0.9406    3.1940   -0.0716 H   0  0  0  0  0  0  0  0  0  0  0  0
   -0.4549    3.3393    0.8583 H   0  0  0  0  0  0  0  0  0  0  0  0
   -0.0008    1.3979   -0.0001 C   0  0  0  0  0  0  0  0  0  0  0  0
   -1.1910    0.6974    0.0007 C   0  0  0  0  0  0  0  0  0  0  0  0
   -2.0595    1.1845    0.0010 H   0  0  0  0  0  0  0  0  0  0  0  0
   -1.1960   -0.6953   -0.0000 C   0  0  0  0  0  0  0  0  0  0  0  0
   -2.0750   -1.1865    0.0021 H   0  0  0  0  0  0  0  0  0  0  0  0
    0.0026   -1.3976   -0.0015 C   0  0  0  0  0  0  0  0  0  0  0  0
   -0.0048   -2.3940   -0.0039 H   0  0  0  0  0  0  0  0  0  0  0  0
    1.1960   -0.6996    0.0000 C   0  0  0  0  0  0  0  0  0  0  0  0
    2.0819   -1.1904    0.0018 H   0  0  0  0  0  0  0  0  0  0  0  0
    1.1892    0.6971    0.0009 C   0  0  0  0  0  0  0  0  0  0  0  0
    2.0604    1.1889    0.0010 H   0  0  0  0  0  0  0  0  0  0  0  0
  1  5  1  0
  5  6  1  0
  5  7  2  0
  1  2  1  0
  1  3  1  0
  1  4  1  0
  8 12  1  0
 12 13  2  0
 13 15  1  0
 15 17  2  0
 17 19  1  0
 19 21  2  0
 21 12  1  0
  8  9  1  0
  8 10  1  0
  8 11  1  0
 13 14  1  0
 15 16  1  0
 17 18  1  0
 19 20  1  0
 21 22  1  0
M  CHG  1   6  -1
M  END
>  <PDB_ID>  (628) 
pdb2p1l

>  <RESIDUE_NAME>  (628) 
GLU   PHE

>  <FRAG_NAME>  (628) 
ACET   MBZ

>  <FRAG_ATOM_NUM>  (628) 
fragi: 7  fragj: 15

>  <atom.prop.CHAIN_ID>  (628) 
A A A A A A A Z Z Z Z Z Z Z Z Z Z Z Z Z Z Z

>  <atom.prop.IS_HEAVY_ATOM>  (628) 
1 0 0 0 1 1 1 1 0 0 0 1 1 0 1 0 1 0 1 0 1 0

>  <DIFUSE_FUNC_ATOM>  (628) 
atom 6   atom 7   

>  <FINAL_SINGLE_POINT_ENERGY>  (628) 
0

>  <NONCOV_INTER_ENERGY_QM>  (628) 
0

>  <FF_Energy>  (628) 
4.19

>  <QM_Energy>  (628) 
-0.93

>  <source>  (628) 
ACET_MBZ_00

>  <Index>  (628) 
22511

$$$$
ACET-pdb2p1r-A-ASP-178:MBZ-pdb2p1r-A-PHE-143
     RDKit          3D

 22 21  0  0  0  0  0  0  0  0999 V2000
    3.0484    2.6760   -1.8503 C   0  0  0  0  0  0  0  0  0  0  0  0
    2.5951    3.5289   -1.6155 H   0  0  0  0  0  0  0  0  0  0  0  0
    2.6845    1.9291   -1.3046 H   0  0  0  0  0  0  0  0  0  0  0  0
    2.8362    2.4608   -2.8975 H   0  0  0  0  0  0  0  0  0  0  0  0
    4.5258    2.8138   -1.5700 C   0  0  0  0  0  0  0  0  0  0  0  0
    4.8702    3.1762   -0.4231 O   0  0  0  0  0  1  0  0  0  0  0  0
    5.3352    2.5612   -2.4917 O   0  0  0  0  0  0  0  0  0  0  0  0
    0.0004    2.9055    0.0341 C   0  0  0  0  0  0  0  0  0  0  0  0
   -0.5913    3.2284   -0.6885 H   0  0  0  0  0  0  0  0  0  0  0  0
    0.9301    3.2160   -0.0945 H   0  0  0  0  0  0  0  0  0  0  0  0
   -0.3622    3.3256    0.9723 H   0  0  0  0  0  0  0  0  0  0  0  0
    0.0009    1.4023    0.0005 C   0  0  0  0  0  0  0  0  0  0  0  0
   -1.1981    0.6913   -0.0006 C   0  0  0  0  0  0  0  0  0  0  0  0
   -2.0642    1.1814   -0.0032 H   0  0  0  0  0  0  0  0  0  0  0  0
   -1.2039   -0.7013    0.0000 C   0  0  0  0  0  0  0  0  0  0  0  0
   -2.0793   -1.1935    0.0012 H   0  0  0  0  0  0  0  0  0  0  0  0
   -0.0015   -1.3935    0.0009 C   0  0  0  0  0  0  0  0  0  0  0  0
   -0.0001   -2.3921    0.0014 H   0  0  0  0  0  0  0  0  0  0  0  0
    1.2039   -0.6929   -0.0000 C   0  0  0  0  0  0  0  0  0  0  0  0
    2.0832   -1.1939    0.0014 H   0  0  0  0  0  0  0  0  0  0  0  0
    1.1987    0.6942   -0.0008 C   0  0  0  0  0  0  0  0  0  0  0  0
    2.0656    1.1934   -0.0032 H   0  0  0  0  0  0  0  0  0  0  0  0
  1  5  1  0
  5  6  1  0
  5  7  2  0
  1  2  1  0
  1  3  1  0
  1  4  1  0
  8 12  1  0
 12 13  2  0
 13 15  1  0
 15 17  2  0
 17 19  1  0
 19 21  2  0
 21 12  1  0
  8  9  1  0
  8 10  1  0
  8 11  1  0
 13 14  1  0
 15 16  1  0
 17 18  1  0
 19 20  1  0
 21 22  1  0
M  CHG  1   6  -1
M  END
>  <PDB_ID>  (629) 
pdb2p1r

>  <RESIDUE_NAME>  (629) 
ASP   PHE

>  <FRAG_NAME>  (629) 
ACET   MBZ

>  <FRAG_ATOM_NUM>  (629) 
fragi: 7  fragj: 15

>  <atom.prop.CHAIN_ID>  (629) 
A A A A A A A Z Z Z Z Z Z Z Z Z Z Z Z Z Z Z

>  <atom.prop.IS_HEAVY_ATOM>  (629) 
1 0 0 0 1 1 1 1 0 0 0 1 1 0 1 0 1 0 1 0 1 0

>  <DIFUSE_FUNC_ATOM>  (629) 
atom 6   atom 7   

>  <FINAL_SINGLE_POINT_ENERGY>  (629) 
0

>  <NONCOV_INTER_ENERGY_QM>  (629) 
0

>  <FF_Energy>  (629) 
13.1

>  <QM_Energy>  (629) 
0.49

>  <source>  (629) 
ACET_MBZ_00

>  <Index>  (629) 
22518

$$$$
ACET-pdb1kep-B-ASP-232:MBZ-pdb1kep-B-PHE-308
     RDKit          3D

 22 21  0  0  0  0  0  0  0  0999 V2000
   -4.8144    2.8071   -2.7253 C   0  0  0  0  0  0  0  0  0  0  0  0
   -4.1006    3.1277   -3.3334 H   0  0  0  0  0  0  0  0  0  0  0  0
   -5.5721    3.4442   -2.7011 H   0  0  0  0  0  0  0  0  0  0  0  0
   -5.1861    1.8608   -3.1184 H   0  0  0  0  0  0  0  0  0  0  0  0
   -4.2348    2.6793   -1.3137 C   0  0  0  0  0  0  0  0  0  0  0  0
   -4.6857    1.7939   -0.5045 O   0  0  0  0  0  1  0  0  0  0  0  0
   -3.3129    3.4131   -0.9312 O   0  0  0  0  0  0  0  0  0  0  0  0
   -0.0009    2.8789   -0.0007 C   0  0  0  0  0  0  0  0  0  0  0  0
   -0.6112    3.1905   -0.7202 H   0  0  0  0  0  0  0  0  0  0  0  0
    0.9274    3.1880   -0.1739 H   0  0  0  0  0  0  0  0  0  0  0  0
   -0.3305    3.3393    0.9307 H   0  0  0  0  0  0  0  0  0  0  0  0
   -0.0063    1.3934    0.0078 C   0  0  0  0  0  0  0  0  0  0  0  0
   -1.1966    0.6955   -0.0172 C   0  0  0  0  0  0  0  0  0  0  0  0
   -2.0631    1.1885   -0.0492 H   0  0  0  0  0  0  0  0  0  0  0  0
   -1.2029   -0.6845    0.0000 C   0  0  0  0  0  0  0  0  0  0  0  0
   -2.0741   -1.1868    0.0094 H   0  0  0  0  0  0  0  0  0  0  0  0
    0.0098   -1.3878    0.0059 C   0  0  0  0  0  0  0  0  0  0  0  0
   -0.0084   -2.3873    0.0138 H   0  0  0  0  0  0  0  0  0  0  0  0
    1.2029   -0.7025   -0.0000 C   0  0  0  0  0  0  0  0  0  0  0  0
    2.0857   -1.1965   -0.0056 H   0  0  0  0  0  0  0  0  0  0  0  0
    1.1931    0.6860    0.0034 C   0  0  0  0  0  0  0  0  0  0  0  0
    2.0600    1.1867    0.0023 H   0  0  0  0  0  0  0  0  0  0  0  0
  1  5  1  0
  5  6  1  0
  5  7  2  0
  1  2  1  0
  1  3  1  0
  1  4  1  0
  8 12  1  0
 12 13  2  0
 13 15  1  0
 15 17  2  0
 17 19  1  0
 19 21  2  0
 21 12  1  0
  8  9  1  0
  8 10  1  0
  8 11  1  0
 13 14  1  0
 15 16  1  0
 17 18  1  0
 19 20  1  0
 21 22  1  0
M  CHG  1   6  -1
M  END
>  <PDB_ID>  (630) 
pdb1kep

>  <RESIDUE_NAME>  (630) 
ASP   PHE

>  <FRAG_NAME>  (630) 
ACET   MBZ

>  <FRAG_ATOM_NUM>  (630) 
fragi: 7  fragj: 15

>  <atom.prop.CHAIN_ID>  (630) 
A A A A A A A Z Z Z Z Z Z Z Z Z Z Z Z Z Z Z

>  <atom.prop.IS_HEAVY_ATOM>  (630) 
1 0 0 0 1 1 1 1 0 0 0 1 1 0 1 0 1 0 1 0 1 0

>  <DIFUSE_FUNC_ATOM>  (630) 
atom 6   atom 7   

>  <FINAL_SINGLE_POINT_ENERGY>  (630) 
0

>  <NONCOV_INTER_ENERGY_QM>  (630) 
0

>  <FF_Energy>  (630) 
-3.02

>  <QM_Energy>  (630) 
-8.98

>  <source>  (630) 
ACET_MBZ_00

>  <Index>  (630) 
22533

$$$$
ACET-pdb2p0i-B-ASP-193:MBZ-pdb2p0i-B-PHE-189
     RDKit          3D

 22 21  0  0  0  0  0  0  0  0999 V2000
   -2.8854    4.0367    3.0438 C   0  0  0  0  0  0  0  0  0  0  0  0
   -2.2081    4.5510    2.5342 H   0  0  0  0  0  0  0  0  0  0  0  0
   -2.4547    3.3277    3.5864 H   0  0  0  0  0  0  0  0  0  0  0  0
   -3.3882    4.7237    3.7245 H   0  0  0  0  0  0  0  0  0  0  0  0
   -3.8456    3.3873    2.0629 C   0  0  0  0  0  0  0  0  0  0  0  0
   -5.0657    3.3611    2.3375 O   0  0  0  0  0  1  0  0  0  0  0  0
   -3.3812    2.9056    1.0133 O   0  0  0  0  0  0  0  0  0  0  0  0
   -0.0040    2.9172   -0.0246 C   0  0  0  0  0  0  0  0  0  0  0  0
    0.8915    3.2294    0.2443 H   0  0  0  0  0  0  0  0  0  0  0  0
   -0.7041    3.2315    0.5938 H   0  0  0  0  0  0  0  0  0  0  0  0
   -0.2190    3.3338   -1.0086 H   0  0  0  0  0  0  0  0  0  0  0  0
   -0.0008    1.4077    0.0012 C   0  0  0  0  0  0  0  0  0  0  0  0
   -1.2002    0.6947   -0.0072 C   0  0  0  0  0  0  0  0  0  0  0  0
   -2.0669    1.1835   -0.0198 H   0  0  0  0  0  0  0  0  0  0  0  0
   -1.2039   -0.7000    0.0000 C   0  0  0  0  0  0  0  0  0  0  0  0
   -2.0790   -1.1936    0.0051 H   0  0  0  0  0  0  0  0  0  0  0  0
    0.0017   -1.3991    0.0014 C   0  0  0  0  0  0  0  0  0  0  0  0
   -0.0040   -2.3965    0.0024 H   0  0  0  0  0  0  0  0  0  0  0  0
    1.2039   -0.7017    0.0000 C   0  0  0  0  0  0  0  0  0  0  0  0
    2.0855   -1.1953   -0.0026 H   0  0  0  0  0  0  0  0  0  0  0  0
    1.1993    0.6985    0.0047 C   0  0  0  0  0  0  0  0  0  0  0  0
    2.0666    1.1912    0.0099 H   0  0  0  0  0  0  0  0  0  0  0  0
  1  5  1  0
  5  6  1  0
  5  7  2  0
  1  2  1  0
  1  3  1  0
  1  4  1  0
  8 12  1  0
 12 13  2  0
 13 15  1  0
 15 17  2  0
 17 19  1  0
 19 21  2  0
 21 12  1  0
  8  9  1  0
  8 10  1  0
  8 11  1  0
 13 14  1  0
 15 16  1  0
 17 18  1  0
 19 20  1  0
 21 22  1  0
M  CHG  1   6  -1
M  END
>  <PDB_ID>  (631) 
pdb2p0i

>  <RESIDUE_NAME>  (631) 
ASP   PHE

>  <FRAG_NAME>  (631) 
ACET   MBZ

>  <FRAG_ATOM_NUM>  (631) 
fragi: 7  fragj: 15

>  <atom.prop.CHAIN_ID>  (631) 
A A A A A A A Z Z Z Z Z Z Z Z Z Z Z Z Z Z Z

>  <atom.prop.IS_HEAVY_ATOM>  (631) 
1 0 0 0 1 1 1 1 0 0 0 1 1 0 1 0 1 0 1 0 1 0

>  <DIFUSE_FUNC_ATOM>  (631) 
atom 6   atom 7   

>  <FINAL_SINGLE_POINT_ENERGY>  (631) 
0

>  <NONCOV_INTER_ENERGY_QM>  (631) 
0

>  <FF_Energy>  (631) 
-1.97

>  <QM_Energy>  (631) 
-7.54

>  <source>  (631) 
ACET_MBZ_00

>  <Index>  (631) 
22598

$$$$
ACET-pdb2p3n-B-GLU-560:MBZ-pdb2p3n-B-PHE-557
     RDKit          3D

 22 21  0  0  0  0  0  0  0  0999 V2000
   -2.3504    4.5786    1.7948 C   0  0  0  0  0  0  0  0  0  0  0  0
   -3.2034    5.0388    1.6360 H   0  0  0  0  0  0  0  0  0  0  0  0
   -1.8716    4.3787    0.9620 H   0  0  0  0  0  0  0  0  0  0  0  0
   -1.7214    5.2285    2.4031 H   0  0  0  0  0  0  0  0  0  0  0  0
   -2.6538    3.2659    2.4789 C   0  0  0  0  0  0  0  0  0  0  0  0
   -1.7289    2.6741    3.0722 O   0  0  0  0  0  1  0  0  0  0  0  0
   -3.8161    2.8193    2.4218 O   0  0  0  0  0  0  0  0  0  0  0  0
   -0.0025    2.9067   -0.0651 C   0  0  0  0  0  0  0  0  0  0  0  0
    0.9272    3.2164    0.0277 H   0  0  0  0  0  0  0  0  0  0  0  0
   -0.5783    3.2415    0.6596 H   0  0  0  0  0  0  0  0  0  0  0  0
   -0.3928    3.2876   -1.0089 H   0  0  0  0  0  0  0  0  0  0  0  0
    0.0006    1.4022   -0.0001 C   0  0  0  0  0  0  0  0  0  0  0  0
   -1.1992    0.6920    0.0002 C   0  0  0  0  0  0  0  0  0  0  0  0
   -2.0646    1.1822   -0.0010 H   0  0  0  0  0  0  0  0  0  0  0  0
   -1.2021   -0.6986    0.0000 C   0  0  0  0  0  0  0  0  0  0  0  0
   -2.0774   -1.1947    0.0016 H   0  0  0  0  0  0  0  0  0  0  0  0
    0.0017   -1.3929   -0.0006 C   0  0  0  0  0  0  0  0  0  0  0  0
   -0.0015   -2.3923   -0.0024 H   0  0  0  0  0  0  0  0  0  0  0  0
    1.2021   -0.6962    0.0000 C   0  0  0  0  0  0  0  0  0  0  0  0
    2.0832   -1.1936    0.0013 H   0  0  0  0  0  0  0  0  0  0  0  0
    1.1970    0.6936    0.0006 C   0  0  0  0  0  0  0  0  0  0  0  0
    2.0649    1.1906    0.0007 H   0  0  0  0  0  0  0  0  0  0  0  0
  1  5  1  0
  5  6  1  0
  5  7  2  0
  1  2  1  0
  1  3  1  0
  1  4  1  0
  8 12  1  0
 12 13  2  0
 13 15  1  0
 15 17  2  0
 17 19  1  0
 19 21  2  0
 21 12  1  0
  8  9  1  0
  8 10  1  0
  8 11  1  0
 13 14  1  0
 15 16  1  0
 17 18  1  0
 19 20  1  0
 21 22  1  0
M  CHG  1   6  -1
M  END
>  <PDB_ID>  (632) 
pdb2p3n

>  <RESIDUE_NAME>  (632) 
GLU   PHE

>  <FRAG_NAME>  (632) 
ACET   MBZ

>  <FRAG_ATOM_NUM>  (632) 
fragi: 7  fragj: 15

>  <atom.prop.CHAIN_ID>  (632) 
A A A A A A A Z Z Z Z Z Z Z Z Z Z Z Z Z Z Z

>  <atom.prop.IS_HEAVY_ATOM>  (632) 
1 0 0 0 1 1 1 1 0 0 0 1 1 0 1 0 1 0 1 0 1 0

>  <DIFUSE_FUNC_ATOM>  (632) 
atom 6   atom 7   

>  <FINAL_SINGLE_POINT_ENERGY>  (632) 
0

>  <NONCOV_INTER_ENERGY_QM>  (632) 
0

>  <FF_Energy>  (632) 
0.51

>  <QM_Energy>  (632) 
-2.44

>  <source>  (632) 
ACET_MBZ_00

>  <Index>  (632) 
22612

$$$$
ACET-pdb2p3n-D-GLU-1560:MBZ-pdb2p3n-D-PHE-1557
     RDKit          3D

 22 21  0  0  0  0  0  0  0  0999 V2000
   -2.3116    5.0189    1.9090 C   0  0  0  0  0  0  0  0  0  0  0  0
   -3.1892    5.4697    1.9640 H   0  0  0  0  0  0  0  0  0  0  0  0
   -1.9695    5.0107    0.9820 H   0  0  0  0  0  0  0  0  0  0  0  0
   -1.6049    5.5657    2.5333 H   0  0  0  0  0  0  0  0  0  0  0  0
   -2.5042    3.5906    2.3355 C   0  0  0  0  0  0  0  0  0  0  0  0
   -3.3295    2.9132    1.6934 O   0  0  0  0  0  1  0  0  0  0  0  0
   -1.8460    3.1502    3.3034 O   0  0  0  0  0  0  0  0  0  0  0  0
    0.0037    2.9184    0.0195 C   0  0  0  0  0  0  0  0  0  0  0  0
    0.8764    3.2152    0.3773 H   0  0  0  0  0  0  0  0  0  0  0  0
   -0.7417    3.2161    0.5969 H   0  0  0  0  0  0  0  0  0  0  0  0
   -0.1293    3.3696   -0.9638 H   0  0  0  0  0  0  0  0  0  0  0  0
    0.0007    1.4136    0.0007 C   0  0  0  0  0  0  0  0  0  0  0  0
   -1.1953    0.7027   -0.0013 C   0  0  0  0  0  0  0  0  0  0  0  0
   -2.0644    1.1860   -0.0052 H   0  0  0  0  0  0  0  0  0  0  0  0
   -1.2027   -0.7042   -0.0000 C   0  0  0  0  0  0  0  0  0  0  0  0
   -2.0823   -1.1885    0.0010 H   0  0  0  0  0  0  0  0  0  0  0  0
   -0.0024   -1.4074    0.0010 C   0  0  0  0  0  0  0  0  0  0  0  0
   -0.0058   -2.4017    0.0019 H   0  0  0  0  0  0  0  0  0  0  0  0
    1.2027   -0.7062   -0.0000 C   0  0  0  0  0  0  0  0  0  0  0  0
    2.0846   -1.1961    0.0009 H   0  0  0  0  0  0  0  0  0  0  0  0
    1.1970    0.7014   -0.0005 C   0  0  0  0  0  0  0  0  0  0  0  0
    2.0680    1.1906   -0.0025 H   0  0  0  0  0  0  0  0  0  0  0  0
  1  5  1  0
  5  6  1  0
  5  7  2  0
  1  2  1  0
  1  3  1  0
  1  4  1  0
  8 12  1  0
 12 13  2  0
 13 15  1  0
 15 17  2  0
 17 19  1  0
 19 21  2  0
 21 12  1  0
  8  9  1  0
  8 10  1  0
  8 11  1  0
 13 14  1  0
 15 16  1  0
 17 18  1  0
 19 20  1  0
 21 22  1  0
M  CHG  1   6  -1
M  END
>  <PDB_ID>  (633) 
pdb2p3n

>  <RESIDUE_NAME>  (633) 
GLU   PHE

>  <FRAG_NAME>  (633) 
ACET   MBZ

>  <FRAG_ATOM_NUM>  (633) 
fragi: 7  fragj: 15

>  <atom.prop.CHAIN_ID>  (633) 
A A A A A A A Z Z Z Z Z Z Z Z Z Z Z Z Z Z Z

>  <atom.prop.IS_HEAVY_ATOM>  (633) 
1 0 0 0 1 1 1 1 0 0 0 1 1 0 1 0 1 0 1 0 1 0

>  <DIFUSE_FUNC_ATOM>  (633) 
atom 6   atom 7   

>  <FINAL_SINGLE_POINT_ENERGY>  (633) 
0

>  <NONCOV_INTER_ENERGY_QM>  (633) 
0

>  <FF_Energy>  (633) 
0.04

>  <QM_Energy>  (633) 
-5.77

>  <source>  (633) 
ACET_MBZ_00

>  <Index>  (633) 
22622

$$$$
ACET-pdb2p3y-A-ASP-416:MBZ-pdb2p3y-A-PHE-105
     RDKit          3D

 22 21  0  0  0  0  0  0  0  0999 V2000
    2.5198    2.8423   -3.8435 C   0  0  0  0  0  0  0  0  0  0  0  0
    3.0919    3.6310   -4.0381 H   0  0  0  0  0  0  0  0  0  0  0  0
    1.5756    3.1207   -3.7128 H   0  0  0  0  0  0  0  0  0  0  0  0
    2.5590    2.1771   -4.7060 H   0  0  0  0  0  0  0  0  0  0  0  0
    3.0149    2.1808   -2.5739 C   0  0  0  0  0  0  0  0  0  0  0  0
    3.3638    2.9110   -1.6243 O   0  0  0  0  0  1  0  0  0  0  0  0
    3.0518    0.9321   -2.5192 O   0  0  0  0  0  0  0  0  0  0  0  0
    0.0045    2.9111   -0.0191 C   0  0  0  0  0  0  0  0  0  0  0  0
   -0.5330    3.2093   -0.7949 H   0  0  0  0  0  0  0  0  0  0  0  0
    0.9436    3.2130   -0.0962 H   0  0  0  0  0  0  0  0  0  0  0  0
   -0.4196    3.3689    0.8746 H   0  0  0  0  0  0  0  0  0  0  0  0
   -0.0001    1.4065   -0.0005 C   0  0  0  0  0  0  0  0  0  0  0  0
   -1.1983    0.6976   -0.0001 C   0  0  0  0  0  0  0  0  0  0  0  0
   -2.0645    1.1852   -0.0012 H   0  0  0  0  0  0  0  0  0  0  0  0
   -1.2031   -0.7005    0.0000 C   0  0  0  0  0  0  0  0  0  0  0  0
   -2.0793   -1.1920    0.0025 H   0  0  0  0  0  0  0  0  0  0  0  0
    0.0016   -1.3989   -0.0008 C   0  0  0  0  0  0  0  0  0  0  0  0
   -0.0032   -2.3966   -0.0027 H   0  0  0  0  0  0  0  0  0  0  0  0
    1.2031   -0.7006   -0.0000 C   0  0  0  0  0  0  0  0  0  0  0  0
    2.0850   -1.1951    0.0007 H   0  0  0  0  0  0  0  0  0  0  0  0
    1.1968    0.6959    0.0013 C   0  0  0  0  0  0  0  0  0  0  0  0
    2.0658    1.1904    0.0026 H   0  0  0  0  0  0  0  0  0  0  0  0
  1  5  1  0
  5  6  1  0
  5  7  2  0
  1  2  1  0
  1  3  1  0
  1  4  1  0
  8 12  1  0
 12 13  2  0
 13 15  1  0
 15 17  2  0
 17 19  1  0
 19 21  2  0
 21 12  1  0
  8  9  1  0
  8 10  1  0
  8 11  1  0
 13 14  1  0
 15 16  1  0
 17 18  1  0
 19 20  1  0
 21 22  1  0
M  CHG  1   6  -1
M  END
>  <PDB_ID>  (634) 
pdb2p3y

>  <RESIDUE_NAME>  (634) 
ASP   PHE

>  <FRAG_NAME>  (634) 
ACET   MBZ

>  <FRAG_ATOM_NUM>  (634) 
fragi: 7  fragj: 15

>  <atom.prop.CHAIN_ID>  (634) 
A A A A A A A Z Z Z Z Z Z Z Z Z Z Z Z Z Z Z

>  <atom.prop.IS_HEAVY_ATOM>  (634) 
1 0 0 0 1 1 1 1 0 0 0 1 1 0 1 0 1 0 1 0 1 0

>  <DIFUSE_FUNC_ATOM>  (634) 
atom 6   atom 7   

>  <FINAL_SINGLE_POINT_ENERGY>  (634) 
0

>  <NONCOV_INTER_ENERGY_QM>  (634) 
0

>  <FF_Energy>  (634) 
-1.31

>  <QM_Energy>  (634) 
-6.99

>  <source>  (634) 
ACET_MBZ_00

>  <Index>  (634) 
22639

$$$$
ACET-pdb2p68-B-GLU-191:MBZ-pdb2p68-B-PHE-215
     RDKit          3D

 22 21  0  0  0  0  0  0  0  0999 V2000
    4.2876    3.1143    2.4527 C   0  0  0  0  0  0  0  0  0  0  0  0
    4.9109    3.7453    2.8681 H   0  0  0  0  0  0  0  0  0  0  0  0
    4.2067    2.2755    2.9532 H   0  0  0  0  0  0  0  0  0  0  0  0
    3.3048    3.5844    2.4173 H   0  0  0  0  0  0  0  0  0  0  0  0
    4.8145    2.7819    1.0720 C   0  0  0  0  0  0  0  0  0  0  0  0
    4.0447    2.2400    0.2521 O   0  0  0  0  0  1  0  0  0  0  0  0
    6.0026    3.0606    0.8037 O   0  0  0  0  0  0  0  0  0  0  0  0
   -0.0080    2.9139   -0.0019 C   0  0  0  0  0  0  0  0  0  0  0  0
    0.8933    3.2241   -0.2594 H   0  0  0  0  0  0  0  0  0  0  0  0
   -0.2523    3.2189    0.9045 H   0  0  0  0  0  0  0  0  0  0  0  0
   -0.7202    3.3539   -0.7000 H   0  0  0  0  0  0  0  0  0  0  0  0
   -0.0021    1.4049   -0.0031 C   0  0  0  0  0  0  0  0  0  0  0  0
   -1.1938    0.6876    0.0025 C   0  0  0  0  0  0  0  0  0  0  0  0
   -2.0651    1.1777    0.0068 H   0  0  0  0  0  0  0  0  0  0  0  0
   -1.2020   -0.7045   -0.0000 C   0  0  0  0  0  0  0  0  0  0  0  0
   -2.0779   -1.1959   -0.0014 H   0  0  0  0  0  0  0  0  0  0  0  0
   -0.0009   -1.3980    0.0009 C   0  0  0  0  0  0  0  0  0  0  0  0
    0.0011   -2.3954    0.0016 H   0  0  0  0  0  0  0  0  0  0  0  0
    1.2020   -0.6941    0.0000 C   0  0  0  0  0  0  0  0  0  0  0  0
    2.0841   -1.1892    0.0011 H   0  0  0  0  0  0  0  0  0  0  0  0
    1.1969    0.7041   -0.0003 C   0  0  0  0  0  0  0  0  0  0  0  0
    2.0632    1.1973    0.0002 H   0  0  0  0  0  0  0  0  0  0  0  0
  1  5  1  0
  5  6  1  0
  5  7  2  0
  1  2  1  0
  1  3  1  0
  1  4  1  0
  8 12  1  0
 12 13  2  0
 13 15  1  0
 15 17  2  0
 17 19  1  0
 19 21  2  0
 21 12  1  0
  8  9  1  0
  8 10  1  0
  8 11  1  0
 13 14  1  0
 15 16  1  0
 17 18  1  0
 19 20  1  0
 21 22  1  0
M  CHG  1   6  -1
M  END
>  <PDB_ID>  (635) 
pdb2p68

>  <RESIDUE_NAME>  (635) 
GLU   PHE

>  <FRAG_NAME>  (635) 
ACET   MBZ

>  <FRAG_ATOM_NUM>  (635) 
fragi: 7  fragj: 15

>  <atom.prop.CHAIN_ID>  (635) 
A A A A A A A Z Z Z Z Z Z Z Z Z Z Z Z Z Z Z

>  <atom.prop.IS_HEAVY_ATOM>  (635) 
1 0 0 0 1 1 1 1 0 0 0 1 1 0 1 0 1 0 1 0 1 0

>  <DIFUSE_FUNC_ATOM>  (635) 
atom 6   atom 7   

>  <FINAL_SINGLE_POINT_ENERGY>  (635) 
0

>  <NONCOV_INTER_ENERGY_QM>  (635) 
0

>  <FF_Energy>  (635) 
-1.49

>  <QM_Energy>  (635) 
-7.3

>  <source>  (635) 
ACET_MBZ_00

>  <Index>  (635) 
22848

$$$$
ACET-pdb1ks8-A-ASP-123:MBZ-pdb1ks8-A-PHE-58
     RDKit          3D

 22 21  0  0  0  0  0  0  0  0999 V2000
   -3.8000    5.8336    2.7155 C   0  0  0  0  0  0  0  0  0  0  0  0
   -3.7016    6.6654    2.1824 H   0  0  0  0  0  0  0  0  0  0  0  0
   -3.6995    6.0261    3.6841 H   0  0  0  0  0  0  0  0  0  0  0  0
   -4.8057    5.4464    2.5519 H   0  0  0  0  0  0  0  0  0  0  0  0
   -2.7283    4.8533    2.2960 C   0  0  0  0  0  0  0  0  0  0  0  0
   -2.4003    4.8191    1.0963 O   0  0  0  0  0  1  0  0  0  0  0  0
   -2.2258    4.1092    3.1601 O   0  0  0  0  0  0  0  0  0  0  0  0
    0.0097    2.9082    0.0745 C   0  0  0  0  0  0  0  0  0  0  0  0
   -0.9198    3.2171    0.1758 H   0  0  0  0  0  0  0  0  0  0  0  0
    0.4261    3.2524   -0.7484 H   0  0  0  0  0  0  0  0  0  0  0  0
    0.5809    3.2900    0.9207 H   0  0  0  0  0  0  0  0  0  0  0  0
   -0.0006    1.4052    0.0012 C   0  0  0  0  0  0  0  0  0  0  0  0
   -1.1986    0.7006   -0.0016 C   0  0  0  0  0  0  0  0  0  0  0  0
   -2.0649    1.1889   -0.0062 H   0  0  0  0  0  0  0  0  0  0  0  0
   -1.2057   -0.6969    0.0000 C   0  0  0  0  0  0  0  0  0  0  0  0
   -2.0817   -1.1878    0.0011 H   0  0  0  0  0  0  0  0  0  0  0  0
    0.0003   -1.3980    0.0020 C   0  0  0  0  0  0  0  0  0  0  0  0
   -0.0066   -2.3959    0.0041 H   0  0  0  0  0  0  0  0  0  0  0  0
    1.2057   -0.7029    0.0000 C   0  0  0  0  0  0  0  0  0  0  0  0
    2.0851   -1.1990    0.0012 H   0  0  0  0  0  0  0  0  0  0  0  0
    1.1990    0.6920   -0.0016 C   0  0  0  0  0  0  0  0  0  0  0  0
    2.0666    1.1889   -0.0058 H   0  0  0  0  0  0  0  0  0  0  0  0
  1  5  1  0
  5  6  1  0
  5  7  2  0
  1  2  1  0
  1  3  1  0
  1  4  1  0
  8 12  1  0
 12 13  2  0
 13 15  1  0
 15 17  2  0
 17 19  1  0
 19 21  2  0
 21 12  1  0
  8  9  1  0
  8 10  1  0
  8 11  1  0
 13 14  1  0
 15 16  1  0
 17 18  1  0
 19 20  1  0
 21 22  1  0
M  CHG  1   6  -1
M  END
>  <PDB_ID>  (636) 
pdb1ks8

>  <RESIDUE_NAME>  (636) 
ASP   PHE

>  <FRAG_NAME>  (636) 
ACET   MBZ

>  <FRAG_ATOM_NUM>  (636) 
fragi: 7  fragj: 15

>  <atom.prop.CHAIN_ID>  (636) 
A A A A A A A Z Z Z Z Z Z Z Z Z Z Z Z Z Z Z

>  <atom.prop.IS_HEAVY_ATOM>  (636) 
1 0 0 0 1 1 1 1 0 0 0 1 1 0 1 0 1 0 1 0 1 0

>  <DIFUSE_FUNC_ATOM>  (636) 
atom 6   atom 7   

>  <FINAL_SINGLE_POINT_ENERGY>  (636) 
0

>  <NONCOV_INTER_ENERGY_QM>  (636) 
0

>  <FF_Energy>  (636) 
-0.7

>  <QM_Energy>  (636) 
-5.87

>  <source>  (636) 
ACET_MBZ_00

>  <Index>  (636) 
22883

$$$$
ACET-pdb2p7l-C-ASP-36:MBZ-pdb2p7l-C-PHE-39
     RDKit          3D

 22 21  0  0  0  0  0  0  0  0999 V2000
    2.7634    5.3291   -1.4257 C   0  0  0  0  0  0  0  0  0  0  0  0
    3.5679    5.1962   -1.9925 H   0  0  0  0  0  0  0  0  0  0  0  0
    2.6405    4.5590   -0.8109 H   0  0  0  0  0  0  0  0  0  0  0  0
    2.9237    6.2208   -0.8196 H   0  0  0  0  0  0  0  0  0  0  0  0
    1.5504    5.4461   -2.3156 C   0  0  0  0  0  0  0  0  0  0  0  0
    1.2206    6.5807   -2.7263 O   0  0  0  0  0  1  0  0  0  0  0  0
    0.9318    4.4038   -2.6106 O   0  0  0  0  0  0  0  0  0  0  0  0
    0.0189    2.9124   -0.0557 C   0  0  0  0  0  0  0  0  0  0  0  0
    0.1718    3.1827   -0.9963 H   0  0  0  0  0  0  0  0  0  0  0  0
    0.7522    3.2318    0.5285 H   0  0  0  0  0  0  0  0  0  0  0  0
   -0.9029    3.3874    0.2800 H   0  0  0  0  0  0  0  0  0  0  0  0
    0.0011    1.4086   -0.0003 C   0  0  0  0  0  0  0  0  0  0  0  0
   -1.1980    0.7040    0.0005 C   0  0  0  0  0  0  0  0  0  0  0  0
   -2.0635    1.1910    0.0002 H   0  0  0  0  0  0  0  0  0  0  0  0
   -1.2034   -0.6963    0.0000 C   0  0  0  0  0  0  0  0  0  0  0  0
   -2.0804   -1.1863    0.0017 H   0  0  0  0  0  0  0  0  0  0  0  0
    0.0010   -1.4010   -0.0013 C   0  0  0  0  0  0  0  0  0  0  0  0
   -0.0094   -2.3972   -0.0034 H   0  0  0  0  0  0  0  0  0  0  0  0
    1.2034   -0.7069    0.0000 C   0  0  0  0  0  0  0  0  0  0  0  0
    2.0842   -1.2004    0.0013 H   0  0  0  0  0  0  0  0  0  0  0  0
    1.1958    0.6916    0.0011 C   0  0  0  0  0  0  0  0  0  0  0  0
    2.0672    1.1850    0.0024 H   0  0  0  0  0  0  0  0  0  0  0  0
  1  5  1  0
  5  6  1  0
  5  7  2  0
  1  2  1  0
  1  3  1  0
  1  4  1  0
  8 12  1  0
 12 13  2  0
 13 15  1  0
 15 17  2  0
 17 19  1  0
 19 21  2  0
 21 12  1  0
  8  9  1  0
  8 10  1  0
  8 11  1  0
 13 14  1  0
 15 16  1  0
 17 18  1  0
 19 20  1  0
 21 22  1  0
M  CHG  1   6  -1
M  END
>  <PDB_ID>  (637) 
pdb2p7l

>  <RESIDUE_NAME>  (637) 
ASP   PHE

>  <FRAG_NAME>  (637) 
ACET   MBZ

>  <FRAG_ATOM_NUM>  (637) 
fragi: 7  fragj: 15

>  <atom.prop.CHAIN_ID>  (637) 
A A A A A A A Z Z Z Z Z Z Z Z Z Z Z Z Z Z Z

>  <atom.prop.IS_HEAVY_ATOM>  (637) 
1 0 0 0 1 1 1 1 0 0 0 1 1 0 1 0 1 0 1 0 1 0

>  <DIFUSE_FUNC_ATOM>  (637) 
atom 6   atom 7   

>  <FINAL_SINGLE_POINT_ENERGY>  (637) 
0

>  <NONCOV_INTER_ENERGY_QM>  (637) 
0

>  <FF_Energy>  (637) 
1.31

>  <QM_Energy>  (637) 
-5.18

>  <source>  (637) 
ACET_MBZ_00

>  <Index>  (637) 
22942

$$$$
ACET-pdb2p85-B-GLU-197:MBZ-pdb2p85-B-PHE-247
     RDKit          3D

 22 21  0  0  0  0  0  0  0  0999 V2000
   -4.4121   -0.9947   -1.1734 C   0  0  0  0  0  0  0  0  0  0  0  0
   -3.4693   -1.0494   -1.4466 H   0  0  0  0  0  0  0  0  0  0  0  0
   -4.8658   -0.2112   -1.5570 H   0  0  0  0  0  0  0  0  0  0  0  0
   -4.9228   -1.8932   -1.5199 H   0  0  0  0  0  0  0  0  0  0  0  0
   -4.4428   -0.8466    0.3353 C   0  0  0  0  0  0  0  0  0  0  0  0
   -4.1216    0.2616    0.8186 O   0  0  0  0  0  1  0  0  0  0  0  0
   -4.7835   -1.8284    1.0369 O   0  0  0  0  0  0  0  0  0  0  0  0
    0.0047    2.9094    0.0250 C   0  0  0  0  0  0  0  0  0  0  0  0
   -0.8327    3.2251   -0.3975 H   0  0  0  0  0  0  0  0  0  0  0  0
    0.7989    3.2218   -0.4764 H   0  0  0  0  0  0  0  0  0  0  0  0
    0.0535    3.3386    1.0258 H   0  0  0  0  0  0  0  0  0  0  0  0
    0.0012    1.4056    0.0003 C   0  0  0  0  0  0  0  0  0  0  0  0
   -1.1976    0.6987    0.0005 C   0  0  0  0  0  0  0  0  0  0  0  0
   -2.0635    1.1912    0.0004 H   0  0  0  0  0  0  0  0  0  0  0  0
   -1.2078   -0.6943    0.0000 C   0  0  0  0  0  0  0  0  0  0  0  0
   -2.0849   -1.1847    0.0010 H   0  0  0  0  0  0  0  0  0  0  0  0
   -0.0052   -1.4005    0.0005 C   0  0  0  0  0  0  0  0  0  0  0  0
   -0.0116   -2.3953    0.0003 H   0  0  0  0  0  0  0  0  0  0  0  0
    1.2078   -0.7038   -0.0000 C   0  0  0  0  0  0  0  0  0  0  0  0
    2.0829   -1.2010    0.0024 H   0  0  0  0  0  0  0  0  0  0  0  0
    1.2017    0.6943   -0.0014 C   0  0  0  0  0  0  0  0  0  0  0  0
    2.0695    1.1894   -0.0046 H   0  0  0  0  0  0  0  0  0  0  0  0
  1  5  1  0
  5  6  1  0
  5  7  2  0
  1  2  1  0
  1  3  1  0
  1  4  1  0
  8 12  1  0
 12 13  2  0
 13 15  1  0
 15 17  2  0
 17 19  1  0
 19 21  2  0
 21 12  1  0
  8  9  1  0
  8 10  1  0
  8 11  1  0
 13 14  1  0
 15 16  1  0
 17 18  1  0
 19 20  1  0
 21 22  1  0
M  CHG  1   6  -1
M  END
>  <PDB_ID>  (638) 
pdb2p85

>  <RESIDUE_NAME>  (638) 
GLU   PHE

>  <FRAG_NAME>  (638) 
ACET   MBZ

>  <FRAG_ATOM_NUM>  (638) 
fragi: 7  fragj: 15

>  <atom.prop.CHAIN_ID>  (638) 
A A A A A A A Z Z Z Z Z Z Z Z Z Z Z Z Z Z Z

>  <atom.prop.IS_HEAVY_ATOM>  (638) 
1 0 0 0 1 1 1 1 0 0 0 1 1 0 1 0 1 0 1 0 1 0

>  <DIFUSE_FUNC_ATOM>  (638) 
atom 6   atom 7   

>  <FINAL_SINGLE_POINT_ENERGY>  (638) 
0

>  <NONCOV_INTER_ENERGY_QM>  (638) 
0

>  <FF_Energy>  (638) 
1.87

>  <QM_Energy>  (638) 
-5.07

>  <source>  (638) 
ACET_MBZ_00

>  <Index>  (638) 
23004

$$$$
ACET-pdb2p85-B-GLU-358:MBZ-pdb2p85-B-PHE-416
     RDKit          3D

 22 21  0  0  0  0  0  0  0  0999 V2000
    5.8932   -0.4434    1.0809 C   0  0  0  0  0  0  0  0  0  0  0  0
    6.3982    0.3414    0.7756 H   0  0  0  0  0  0  0  0  0  0  0  0
    6.4594   -1.0939    1.5508 H   0  0  0  0  0  0  0  0  0  0  0  0
    5.1127   -0.1069    1.7633 H   0  0  0  0  0  0  0  0  0  0  0  0
    5.3286   -1.1301   -0.1444 C   0  0  0  0  0  0  0  0  0  0  0  0
    4.1545   -0.8618   -0.4910 O   0  0  0  0  0  1  0  0  0  0  0  0
    6.0633   -1.9242   -0.7686 O   0  0  0  0  0  0  0  0  0  0  0  0
    0.0006    2.8857   -0.0752 C   0  0  0  0  0  0  0  0  0  0  0  0
    0.8291    3.2190    0.3505 H   0  0  0  0  0  0  0  0  0  0  0  0
   -0.8036    3.2215    0.3932 H   0  0  0  0  0  0  0  0  0  0  0  0
   -0.0251    3.2704   -1.0947 H   0  0  0  0  0  0  0  0  0  0  0  0
    0.0003    1.3984   -0.0005 C   0  0  0  0  0  0  0  0  0  0  0  0
   -1.1973    0.6946    0.0008 C   0  0  0  0  0  0  0  0  0  0  0  0
   -2.0631    1.1856    0.0014 H   0  0  0  0  0  0  0  0  0  0  0  0
   -1.2028   -0.6952   -0.0000 C   0  0  0  0  0  0  0  0  0  0  0  0
   -2.0802   -1.1872    0.0021 H   0  0  0  0  0  0  0  0  0  0  0  0
   -0.0041   -1.3883   -0.0019 C   0  0  0  0  0  0  0  0  0  0  0  0
   -0.0078   -2.3905   -0.0050 H   0  0  0  0  0  0  0  0  0  0  0  0
    1.2028   -0.6995    0.0000 C   0  0  0  0  0  0  0  0  0  0  0  0
    2.0796   -1.2015    0.0019 H   0  0  0  0  0  0  0  0  0  0  0  0
    1.2011    0.6900    0.0016 C   0  0  0  0  0  0  0  0  0  0  0  0
    2.0671    1.1874    0.0035 H   0  0  0  0  0  0  0  0  0  0  0  0
  1  5  1  0
  5  6  1  0
  5  7  2  0
  1  2  1  0
  1  3  1  0
  1  4  1  0
  8 12  1  0
 12 13  2  0
 13 15  1  0
 15 17  2  0
 17 19  1  0
 19 21  2  0
 21 12  1  0
  8  9  1  0
  8 10  1  0
  8 11  1  0
 13 14  1  0
 15 16  1  0
 17 18  1  0
 19 20  1  0
 21 22  1  0
M  CHG  1   6  -1
M  END
>  <PDB_ID>  (639) 
pdb2p85

>  <RESIDUE_NAME>  (639) 
GLU   PHE

>  <FRAG_NAME>  (639) 
ACET   MBZ

>  <FRAG_ATOM_NUM>  (639) 
fragi: 7  fragj: 15

>  <atom.prop.CHAIN_ID>  (639) 
A A A A A A A Z Z Z Z Z Z Z Z Z Z Z Z Z Z Z

>  <atom.prop.IS_HEAVY_ATOM>  (639) 
1 0 0 0 1 1 1 1 0 0 0 1 1 0 1 0 1 0 1 0 1 0

>  <DIFUSE_FUNC_ATOM>  (639) 
atom 6   atom 7   

>  <FINAL_SINGLE_POINT_ENERGY>  (639) 
0

>  <NONCOV_INTER_ENERGY_QM>  (639) 
0

>  <FF_Energy>  (639) 
0.18

>  <QM_Energy>  (639) 
-6.32

>  <source>  (639) 
ACET_MBZ_00

>  <Index>  (639) 
23009

$$$$
ACET-pdb2p85-B-GLU-324:MBZ-pdb2p85-B-PHE-462
     RDKit          3D

 22 21  0  0  0  0  0  0  0  0999 V2000
   -3.4745    2.3937    3.9406 C   0  0  0  0  0  0  0  0  0  0  0  0
   -3.3302    2.7808    4.8270 H   0  0  0  0  0  0  0  0  0  0  0  0
   -3.3092    1.4305    3.9098 H   0  0  0  0  0  0  0  0  0  0  0  0
   -4.5077    2.5785    3.6464 H   0  0  0  0  0  0  0  0  0  0  0  0
   -2.4873    3.0578    2.9849 C   0  0  0  0  0  0  0  0  0  0  0  0
   -2.7880    4.1741    2.4993 O   0  0  0  0  0  1  0  0  0  0  0  0
   -1.4125    2.4703    2.7206 O   0  0  0  0  0  0  0  0  0  0  0  0
   -0.0031    2.8958   -0.0064 C   0  0  0  0  0  0  0  0  0  0  0  0
   -0.8329    3.2051    0.4340 H   0  0  0  0  0  0  0  0  0  0  0  0
    0.0402    3.2013   -0.9463 H   0  0  0  0  0  0  0  0  0  0  0  0
    0.8397    3.3368    0.5259 H   0  0  0  0  0  0  0  0  0  0  0  0
    0.0004    1.4011   -0.0005 C   0  0  0  0  0  0  0  0  0  0  0  0
   -1.1948    0.6932   -0.0010 C   0  0  0  0  0  0  0  0  0  0  0  0
   -2.0632    1.1804   -0.0036 H   0  0  0  0  0  0  0  0  0  0  0  0
   -1.1990   -0.7024   -0.0000 C   0  0  0  0  0  0  0  0  0  0  0  0
   -2.0774   -1.1925    0.0010 H   0  0  0  0  0  0  0  0  0  0  0  0
   -0.0010   -1.3940    0.0010 C   0  0  0  0  0  0  0  0  0  0  0  0
    0.0006   -2.3929    0.0022 H   0  0  0  0  0  0  0  0  0  0  0  0
    1.1990   -0.6943   -0.0000 C   0  0  0  0  0  0  0  0  0  0  0  0
    2.0819   -1.1920    0.0005 H   0  0  0  0  0  0  0  0  0  0  0  0
    1.1953    0.6963    0.0004 C   0  0  0  0  0  0  0  0  0  0  0  0
    2.0638    1.1915    0.0009 H   0  0  0  0  0  0  0  0  0  0  0  0
  1  5  1  0
  5  6  1  0
  5  7  2  0
  1  2  1  0
  1  3  1  0
  1  4  1  0
  8 12  1  0
 12 13  2  0
 13 15  1  0
 15 17  2  0
 17 19  1  0
 19 21  2  0
 21 12  1  0
  8  9  1  0
  8 10  1  0
  8 11  1  0
 13 14  1  0
 15 16  1  0
 17 18  1  0
 19 20  1  0
 21 22  1  0
M  CHG  1   6  -1
M  END
>  <PDB_ID>  (640) 
pdb2p85

>  <RESIDUE_NAME>  (640) 
GLU   PHE

>  <FRAG_NAME>  (640) 
ACET   MBZ

>  <FRAG_ATOM_NUM>  (640) 
fragi: 7  fragj: 15

>  <atom.prop.CHAIN_ID>  (640) 
A A A A A A A Z Z Z Z Z Z Z Z Z Z Z Z Z Z Z

>  <atom.prop.IS_HEAVY_ATOM>  (640) 
1 0 0 0 1 1 1 1 0 0 0 1 1 0 1 0 1 0 1 0 1 0

>  <DIFUSE_FUNC_ATOM>  (640) 
atom 6   atom 7   

>  <FINAL_SINGLE_POINT_ENERGY>  (640) 
0

>  <NONCOV_INTER_ENERGY_QM>  (640) 
0

>  <FF_Energy>  (640) 
1.36

>  <QM_Energy>  (640) 
-5.31

>  <source>  (640) 
ACET_MBZ_00

>  <Index>  (640) 
23011

$$$$
ACET-pdb2p85-F-ASP-377:MBZ-pdb2p85-F-PHE-384
     RDKit          3D

 22 21  0  0  0  0  0  0  0  0999 V2000
   -3.3847   -3.2040    1.3089 C   0  0  0  0  0  0  0  0  0  0  0  0
   -4.2071   -3.6869    1.0362 H   0  0  0  0  0  0  0  0  0  0  0  0
   -3.2713   -2.3755    0.7762 H   0  0  0  0  0  0  0  0  0  0  0  0
   -3.4924   -2.9205    2.3559 H   0  0  0  0  0  0  0  0  0  0  0  0
   -2.1821   -4.1114    1.0615 C   0  0  0  0  0  0  0  0  0  0  0  0
   -1.8843   -4.9652    1.9257 O   0  0  0  0  0  1  0  0  0  0  0  0
   -1.5412   -3.9790   -0.0085 O   0  0  0  0  0  0  0  0  0  0  0  0
    0.0077    2.9325    0.0152 C   0  0  0  0  0  0  0  0  0  0  0  0
   -0.6467    3.2443   -0.6566 H   0  0  0  0  0  0  0  0  0  0  0  0
    0.9229    3.2307   -0.2055 H   0  0  0  0  0  0  0  0  0  0  0  0
   -0.2646    3.3687    0.9763 H   0  0  0  0  0  0  0  0  0  0  0  0
   -0.0009    1.4170    0.0003 C   0  0  0  0  0  0  0  0  0  0  0  0
   -1.2042    0.7061    0.0006 C   0  0  0  0  0  0  0  0  0  0  0  0
   -2.0690    1.1911   -0.0004 H   0  0  0  0  0  0  0  0  0  0  0  0
   -1.2088   -0.7008   -0.0000 C   0  0  0  0  0  0  0  0  0  0  0  0
   -2.0816   -1.1913   -0.0000 H   0  0  0  0  0  0  0  0  0  0  0  0
    0.0050   -1.4085    0.0008 C   0  0  0  0  0  0  0  0  0  0  0  0
   -0.0068   -2.4031    0.0018 H   0  0  0  0  0  0  0  0  0  0  0  0
    1.2088   -0.7114   -0.0000 C   0  0  0  0  0  0  0  0  0  0  0  0
    2.0901   -1.1996    0.0018 H   0  0  0  0  0  0  0  0  0  0  0  0
    1.2001    0.6975   -0.0017 C   0  0  0  0  0  0  0  0  0  0  0  0
    2.0698    1.1887   -0.0047 H   0  0  0  0  0  0  0  0  0  0  0  0
  1  5  1  0
  5  6  1  0
  5  7  2  0
  1  2  1  0
  1  3  1  0
  1  4  1  0
  8 12  1  0
 12 13  2  0
 13 15  1  0
 15 17  2  0
 17 19  1  0
 19 21  2  0
 21 12  1  0
  8  9  1  0
  8 10  1  0
  8 11  1  0
 13 14  1  0
 15 16  1  0
 17 18  1  0
 19 20  1  0
 21 22  1  0
M  CHG  1   6  -1
M  END
>  <PDB_ID>  (641) 
pdb2p85

>  <RESIDUE_NAME>  (641) 
ASP   PHE

>  <FRAG_NAME>  (641) 
ACET   MBZ

>  <FRAG_ATOM_NUM>  (641) 
fragi: 7  fragj: 15

>  <atom.prop.CHAIN_ID>  (641) 
A A A A A A A Z Z Z Z Z Z Z Z Z Z Z Z Z Z Z

>  <atom.prop.IS_HEAVY_ATOM>  (641) 
1 0 0 0 1 1 1 1 0 0 0 1 1 0 1 0 1 0 1 0 1 0

>  <DIFUSE_FUNC_ATOM>  (641) 
atom 6   atom 7   

>  <FINAL_SINGLE_POINT_ENERGY>  (641) 
0

>  <NONCOV_INTER_ENERGY_QM>  (641) 
0

>  <FF_Energy>  (641) 
1.87

>  <QM_Energy>  (641) 
-4.77

>  <source>  (641) 
ACET_MBZ_00

>  <Index>  (641) 
23058

$$$$
ACET-pdb2p85-C-GLU-442:MBZ-pdb2p85-C-PHE-432
     RDKit          3D

 22 21  0  0  0  0  0  0  0  0999 V2000
    0.8097    0.6546    3.2630 C   0  0  0  0  0  0  0  0  0  0  0  0
    1.1205   -0.0050    3.9225 H   0  0  0  0  0  0  0  0  0  0  0  0
    0.7221    0.2678    2.3626 H   0  0  0  0  0  0  0  0  0  0  0  0
   -0.1687    1.0172    3.5782 H   0  0  0  0  0  0  0  0  0  0  0  0
    1.8610    1.7552    3.1861 C   0  0  0  0  0  0  0  0  0  0  0  0
    3.0421    1.4374    2.9224 O   0  0  0  0  0  1  0  0  0  0  0  0
    1.5101    2.9385    3.3834 O   0  0  0  0  0  0  0  0  0  0  0  0
    0.0010    2.9090   -0.0504 C   0  0  0  0  0  0  0  0  0  0  0  0
    0.9091    3.2254    0.1771 H   0  0  0  0  0  0  0  0  0  0  0  0
   -0.6695    3.2367    0.5971 H   0  0  0  0  0  0  0  0  0  0  0  0
   -0.2562    3.3146   -1.0289 H   0  0  0  0  0  0  0  0  0  0  0  0
    0.0038    1.4061    0.0003 C   0  0  0  0  0  0  0  0  0  0  0  0
   -1.1936    0.6944   -0.0001 C   0  0  0  0  0  0  0  0  0  0  0  0
   -2.0599    1.1829   -0.0012 H   0  0  0  0  0  0  0  0  0  0  0  0
   -1.1956   -0.6979    0.0000 C   0  0  0  0  0  0  0  0  0  0  0  0
   -2.0812   -1.1860    0.0036 H   0  0  0  0  0  0  0  0  0  0  0  0
   -0.0106   -1.3927   -0.0024 C   0  0  0  0  0  0  0  0  0  0  0  0
   -0.0133   -2.3947   -0.0063 H   0  0  0  0  0  0  0  0  0  0  0  0
    1.1956   -0.7054    0.0000 C   0  0  0  0  0  0  0  0  0  0  0  0
    2.0736   -1.2038    0.0016 H   0  0  0  0  0  0  0  0  0  0  0  0
    1.2003    0.6954    0.0021 C   0  0  0  0  0  0  0  0  0  0  0  0
    2.0692    1.1831    0.0040 H   0  0  0  0  0  0  0  0  0  0  0  0
  1  5  1  0
  5  6  1  0
  5  7  2  0
  1  2  1  0
  1  3  1  0
  1  4  1  0
  8 12  1  0
 12 13  2  0
 13 15  1  0
 15 17  2  0
 17 19  1  0
 19 21  2  0
 21 12  1  0
  8  9  1  0
  8 10  1  0
  8 11  1  0
 13 14  1  0
 15 16  1  0
 17 18  1  0
 19 20  1  0
 21 22  1  0
M  CHG  1   6  -1
M  END
>  <PDB_ID>  (642) 
pdb2p85

>  <RESIDUE_NAME>  (642) 
GLU   PHE

>  <FRAG_NAME>  (642) 
ACET   MBZ

>  <FRAG_ATOM_NUM>  (642) 
fragi: 7  fragj: 15

>  <atom.prop.CHAIN_ID>  (642) 
A A A A A A A Z Z Z Z Z Z Z Z Z Z Z Z Z Z Z

>  <atom.prop.IS_HEAVY_ATOM>  (642) 
1 0 0 0 1 1 1 1 0 0 0 1 1 0 1 0 1 0 1 0 1 0

>  <DIFUSE_FUNC_ATOM>  (642) 
atom 6   atom 7   

>  <FINAL_SINGLE_POINT_ENERGY>  (642) 
0

>  <NONCOV_INTER_ENERGY_QM>  (642) 
0

>  <FF_Energy>  (642) 
1.13

>  <QM_Energy>  (642) 
-4.13

>  <source>  (642) 
ACET_MBZ_00

>  <Index>  (642) 
23091

$$$$
ACET-pdb2p9j-C-ASP-162:MBZ-pdb2p9j-C-PHE-158
     RDKit          3D

 22 21  0  0  0  0  0  0  0  0999 V2000
   -1.1252   -1.2601    4.5515 C   0  0  0  0  0  0  0  0  0  0  0  0
   -1.0283   -2.2511    4.4750 H   0  0  0  0  0  0  0  0  0  0  0  0
   -2.0470   -0.9911    4.2773 H   0  0  0  0  0  0  0  0  0  0  0  0
   -0.9976   -0.9921    5.6003 H   0  0  0  0  0  0  0  0  0  0  0  0
   -0.1272   -0.6012    3.6194 C   0  0  0  0  0  0  0  0  0  0  0  0
    0.7405    0.1715    4.0753 O   0  0  0  0  0  1  0  0  0  0  0  0
   -0.2191   -0.8847    2.4134 O   0  0  0  0  0  0  0  0  0  0  0  0
   -0.0023    2.8943    0.0374 C   0  0  0  0  0  0  0  0  0  0  0  0
   -0.6944    3.2187   -0.5866 H   0  0  0  0  0  0  0  0  0  0  0  0
    0.8961    3.2133   -0.2162 H   0  0  0  0  0  0  0  0  0  0  0  0
   -0.2305    3.2998    1.0231 H   0  0  0  0  0  0  0  0  0  0  0  0
    0.0014    1.3989    0.0009 C   0  0  0  0  0  0  0  0  0  0  0  0
   -1.1937    0.6869    0.0089 C   0  0  0  0  0  0  0  0  0  0  0  0
   -2.0614    1.1778    0.0200 H   0  0  0  0  0  0  0  0  0  0  0  0
   -1.1979   -0.7012   -0.0000 C   0  0  0  0  0  0  0  0  0  0  0  0
   -2.0750   -1.1950    0.0032 H   0  0  0  0  0  0  0  0  0  0  0  0
    0.0005   -1.3904   -0.0112 C   0  0  0  0  0  0  0  0  0  0  0  0
    0.0012   -2.3905   -0.0284 H   0  0  0  0  0  0  0  0  0  0  0  0
    1.1979   -0.6922    0.0000 C   0  0  0  0  0  0  0  0  0  0  0  0
    2.0811   -1.1877    0.0085 H   0  0  0  0  0  0  0  0  0  0  0  0
    1.1918    0.6979    0.0014 C   0  0  0  0  0  0  0  0  0  0  0  0
    2.0617    1.1929    0.0019 H   0  0  0  0  0  0  0  0  0  0  0  0
  1  5  1  0
  5  6  1  0
  5  7  2  0
  1  2  1  0
  1  3  1  0
  1  4  1  0
  8 12  1  0
 12 13  2  0
 13 15  1  0
 15 17  2  0
 17 19  1  0
 19 21  2  0
 21 12  1  0
  8  9  1  0
  8 10  1  0
  8 11  1  0
 13 14  1  0
 15 16  1  0
 17 18  1  0
 19 20  1  0
 21 22  1  0
M  CHG  1   6  -1
M  END
>  <PDB_ID>  (643) 
pdb2p9j

>  <RESIDUE_NAME>  (643) 
ASP   PHE

>  <FRAG_NAME>  (643) 
ACET   MBZ

>  <FRAG_ATOM_NUM>  (643) 
fragi: 7  fragj: 15

>  <atom.prop.CHAIN_ID>  (643) 
A A A A A A A Z Z Z Z Z Z Z Z Z Z Z Z Z Z Z

>  <atom.prop.IS_HEAVY_ATOM>  (643) 
1 0 0 0 1 1 1 1 0 0 0 1 1 0 1 0 1 0 1 0 1 0

>  <DIFUSE_FUNC_ATOM>  (643) 
atom 6   atom 7   

>  <FINAL_SINGLE_POINT_ENERGY>  (643) 
0

>  <NONCOV_INTER_ENERGY_QM>  (643) 
0

>  <FF_Energy>  (643) 
22.71

>  <QM_Energy>  (643) 
8.52

>  <source>  (643) 
ACET_MBZ_00

>  <Index>  (643) 
23114

$$$$
ACET-pdb2pa2-B-GLU-66:MBZ-pdb2pa2-B-PHE-94
     RDKit          3D

 22 21  0  0  0  0  0  0  0  0999 V2000
   -2.0779   -3.8516    1.2835 C   0  0  0  0  0  0  0  0  0  0  0  0
   -1.8772   -2.9242    1.0246 H   0  0  0  0  0  0  0  0  0  0  0  0
   -2.6379   -3.8992    2.0903 H   0  0  0  0  0  0  0  0  0  0  0  0
   -2.6062   -4.3355    0.4621 H   0  0  0  0  0  0  0  0  0  0  0  0
   -0.7582   -4.5272    1.6083 C   0  0  0  0  0  0  0  0  0  0  0  0
   -0.7736   -5.7281    1.9583 O   0  0  0  0  0  1  0  0  0  0  0  0
    0.2967   -3.8574    1.5164 O   0  0  0  0  0  0  0  0  0  0  0  0
    0.0018    2.9091   -0.0129 C   0  0  0  0  0  0  0  0  0  0  0  0
   -0.4228    3.2076   -0.8537 H   0  0  0  0  0  0  0  0  0  0  0  0
    0.9399    3.2138    0.0456 H   0  0  0  0  0  0  0  0  0  0  0  0
   -0.5467    3.3574    0.8156 H   0  0  0  0  0  0  0  0  0  0  0  0
    0.0004    1.4032   -0.0006 C   0  0  0  0  0  0  0  0  0  0  0  0
   -1.1994    0.6941    0.0001 C   0  0  0  0  0  0  0  0  0  0  0  0
   -2.0650    1.1852   -0.0010 H   0  0  0  0  0  0  0  0  0  0  0  0
   -1.2041   -0.6973    0.0000 C   0  0  0  0  0  0  0  0  0  0  0  0
   -2.0786   -1.1921    0.0016 H   0  0  0  0  0  0  0  0  0  0  0  0
    0.0008   -1.3940   -0.0004 C   0  0  0  0  0  0  0  0  0  0  0  0
   -0.0046   -2.3927   -0.0016 H   0  0  0  0  0  0  0  0  0  0  0  0
    1.2041   -0.6989    0.0000 C   0  0  0  0  0  0  0  0  0  0  0  0
    2.0835   -1.1964    0.0012 H   0  0  0  0  0  0  0  0  0  0  0  0
    1.1982    0.6929    0.0008 C   0  0  0  0  0  0  0  0  0  0  0  0
    2.0657    1.1898    0.0015 H   0  0  0  0  0  0  0  0  0  0  0  0
  1  5  1  0
  5  6  1  0
  5  7  2  0
  1  2  1  0
  1  3  1  0
  1  4  1  0
  8 12  1  0
 12 13  2  0
 13 15  1  0
 15 17  2  0
 17 19  1  0
 19 21  2  0
 21 12  1  0
  8  9  1  0
  8 10  1  0
  8 11  1  0
 13 14  1  0
 15 16  1  0
 17 18  1  0
 19 20  1  0
 21 22  1  0
M  CHG  1   6  -1
M  END
>  <PDB_ID>  (644) 
pdb2pa2

>  <RESIDUE_NAME>  (644) 
GLU   PHE

>  <FRAG_NAME>  (644) 
ACET   MBZ

>  <FRAG_ATOM_NUM>  (644) 
fragi: 7  fragj: 15

>  <atom.prop.CHAIN_ID>  (644) 
A A A A A A A Z Z Z Z Z Z Z Z Z Z Z Z Z Z Z

>  <atom.prop.IS_HEAVY_ATOM>  (644) 
1 0 0 0 1 1 1 1 0 0 0 1 1 0 1 0 1 0 1 0 1 0

>  <DIFUSE_FUNC_ATOM>  (644) 
atom 6   atom 7   

>  <FINAL_SINGLE_POINT_ENERGY>  (644) 
0

>  <NONCOV_INTER_ENERGY_QM>  (644) 
0

>  <FF_Energy>  (644) 
3.95

>  <QM_Energy>  (644) 
-2.41

>  <source>  (644) 
ACET_MBZ_00

>  <Index>  (644) 
23135

$$$$
ACET-pdb2pa7-A-GLU-55:MBZ-pdb2pa7-A-PHE-29
     RDKit          3D

 22 21  0  0  0  0  0  0  0  0999 V2000
    2.5551    1.7568   -3.9437 C   0  0  0  0  0  0  0  0  0  0  0  0
    3.4532    1.4763   -4.1880 H   0  0  0  0  0  0  0  0  0  0  0  0
    2.0580    2.1743   -4.6677 H   0  0  0  0  0  0  0  0  0  0  0  0
    2.0044    0.8703   -3.6291 H   0  0  0  0  0  0  0  0  0  0  0  0
    2.6460    2.7172   -2.8119 C   0  0  0  0  0  0  0  0  0  0  0  0
    3.3969    2.5650   -1.8682 O   0  0  0  0  0  1  0  0  0  0  0  0
    1.7908    3.6941   -2.9352 O   0  0  0  0  0  0  0  0  0  0  0  0
    0.0097    2.9396    0.0281 C   0  0  0  0  0  0  0  0  0  0  0  0
   -0.7398    3.2586   -0.5184 H   0  0  0  0  0  0  0  0  0  0  0  0
    0.8797    3.2426   -0.3079 H   0  0  0  0  0  0  0  0  0  0  0  0
   -0.1162    3.3466    1.0314 H   0  0  0  0  0  0  0  0  0  0  0  0
   -0.0018    1.4183   -0.0004 C   0  0  0  0  0  0  0  0  0  0  0  0
   -1.1971    0.6883   -0.0038 C   0  0  0  0  0  0  0  0  0  0  0  0
   -2.0693    1.1771   -0.0104 H   0  0  0  0  0  0  0  0  0  0  0  0
   -1.2060   -0.7098   -0.0000 C   0  0  0  0  0  0  0  0  0  0  0  0
   -2.0772   -1.2013    0.0007 H   0  0  0  0  0  0  0  0  0  0  0  0
    0.0046   -1.4044    0.0050 C   0  0  0  0  0  0  0  0  0  0  0  0
    0.0071   -2.3991    0.0112 H   0  0  0  0  0  0  0  0  0  0  0  0
    1.2060   -0.6940   -0.0000 C   0  0  0  0  0  0  0  0  0  0  0  0
    2.0899   -1.1865   -0.0019 H   0  0  0  0  0  0  0  0  0  0  0  0
    1.1943    0.7017   -0.0008 C   0  0  0  0  0  0  0  0  0  0  0  0
    2.0649    1.1988   -0.0027 H   0  0  0  0  0  0  0  0  0  0  0  0
  1  5  1  0
  5  6  1  0
  5  7  2  0
  1  2  1  0
  1  3  1  0
  1  4  1  0
  8 12  1  0
 12 13  2  0
 13 15  1  0
 15 17  2  0
 17 19  1  0
 19 21  2  0
 21 12  1  0
  8  9  1  0
  8 10  1  0
  8 11  1  0
 13 14  1  0
 15 16  1  0
 17 18  1  0
 19 20  1  0
 21 22  1  0
M  CHG  1   6  -1
M  END
>  <PDB_ID>  (645) 
pdb2pa7

>  <RESIDUE_NAME>  (645) 
GLU   PHE

>  <FRAG_NAME>  (645) 
ACET   MBZ

>  <FRAG_ATOM_NUM>  (645) 
fragi: 7  fragj: 15

>  <atom.prop.CHAIN_ID>  (645) 
A A A A A A A Z Z Z Z Z Z Z Z Z Z Z Z Z Z Z

>  <atom.prop.IS_HEAVY_ATOM>  (645) 
1 0 0 0 1 1 1 1 0 0 0 1 1 0 1 0 1 0 1 0 1 0

>  <DIFUSE_FUNC_ATOM>  (645) 
atom 6   atom 7   

>  <FINAL_SINGLE_POINT_ENERGY>  (645) 
0

>  <NONCOV_INTER_ENERGY_QM>  (645) 
0

>  <FF_Energy>  (645) 
-2.02

>  <QM_Energy>  (645) 
-7.5

>  <source>  (645) 
ACET_MBZ_00

>  <Index>  (645) 
23171

$$$$
ACET-pdb1kxg-B-GLU-223:MBZ-pdb1kxg-B-PHE-220
     RDKit          3D

 22 21  0  0  0  0  0  0  0  0999 V2000
    4.5145    4.3791    0.2230 C   0  0  0  0  0  0  0  0  0  0  0  0
    5.3932    4.5758   -0.1749 H   0  0  0  0  0  0  0  0  0  0  0  0
    4.5192    3.5347    0.7294 H   0  0  0  0  0  0  0  0  0  0  0  0
    4.2640    5.1877    0.9097 H   0  0  0  0  0  0  0  0  0  0  0  0
    3.5193    4.2251   -0.9159 C   0  0  0  0  0  0  0  0  0  0  0  0
    2.8908    5.2319   -1.3102 O   0  0  0  0  0  1  0  0  0  0  0  0
    3.3767    3.0919   -1.4269 O   0  0  0  0  0  0  0  0  0  0  0  0
    0.0003    2.9123    0.0329 C   0  0  0  0  0  0  0  0  0  0  0  0
   -0.7518    3.2293   -0.5235 H   0  0  0  0  0  0  0  0  0  0  0  0
    0.8688    3.2241   -0.3199 H   0  0  0  0  0  0  0  0  0  0  0  0
   -0.1232    3.3306    1.0318 H   0  0  0  0  0  0  0  0  0  0  0  0
   -0.0006    1.4059    0.0002 C   0  0  0  0  0  0  0  0  0  0  0  0
   -1.1982    0.6981   -0.0005 C   0  0  0  0  0  0  0  0  0  0  0  0
   -2.0650    1.1854   -0.0027 H   0  0  0  0  0  0  0  0  0  0  0  0
   -1.2041   -0.7002   -0.0000 C   0  0  0  0  0  0  0  0  0  0  0  0
   -2.0794   -1.1912    0.0000 H   0  0  0  0  0  0  0  0  0  0  0  0
    0.0012   -1.3988    0.0018 C   0  0  0  0  0  0  0  0  0  0  0  0
   -0.0037   -2.3961    0.0034 H   0  0  0  0  0  0  0  0  0  0  0  0
    1.2041   -0.7011    0.0000 C   0  0  0  0  0  0  0  0  0  0  0  0
    2.0854   -1.1954    0.0018 H   0  0  0  0  0  0  0  0  0  0  0  0
    1.1975    0.6961   -0.0014 C   0  0  0  0  0  0  0  0  0  0  0  0
    2.0657    1.1908   -0.0044 H   0  0  0  0  0  0  0  0  0  0  0  0
  1  5  1  0
  5  6  1  0
  5  7  2  0
  1  2  1  0
  1  3  1  0
  1  4  1  0
  8 12  1  0
 12 13  2  0
 13 15  1  0
 15 17  2  0
 17 19  1  0
 19 21  2  0
 21 12  1  0
  8  9  1  0
  8 10  1  0
  8 11  1  0
 13 14  1  0
 15 16  1  0
 17 18  1  0
 19 20  1  0
 21 22  1  0
M  CHG  1   6  -1
M  END
>  <PDB_ID>  (646) 
pdb1kxg

>  <RESIDUE_NAME>  (646) 
GLU   PHE

>  <FRAG_NAME>  (646) 
ACET   MBZ

>  <FRAG_ATOM_NUM>  (646) 
fragi: 7  fragj: 15

>  <atom.prop.CHAIN_ID>  (646) 
A A A A A A A Z Z Z Z Z Z Z Z Z Z Z Z Z Z Z

>  <atom.prop.IS_HEAVY_ATOM>  (646) 
1 0 0 0 1 1 1 1 0 0 0 1 1 0 1 0 1 0 1 0 1 0

>  <DIFUSE_FUNC_ATOM>  (646) 
atom 6   atom 7   

>  <FINAL_SINGLE_POINT_ENERGY>  (646) 
0

>  <NONCOV_INTER_ENERGY_QM>  (646) 
0

>  <FF_Energy>  (646) 
-2.21

>  <QM_Energy>  (646) 
-7.3

>  <source>  (646) 
ACET_MBZ_00

>  <Index>  (646) 
23179

$$$$
ACET-pdb1kyw-C-GLU-336:MBZ-pdb1kyw-C-PHE-347
     RDKit          3D

 22 21  0  0  0  0  0  0  0  0999 V2000
    1.2707    1.0734   -3.2990 C   0  0  0  0  0  0  0  0  0  0  0  0
    1.1341    0.8231   -2.3563 H   0  0  0  0  0  0  0  0  0  0  0  0
    2.2120    0.9796   -3.5727 H   0  0  0  0  0  0  0  0  0  0  0  0
    0.6654    0.4124   -3.9195 H   0  0  0  0  0  0  0  0  0  0  0  0
    0.9084    2.5648   -3.4291 C   0  0  0  0  0  0  0  0  0  0  0  0
   -0.2855    2.9172   -3.2624 O   0  0  0  0  0  1  0  0  0  0  0  0
    1.8238    3.3878   -3.6855 O   0  0  0  0  0  0  0  0  0  0  0  0
    0.0075    2.9172    0.0145 C   0  0  0  0  0  0  0  0  0  0  0  0
   -0.7594    3.2304   -0.5258 H   0  0  0  0  0  0  0  0  0  0  0  0
    0.8662    3.2209   -0.3688 H   0  0  0  0  0  0  0  0  0  0  0  0
   -0.0854    3.3548    1.0086 H   0  0  0  0  0  0  0  0  0  0  0  0
    0.0003    1.4062   -0.0002 C   0  0  0  0  0  0  0  0  0  0  0  0
   -1.1926    0.6995   -0.0007 C   0  0  0  0  0  0  0  0  0  0  0  0
   -2.0617    1.1858   -0.0025 H   0  0  0  0  0  0  0  0  0  0  0  0
   -1.1993   -0.6990    0.0000 C   0  0  0  0  0  0  0  0  0  0  0  0
   -2.0792   -1.1866    0.0003 H   0  0  0  0  0  0  0  0  0  0  0  0
   -0.0029   -1.3981    0.0018 C   0  0  0  0  0  0  0  0  0  0  0  0
   -0.0073   -2.3956    0.0037 H   0  0  0  0  0  0  0  0  0  0  0  0
    1.1993   -0.7015   -0.0000 C   0  0  0  0  0  0  0  0  0  0  0  0
    2.0803   -1.1981    0.0013 H   0  0  0  0  0  0  0  0  0  0  0  0
    1.1953    0.6929   -0.0010 C   0  0  0  0  0  0  0  0  0  0  0  0
    2.0657    1.1867   -0.0027 H   0  0  0  0  0  0  0  0  0  0  0  0
  1  5  1  0
  5  6  1  0
  5  7  2  0
  1  2  1  0
  1  3  1  0
  1  4  1  0
  8 12  1  0
 12 13  2  0
 13 15  1  0
 15 17  2  0
 17 19  1  0
 19 21  2  0
 21 12  1  0
  8  9  1  0
  8 10  1  0
  8 11  1  0
 13 14  1  0
 15 16  1  0
 17 18  1  0
 19 20  1  0
 21 22  1  0
M  CHG  1   6  -1
M  END
>  <PDB_ID>  (647) 
pdb1kyw

>  <RESIDUE_NAME>  (647) 
GLU   PHE

>  <FRAG_NAME>  (647) 
ACET   MBZ

>  <FRAG_ATOM_NUM>  (647) 
fragi: 7  fragj: 15

>  <atom.prop.CHAIN_ID>  (647) 
A A A A A A A Z Z Z Z Z Z Z Z Z Z Z Z Z Z Z

>  <atom.prop.IS_HEAVY_ATOM>  (647) 
1 0 0 0 1 1 1 1 0 0 0 1 1 0 1 0 1 0 1 0 1 0

>  <DIFUSE_FUNC_ATOM>  (647) 
atom 6   atom 7   

>  <FINAL_SINGLE_POINT_ENERGY>  (647) 
0

>  <NONCOV_INTER_ENERGY_QM>  (647) 
0

>  <FF_Energy>  (647) 
2.17

>  <QM_Energy>  (647) 
-3.42

>  <source>  (647) 
ACET_MBZ_00

>  <Index>  (647) 
23270

$$$$
ACET-pdb1kzy-C-ASP-1807:MBZ-pdb1kzy-C-PHE-1771
     RDKit          3D

 22 21  0  0  0  0  0  0  0  0999 V2000
    1.8715    2.9329   -2.9363 C   0  0  0  0  0  0  0  0  0  0  0  0
    1.6813    3.8408   -3.2895 H   0  0  0  0  0  0  0  0  0  0  0  0
    1.2204    2.6893   -2.2286 H   0  0  0  0  0  0  0  0  0  0  0  0
    1.7528    2.2253   -3.7568 H   0  0  0  0  0  0  0  0  0  0  0  0
    3.2738    2.9225   -2.3386 C   0  0  0  0  0  0  0  0  0  0  0  0
    3.5582    3.8097   -1.5053 O   0  0  0  0  0  1  0  0  0  0  0  0
    4.0904    2.0261   -2.6717 O   0  0  0  0  0  0  0  0  0  0  0  0
    0.0085    2.8836   -0.0765 C   0  0  0  0  0  0  0  0  0  0  0  0
   -0.0524    3.1436   -1.0316 H   0  0  0  0  0  0  0  0  0  0  0  0
    0.8560    3.2071    0.3231 H   0  0  0  0  0  0  0  0  0  0  0  0
   -0.8173    3.3562    0.4552 H   0  0  0  0  0  0  0  0  0  0  0  0
    0.0007    1.3956   -0.0013 C   0  0  0  0  0  0  0  0  0  0  0  0
   -1.1964    0.6916    0.0014 C   0  0  0  0  0  0  0  0  0  0  0  0
   -2.0614    1.1848    0.0034 H   0  0  0  0  0  0  0  0  0  0  0  0
   -1.2001   -0.6932    0.0000 C   0  0  0  0  0  0  0  0  0  0  0  0
   -2.0763   -1.1908    0.0023 H   0  0  0  0  0  0  0  0  0  0  0  0
    0.0032   -1.3938   -0.0024 C   0  0  0  0  0  0  0  0  0  0  0  0
   -0.0026   -2.3898   -0.0064 H   0  0  0  0  0  0  0  0  0  0  0  0
    1.2001   -0.6937   -0.0000 C   0  0  0  0  0  0  0  0  0  0  0  0
    2.0836   -1.1898    0.0014 H   0  0  0  0  0  0  0  0  0  0  0  0
    1.1926    0.6936    0.0024 C   0  0  0  0  0  0  0  0  0  0  0  0
    2.0618    1.1912    0.0064 H   0  0  0  0  0  0  0  0  0  0  0  0
  1  5  1  0
  5  6  1  0
  5  7  2  0
  1  2  1  0
  1  3  1  0
  1  4  1  0
  8 12  1  0
 12 13  2  0
 13 15  1  0
 15 17  2  0
 17 19  1  0
 19 21  2  0
 21 12  1  0
  8  9  1  0
  8 10  1  0
  8 11  1  0
 13 14  1  0
 15 16  1  0
 17 18  1  0
 19 20  1  0
 21 22  1  0
M  CHG  1   6  -1
M  END
>  <PDB_ID>  (648) 
pdb1kzy

>  <RESIDUE_NAME>  (648) 
ASP   PHE

>  <FRAG_NAME>  (648) 
ACET   MBZ

>  <FRAG_ATOM_NUM>  (648) 
fragi: 7  fragj: 15

>  <atom.prop.CHAIN_ID>  (648) 
A A A A A A A Z Z Z Z Z Z Z Z Z Z Z Z Z Z Z

>  <atom.prop.IS_HEAVY_ATOM>  (648) 
1 0 0 0 1 1 1 1 0 0 0 1 1 0 1 0 1 0 1 0 1 0

>  <DIFUSE_FUNC_ATOM>  (648) 
atom 6   atom 7   

>  <FINAL_SINGLE_POINT_ENERGY>  (648) 
0

>  <NONCOV_INTER_ENERGY_QM>  (648) 
0

>  <FF_Energy>  (648) 
1.77

>  <QM_Energy>  (648) 
-3.51

>  <source>  (648) 
ACET_MBZ_00

>  <Index>  (648) 
23316

$$$$
ACET-pdb1kzy-D-ASP-1807:MBZ-pdb1kzy-D-PHE-1771
     RDKit          3D

 22 21  0  0  0  0  0  0  0  0999 V2000
    1.4006    3.0724   -2.8063 C   0  0  0  0  0  0  0  0  0  0  0  0
    1.0666    3.9889   -3.0071 H   0  0  0  0  0  0  0  0  0  0  0  0
    0.9062    2.6896   -2.0320 H   0  0  0  0  0  0  0  0  0  0  0  0
    1.1948    2.4470   -3.6749 H   0  0  0  0  0  0  0  0  0  0  0  0
    2.8777    3.1572   -2.4502 C   0  0  0  0  0  0  0  0  0  0  0  0
    3.1597    3.7730   -1.3983 O   0  0  0  0  0  1  0  0  0  0  0  0
    3.7423    2.6290   -3.1842 O   0  0  0  0  0  0  0  0  0  0  0  0
   -0.0062    2.9047    0.0010 C   0  0  0  0  0  0  0  0  0  0  0  0
   -0.2158    3.2086   -0.9164 H   0  0  0  0  0  0  0  0  0  0  0  0
    0.8895    3.2123    0.2854 H   0  0  0  0  0  0  0  0  0  0  0  0
   -0.7426    3.3391    0.6771 H   0  0  0  0  0  0  0  0  0  0  0  0
   -0.0015    1.4037    0.0007 C   0  0  0  0  0  0  0  0  0  0  0  0
   -1.1938    0.6969   -0.0018 C   0  0  0  0  0  0  0  0  0  0  0  0
   -2.0630    1.1850   -0.0063 H   0  0  0  0  0  0  0  0  0  0  0  0
   -1.2030   -0.6991    0.0000 C   0  0  0  0  0  0  0  0  0  0  0  0
   -2.0797   -1.1887    0.0041 H   0  0  0  0  0  0  0  0  0  0  0  0
   -0.0008   -1.3975   -0.0014 C   0  0  0  0  0  0  0  0  0  0  0  0
   -0.0053   -2.3949   -0.0041 H   0  0  0  0  0  0  0  0  0  0  0  0
    1.2030   -0.7008   -0.0000 C   0  0  0  0  0  0  0  0  0  0  0  0
    2.0834   -1.1949    0.0004 H   0  0  0  0  0  0  0  0  0  0  0  0
    1.1961    0.6968    0.0025 C   0  0  0  0  0  0  0  0  0  0  0  0
    2.0647    1.1914    0.0049 H   0  0  0  0  0  0  0  0  0  0  0  0
  1  5  1  0
  5  6  1  0
  5  7  2  0
  1  2  1  0
  1  3  1  0
  1  4  1  0
  8 12  1  0
 12 13  2  0
 13 15  1  0
 15 17  2  0
 17 19  1  0
 19 21  2  0
 21 12  1  0
  8  9  1  0
  8 10  1  0
  8 11  1  0
 13 14  1  0
 15 16  1  0
 17 18  1  0
 19 20  1  0
 21 22  1  0
M  CHG  1   6  -1
M  END
>  <PDB_ID>  (649) 
pdb1kzy

>  <RESIDUE_NAME>  (649) 
ASP   PHE

>  <FRAG_NAME>  (649) 
ACET   MBZ

>  <FRAG_ATOM_NUM>  (649) 
fragi: 7  fragj: 15

>  <atom.prop.CHAIN_ID>  (649) 
A A A A A A A Z Z Z Z Z Z Z Z Z Z Z Z Z Z Z

>  <atom.prop.IS_HEAVY_ATOM>  (649) 
1 0 0 0 1 1 1 1 0 0 0 1 1 0 1 0 1 0 1 0 1 0

>  <DIFUSE_FUNC_ATOM>  (649) 
atom 6   atom 7   

>  <FINAL_SINGLE_POINT_ENERGY>  (649) 
0

>  <NONCOV_INTER_ENERGY_QM>  (649) 
0

>  <FF_Energy>  (649) 
12.02

>  <QM_Energy>  (649) 
-1.24

>  <source>  (649) 
ACET_MBZ_00

>  <Index>  (649) 
23318

$$$$
ACET-pdb2pd1-D-GLU-89:MBZ-pdb2pd1-D-PHE-7
     RDKit          3D

 22 21  0  0  0  0  0  0  0  0999 V2000
    5.2267    2.9784    0.6820 C   0  0  0  0  0  0  0  0  0  0  0  0
    6.1601    3.2859    0.6619 H   0  0  0  0  0  0  0  0  0  0  0  0
    4.9901    2.5601    1.5392 H   0  0  0  0  0  0  0  0  0  0  0  0
    4.5846    3.8483    0.5435 H   0  0  0  0  0  0  0  0  0  0  0  0
    5.0562    1.9392   -0.4036 C   0  0  0  0  0  0  0  0  0  0  0  0
    5.6758    2.0749   -1.4891 O   0  0  0  0  0  1  0  0  0  0  0  0
    4.3264    0.9557   -0.1485 O   0  0  0  0  0  0  0  0  0  0  0  0
   -0.0124    2.9141   -0.0052 C   0  0  0  0  0  0  0  0  0  0  0  0
   -0.6724    3.2294   -0.6625 H   0  0  0  0  0  0  0  0  0  0  0  0
    0.8973    3.2271   -0.2108 H   0  0  0  0  0  0  0  0  0  0  0  0
   -0.2918    3.3148    0.9692 H   0  0  0  0  0  0  0  0  0  0  0  0
   -0.0063    1.4094   -0.0337 C   0  0  0  0  0  0  0  0  0  0  0  0
   -1.2046    0.6953   -0.0209 C   0  0  0  0  0  0  0  0  0  0  0  0
   -2.0739    1.1747   -0.0272 H   0  0  0  0  0  0  0  0  0  0  0  0
   -1.2149   -0.7243   -0.0000 C   0  0  0  0  0  0  0  0  0  0  0  0
   -2.0819   -1.2072   -0.0011 H   0  0  0  0  0  0  0  0  0  0  0  0
    0.0022   -1.4025    0.0232 C   0  0  0  0  0  0  0  0  0  0  0  0
    0.0182   -2.3996    0.0564 H   0  0  0  0  0  0  0  0  0  0  0  0
    1.2149   -0.6857   -0.0000 C   0  0  0  0  0  0  0  0  0  0  0  0
    2.0923   -1.1854   -0.0384 H   0  0  0  0  0  0  0  0  0  0  0  0
    1.2087    0.7078    0.0313 C   0  0  0  0  0  0  0  0  0  0  0  0
    2.0624    1.2095    0.0990 H   0  0  0  0  0  0  0  0  0  0  0  0
  1  5  1  0
  5  6  1  0
  5  7  2  0
  1  2  1  0
  1  3  1  0
  1  4  1  0
  8 12  1  0
 12 13  2  0
 13 15  1  0
 15 17  2  0
 17 19  1  0
 19 21  2  0
 21 12  1  0
  8  9  1  0
  8 10  1  0
  8 11  1  0
 13 14  1  0
 15 16  1  0
 17 18  1  0
 19 20  1  0
 21 22  1  0
M  CHG  1   6  -1
M  END
>  <PDB_ID>  (650) 
pdb2pd1

>  <RESIDUE_NAME>  (650) 
GLU   PHE

>  <FRAG_NAME>  (650) 
ACET   MBZ

>  <FRAG_ATOM_NUM>  (650) 
fragi: 7  fragj: 15

>  <atom.prop.CHAIN_ID>  (650) 
A A A A A A A Z Z Z Z Z Z Z Z Z Z Z Z Z Z Z

>  <atom.prop.IS_HEAVY_ATOM>  (650) 
1 0 0 0 1 1 1 1 0 0 0 1 1 0 1 0 1 0 1 0 1 0

>  <DIFUSE_FUNC_ATOM>  (650) 
atom 6   atom 7   

>  <FINAL_SINGLE_POINT_ENERGY>  (650) 
0

>  <NONCOV_INTER_ENERGY_QM>  (650) 
0

>  <FF_Energy>  (650) 
-1.49

>  <QM_Energy>  (650) 
-6.53

>  <source>  (650) 
ACET_MBZ_00

>  <Index>  (650) 
23346

$$$$
ACET-pdb1l1e-B-GLU-198:MBZ-pdb1l1e-B-PHE-194
     RDKit          3D

 22 21  0  0  0  0  0  0  0  0999 V2000
   -4.5396    0.1140    2.4042 C   0  0  0  0  0  0  0  0  0  0  0  0
   -5.1797   -0.6282    2.4905 H   0  0  0  0  0  0  0  0  0  0  0  0
   -4.8940    0.9529    2.7760 H   0  0  0  0  0  0  0  0  0  0  0  0
   -3.6406   -0.1497    2.9613 H   0  0  0  0  0  0  0  0  0  0  0  0
   -4.2924    0.3384    0.9170 C   0  0  0  0  0  0  0  0  0  0  0  0
   -3.9389    1.4763    0.5357 O   0  0  0  0  0  1  0  0  0  0  0  0
   -4.4468   -0.6197    0.1263 O   0  0  0  0  0  0  0  0  0  0  0  0
    0.0046    2.9066    0.0221 C   0  0  0  0  0  0  0  0  0  0  0  0
   -0.4813    3.2264   -0.7766 H   0  0  0  0  0  0  0  0  0  0  0  0
    0.9456    3.2100    0.0177 H   0  0  0  0  0  0  0  0  0  0  0  0
   -0.4792    3.3359    0.8995 H   0  0  0  0  0  0  0  0  0  0  0  0
    0.0000    1.4039    0.0001 C   0  0  0  0  0  0  0  0  0  0  0  0
   -1.1965    0.6964   -0.0001 C   0  0  0  0  0  0  0  0  0  0  0  0
   -2.0640    1.1863   -0.0015 H   0  0  0  0  0  0  0  0  0  0  0  0
   -1.2031   -0.6974    0.0000 C   0  0  0  0  0  0  0  0  0  0  0  0
   -2.0797   -1.1888    0.0006 H   0  0  0  0  0  0  0  0  0  0  0  0
   -0.0011   -1.3973    0.0004 C   0  0  0  0  0  0  0  0  0  0  0  0
   -0.0055   -2.3941    0.0002 H   0  0  0  0  0  0  0  0  0  0  0  0
    1.2031   -0.6997   -0.0000 C   0  0  0  0  0  0  0  0  0  0  0  0
    2.0831   -1.1969    0.0017 H   0  0  0  0  0  0  0  0  0  0  0  0
    1.1975    0.6940   -0.0005 C   0  0  0  0  0  0  0  0  0  0  0  0
    2.0654    1.1897   -0.0016 H   0  0  0  0  0  0  0  0  0  0  0  0
  1  5  1  0
  5  6  1  0
  5  7  2  0
  1  2  1  0
  1  3  1  0
  1  4  1  0
  8 12  1  0
 12 13  2  0
 13 15  1  0
 15 17  2  0
 17 19  1  0
 19 21  2  0
 21 12  1  0
  8  9  1  0
  8 10  1  0
  8 11  1  0
 13 14  1  0
 15 16  1  0
 17 18  1  0
 19 20  1  0
 21 22  1  0
M  CHG  1   6  -1
M  END
>  <PDB_ID>  (651) 
pdb1l1e

>  <RESIDUE_NAME>  (651) 
GLU   PHE

>  <FRAG_NAME>  (651) 
ACET   MBZ

>  <FRAG_ATOM_NUM>  (651) 
fragi: 7  fragj: 15

>  <atom.prop.CHAIN_ID>  (651) 
A A A A A A A Z Z Z Z Z Z Z Z Z Z Z Z Z Z Z

>  <atom.prop.IS_HEAVY_ATOM>  (651) 
1 0 0 0 1 1 1 1 0 0 0 1 1 0 1 0 1 0 1 0 1 0

>  <DIFUSE_FUNC_ATOM>  (651) 
atom 6   atom 7   

>  <FINAL_SINGLE_POINT_ENERGY>  (651) 
0

>  <NONCOV_INTER_ENERGY_QM>  (651) 
0

>  <FF_Energy>  (651) 
7.64

>  <QM_Energy>  (651) 
-7.38

>  <source>  (651) 
ACET_MBZ_00

>  <Index>  (651) 
23369

$$$$
ACET-pdb1l1l-A-GLU-500:MBZ-pdb1l1l-A-PHE-670
     RDKit          3D

 22 21  0  0  0  0  0  0  0  0999 V2000
   -0.9152   -4.4200   -1.9209 C   0  0  0  0  0  0  0  0  0  0  0  0
   -0.5524   -4.5374   -2.8247 H   0  0  0  0  0  0  0  0  0  0  0  0
   -1.3390   -3.5439   -1.7958 H   0  0  0  0  0  0  0  0  0  0  0  0
   -1.6553   -5.1984   -1.7356 H   0  0  0  0  0  0  0  0  0  0  0  0
    0.2492   -4.5020   -0.9511 C   0  0  0  0  0  0  0  0  0  0  0  0
    0.0051   -4.7461    0.2549 O   0  0  0  0  0  1  0  0  0  0  0  0
    1.4061   -4.3142   -1.3920 O   0  0  0  0  0  0  0  0  0  0  0  0
   -0.0025    2.9105   -0.0073 C   0  0  0  0  0  0  0  0  0  0  0  0
   -0.9303    3.2158   -0.1652 H   0  0  0  0  0  0  0  0  0  0  0  0
    0.6027    3.2139   -0.7279 H   0  0  0  0  0  0  0  0  0  0  0  0
    0.3401    3.3614    0.9240 H   0  0  0  0  0  0  0  0  0  0  0  0
   -0.0018    1.4046   -0.0002 C   0  0  0  0  0  0  0  0  0  0  0  0
   -1.2014    0.6971    0.0016 C   0  0  0  0  0  0  0  0  0  0  0  0
   -2.0669    1.1860    0.0035 H   0  0  0  0  0  0  0  0  0  0  0  0
   -1.2064   -0.6987   -0.0000 C   0  0  0  0  0  0  0  0  0  0  0  0
   -2.0789   -1.1934    0.0002 H   0  0  0  0  0  0  0  0  0  0  0  0
    0.0036   -1.3981    0.0001 C   0  0  0  0  0  0  0  0  0  0  0  0
   -0.0010   -2.3938   -0.0000 H   0  0  0  0  0  0  0  0  0  0  0  0
    1.2064   -0.6970    0.0000 C   0  0  0  0  0  0  0  0  0  0  0  0
    2.0875   -1.1955    0.0022 H   0  0  0  0  0  0  0  0  0  0  0  0
    1.1997    0.6922   -0.0014 C   0  0  0  0  0  0  0  0  0  0  0  0
    2.0659    1.1922   -0.0042 H   0  0  0  0  0  0  0  0  0  0  0  0
  1  5  1  0
  5  6  1  0
  5  7  2  0
  1  2  1  0
  1  3  1  0
  1  4  1  0
  8 12  1  0
 12 13  2  0
 13 15  1  0
 15 17  2  0
 17 19  1  0
 19 21  2  0
 21 12  1  0
  8  9  1  0
  8 10  1  0
  8 11  1  0
 13 14  1  0
 15 16  1  0
 17 18  1  0
 19 20  1  0
 21 22  1  0
M  CHG  1   6  -1
M  END
>  <PDB_ID>  (652) 
pdb1l1l

>  <RESIDUE_NAME>  (652) 
GLU   PHE

>  <FRAG_NAME>  (652) 
ACET   MBZ

>  <FRAG_ATOM_NUM>  (652) 
fragi: 7  fragj: 15

>  <atom.prop.CHAIN_ID>  (652) 
A A A A A A A Z Z Z Z Z Z Z Z Z Z Z Z Z Z Z

>  <atom.prop.IS_HEAVY_ATOM>  (652) 
1 0 0 0 1 1 1 1 0 0 0 1 1 0 1 0 1 0 1 0 1 0

>  <DIFUSE_FUNC_ATOM>  (652) 
atom 6   atom 7   

>  <FINAL_SINGLE_POINT_ENERGY>  (652) 
0

>  <NONCOV_INTER_ENERGY_QM>  (652) 
0

>  <FF_Energy>  (652) 
0.63

>  <QM_Energy>  (652) 
-5.42

>  <source>  (652) 
ACET_MBZ_00

>  <Index>  (652) 
23384

$$$$
ACET-pdb1l1y-A-ASP-241:MBZ-pdb1l1y-A-PHE-157
     RDKit          3D

 22 21  0  0  0  0  0  0  0  0999 V2000
   -2.6937   -5.8233    0.5817 C   0  0  0  0  0  0  0  0  0  0  0  0
   -2.5223   -6.0831    1.5249 H   0  0  0  0  0  0  0  0  0  0  0  0
   -2.8891   -6.6243    0.0290 H   0  0  0  0  0  0  0  0  0  0  0  0
   -3.5722   -5.1783    0.5641 H   0  0  0  0  0  0  0  0  0  0  0  0
   -1.4246   -5.1493    0.0279 C   0  0  0  0  0  0  0  0  0  0  0  0
   -1.4721   -3.9684   -0.4018 O   0  0  0  0  0  1  0  0  0  0  0  0
   -0.3208   -5.7448   -0.0119 O   0  0  0  0  0  0  0  0  0  0  0  0
    0.0059    2.9039   -0.0193 C   0  0  0  0  0  0  0  0  0  0  0  0
   -0.7405    3.2069   -0.6000 H   0  0  0  0  0  0  0  0  0  0  0  0
    0.8788    3.2034   -0.3863 H   0  0  0  0  0  0  0  0  0  0  0  0
   -0.1214    3.3758    0.9549 H   0  0  0  0  0  0  0  0  0  0  0  0
   -0.0003    1.4107    0.0079 C   0  0  0  0  0  0  0  0  0  0  0  0
   -1.2105    0.7016   -0.0064 C   0  0  0  0  0  0  0  0  0  0  0  0
   -2.0713    1.1929   -0.0226 H   0  0  0  0  0  0  0  0  0  0  0  0
   -1.2159   -0.6980   -0.0000 C   0  0  0  0  0  0  0  0  0  0  0  0
   -2.0845   -1.1938    0.0052 H   0  0  0  0  0  0  0  0  0  0  0  0
    0.0050   -1.4043    0.0008 C   0  0  0  0  0  0  0  0  0  0  0  0
   -0.0067   -2.3996    0.0018 H   0  0  0  0  0  0  0  0  0  0  0  0
    1.2159   -0.7081   -0.0000 C   0  0  0  0  0  0  0  0  0  0  0  0
    2.0931   -1.1996    0.0025 H   0  0  0  0  0  0  0  0  0  0  0  0
    1.2059    0.6981   -0.0023 C   0  0  0  0  0  0  0  0  0  0  0  0
    2.0713    1.1923   -0.0123 H   0  0  0  0  0  0  0  0  0  0  0  0
  1  5  1  0
  5  6  1  0
  5  7  2  0
  1  2  1  0
  1  3  1  0
  1  4  1  0
  8 12  1  0
 12 13  2  0
 13 15  1  0
 15 17  2  0
 17 19  1  0
 19 21  2  0
 21 12  1  0
  8  9  1  0
  8 10  1  0
  8 11  1  0
 13 14  1  0
 15 16  1  0
 17 18  1  0
 19 20  1  0
 21 22  1  0
M  CHG  1   6  -1
M  END
>  <PDB_ID>  (653) 
pdb1l1y

>  <RESIDUE_NAME>  (653) 
ASP   PHE

>  <FRAG_NAME>  (653) 
ACET   MBZ

>  <FRAG_ATOM_NUM>  (653) 
fragi: 7  fragj: 15

>  <atom.prop.CHAIN_ID>  (653) 
A A A A A A A Z Z Z Z Z Z Z Z Z Z Z Z Z Z Z

>  <atom.prop.IS_HEAVY_ATOM>  (653) 
1 0 0 0 1 1 1 1 0 0 0 1 1 0 1 0 1 0 1 0 1 0

>  <DIFUSE_FUNC_ATOM>  (653) 
atom 6   atom 7   

>  <FINAL_SINGLE_POINT_ENERGY>  (653) 
0

>  <NONCOV_INTER_ENERGY_QM>  (653) 
0

>  <FF_Energy>  (653) 
-0.52

>  <QM_Energy>  (653) 
-6.68

>  <source>  (653) 
ACET_MBZ_00

>  <Index>  (653) 
23393

$$$$
ACET-pdb1l4u-A-GLU-54:MBZ-pdb1l4u-A-PHE-49
     RDKit          3D

 22 21  0  0  0  0  0  0  0  0999 V2000
   -5.1296   -1.0895    1.0577 C   0  0  0  0  0  0  0  0  0  0  0  0
   -4.4739   -0.3812    1.2381 H   0  0  0  0  0  0  0  0  0  0  0  0
   -5.8108   -1.1593    1.7607 H   0  0  0  0  0  0  0  0  0  0  0  0
   -5.6285   -0.8640    0.1152 H   0  0  0  0  0  0  0  0  0  0  0  0
   -4.3813   -2.4065    1.0123 C   0  0  0  0  0  0  0  0  0  0  0  0
   -5.0017   -3.4289    0.6471 O   0  0  0  0  0  1  0  0  0  0  0  0
   -3.1786   -2.4223    1.3466 O   0  0  0  0  0  0  0  0  0  0  0  0
   -0.0043    2.9048    0.0066 C   0  0  0  0  0  0  0  0  0  0  0  0
    0.9309    3.2137    0.1013 H   0  0  0  0  0  0  0  0  0  0  0  0
   -0.5610    3.2061    0.7666 H   0  0  0  0  0  0  0  0  0  0  0  0
   -0.4118    3.3502   -0.9008 H   0  0  0  0  0  0  0  0  0  0  0  0
    0.0001    1.4035   -0.0016 C   0  0  0  0  0  0  0  0  0  0  0  0
   -1.1974    0.6947   -0.0005 C   0  0  0  0  0  0  0  0  0  0  0  0
   -2.0642    1.1847   -0.0010 H   0  0  0  0  0  0  0  0  0  0  0  0
   -1.2035   -0.6987    0.0000 C   0  0  0  0  0  0  0  0  0  0  0  0
   -2.0799   -1.1909    0.0002 H   0  0  0  0  0  0  0  0  0  0  0  0
   -0.0012   -1.3964    0.0025 C   0  0  0  0  0  0  0  0  0  0  0  0
   -0.0047   -2.3946    0.0059 H   0  0  0  0  0  0  0  0  0  0  0  0
    1.2035   -0.6988    0.0000 C   0  0  0  0  0  0  0  0  0  0  0  0
    2.0835   -1.1954    0.0002 H   0  0  0  0  0  0  0  0  0  0  0  0
    1.1986    0.6957   -0.0004 C   0  0  0  0  0  0  0  0  0  0  0  0
    2.0659    1.1914   -0.0008 H   0  0  0  0  0  0  0  0  0  0  0  0
  1  5  1  0
  5  6  1  0
  5  7  2  0
  1  2  1  0
  1  3  1  0
  1  4  1  0
  8 12  1  0
 12 13  2  0
 13 15  1  0
 15 17  2  0
 17 19  1  0
 19 21  2  0
 21 12  1  0
  8  9  1  0
  8 10  1  0
  8 11  1  0
 13 14  1  0
 15 16  1  0
 17 18  1  0
 19 20  1  0
 21 22  1  0
M  CHG  1   6  -1
M  END
>  <PDB_ID>  (654) 
pdb1l4u

>  <RESIDUE_NAME>  (654) 
GLU   PHE

>  <FRAG_NAME>  (654) 
ACET   MBZ

>  <FRAG_ATOM_NUM>  (654) 
fragi: 7  fragj: 15

>  <atom.prop.CHAIN_ID>  (654) 
A A A A A A A Z Z Z Z Z Z Z Z Z Z Z Z Z Z Z

>  <atom.prop.IS_HEAVY_ATOM>  (654) 
1 0 0 0 1 1 1 1 0 0 0 1 1 0 1 0 1 0 1 0 1 0

>  <DIFUSE_FUNC_ATOM>  (654) 
atom 6   atom 7   

>  <FINAL_SINGLE_POINT_ENERGY>  (654) 
0

>  <NONCOV_INTER_ENERGY_QM>  (654) 
0

>  <FF_Energy>  (654) 
1.34

>  <QM_Energy>  (654) 
-4.4

>  <source>  (654) 
ACET_MBZ_00

>  <Index>  (654) 
23538

$$$$
ACET-pdb1l5j-B-ASP-337:MBZ-pdb1l5j-B-PHE-156
     RDKit          3D

 22 21  0  0  0  0  0  0  0  0999 V2000
    1.6177   -4.3324    2.0105 C   0  0  0  0  0  0  0  0  0  0  0  0
    1.9721   -4.9590    2.6984 H   0  0  0  0  0  0  0  0  0  0  0  0
    1.8965   -3.4002    2.2217 H   0  0  0  0  0  0  0  0  0  0  0  0
    2.0590   -4.6048    1.0517 H   0  0  0  0  0  0  0  0  0  0  0  0
    0.1062   -4.4045    2.0159 C   0  0  0  0  0  0  0  0  0  0  0  0
   -0.5307   -4.2781    0.9509 O   0  0  0  0  0  1  0  0  0  0  0  0
   -0.5234   -4.5556    3.0774 O   0  0  0  0  0  0  0  0  0  0  0  0
   -0.0075    2.9017    0.0213 C   0  0  0  0  0  0  0  0  0  0  0  0
    0.6317    3.1990    0.7191 H   0  0  0  0  0  0  0  0  0  0  0  0
   -0.9282    3.2010    0.2360 H   0  0  0  0  0  0  0  0  0  0  0  0
    0.2836    3.3706   -0.9186 H   0  0  0  0  0  0  0  0  0  0  0  0
   -0.0011    1.4035   -0.0061 C   0  0  0  0  0  0  0  0  0  0  0  0
   -1.1941    0.6992    0.0022 C   0  0  0  0  0  0  0  0  0  0  0  0
   -2.0630    1.1833    0.0084 H   0  0  0  0  0  0  0  0  0  0  0  0
   -1.2004   -0.7027    0.0000 C   0  0  0  0  0  0  0  0  0  0  0  0
   -2.0771   -1.1899   -0.0028 H   0  0  0  0  0  0  0  0  0  0  0  0
    0.0013   -1.3975    0.0035 C   0  0  0  0  0  0  0  0  0  0  0  0
   -0.0008   -2.3963    0.0079 H   0  0  0  0  0  0  0  0  0  0  0  0
    1.2004   -0.6986    0.0000 C   0  0  0  0  0  0  0  0  0  0  0  0
    2.0829   -1.1935   -0.0015 H   0  0  0  0  0  0  0  0  0  0  0  0
    1.1939    0.6961    0.0004 C   0  0  0  0  0  0  0  0  0  0  0  0
    2.0632    1.1904    0.0048 H   0  0  0  0  0  0  0  0  0  0  0  0
  1  5  1  0
  5  6  1  0
  5  7  2  0
  1  2  1  0
  1  3  1  0
  1  4  1  0
  8 12  1  0
 12 13  2  0
 13 15  1  0
 15 17  2  0
 17 19  1  0
 19 21  2  0
 21 12  1  0
  8  9  1  0
  8 10  1  0
  8 11  1  0
 13 14  1  0
 15 16  1  0
 17 18  1  0
 19 20  1  0
 21 22  1  0
M  CHG  1   6  -1
M  END
>  <PDB_ID>  (655) 
pdb1l5j

>  <RESIDUE_NAME>  (655) 
ASP   PHE

>  <FRAG_NAME>  (655) 
ACET   MBZ

>  <FRAG_ATOM_NUM>  (655) 
fragi: 7  fragj: 15

>  <atom.prop.CHAIN_ID>  (655) 
A A A A A A A Z Z Z Z Z Z Z Z Z Z Z Z Z Z Z

>  <atom.prop.IS_HEAVY_ATOM>  (655) 
1 0 0 0 1 1 1 1 0 0 0 1 1 0 1 0 1 0 1 0 1 0

>  <DIFUSE_FUNC_ATOM>  (655) 
atom 6   atom 7   

>  <FINAL_SINGLE_POINT_ENERGY>  (655) 
0

>  <NONCOV_INTER_ENERGY_QM>  (655) 
0

>  <FF_Energy>  (655) 
-0.08

>  <QM_Energy>  (655) 
-5.41

>  <source>  (655) 
ACET_MBZ_00

>  <Index>  (655) 
23549

$$$$
ACET-pdb2per-A-ASP-183:MBZ-pdb2per-A-PHE-173
     RDKit          3D

 22 21  0  0  0  0  0  0  0  0999 V2000
   -1.6159    3.8131    4.6934 C   0  0  0  0  0  0  0  0  0  0  0  0
   -0.9549    3.3499    5.2740 H   0  0  0  0  0  0  0  0  0  0  0  0
   -2.3399    3.1883    4.4245 H   0  0  0  0  0  0  0  0  0  0  0  0
   -2.0575    4.6341    5.2582 H   0  0  0  0  0  0  0  0  0  0  0  0
   -0.8972    4.2852    3.4319 C   0  0  0  0  0  0  0  0  0  0  0  0
   -1.5648    4.5741    2.4444 O   0  0  0  0  0  1  0  0  0  0  0  0
    0.3321    4.2771    3.4186 O   0  0  0  0  0  0  0  0  0  0  0  0
   -0.0016    2.8799   -0.0575 C   0  0  0  0  0  0  0  0  0  0  0  0
    0.9282    3.2089   -0.0344 H   0  0  0  0  0  0  0  0  0  0  0  0
   -0.5321    3.2305    0.6969 H   0  0  0  0  0  0  0  0  0  0  0  0
   -0.4522    3.2751   -0.9680 H   0  0  0  0  0  0  0  0  0  0  0  0
    0.0031    1.4050   -0.0047 C   0  0  0  0  0  0  0  0  0  0  0  0
   -1.2160    0.6999   -0.0071 C   0  0  0  0  0  0  0  0  0  0  0  0
   -2.0705    1.2026   -0.0156 H   0  0  0  0  0  0  0  0  0  0  0  0
   -1.2282   -0.6883    0.0000 C   0  0  0  0  0  0  0  0  0  0  0  0
   -2.0944   -1.1890   -0.0045 H   0  0  0  0  0  0  0  0  0  0  0  0
   -0.0016   -1.4044    0.0154 C   0  0  0  0  0  0  0  0  0  0  0  0
   -0.0107   -2.3928    0.0366 H   0  0  0  0  0  0  0  0  0  0  0  0
    1.2282   -0.6997   -0.0000 C   0  0  0  0  0  0  0  0  0  0  0  0
    2.0946   -1.2058   -0.0068 H   0  0  0  0  0  0  0  0  0  0  0  0
    1.2145    0.6875   -0.0036 C   0  0  0  0  0  0  0  0  0  0  0  0
    2.0766    1.1961   -0.0062 H   0  0  0  0  0  0  0  0  0  0  0  0
  1  5  1  0
  5  6  1  0
  5  7  2  0
  1  2  1  0
  1  3  1  0
  1  4  1  0
  8 12  1  0
 12 13  2  0
 13 15  1  0
 15 17  2  0
 17 19  1  0
 19 21  2  0
 21 12  1  0
  8  9  1  0
  8 10  1  0
  8 11  1  0
 13 14  1  0
 15 16  1  0
 17 18  1  0
 19 20  1  0
 21 22  1  0
M  CHG  1   6  -1
M  END
>  <PDB_ID>  (656) 
pdb2per

>  <RESIDUE_NAME>  (656) 
ASP   PHE

>  <FRAG_NAME>  (656) 
ACET   MBZ

>  <FRAG_ATOM_NUM>  (656) 
fragi: 7  fragj: 15

>  <atom.prop.CHAIN_ID>  (656) 
A A A A A A A Z Z Z Z Z Z Z Z Z Z Z Z Z Z Z

>  <atom.prop.IS_HEAVY_ATOM>  (656) 
1 0 0 0 1 1 1 1 0 0 0 1 1 0 1 0 1 0 1 0 1 0

>  <DIFUSE_FUNC_ATOM>  (656) 
atom 6   atom 7   

>  <FINAL_SINGLE_POINT_ENERGY>  (656) 
0

>  <NONCOV_INTER_ENERGY_QM>  (656) 
0

>  <FF_Energy>  (656) 
-0.54

>  <QM_Energy>  (656) 
-6.03

>  <source>  (656) 
ACET_MBZ_00

>  <Index>  (656) 
23574

$$$$
ACET-pdb2pfs-A-GLU-70:MBZ-pdb2pfs-A-PHE-13
     RDKit          3D

 22 21  0  0  0  0  0  0  0  0999 V2000
    5.9557   -1.4977    1.3435 C   0  0  0  0  0  0  0  0  0  0  0  0
    6.4668   -1.2730    2.1379 H   0  0  0  0  0  0  0  0  0  0  0  0
    6.4925   -1.8109    0.5972 H   0  0  0  0  0  0  0  0  0  0  0  0
    5.2511   -2.2862    1.6078 H   0  0  0  0  0  0  0  0  0  0  0  0
    5.2109   -0.2528    0.8958 C   0  0  0  0  0  0  0  0  0  0  0  0
    4.2664   -0.3819    0.0982 O   0  0  0  0  0  1  0  0  0  0  0  0
    5.4936    0.8395    1.3808 O   0  0  0  0  0  0  0  0  0  0  0  0
   -0.0182    2.9150    0.0326 C   0  0  0  0  0  0  0  0  0  0  0  0
    0.7684    3.2405   -0.4655 H   0  0  0  0  0  0  0  0  0  0  0  0
   -0.0022    3.2097    0.9740 H   0  0  0  0  0  0  0  0  0  0  0  0
   -0.9020    3.3533   -0.4311 H   0  0  0  0  0  0  0  0  0  0  0  0
   -0.0019    1.4091    0.0089 C   0  0  0  0  0  0  0  0  0  0  0  0
   -1.2025    0.6914    0.0024 C   0  0  0  0  0  0  0  0  0  0  0  0
   -2.0710    1.1836   -0.0023 H   0  0  0  0  0  0  0  0  0  0  0  0
   -1.2250   -0.7147   -0.0000 C   0  0  0  0  0  0  0  0  0  0  0  0
   -2.0954   -1.1967    0.0093 H   0  0  0  0  0  0  0  0  0  0  0  0
   -0.0131   -1.4115   -0.0137 C   0  0  0  0  0  0  0  0  0  0  0  0
    0.0047   -2.3996   -0.0333 H   0  0  0  0  0  0  0  0  0  0  0  0
    1.2250   -0.6863    0.0000 C   0  0  0  0  0  0  0  0  0  0  0  0
    2.0923   -1.1930    0.0090 H   0  0  0  0  0  0  0  0  0  0  0  0
    1.2175    0.7120    0.0024 C   0  0  0  0  0  0  0  0  0  0  0  0
    2.0721    1.2137   -0.0021 H   0  0  0  0  0  0  0  0  0  0  0  0
  1  5  1  0
  5  6  1  0
  5  7  2  0
  1  2  1  0
  1  3  1  0
  1  4  1  0
  8 12  1  0
 12 13  2  0
 13 15  1  0
 15 17  2  0
 17 19  1  0
 19 21  2  0
 21 12  1  0
  8  9  1  0
  8 10  1  0
  8 11  1  0
 13 14  1  0
 15 16  1  0
 17 18  1  0
 19 20  1  0
 21 22  1  0
M  CHG  1   6  -1
M  END
>  <PDB_ID>  (657) 
pdb2pfs

>  <RESIDUE_NAME>  (657) 
GLU   PHE

>  <FRAG_NAME>  (657) 
ACET   MBZ

>  <FRAG_ATOM_NUM>  (657) 
fragi: 7  fragj: 15

>  <atom.prop.CHAIN_ID>  (657) 
A A A A A A A Z Z Z Z Z Z Z Z Z Z Z Z Z Z Z

>  <atom.prop.IS_HEAVY_ATOM>  (657) 
1 0 0 0 1 1 1 1 0 0 0 1 1 0 1 0 1 0 1 0 1 0

>  <DIFUSE_FUNC_ATOM>  (657) 
atom 6   atom 7   

>  <FINAL_SINGLE_POINT_ENERGY>  (657) 
0

>  <NONCOV_INTER_ENERGY_QM>  (657) 
0

>  <FF_Energy>  (657) 
-1.63

>  <QM_Energy>  (657) 
-7.48

>  <source>  (657) 
ACET_MBZ_00

>  <Index>  (657) 
23583

$$$$
ACET-pdb2pfw-B-ASP-79:MBZ-pdb2pfw-A-PHE-9
     RDKit          3D

 22 21  0  0  0  0  0  0  0  0999 V2000
   -4.3942    2.1299   -2.4246 C   0  0  0  0  0  0  0  0  0  0  0  0
   -5.1318    1.4524   -2.6057 H   0  0  0  0  0  0  0  0  0  0  0  0
   -3.5476    1.7623   -2.8509 H   0  0  0  0  0  0  0  0  0  0  0  0
   -4.6550    3.0508   -2.9463 H   0  0  0  0  0  0  0  0  0  0  0  0
   -4.1786    2.2067   -0.9350 C   0  0  0  0  0  0  0  0  0  0  0  0
   -3.6278    3.1961   -0.4165 O   0  0  0  0  0  1  0  0  0  0  0  0
   -4.5648    1.2271   -0.2540 O   0  0  0  0  0  0  0  0  0  0  0  0
   -0.0299    2.9017    0.0112 C   0  0  0  0  0  0  0  0  0  0  0  0
    0.9101    3.2139    0.0074 H   0  0  0  0  0  0  0  0  0  0  0  0
   -0.4969    3.1895    0.8365 H   0  0  0  0  0  0  0  0  0  0  0  0
   -0.5399    3.3501   -0.8414 H   0  0  0  0  0  0  0  0  0  0  0  0
   -0.0080    1.3852    0.0033 C   0  0  0  0  0  0  0  0  0  0  0  0
   -1.1937    0.6808    0.0033 C   0  0  0  0  0  0  0  0  0  0  0  0
   -2.0650    1.1705    0.0041 H   0  0  0  0  0  0  0  0  0  0  0  0
   -1.1983   -0.7025   -0.0000 C   0  0  0  0  0  0  0  0  0  0  0  0
   -2.0697   -1.2009   -0.0026 H   0  0  0  0  0  0  0  0  0  0  0  0
    0.0063   -1.3819    0.0027 C   0  0  0  0  0  0  0  0  0  0  0  0
    0.0094   -2.3857    0.0066 H   0  0  0  0  0  0  0  0  0  0  0  0
    1.1983   -0.6838   -0.0000 C   0  0  0  0  0  0  0  0  0  0  0  0
    2.0845   -1.1815    0.0062 H   0  0  0  0  0  0  0  0  0  0  0  0
    1.1954    0.7023   -0.0092 C   0  0  0  0  0  0  0  0  0  0  0  0
    2.0550    1.2019   -0.0256 H   0  0  0  0  0  0  0  0  0  0  0  0
  1  5  1  0
  5  6  1  0
  5  7  2  0
  1  2  1  0
  1  3  1  0
  1  4  1  0
  8 12  1  0
 12 13  2  0
 13 15  1  0
 15 17  2  0
 17 19  1  0
 19 21  2  0
 21 12  1  0
  8  9  1  0
  8 10  1  0
  8 11  1  0
 13 14  1  0
 15 16  1  0
 17 18  1  0
 19 20  1  0
 21 22  1  0
M  CHG  1   6  -1
M  END
>  <PDB_ID>  (658) 
pdb2pfw

>  <RESIDUE_NAME>  (658) 
ASP   PHE

>  <FRAG_NAME>  (658) 
ACET   MBZ

>  <FRAG_ATOM_NUM>  (658) 
fragi: 7  fragj: 15

>  <atom.prop.CHAIN_ID>  (658) 
A A A A A A A Z Z Z Z Z Z Z Z Z Z Z Z Z Z Z

>  <atom.prop.IS_HEAVY_ATOM>  (658) 
1 0 0 0 1 1 1 1 0 0 0 1 1 0 1 0 1 0 1 0 1 0

>  <DIFUSE_FUNC_ATOM>  (658) 
atom 6   atom 7   

>  <FINAL_SINGLE_POINT_ENERGY>  (658) 
0

>  <NONCOV_INTER_ENERGY_QM>  (658) 
0

>  <FF_Energy>  (658) 
-2.35

>  <QM_Energy>  (658) 
-8.46

>  <source>  (658) 
ACET_MBZ_00

>  <Index>  (658) 
23591

$$$$
ACET-pdb1l7j-A-GLU-53:MBZ-pdb1l7j-A-PHE-48
     RDKit          3D

 22 21  0  0  0  0  0  0  0  0999 V2000
    0.3532    3.6717   -3.8553 C   0  0  0  0  0  0  0  0  0  0  0  0
    0.6712    3.1317   -4.6095 H   0  0  0  0  0  0  0  0  0  0  0  0
   -0.0894    4.4987   -4.1426 H   0  0  0  0  0  0  0  0  0  0  0  0
   -0.3917    3.0758   -3.3279 H   0  0  0  0  0  0  0  0  0  0  0  0
    1.5183    4.0254   -2.9916 C   0  0  0  0  0  0  0  0  0  0  0  0
    2.1104    3.1897   -2.3255 O   0  0  0  0  0  1  0  0  0  0  0  0
    1.8149    5.3039   -3.0256 O   0  0  0  0  0  0  0  0  0  0  0  0
    0.0162    2.9305    0.0278 C   0  0  0  0  0  0  0  0  0  0  0  0
   -0.9019    3.2428    0.1483 H   0  0  0  0  0  0  0  0  0  0  0  0
    0.4244    3.2377   -0.8055 H   0  0  0  0  0  0  0  0  0  0  0  0
    0.6101    3.3264    0.8516 H   0  0  0  0  0  0  0  0  0  0  0  0
    0.0069    1.4203    0.0228 C   0  0  0  0  0  0  0  0  0  0  0  0
   -1.1884    0.7120    0.0102 C   0  0  0  0  0  0  0  0  0  0  0  0
   -2.0571    1.2024    0.0071 H   0  0  0  0  0  0  0  0  0  0  0  0
   -1.2020   -0.6858   -0.0000 C   0  0  0  0  0  0  0  0  0  0  0  0
   -2.0885   -1.1687    0.0141 H   0  0  0  0  0  0  0  0  0  0  0  0
   -0.0111   -1.4056   -0.0269 C   0  0  0  0  0  0  0  0  0  0  0  0
   -0.0278   -2.3982   -0.0651 H   0  0  0  0  0  0  0  0  0  0  0  0
    1.2020   -0.7180    0.0000 C   0  0  0  0  0  0  0  0  0  0  0  0
    2.0744   -1.2159    0.0257 H   0  0  0  0  0  0  0  0  0  0  0  0
    1.1926    0.6770   -0.0061 C   0  0  0  0  0  0  0  0  0  0  0  0
    2.0730    1.1703   -0.0325 H   0  0  0  0  0  0  0  0  0  0  0  0
  1  5  1  0
  5  6  1  0
  5  7  2  0
  1  2  1  0
  1  3  1  0
  1  4  1  0
  8 12  1  0
 12 13  2  0
 13 15  1  0
 15 17  2  0
 17 19  1  0
 19 21  2  0
 21 12  1  0
  8  9  1  0
  8 10  1  0
  8 11  1  0
 13 14  1  0
 15 16  1  0
 17 18  1  0
 19 20  1  0
 21 22  1  0
M  CHG  1   6  -1
M  END
>  <PDB_ID>  (659) 
pdb1l7j

>  <RESIDUE_NAME>  (659) 
GLU   PHE

>  <FRAG_NAME>  (659) 
ACET   MBZ

>  <FRAG_ATOM_NUM>  (659) 
fragi: 7  fragj: 15

>  <atom.prop.CHAIN_ID>  (659) 
A A A A A A A Z Z Z Z Z Z Z Z Z Z Z Z Z Z Z

>  <atom.prop.IS_HEAVY_ATOM>  (659) 
1 0 0 0 1 1 1 1 0 0 0 1 1 0 1 0 1 0 1 0 1 0

>  <DIFUSE_FUNC_ATOM>  (659) 
atom 6   atom 7   

>  <FINAL_SINGLE_POINT_ENERGY>  (659) 
0

>  <NONCOV_INTER_ENERGY_QM>  (659) 
0

>  <FF_Energy>  (659) 
0.66

>  <QM_Energy>  (659) 
-5.73

>  <source>  (659) 
ACET_MBZ_00

>  <Index>  (659) 
23616

$$$$
ACET-pdb1l7j-B-GLU-53:MBZ-pdb1l7j-B-PHE-48
     RDKit          3D

 22 21  0  0  0  0  0  0  0  0999 V2000
    0.4924    3.0795   -3.8950 C   0  0  0  0  0  0  0  0  0  0  0  0
    0.8082    2.5689   -4.6873 H   0  0  0  0  0  0  0  0  0  0  0  0
    0.1076    3.9520   -4.1749 H   0  0  0  0  0  0  0  0  0  0  0  0
   -0.3157    2.5028   -3.4451 H   0  0  0  0  0  0  0  0  0  0  0  0
    1.7141    3.3719   -3.0132 C   0  0  0  0  0  0  0  0  0  0  0  0
    2.3540    2.5094   -2.4153 O   0  0  0  0  0  1  0  0  0  0  0  0
    2.0404    4.6483   -2.9511 O   0  0  0  0  0  0  0  0  0  0  0  0
    0.0091    2.9351   -0.0458 C   0  0  0  0  0  0  0  0  0  0  0  0
   -0.9312    3.2333    0.0043 H   0  0  0  0  0  0  0  0  0  0  0  0
    0.4276    3.1950   -0.9016 H   0  0  0  0  0  0  0  0  0  0  0  0
    0.5645    3.4043    0.7662 H   0  0  0  0  0  0  0  0  0  0  0  0
    0.0037    1.4103    0.0120 C   0  0  0  0  0  0  0  0  0  0  0  0
   -1.1951    0.6941   -0.0040 C   0  0  0  0  0  0  0  0  0  0  0  0
   -2.0628    1.1879   -0.0197 H   0  0  0  0  0  0  0  0  0  0  0  0
   -1.2082   -0.7001   -0.0000 C   0  0  0  0  0  0  0  0  0  0  0  0
   -2.0790   -1.1911   -0.0216 H   0  0  0  0  0  0  0  0  0  0  0  0
   -0.0000   -1.3927    0.0364 C   0  0  0  0  0  0  0  0  0  0  0  0
   -0.0046   -2.3922    0.0877 H   0  0  0  0  0  0  0  0  0  0  0  0
    1.2082   -0.7016   -0.0000 C   0  0  0  0  0  0  0  0  0  0  0  0
    2.0837   -1.1958    0.0073 H   0  0  0  0  0  0  0  0  0  0  0  0
    1.1914    0.6900   -0.0443 C   0  0  0  0  0  0  0  0  0  0  0  0
    2.0632    1.1872   -0.1203 H   0  0  0  0  0  0  0  0  0  0  0  0
  1  5  1  0
  5  6  1  0
  5  7  2  0
  1  2  1  0
  1  3  1  0
  1  4  1  0
  8 12  1  0
 12 13  2  0
 13 15  1  0
 15 17  2  0
 17 19  1  0
 19 21  2  0
 21 12  1  0
  8  9  1  0
  8 10  1  0
  8 11  1  0
 13 14  1  0
 15 16  1  0
 17 18  1  0
 19 20  1  0
 21 22  1  0
M  CHG  1   6  -1
M  END
>  <PDB_ID>  (660) 
pdb1l7j

>  <RESIDUE_NAME>  (660) 
GLU   PHE

>  <FRAG_NAME>  (660) 
ACET   MBZ

>  <FRAG_ATOM_NUM>  (660) 
fragi: 7  fragj: 15

>  <atom.prop.CHAIN_ID>  (660) 
A A A A A A A Z Z Z Z Z Z Z Z Z Z Z Z Z Z Z

>  <atom.prop.IS_HEAVY_ATOM>  (660) 
1 0 0 0 1 1 1 1 0 0 0 1 1 0 1 0 1 0 1 0 1 0

>  <DIFUSE_FUNC_ATOM>  (660) 
atom 6   atom 7   

>  <FINAL_SINGLE_POINT_ENERGY>  (660) 
0

>  <NONCOV_INTER_ENERGY_QM>  (660) 
0

>  <FF_Energy>  (660) 
-0.04

>  <QM_Energy>  (660) 
-6.16

>  <source>  (660) 
ACET_MBZ_00

>  <Index>  (660) 
23618

$$$$
ACET-pdb1l8w-D-ASP-330:MBZ-pdb1l8w-B-PHE-59
     RDKit          3D

 22 21  0  0  0  0  0  0  0  0999 V2000
    3.3524   -5.3901   -0.5130 C   0  0  0  0  0  0  0  0  0  0  0  0
    4.1814   -5.1030   -0.0470 H   0  0  0  0  0  0  0  0  0  0  0  0
    3.5402   -5.5873   -1.4682 H   0  0  0  0  0  0  0  0  0  0  0  0
    3.0036   -6.3094   -0.0425 H   0  0  0  0  0  0  0  0  0  0  0  0
    2.3347   -4.2677   -0.4352 C   0  0  0  0  0  0  0  0  0  0  0  0
    1.1517   -4.5100   -0.7632 O   0  0  0  0  0  1  0  0  0  0  0  0
    2.7210   -3.1379   -0.0529 O   0  0  0  0  0  0  0  0  0  0  0  0
    0.0044    2.8976    0.0189 C   0  0  0  0  0  0  0  0  0  0  0  0
   -0.7346    3.2161   -0.5565 H   0  0  0  0  0  0  0  0  0  0  0  0
    0.8806    3.2087   -0.3186 H   0  0  0  0  0  0  0  0  0  0  0  0
   -0.1394    3.3260    1.0108 H   0  0  0  0  0  0  0  0  0  0  0  0
    0.0002    1.4012    0.0003 C   0  0  0  0  0  0  0  0  0  0  0  0
   -1.1982    0.6961    0.0002 C   0  0  0  0  0  0  0  0  0  0  0  0
   -2.0634    1.1861   -0.0008 H   0  0  0  0  0  0  0  0  0  0  0  0
   -1.2038   -0.6972   -0.0000 C   0  0  0  0  0  0  0  0  0  0  0  0
   -2.0790   -1.1904    0.0019 H   0  0  0  0  0  0  0  0  0  0  0  0
    0.0007   -1.3952   -0.0004 C   0  0  0  0  0  0  0  0  0  0  0  0
   -0.0041   -2.3928   -0.0015 H   0  0  0  0  0  0  0  0  0  0  0  0
    1.2038   -0.6978   -0.0000 C   0  0  0  0  0  0  0  0  0  0  0  0
    2.0843   -1.1953    0.0016 H   0  0  0  0  0  0  0  0  0  0  0  0
    1.1974    0.6929   -0.0000 C   0  0  0  0  0  0  0  0  0  0  0  0
    2.0650    1.1909   -0.0010 H   0  0  0  0  0  0  0  0  0  0  0  0
  1  5  1  0
  5  6  1  0
  5  7  2  0
  1  2  1  0
  1  3  1  0
  1  4  1  0
  8 12  1  0
 12 13  2  0
 13 15  1  0
 15 17  2  0
 17 19  1  0
 19 21  2  0
 21 12  1  0
  8  9  1  0
  8 10  1  0
  8 11  1  0
 13 14  1  0
 15 16  1  0
 17 18  1  0
 19 20  1  0
 21 22  1  0
M  CHG  1   6  -1
M  END
>  <PDB_ID>  (661) 
pdb1l8w

>  <RESIDUE_NAME>  (661) 
ASP   PHE

>  <FRAG_NAME>  (661) 
ACET   MBZ

>  <FRAG_ATOM_NUM>  (661) 
fragi: 7  fragj: 15

>  <atom.prop.CHAIN_ID>  (661) 
A A A A A A A Z Z Z Z Z Z Z Z Z Z Z Z Z Z Z

>  <atom.prop.IS_HEAVY_ATOM>  (661) 
1 0 0 0 1 1 1 1 0 0 0 1 1 0 1 0 1 0 1 0 1 0

>  <DIFUSE_FUNC_ATOM>  (661) 
atom 6   atom 7   

>  <FINAL_SINGLE_POINT_ENERGY>  (661) 
0

>  <NONCOV_INTER_ENERGY_QM>  (661) 
0

>  <FF_Energy>  (661) 
2.84

>  <QM_Energy>  (661) 
-7.32

>  <source>  (661) 
ACET_MBZ_00

>  <Index>  (661) 
23654

$$$$
ACET-pdb1l9m-B-GLU-54:MBZ-pdb1l9m-B-PHE-117
     RDKit          3D

 22 21  0  0  0  0  0  0  0  0999 V2000
    4.1348   -2.0164    1.3622 C   0  0  0  0  0  0  0  0  0  0  0  0
    4.3259   -1.1725    1.8274 H   0  0  0  0  0  0  0  0  0  0  0  0
    3.2800   -1.9898    0.8775 H   0  0  0  0  0  0  0  0  0  0  0  0
    4.9346   -2.2061    0.6463 H   0  0  0  0  0  0  0  0  0  0  0  0
    4.0348   -3.1010    2.4054 C   0  0  0  0  0  0  0  0  0  0  0  0
    4.9440   -3.2193    3.2519 O   0  0  0  0  0  1  0  0  0  0  0  0
    3.0446   -3.8502    2.3702 O   0  0  0  0  0  0  0  0  0  0  0  0
   -0.0023    2.8970    0.0373 C   0  0  0  0  0  0  0  0  0  0  0  0
    0.6989    3.1901    0.6719 H   0  0  0  0  0  0  0  0  0  0  0  0
   -0.8982    3.1971    0.3321 H   0  0  0  0  0  0  0  0  0  0  0  0
    0.2043    3.3629   -0.9262 H   0  0  0  0  0  0  0  0  0  0  0  0
   -0.0011    1.4000    0.0014 C   0  0  0  0  0  0  0  0  0  0  0  0
   -1.1978    0.6922   -0.0022 C   0  0  0  0  0  0  0  0  0  0  0  0
   -2.0643    1.1835   -0.0079 H   0  0  0  0  0  0  0  0  0  0  0  0
   -1.2034   -0.6963    0.0000 C   0  0  0  0  0  0  0  0  0  0  0  0
   -2.0781   -1.1920    0.0020 H   0  0  0  0  0  0  0  0  0  0  0  0
    0.0017   -1.3933    0.0018 C   0  0  0  0  0  0  0  0  0  0  0  0
   -0.0021   -2.3913    0.0036 H   0  0  0  0  0  0  0  0  0  0  0  0
    1.2034   -0.6955    0.0000 C   0  0  0  0  0  0  0  0  0  0  0  0
    2.0845   -1.1936    0.0009 H   0  0  0  0  0  0  0  0  0  0  0  0
    1.1972    0.6929   -0.0010 C   0  0  0  0  0  0  0  0  0  0  0  0
    2.0640    1.1922   -0.0042 H   0  0  0  0  0  0  0  0  0  0  0  0
  1  5  1  0
  5  6  1  0
  5  7  2  0
  1  2  1  0
  1  3  1  0
  1  4  1  0
  8 12  1  0
 12 13  2  0
 13 15  1  0
 15 17  2  0
 17 19  1  0
 19 21  2  0
 21 12  1  0
  8  9  1  0
  8 10  1  0
  8 11  1  0
 13 14  1  0
 15 16  1  0
 17 18  1  0
 19 20  1  0
 21 22  1  0
M  CHG  1   6  -1
M  END
>  <PDB_ID>  (662) 
pdb1l9m

>  <RESIDUE_NAME>  (662) 
GLU   PHE

>  <FRAG_NAME>  (662) 
ACET   MBZ

>  <FRAG_ATOM_NUM>  (662) 
fragi: 7  fragj: 15

>  <atom.prop.CHAIN_ID>  (662) 
A A A A A A A Z Z Z Z Z Z Z Z Z Z Z Z Z Z Z

>  <atom.prop.IS_HEAVY_ATOM>  (662) 
1 0 0 0 1 1 1 1 0 0 0 1 1 0 1 0 1 0 1 0 1 0

>  <DIFUSE_FUNC_ATOM>  (662) 
atom 6   atom 7   

>  <FINAL_SINGLE_POINT_ENERGY>  (662) 
0

>  <NONCOV_INTER_ENERGY_QM>  (662) 
0

>  <FF_Energy>  (662) 
6.83

>  <QM_Energy>  (662) 
0.21

>  <source>  (662) 
ACET_MBZ_00

>  <Index>  (662) 
23676

$$$$
ACET-pdb1l9m-B-ASP-227:MBZ-pdb1l9m-B-PHE-364
     RDKit          3D

 22 21  0  0  0  0  0  0  0  0999 V2000
   -5.5929    3.3361    0.5074 C   0  0  0  0  0  0  0  0  0  0  0  0
   -5.3594    4.1540   -0.0024 H   0  0  0  0  0  0  0  0  0  0  0  0
   -6.2478    3.5402    1.2227 H   0  0  0  0  0  0  0  0  0  0  0  0
   -6.0557    2.6301   -0.1822 H   0  0  0  0  0  0  0  0  0  0  0  0
   -4.3323    2.7788    1.1414 C   0  0  0  0  0  0  0  0  0  0  0  0
   -4.4053    1.6847    1.7393 O   0  0  0  0  0  1  0  0  0  0  0  0
   -3.2686    3.4308    1.0393 O   0  0  0  0  0  0  0  0  0  0  0  0
    0.0036    2.9138    0.0032 C   0  0  0  0  0  0  0  0  0  0  0  0
   -0.9018    3.2215   -0.2460 H   0  0  0  0  0  0  0  0  0  0  0  0
    0.6802    3.2198   -0.6491 H   0  0  0  0  0  0  0  0  0  0  0  0
    0.2508    3.3526    0.9699 H   0  0  0  0  0  0  0  0  0  0  0  0
    0.0004    1.4080   -0.0002 C   0  0  0  0  0  0  0  0  0  0  0  0
   -1.1985    0.6997    0.0004 C   0  0  0  0  0  0  0  0  0  0  0  0
   -2.0650    1.1892   -0.0000 H   0  0  0  0  0  0  0  0  0  0  0  0
   -1.2063   -0.6965    0.0000 C   0  0  0  0  0  0  0  0  0  0  0  0
   -2.0828   -1.1878    0.0003 H   0  0  0  0  0  0  0  0  0  0  0  0
   -0.0013   -1.4040    0.0005 C   0  0  0  0  0  0  0  0  0  0  0  0
   -0.0094   -2.3978    0.0008 H   0  0  0  0  0  0  0  0  0  0  0  0
    1.2063   -0.7057   -0.0000 C   0  0  0  0  0  0  0  0  0  0  0  0
    2.0860   -1.1977    0.0016 H   0  0  0  0  0  0  0  0  0  0  0  0
    1.1993    0.6985   -0.0007 C   0  0  0  0  0  0  0  0  0  0  0  0
    2.0682    1.1904   -0.0025 H   0  0  0  0  0  0  0  0  0  0  0  0
  1  5  1  0
  5  6  1  0
  5  7  2  0
  1  2  1  0
  1  3  1  0
  1  4  1  0
  8 12  1  0
 12 13  2  0
 13 15  1  0
 15 17  2  0
 17 19  1  0
 19 21  2  0
 21 12  1  0
  8  9  1  0
  8 10  1  0
  8 11  1  0
 13 14  1  0
 15 16  1  0
 17 18  1  0
 19 20  1  0
 21 22  1  0
M  CHG  1   6  -1
M  END
>  <PDB_ID>  (663) 
pdb1l9m

>  <RESIDUE_NAME>  (663) 
ASP   PHE

>  <FRAG_NAME>  (663) 
ACET   MBZ

>  <FRAG_ATOM_NUM>  (663) 
fragi: 7  fragj: 15

>  <atom.prop.CHAIN_ID>  (663) 
A A A A A A A Z Z Z Z Z Z Z Z Z Z Z Z Z Z Z

>  <atom.prop.IS_HEAVY_ATOM>  (663) 
1 0 0 0 1 1 1 1 0 0 0 1 1 0 1 0 1 0 1 0 1 0

>  <DIFUSE_FUNC_ATOM>  (663) 
atom 6   atom 7   

>  <FINAL_SINGLE_POINT_ENERGY>  (663) 
0

>  <NONCOV_INTER_ENERGY_QM>  (663) 
0

>  <FF_Energy>  (663) 
-2.27

>  <QM_Energy>  (663) 
-7.5

>  <source>  (663) 
ACET_MBZ_00

>  <Index>  (663) 
23677

$$$$
ACET-pdb2pd0-D-GLU-161:MBZ-pdb2pd0-D-PHE-57
     RDKit          3D

 22 21  0  0  0  0  0  0  0  0999 V2000
   -0.9952   -4.6802   -0.0905 C   0  0  0  0  0  0  0  0  0  0  0  0
   -1.2348   -5.0783    0.7783 H   0  0  0  0  0  0  0  0  0  0  0  0
   -0.6634   -3.7577    0.0077 H   0  0  0  0  0  0  0  0  0  0  0  0
   -0.2091   -5.2854   -0.5421 H   0  0  0  0  0  0  0  0  0  0  0  0
   -2.2837   -4.6089   -0.9246 C   0  0  0  0  0  0  0  0  0  0  0  0
   -2.2778   -4.0632   -2.0739 O   0  0  0  0  0  1  0  0  0  0  0  0
   -3.3129   -5.0783   -0.3779 O   0  0  0  0  0  0  0  0  0  0  0  0
    0.0022    2.8484    0.0181 C   0  0  0  0  0  0  0  0  0  0  0  0
   -0.7766    3.1762   -0.4985 H   0  0  0  0  0  0  0  0  0  0  0  0
    0.8517    3.1738   -0.3724 H   0  0  0  0  0  0  0  0  0  0  0  0
   -0.0747    3.2596    1.0245 H   0  0  0  0  0  0  0  0  0  0  0  0
    0.0016    1.3836   -0.0015 C   0  0  0  0  0  0  0  0  0  0  0  0
   -1.1940    0.6886    0.0114 C   0  0  0  0  0  0  0  0  0  0  0  0
   -2.0584    1.1848    0.0281 H   0  0  0  0  0  0  0  0  0  0  0  0
   -1.2072   -0.6956    0.0000 C   0  0  0  0  0  0  0  0  0  0  0  0
   -2.0799   -1.1900   -0.0058 H   0  0  0  0  0  0  0  0  0  0  0  0
   -0.0027   -1.3850   -0.0017 C   0  0  0  0  0  0  0  0  0  0  0  0
    0.0015   -2.3840   -0.0050 H   0  0  0  0  0  0  0  0  0  0  0  0
    1.2072   -0.6827   -0.0000 C   0  0  0  0  0  0  0  0  0  0  0  0
    2.0826   -1.1891    0.0086 H   0  0  0  0  0  0  0  0  0  0  0  0
    1.1952    0.6911   -0.0082 C   0  0  0  0  0  0  0  0  0  0  0  0
    2.0613    1.1980   -0.0202 H   0  0  0  0  0  0  0  0  0  0  0  0
  1  5  1  0
  5  6  1  0
  5  7  2  0
  1  2  1  0
  1  3  1  0
  1  4  1  0
  8 12  1  0
 12 13  2  0
 13 15  1  0
 15 17  2  0
 17 19  1  0
 19 21  2  0
 21 12  1  0
  8  9  1  0
  8 10  1  0
  8 11  1  0
 13 14  1  0
 15 16  1  0
 17 18  1  0
 19 20  1  0
 21 22  1  0
M  CHG  1   6  -1
M  END
>  <PDB_ID>  (664) 
pdb2pd0

>  <RESIDUE_NAME>  (664) 
GLU   PHE

>  <FRAG_NAME>  (664) 
ACET   MBZ

>  <FRAG_ATOM_NUM>  (664) 
fragi: 7  fragj: 15

>  <atom.prop.CHAIN_ID>  (664) 
A A A A A A A Z Z Z Z Z Z Z Z Z Z Z Z Z Z Z

>  <atom.prop.IS_HEAVY_ATOM>  (664) 
1 0 0 0 1 1 1 1 0 0 0 1 1 0 1 0 1 0 1 0 1 0

>  <DIFUSE_FUNC_ATOM>  (664) 
atom 6   atom 7   

>  <FINAL_SINGLE_POINT_ENERGY>  (664) 
0

>  <NONCOV_INTER_ENERGY_QM>  (664) 
0

>  <FF_Energy>  (664) 
23.98

>  <QM_Energy>  (664) 
1.24

>  <source>  (664) 
ACET_MBZ_00

>  <Index>  (664) 
23678

$$$$
ACET-pdb2phl-A-GLU-167:MBZ-pdb2phl-A-PHE-174
     RDKit          3D

 22 21  0  0  0  0  0  0  0  0999 V2000
    2.0110    6.1614   -0.4161 C   0  0  0  0  0  0  0  0  0  0  0  0
    1.7675    6.1293    0.5401 H   0  0  0  0  0  0  0  0  0  0  0  0
    1.2472    5.9207   -0.9928 H   0  0  0  0  0  0  0  0  0  0  0  0
    2.3095    7.1821   -0.6552 H   0  0  0  0  0  0  0  0  0  0  0  0
    3.1026    5.0954   -0.6427 C   0  0  0  0  0  0  0  0  0  0  0  0
    4.0277    5.3145   -1.4573 O   0  0  0  0  0  1  0  0  0  0  0  0
    3.0231    4.0096   -0.0267 O   0  0  0  0  0  0  0  0  0  0  0  0
    0.0012    2.9058   -0.0178 C   0  0  0  0  0  0  0  0  0  0  0  0
   -0.7607    3.2078   -0.5766 H   0  0  0  0  0  0  0  0  0  0  0  0
    0.8631    3.2103   -0.4031 H   0  0  0  0  0  0  0  0  0  0  0  0
   -0.1039    3.3755    0.9601 H   0  0  0  0  0  0  0  0  0  0  0  0
    0.0019    1.4044    0.0005 C   0  0  0  0  0  0  0  0  0  0  0  0
   -1.1971    0.6914   -0.0022 C   0  0  0  0  0  0  0  0  0  0  0  0
   -2.0633    1.1825   -0.0068 H   0  0  0  0  0  0  0  0  0  0  0  0
   -1.2031   -0.7006    0.0000 C   0  0  0  0  0  0  0  0  0  0  0  0
   -2.0804   -1.1923    0.0014 H   0  0  0  0  0  0  0  0  0  0  0  0
   -0.0032   -1.3965    0.0020 C   0  0  0  0  0  0  0  0  0  0  0  0
   -0.0042   -2.3944    0.0047 H   0  0  0  0  0  0  0  0  0  0  0  0
    1.2031   -0.6982   -0.0000 C   0  0  0  0  0  0  0  0  0  0  0  0
    2.0821   -1.1945    0.0004 H   0  0  0  0  0  0  0  0  0  0  0  0
    1.1984    0.6995   -0.0003 C   0  0  0  0  0  0  0  0  0  0  0  0
    2.0664    1.1920   -0.0019 H   0  0  0  0  0  0  0  0  0  0  0  0
  1  5  1  0
  5  6  1  0
  5  7  2  0
  1  2  1  0
  1  3  1  0
  1  4  1  0
  8 12  1  0
 12 13  2  0
 13 15  1  0
 15 17  2  0
 17 19  1  0
 19 21  2  0
 21 12  1  0
  8  9  1  0
  8 10  1  0
  8 11  1  0
 13 14  1  0
 15 16  1  0
 17 18  1  0
 19 20  1  0
 21 22  1  0
M  CHG  1   6  -1
M  END
>  <PDB_ID>  (665) 
pdb2phl

>  <RESIDUE_NAME>  (665) 
GLU   PHE

>  <FRAG_NAME>  (665) 
ACET   MBZ

>  <FRAG_ATOM_NUM>  (665) 
fragi: 7  fragj: 15

>  <atom.prop.CHAIN_ID>  (665) 
A A A A A A A Z Z Z Z Z Z Z Z Z Z Z Z Z Z Z

>  <atom.prop.IS_HEAVY_ATOM>  (665) 
1 0 0 0 1 1 1 1 0 0 0 1 1 0 1 0 1 0 1 0 1 0

>  <DIFUSE_FUNC_ATOM>  (665) 
atom 6   atom 7   

>  <FINAL_SINGLE_POINT_ENERGY>  (665) 
0

>  <NONCOV_INTER_ENERGY_QM>  (665) 
0

>  <FF_Energy>  (665) 
-1.52

>  <QM_Energy>  (665) 
-6.66

>  <source>  (665) 
ACET_MBZ_00

>  <Index>  (665) 
23736

$$$$
ACET-pdb2pig-B-ASP-48:MBZ-pdb2pig-B-PHE-69
     RDKit          3D

 22 21  0  0  0  0  0  0  0  0999 V2000
    0.9910    5.6213    1.9725 C   0  0  0  0  0  0  0  0  0  0  0  0
    1.8457    5.8329    2.4319 H   0  0  0  0  0  0  0  0  0  0  0  0
    0.6696    4.7191    2.2330 H   0  0  0  0  0  0  0  0  0  0  0  0
    0.2472    6.3505    2.2937 H   0  0  0  0  0  0  0  0  0  0  0  0
    1.2285    5.6390    0.4684 C   0  0  0  0  0  0  0  0  0  0  0  0
    0.6908    6.5272   -0.2278 O   0  0  0  0  0  1  0  0  0  0  0  0
    1.9694    4.7584   -0.0185 O   0  0  0  0  0  0  0  0  0  0  0  0
   -0.0040    2.9064   -0.0753 C   0  0  0  0  0  0  0  0  0  0  0  0
    0.9233    3.2191    0.0419 H   0  0  0  0  0  0  0  0  0  0  0  0
   -0.5993    3.2442    0.6337 H   0  0  0  0  0  0  0  0  0  0  0  0
   -0.3686    3.2881   -1.0289 H   0  0  0  0  0  0  0  0  0  0  0  0
   -0.0002    1.3997   -0.0009 C   0  0  0  0  0  0  0  0  0  0  0  0
   -1.1925    0.6922    0.0018 C   0  0  0  0  0  0  0  0  0  0  0  0
   -2.0607    1.1838    0.0042 H   0  0  0  0  0  0  0  0  0  0  0  0
   -1.1980   -0.6936    0.0000 C   0  0  0  0  0  0  0  0  0  0  0  0
   -2.0763   -1.1876    0.0011 H   0  0  0  0  0  0  0  0  0  0  0  0
   -0.0011   -1.3909   -0.0019 C   0  0  0  0  0  0  0  0  0  0  0  0
   -0.0066   -2.3900   -0.0054 H   0  0  0  0  0  0  0  0  0  0  0  0
    1.1980   -0.6974   -0.0000 C   0  0  0  0  0  0  0  0  0  0  0  0
    2.0797   -1.1966    0.0021 H   0  0  0  0  0  0  0  0  0  0  0  0
    1.1938    0.6899    0.0011 C   0  0  0  0  0  0  0  0  0  0  0  0
    2.0627    1.1869    0.0020 H   0  0  0  0  0  0  0  0  0  0  0  0
  1  5  1  0
  5  6  1  0
  5  7  2  0
  1  2  1  0
  1  3  1  0
  1  4  1  0
  8 12  1  0
 12 13  2  0
 13 15  1  0
 15 17  2  0
 17 19  1  0
 19 21  2  0
 21 12  1  0
  8  9  1  0
  8 10  1  0
  8 11  1  0
 13 14  1  0
 15 16  1  0
 17 18  1  0
 19 20  1  0
 21 22  1  0
M  CHG  1   6  -1
M  END
>  <PDB_ID>  (666) 
pdb2pig

>  <RESIDUE_NAME>  (666) 
ASP   PHE

>  <FRAG_NAME>  (666) 
ACET   MBZ

>  <FRAG_ATOM_NUM>  (666) 
fragi: 7  fragj: 15

>  <atom.prop.CHAIN_ID>  (666) 
A A A A A A A Z Z Z Z Z Z Z Z Z Z Z Z Z Z Z

>  <atom.prop.IS_HEAVY_ATOM>  (666) 
1 0 0 0 1 1 1 1 0 0 0 1 1 0 1 0 1 0 1 0 1 0

>  <DIFUSE_FUNC_ATOM>  (666) 
atom 6   atom 7   

>  <FINAL_SINGLE_POINT_ENERGY>  (666) 
0

>  <NONCOV_INTER_ENERGY_QM>  (666) 
0

>  <FF_Energy>  (666) 
20.28

>  <QM_Energy>  (666) 
-1.56

>  <source>  (666) 
ACET_MBZ_00

>  <Index>  (666) 
23780

$$$$
ACET-pdb2pih-A-GLU-97:MBZ-pdb2pih-A-PHE-28
     RDKit          3D

 22 21  0  0  0  0  0  0  0  0999 V2000
   -5.6628    0.5397   -0.6251 C   0  0  0  0  0  0  0  0  0  0  0  0
   -6.5784    0.6596   -0.2862 H   0  0  0  0  0  0  0  0  0  0  0  0
   -5.4906   -0.3876   -0.9063 H   0  0  0  0  0  0  0  0  0  0  0  0
   -5.5368    1.1867   -1.4932 H   0  0  0  0  0  0  0  0  0  0  0  0
   -4.7038    0.8591    0.5165 C   0  0  0  0  0  0  0  0  0  0  0  0
   -4.4409    2.0562    0.7619 O   0  0  0  0  0  1  0  0  0  0  0  0
   -4.2252   -0.0863    1.1861 O   0  0  0  0  0  0  0  0  0  0  0  0
   -0.0237    2.9164    0.0323 C   0  0  0  0  0  0  0  0  0  0  0  0
   -0.2142    3.1977    0.9632 H   0  0  0  0  0  0  0  0  0  0  0  0
   -0.7373    3.2216   -0.5839 H   0  0  0  0  0  0  0  0  0  0  0  0
    0.9086    3.3897   -0.2757 H   0  0  0  0  0  0  0  0  0  0  0  0
   -0.0006    1.4068    0.0009 C   0  0  0  0  0  0  0  0  0  0  0  0
   -1.1988    0.6939   -0.0004 C   0  0  0  0  0  0  0  0  0  0  0  0
   -2.0658    1.1863   -0.0028 H   0  0  0  0  0  0  0  0  0  0  0  0
   -1.2078   -0.6970    0.0000 C   0  0  0  0  0  0  0  0  0  0  0  0
   -2.0837   -1.1893    0.0019 H   0  0  0  0  0  0  0  0  0  0  0  0
   -0.0051   -1.3955    0.0002 C   0  0  0  0  0  0  0  0  0  0  0  0
   -0.0099   -2.3945   -0.0001 H   0  0  0  0  0  0  0  0  0  0  0  0
    1.2078   -0.7022   -0.0000 C   0  0  0  0  0  0  0  0  0  0  0  0
    2.0833   -1.2020    0.0021 H   0  0  0  0  0  0  0  0  0  0  0  0
    1.2044    0.6941   -0.0007 C   0  0  0  0  0  0  0  0  0  0  0  0
    2.0690    1.1903   -0.0032 H   0  0  0  0  0  0  0  0  0  0  0  0
  1  5  1  0
  5  6  1  0
  5  7  2  0
  1  2  1  0
  1  3  1  0
  1  4  1  0
  8 12  1  0
 12 13  2  0
 13 15  1  0
 15 17  2  0
 17 19  1  0
 19 21  2  0
 21 12  1  0
  8  9  1  0
  8 10  1  0
  8 11  1  0
 13 14  1  0
 15 16  1  0
 17 18  1  0
 19 20  1  0
 21 22  1  0
M  CHG  1   6  -1
M  END
>  <PDB_ID>  (667) 
pdb2pih

>  <RESIDUE_NAME>  (667) 
GLU   PHE

>  <FRAG_NAME>  (667) 
ACET   MBZ

>  <FRAG_ATOM_NUM>  (667) 
fragi: 7  fragj: 15

>  <atom.prop.CHAIN_ID>  (667) 
A A A A A A A Z Z Z Z Z Z Z Z Z Z Z Z Z Z Z

>  <atom.prop.IS_HEAVY_ATOM>  (667) 
1 0 0 0 1 1 1 1 0 0 0 1 1 0 1 0 1 0 1 0 1 0

>  <DIFUSE_FUNC_ATOM>  (667) 
atom 6   atom 7   

>  <FINAL_SINGLE_POINT_ENERGY>  (667) 
0

>  <NONCOV_INTER_ENERGY_QM>  (667) 
0

>  <FF_Energy>  (667) 
-2.45

>  <QM_Energy>  (667) 
-7.52

>  <source>  (667) 
ACET_MBZ_00

>  <Index>  (667) 
23811

$$$$
ACET-pdb1le6-A-ASP-40:MBZ-pdb1le6-A-PHE-26
     RDKit          3D

 22 21  0  0  0  0  0  0  0  0999 V2000
   -5.0192    3.3949   -1.5583 C   0  0  0  0  0  0  0  0  0  0  0  0
   -5.8830    3.8135   -1.3058 H   0  0  0  0  0  0  0  0  0  0  0  0
   -5.1704    2.5702   -2.0889 H   0  0  0  0  0  0  0  0  0  0  0  0
   -4.4695    4.1018   -2.1797 H   0  0  0  0  0  0  0  0  0  0  0  0
   -4.2682    3.0250   -0.2860 C   0  0  0  0  0  0  0  0  0  0  0  0
   -3.2940    3.7305    0.0649 O   0  0  0  0  0  1  0  0  0  0  0  0
   -4.6651    2.0388    0.3732 O   0  0  0  0  0  0  0  0  0  0  0  0
   -0.0006    2.8989    0.0365 C   0  0  0  0  0  0  0  0  0  0  0  0
   -0.7492    3.2212   -0.5201 H   0  0  0  0  0  0  0  0  0  0  0  0
    0.8691    3.2164   -0.3054 H   0  0  0  0  0  0  0  0  0  0  0  0
   -0.1323    3.3084    1.0380 H   0  0  0  0  0  0  0  0  0  0  0  0
   -0.0003    1.4005    0.0003 C   0  0  0  0  0  0  0  0  0  0  0  0
   -1.1995    0.6917    0.0017 C   0  0  0  0  0  0  0  0  0  0  0  0
   -2.0648    1.1832    0.0024 H   0  0  0  0  0  0  0  0  0  0  0  0
   -1.2032   -0.6981   -0.0000 C   0  0  0  0  0  0  0  0  0  0  0  0
   -2.0770   -1.1940    0.0004 H   0  0  0  0  0  0  0  0  0  0  0  0
    0.0022   -1.3925   -0.0006 C   0  0  0  0  0  0  0  0  0  0  0  0
   -0.0015   -2.3920   -0.0019 H   0  0  0  0  0  0  0  0  0  0  0  0
    1.2032   -0.6955    0.0000 C   0  0  0  0  0  0  0  0  0  0  0  0
    2.0842   -1.1936    0.0028 H   0  0  0  0  0  0  0  0  0  0  0  0
    1.1975    0.6939   -0.0013 C   0  0  0  0  0  0  0  0  0  0  0  0
    2.0648    1.1920   -0.0038 H   0  0  0  0  0  0  0  0  0  0  0  0
  1  5  1  0
  5  6  1  0
  5  7  2  0
  1  2  1  0
  1  3  1  0
  1  4  1  0
  8 12  1  0
 12 13  2  0
 13 15  1  0
 15 17  2  0
 17 19  1  0
 19 21  2  0
 21 12  1  0
  8  9  1  0
  8 10  1  0
  8 11  1  0
 13 14  1  0
 15 16  1  0
 17 18  1  0
 19 20  1  0
 21 22  1  0
M  CHG  1   6  -1
M  END
>  <PDB_ID>  (668) 
pdb1le6

>  <RESIDUE_NAME>  (668) 
ASP   PHE

>  <FRAG_NAME>  (668) 
ACET   MBZ

>  <FRAG_ATOM_NUM>  (668) 
fragi: 7  fragj: 15

>  <atom.prop.CHAIN_ID>  (668) 
A A A A A A A Z Z Z Z Z Z Z Z Z Z Z Z Z Z Z

>  <atom.prop.IS_HEAVY_ATOM>  (668) 
1 0 0 0 1 1 1 1 0 0 0 1 1 0 1 0 1 0 1 0 1 0

>  <DIFUSE_FUNC_ATOM>  (668) 
atom 6   atom 7   

>  <FINAL_SINGLE_POINT_ENERGY>  (668) 
0

>  <NONCOV_INTER_ENERGY_QM>  (668) 
0

>  <FF_Energy>  (668) 
-2.88

>  <QM_Energy>  (668) 
-8.37

>  <source>  (668) 
ACET_MBZ_00

>  <Index>  (668) 
23821

$$$$
ACET-pdb1le6-B-ASP-40:MBZ-pdb1le6-B-PHE-26
     RDKit          3D

 22 21  0  0  0  0  0  0  0  0999 V2000
   -4.8479    3.5264   -1.9624 C   0  0  0  0  0  0  0  0  0  0  0  0
   -5.7257    3.9691   -1.8268 H   0  0  0  0  0  0  0  0  0  0  0  0
   -4.9517    2.6971   -2.4964 H   0  0  0  0  0  0  0  0  0  0  0  0
   -4.2089    4.2098   -2.5217 H   0  0  0  0  0  0  0  0  0  0  0  0
   -4.2700    3.1630   -0.6011 C   0  0  0  0  0  0  0  0  0  0  0  0
   -3.2964    3.8197   -0.1675 O   0  0  0  0  0  1  0  0  0  0  0  0
   -4.8002    2.2267    0.0414 O   0  0  0  0  0  0  0  0  0  0  0  0
    0.0065    2.8999    0.0463 C   0  0  0  0  0  0  0  0  0  0  0  0
   -0.7187    3.2305   -0.5380 H   0  0  0  0  0  0  0  0  0  0  0  0
    0.8907    3.2151   -0.2622 H   0  0  0  0  0  0  0  0  0  0  0  0
   -0.1610    3.3049    1.0443 H   0  0  0  0  0  0  0  0  0  0  0  0
    0.0003    1.4040   -0.0003 C   0  0  0  0  0  0  0  0  0  0  0  0
   -1.1996    0.7002   -0.0002 C   0  0  0  0  0  0  0  0  0  0  0  0
   -2.0644    1.1874   -0.0012 H   0  0  0  0  0  0  0  0  0  0  0  0
   -1.2048   -0.6992   -0.0000 C   0  0  0  0  0  0  0  0  0  0  0  0
   -2.0812   -1.1893    0.0012 H   0  0  0  0  0  0  0  0  0  0  0  0
   -0.0008   -1.3963    0.0012 C   0  0  0  0  0  0  0  0  0  0  0  0
   -0.0051   -2.3951    0.0029 H   0  0  0  0  0  0  0  0  0  0  0  0
    1.2048   -0.7006   -0.0000 C   0  0  0  0  0  0  0  0  0  0  0  0
    2.0832   -1.1988    0.0007 H   0  0  0  0  0  0  0  0  0  0  0  0
    1.2001    0.6919   -0.0007 C   0  0  0  0  0  0  0  0  0  0  0  0
    2.0672    1.1885   -0.0019 H   0  0  0  0  0  0  0  0  0  0  0  0
  1  5  1  0
  5  6  1  0
  5  7  2  0
  1  2  1  0
  1  3  1  0
  1  4  1  0
  8 12  1  0
 12 13  2  0
 13 15  1  0
 15 17  2  0
 17 19  1  0
 19 21  2  0
 21 12  1  0
  8  9  1  0
  8 10  1  0
  8 11  1  0
 13 14  1  0
 15 16  1  0
 17 18  1  0
 19 20  1  0
 21 22  1  0
M  CHG  1   6  -1
M  END
>  <PDB_ID>  (669) 
pdb1le6

>  <RESIDUE_NAME>  (669) 
ASP   PHE

>  <FRAG_NAME>  (669) 
ACET   MBZ

>  <FRAG_ATOM_NUM>  (669) 
fragi: 7  fragj: 15

>  <atom.prop.CHAIN_ID>  (669) 
A A A A A A A Z Z Z Z Z Z Z Z Z Z Z Z Z Z Z

>  <atom.prop.IS_HEAVY_ATOM>  (669) 
1 0 0 0 1 1 1 1 0 0 0 1 1 0 1 0 1 0 1 0 1 0

>  <DIFUSE_FUNC_ATOM>  (669) 
atom 6   atom 7   

>  <FINAL_SINGLE_POINT_ENERGY>  (669) 
0

>  <NONCOV_INTER_ENERGY_QM>  (669) 
0

>  <FF_Energy>  (669) 
-1.64

>  <QM_Energy>  (669) 
-8.05

>  <source>  (669) 
ACET_MBZ_00

>  <Index>  (669) 
23822

$$$$
ACET-pdb1le6-C-ASP-40:MBZ-pdb1le6-C-PHE-26
     RDKit          3D

 22 21  0  0  0  0  0  0  0  0999 V2000
   -5.1305    3.5450   -1.6311 C   0  0  0  0  0  0  0  0  0  0  0  0
   -5.9805    3.9930   -1.3799 H   0  0  0  0  0  0  0  0  0  0  0  0
   -5.3073    2.7675   -2.2222 H   0  0  0  0  0  0  0  0  0  0  0  0
   -4.5253    4.2604   -2.1879 H   0  0  0  0  0  0  0  0  0  0  0  0
   -4.4454    3.0558   -0.3703 C   0  0  0  0  0  0  0  0  0  0  0  0
   -3.4041    3.6348    0.0180 O   0  0  0  0  0  1  0  0  0  0  0  0
   -4.9587    2.0996    0.2460 O   0  0  0  0  0  0  0  0  0  0  0  0
    0.0044    2.9023    0.0754 C   0  0  0  0  0  0  0  0  0  0  0  0
   -0.7355    3.2409   -0.4825 H   0  0  0  0  0  0  0  0  0  0  0  0
    0.8800    3.2236   -0.2456 H   0  0  0  0  0  0  0  0  0  0  0  0
   -0.1396    3.2854    1.0857 H   0  0  0  0  0  0  0  0  0  0  0  0
   -0.0002    1.4035    0.0009 C   0  0  0  0  0  0  0  0  0  0  0  0
   -1.1978    0.6983   -0.0008 C   0  0  0  0  0  0  0  0  0  0  0  0
   -2.0646    1.1853   -0.0037 H   0  0  0  0  0  0  0  0  0  0  0  0
   -1.2034   -0.6992    0.0000 C   0  0  0  0  0  0  0  0  0  0  0  0
   -2.0781   -1.1906    0.0006 H   0  0  0  0  0  0  0  0  0  0  0  0
    0.0023   -1.3972    0.0012 C   0  0  0  0  0  0  0  0  0  0  0  0
   -0.0029   -2.3950    0.0021 H   0  0  0  0  0  0  0  0  0  0  0  0
    1.2034   -0.6997    0.0000 C   0  0  0  0  0  0  0  0  0  0  0  0
    2.0847   -1.1948    0.0015 H   0  0  0  0  0  0  0  0  0  0  0  0
    1.1958    0.6942   -0.0013 C   0  0  0  0  0  0  0  0  0  0  0  0
    2.0648    1.1897   -0.0045 H   0  0  0  0  0  0  0  0  0  0  0  0
  1  5  1  0
  5  6  1  0
  5  7  2  0
  1  2  1  0
  1  3  1  0
  1  4  1  0
  8 12  1  0
 12 13  2  0
 13 15  1  0
 15 17  2  0
 17 19  1  0
 19 21  2  0
 21 12  1  0
  8  9  1  0
  8 10  1  0
  8 11  1  0
 13 14  1  0
 15 16  1  0
 17 18  1  0
 19 20  1  0
 21 22  1  0
M  CHG  1   6  -1
M  END
>  <PDB_ID>  (670) 
pdb1le6

>  <RESIDUE_NAME>  (670) 
ASP   PHE

>  <FRAG_NAME>  (670) 
ACET   MBZ

>  <FRAG_ATOM_NUM>  (670) 
fragi: 7  fragj: 15

>  <atom.prop.CHAIN_ID>  (670) 
A A A A A A A Z Z Z Z Z Z Z Z Z Z Z Z Z Z Z

>  <atom.prop.IS_HEAVY_ATOM>  (670) 
1 0 0 0 1 1 1 1 0 0 0 1 1 0 1 0 1 0 1 0 1 0

>  <DIFUSE_FUNC_ATOM>  (670) 
atom 6   atom 7   

>  <FINAL_SINGLE_POINT_ENERGY>  (670) 
0

>  <NONCOV_INTER_ENERGY_QM>  (670) 
0

>  <FF_Energy>  (670) 
-2.8

>  <QM_Energy>  (670) 
-7.94

>  <source>  (670) 
ACET_MBZ_00

>  <Index>  (670) 
23823

$$$$
ACET-pdb1ldn-B-ASP-61:MBZ-pdb1ldn-B-PHE-65
     RDKit          3D

 22 21  0  0  0  0  0  0  0  0999 V2000
    3.2914   -1.3754   -2.2866 C   0  0  0  0  0  0  0  0  0  0  0  0
    4.1936   -1.3469   -1.9318 H   0  0  0  0  0  0  0  0  0  0  0  0
    2.5922   -1.2752   -1.6229 H   0  0  0  0  0  0  0  0  0  0  0  0
    3.1861   -0.5770   -3.0213 H   0  0  0  0  0  0  0  0  0  0  0  0
    3.0908   -2.6935   -3.0236 C   0  0  0  0  0  0  0  0  0  0  0  0
    2.6040   -2.6987   -4.1554 O   0  0  0  0  0  1  0  0  0  0  0  0
    3.4496   -3.7124   -2.4192 O   0  0  0  0  0  0  0  0  0  0  0  0
   -0.0256    2.9008   -0.0231 C   0  0  0  0  0  0  0  0  0  0  0  0
    0.9036    3.2257   -0.0933 H   0  0  0  0  0  0  0  0  0  0  0  0
   -0.4570    3.2094    0.8095 H   0  0  0  0  0  0  0  0  0  0  0  0
   -0.5866    3.3137   -0.8615 H   0  0  0  0  0  0  0  0  0  0  0  0
    0.0033    1.4008   -0.0066 C   0  0  0  0  0  0  0  0  0  0  0  0
   -1.2031    0.6899   -0.0036 C   0  0  0  0  0  0  0  0  0  0  0  0
   -2.0652    1.1913   -0.0057 H   0  0  0  0  0  0  0  0  0  0  0  0
   -1.2156   -0.6934   -0.0000 C   0  0  0  0  0  0  0  0  0  0  0  0
   -2.0871   -1.1911   -0.0042 H   0  0  0  0  0  0  0  0  0  0  0  0
   -0.0040   -1.3970    0.0118 C   0  0  0  0  0  0  0  0  0  0  0  0
   -0.0106   -2.3934    0.0284 H   0  0  0  0  0  0  0  0  0  0  0  0
    1.2156   -0.7021    0.0000 C   0  0  0  0  0  0  0  0  0  0  0  0
    2.0877   -1.1969   -0.0056 H   0  0  0  0  0  0  0  0  0  0  0  0
    1.2038    0.7019   -0.0016 C   0  0  0  0  0  0  0  0  0  0  0  0
    2.0697    1.1960    0.0001 H   0  0  0  0  0  0  0  0  0  0  0  0
  1  5  1  0
  5  6  1  0
  5  7  2  0
  1  2  1  0
  1  3  1  0
  1  4  1  0
  8 12  1  0
 12 13  2  0
 13 15  1  0
 15 17  2  0
 17 19  1  0
 19 21  2  0
 21 12  1  0
  8  9  1  0
  8 10  1  0
  8 11  1  0
 13 14  1  0
 15 16  1  0
 17 18  1  0
 19 20  1  0
 21 22  1  0
M  CHG  1   6  -1
M  END
>  <PDB_ID>  (671) 
pdb1ldn

>  <RESIDUE_NAME>  (671) 
ASP   PHE

>  <FRAG_NAME>  (671) 
ACET   MBZ

>  <FRAG_ATOM_NUM>  (671) 
fragi: 7  fragj: 15

>  <atom.prop.CHAIN_ID>  (671) 
A A A A A A A Z Z Z Z Z Z Z Z Z Z Z Z Z Z Z

>  <atom.prop.IS_HEAVY_ATOM>  (671) 
1 0 0 0 1 1 1 1 0 0 0 1 1 0 1 0 1 0 1 0 1 0

>  <DIFUSE_FUNC_ATOM>  (671) 
atom 6   atom 7   

>  <FINAL_SINGLE_POINT_ENERGY>  (671) 
0

>  <NONCOV_INTER_ENERGY_QM>  (671) 
0

>  <FF_Energy>  (671) 
11.47

>  <QM_Energy>  (671) 
2.61

>  <source>  (671) 
ACET_MBZ_00

>  <Index>  (671) 
23826

$$$$
ACET-pdb2pke-B-GLU-80:MBZ-pdb2pke-B-PHE-67
     RDKit          3D

 22 21  0  0  0  0  0  0  0  0999 V2000
    3.2371   -3.3003    1.8026 C   0  0  0  0  0  0  0  0  0  0  0  0
    3.0405   -4.1992    2.1218 H   0  0  0  0  0  0  0  0  0  0  0  0
    2.6918   -2.6070    2.2151 H   0  0  0  0  0  0  0  0  0  0  0  0
    4.2874   -3.0823    1.9961 H   0  0  0  0  0  0  0  0  0  0  0  0
    2.9322   -3.2779    0.2925 C   0  0  0  0  0  0  0  0  0  0  0  0
    3.7055   -3.0583   -0.5918 O   0  0  0  0  0  1  0  0  0  0  0  0
    1.7018   -3.5211    0.1007 O   0  0  0  0  0  0  0  0  0  0  0  0
   -0.0026    2.8463   -0.0006 C   0  0  0  0  0  0  0  0  0  0  0  0
    0.9299    3.1668    0.1192 H   0  0  0  0  0  0  0  0  0  0  0  0
   -0.5793    3.1677    0.7420 H   0  0  0  0  0  0  0  0  0  0  0  0
   -0.3853    3.2703   -0.9290 H   0  0  0  0  0  0  0  0  0  0  0  0
    0.0015    1.3814    0.0121 C   0  0  0  0  0  0  0  0  0  0  0  0
   -1.1872    0.6906   -0.0048 C   0  0  0  0  0  0  0  0  0  0  0  0
   -2.0542    1.1888   -0.0215 H   0  0  0  0  0  0  0  0  0  0  0  0
   -1.1981   -0.6827    0.0000 C   0  0  0  0  0  0  0  0  0  0  0  0
   -2.0770   -1.1810    0.0069 H   0  0  0  0  0  0  0  0  0  0  0  0
   -0.0010   -1.3887   -0.0031 C   0  0  0  0  0  0  0  0  0  0  0  0
   -0.0107   -2.3847   -0.0085 H   0  0  0  0  0  0  0  0  0  0  0  0
    1.1981   -0.6940    0.0000 C   0  0  0  0  0  0  0  0  0  0  0  0
    2.0796   -1.1899    0.0068 H   0  0  0  0  0  0  0  0  0  0  0  0
    1.1867    0.6934   -0.0042 C   0  0  0  0  0  0  0  0  0  0  0  0
    2.0573    1.1903   -0.0201 H   0  0  0  0  0  0  0  0  0  0  0  0
  1  5  1  0
  5  6  1  0
  5  7  2  0
  1  2  1  0
  1  3  1  0
  1  4  1  0
  8 12  1  0
 12 13  2  0
 13 15  1  0
 15 17  2  0
 17 19  1  0
 19 21  2  0
 21 12  1  0
  8  9  1  0
  8 10  1  0
  8 11  1  0
 13 14  1  0
 15 16  1  0
 17 18  1  0
 19 20  1  0
 21 22  1  0
M  CHG  1   6  -1
M  END
>  <PDB_ID>  (672) 
pdb2pke

>  <RESIDUE_NAME>  (672) 
GLU   PHE

>  <FRAG_NAME>  (672) 
ACET   MBZ

>  <FRAG_ATOM_NUM>  (672) 
fragi: 7  fragj: 15

>  <atom.prop.CHAIN_ID>  (672) 
A A A A A A A Z Z Z Z Z Z Z Z Z Z Z Z Z Z Z

>  <atom.prop.IS_HEAVY_ATOM>  (672) 
1 0 0 0 1 1 1 1 0 0 0 1 1 0 1 0 1 0 1 0 1 0

>  <DIFUSE_FUNC_ATOM>  (672) 
atom 6   atom 7   

>  <FINAL_SINGLE_POINT_ENERGY>  (672) 
0

>  <NONCOV_INTER_ENERGY_QM>  (672) 
0

>  <FF_Energy>  (672) 
10.41

>  <QM_Energy>  (672) 
-3.93

>  <source>  (672) 
ACET_MBZ_00

>  <Index>  (672) 
23849

$$$$
ACET-pdb1leh-A-GLU-297:MBZ-pdb1leh-A-PHE-140
     RDKit          3D

 22 21  0  0  0  0  0  0  0  0999 V2000
   -2.2887    3.5049   -3.9087 C   0  0  0  0  0  0  0  0  0  0  0  0
   -2.5118    3.8865   -4.8071 H   0  0  0  0  0  0  0  0  0  0  0  0
   -2.3198    4.2346   -3.2232 H   0  0  0  0  0  0  0  0  0  0  0  0
   -3.0766    2.7945   -3.6585 H   0  0  0  0  0  0  0  0  0  0  0  0
   -0.8609    2.9911   -3.9676 C   0  0  0  0  0  0  0  0  0  0  0  0
   -0.5559    2.2485   -3.0119 O   0  0  0  0  0  1  0  0  0  0  0  0
   -0.0523    3.3719   -4.8399 O   0  0  0  0  0  0  0  0  0  0  0  0
   -0.0077    2.8943   -0.0115 C   0  0  0  0  0  0  0  0  0  0  0  0
   -0.8077    3.1986   -0.4856 H   0  0  0  0  0  0  0  0  0  0  0  0
    0.8242    3.2062   -0.4226 H   0  0  0  0  0  0  0  0  0  0  0  0
   -0.0485    3.2876    1.0042 H   0  0  0  0  0  0  0  0  0  0  0  0
   -0.0005    1.4009   -0.0070 C   0  0  0  0  0  0  0  0  0  0  0  0
   -1.2068    0.6957    0.0158 C   0  0  0  0  0  0  0  0  0  0  0  0
   -2.0679    1.1881    0.0423 H   0  0  0  0  0  0  0  0  0  0  0  0
   -1.2156   -0.6997   -0.0000 C   0  0  0  0  0  0  0  0  0  0  0  0
   -2.0841   -1.1946   -0.0111 H   0  0  0  0  0  0  0  0  0  0  0  0
   -0.0003   -1.3929    0.0010 C   0  0  0  0  0  0  0  0  0  0  0  0
   -0.0047   -2.3942    0.0016 H   0  0  0  0  0  0  0  0  0  0  0  0
    1.2156   -0.7006    0.0000 C   0  0  0  0  0  0  0  0  0  0  0  0
    2.0886   -1.1987    0.0074 H   0  0  0  0  0  0  0  0  0  0  0  0
    1.2077    0.6966   -0.0098 C   0  0  0  0  0  0  0  0  0  0  0  0
    2.0696    1.1951   -0.0195 H   0  0  0  0  0  0  0  0  0  0  0  0
  1  5  1  0
  5  6  1  0
  5  7  2  0
  1  2  1  0
  1  3  1  0
  1  4  1  0
  8 12  1  0
 12 13  2  0
 13 15  1  0
 15 17  2  0
 17 19  1  0
 19 21  2  0
 21 12  1  0
  8  9  1  0
  8 10  1  0
  8 11  1  0
 13 14  1  0
 15 16  1  0
 17 18  1  0
 19 20  1  0
 21 22  1  0
M  CHG  1   6  -1
M  END
>  <PDB_ID>  (673) 
pdb1leh

>  <RESIDUE_NAME>  (673) 
GLU   PHE

>  <FRAG_NAME>  (673) 
ACET   MBZ

>  <FRAG_ATOM_NUM>  (673) 
fragi: 7  fragj: 15

>  <atom.prop.CHAIN_ID>  (673) 
A A A A A A A Z Z Z Z Z Z Z Z Z Z Z Z Z Z Z

>  <atom.prop.IS_HEAVY_ATOM>  (673) 
1 0 0 0 1 1 1 1 0 0 0 1 1 0 1 0 1 0 1 0 1 0

>  <DIFUSE_FUNC_ATOM>  (673) 
atom 6   atom 7   

>  <FINAL_SINGLE_POINT_ENERGY>  (673) 
0

>  <NONCOV_INTER_ENERGY_QM>  (673) 
0

>  <FF_Energy>  (673) 
3.06

>  <QM_Energy>  (673) 
-2.87

>  <source>  (673) 
ACET_MBZ_00

>  <Index>  (673) 
23853

$$$$
ACET-pdb1lez-A-GLU-286:MBZ-pdb1lez-A-PHE-270
     RDKit          3D

 22 21  0  0  0  0  0  0  0  0999 V2000
    1.0714    1.8554   -3.5775 C   0  0  0  0  0  0  0  0  0  0  0  0
    1.4265    1.9623   -2.6724 H   0  0  0  0  0  0  0  0  0  0  0  0
    1.0997    2.6806   -4.1014 H   0  0  0  0  0  0  0  0  0  0  0  0
    1.6801    1.1104   -4.0899 H   0  0  0  0  0  0  0  0  0  0  0  0
   -0.3862    1.4285   -3.4598 C   0  0  0  0  0  0  0  0  0  0  0  0
   -1.2617    2.2881   -3.1642 O   0  0  0  0  0  1  0  0  0  0  0  0
   -0.6577    0.2235   -3.6637 O   0  0  0  0  0  0  0  0  0  0  0  0
    0.0099    2.9103   -0.0343 C   0  0  0  0  0  0  0  0  0  0  0  0
   -0.0509    3.1933   -0.9798 H   0  0  0  0  0  0  0  0  0  0  0  0
    0.8527    3.2194    0.3807 H   0  0  0  0  0  0  0  0  0  0  0  0
   -0.8162    3.3727    0.5059 H   0  0  0  0  0  0  0  0  0  0  0  0
    0.0010    1.4017    0.0008 C   0  0  0  0  0  0  0  0  0  0  0  0
   -1.1953    0.6899    0.0002 C   0  0  0  0  0  0  0  0  0  0  0  0
   -2.0629    1.1807   -0.0018 H   0  0  0  0  0  0  0  0  0  0  0  0
   -1.1993   -0.6995   -0.0000 C   0  0  0  0  0  0  0  0  0  0  0  0
   -2.0775   -1.1922    0.0021 H   0  0  0  0  0  0  0  0  0  0  0  0
   -0.0025   -1.3907   -0.0011 C   0  0  0  0  0  0  0  0  0  0  0  0
   -0.0014   -2.3912   -0.0033 H   0  0  0  0  0  0  0  0  0  0  0  0
    1.1993   -0.6931   -0.0000 C   0  0  0  0  0  0  0  0  0  0  0  0
    2.0795   -1.1951    0.0026 H   0  0  0  0  0  0  0  0  0  0  0  0
    1.1969    0.6917    0.0001 C   0  0  0  0  0  0  0  0  0  0  0  0
    2.0651    1.1897   -0.0006 H   0  0  0  0  0  0  0  0  0  0  0  0
  1  5  1  0
  5  6  1  0
  5  7  2  0
  1  2  1  0
  1  3  1  0
  1  4  1  0
  8 12  1  0
 12 13  2  0
 13 15  1  0
 15 17  2  0
 17 19  1  0
 19 21  2  0
 21 12  1  0
  8  9  1  0
  8 10  1  0
  8 11  1  0
 13 14  1  0
 15 16  1  0
 17 18  1  0
 19 20  1  0
 21 22  1  0
M  CHG  1   6  -1
M  END
>  <PDB_ID>  (674) 
pdb1lez

>  <RESIDUE_NAME>  (674) 
GLU   PHE

>  <FRAG_NAME>  (674) 
ACET   MBZ

>  <FRAG_ATOM_NUM>  (674) 
fragi: 7  fragj: 15

>  <atom.prop.CHAIN_ID>  (674) 
A A A A A A A Z Z Z Z Z Z Z Z Z Z Z Z Z Z Z

>  <atom.prop.IS_HEAVY_ATOM>  (674) 
1 0 0 0 1 1 1 1 0 0 0 1 1 0 1 0 1 0 1 0 1 0

>  <DIFUSE_FUNC_ATOM>  (674) 
atom 6   atom 7   

>  <FINAL_SINGLE_POINT_ENERGY>  (674) 
0

>  <NONCOV_INTER_ENERGY_QM>  (674) 
0

>  <FF_Energy>  (674) 
1.64

>  <QM_Energy>  (674) 
-3.84

>  <source>  (674) 
ACET_MBZ_00

>  <Index>  (674) 
23878

$$$$
ACET-pdb1lf6-A-GLU-89:MBZ-pdb1lf6-A-PHE-77
     RDKit          3D

 22 21  0  0  0  0  0  0  0  0999 V2000
    3.2898    5.8615   -1.0261 C   0  0  0  0  0  0  0  0  0  0  0  0
    2.5167    6.0006   -1.6167 H   0  0  0  0  0  0  0  0  0  0  0  0
    4.1303    6.1650   -1.4350 H   0  0  0  0  0  0  0  0  0  0  0  0
    3.1274    6.4321   -0.1117 H   0  0  0  0  0  0  0  0  0  0  0  0
    3.4151    4.3666   -0.7791 C   0  0  0  0  0  0  0  0  0  0  0  0
    4.0173    3.9803    0.2442 O   0  0  0  0  0  1  0  0  0  0  0  0
    2.9252    3.5807   -1.6169 O   0  0  0  0  0  0  0  0  0  0  0  0
   -0.0041    2.8969   -0.0092 C   0  0  0  0  0  0  0  0  0  0  0  0
    0.9304    3.2093    0.0746 H   0  0  0  0  0  0  0  0  0  0  0  0
   -0.5562    3.2086    0.7497 H   0  0  0  0  0  0  0  0  0  0  0  0
   -0.4175    3.3310   -0.9195 H   0  0  0  0  0  0  0  0  0  0  0  0
    0.0004    1.3991   -0.0005 C   0  0  0  0  0  0  0  0  0  0  0  0
   -1.1975    0.6909    0.0003 C   0  0  0  0  0  0  0  0  0  0  0  0
   -2.0633    1.1817   -0.0004 H   0  0  0  0  0  0  0  0  0  0  0  0
   -1.2017   -0.6986    0.0000 C   0  0  0  0  0  0  0  0  0  0  0  0
   -2.0781   -1.1937    0.0005 H   0  0  0  0  0  0  0  0  0  0  0  0
   -0.0003   -1.3926    0.0004 C   0  0  0  0  0  0  0  0  0  0  0  0
   -0.0010   -2.3907    0.0012 H   0  0  0  0  0  0  0  0  0  0  0  0
    1.2017   -0.6927   -0.0000 C   0  0  0  0  0  0  0  0  0  0  0  0
    2.0827   -1.1926    0.0010 H   0  0  0  0  0  0  0  0  0  0  0  0
    1.1974    0.6939   -0.0002 C   0  0  0  0  0  0  0  0  0  0  0  0
    2.0644    1.1921   -0.0005 H   0  0  0  0  0  0  0  0  0  0  0  0
  1  5  1  0
  5  6  1  0
  5  7  2  0
  1  2  1  0
  1  3  1  0
  1  4  1  0
  8 12  1  0
 12 13  2  0
 13 15  1  0
 15 17  2  0
 17 19  1  0
 19 21  2  0
 21 12  1  0
  8  9  1  0
  8 10  1  0
  8 11  1  0
 13 14  1  0
 15 16  1  0
 17 18  1  0
 19 20  1  0
 21 22  1  0
M  CHG  1   6  -1
M  END
>  <PDB_ID>  (675) 
pdb1lf6

>  <RESIDUE_NAME>  (675) 
GLU   PHE

>  <FRAG_NAME>  (675) 
ACET   MBZ

>  <FRAG_ATOM_NUM>  (675) 
fragi: 7  fragj: 15

>  <atom.prop.CHAIN_ID>  (675) 
A A A A A A A Z Z Z Z Z Z Z Z Z Z Z Z Z Z Z

>  <atom.prop.IS_HEAVY_ATOM>  (675) 
1 0 0 0 1 1 1 1 0 0 0 1 1 0 1 0 1 0 1 0 1 0

>  <DIFUSE_FUNC_ATOM>  (675) 
atom 6   atom 7   

>  <FINAL_SINGLE_POINT_ENERGY>  (675) 
0

>  <NONCOV_INTER_ENERGY_QM>  (675) 
0

>  <FF_Energy>  (675) 
-2.07

>  <QM_Energy>  (675) 
-7.16

>  <source>  (675) 
ACET_MBZ_00

>  <Index>  (675) 
23889

$$$$
ACET-pdb1lfa-A-ASP-244:MBZ-pdb1lfa-A-PHE-209
     RDKit          3D

 22 21  0  0  0  0  0  0  0  0999 V2000
    4.0191    4.0510    2.3523 C   0  0  0  0  0  0  0  0  0  0  0  0
    3.3500    4.1483    3.0820 H   0  0  0  0  0  0  0  0  0  0  0  0
    4.6691    4.8029    2.3770 H   0  0  0  0  0  0  0  0  0  0  0  0
    4.5683    3.1247    2.5210 H   0  0  0  0  0  0  0  0  0  0  0  0
    3.2873    4.0837    1.0144 C   0  0  0  0  0  0  0  0  0  0  0  0
    3.5577    3.2512    0.1212 O   0  0  0  0  0  1  0  0  0  0  0  0
    2.4325    4.9726    0.8577 O   0  0  0  0  0  0  0  0  0  0  0  0
   -0.0038    2.9089    0.0555 C   0  0  0  0  0  0  0  0  0  0  0  0
    0.8194    3.2025    0.5218 H   0  0  0  0  0  0  0  0  0  0  0  0
   -0.8131    3.1958    0.5486 H   0  0  0  0  0  0  0  0  0  0  0  0
   -0.0216    3.3954   -0.9198 H   0  0  0  0  0  0  0  0  0  0  0  0
    0.0011    1.4070   -0.0000 C   0  0  0  0  0  0  0  0  0  0  0  0
   -1.2004    0.6966   -0.0012 C   0  0  0  0  0  0  0  0  0  0  0  0
   -2.0663    1.1855   -0.0037 H   0  0  0  0  0  0  0  0  0  0  0  0
   -1.2107   -0.7049    0.0000 C   0  0  0  0  0  0  0  0  0  0  0  0
   -2.0844   -1.1928    0.0000 H   0  0  0  0  0  0  0  0  0  0  0  0
   -0.0032   -1.4024    0.0026 C   0  0  0  0  0  0  0  0  0  0  0  0
   -0.0004   -2.3968    0.0056 H   0  0  0  0  0  0  0  0  0  0  0  0
    1.2107   -0.6953   -0.0000 C   0  0  0  0  0  0  0  0  0  0  0  0
    2.0864   -1.1943    0.0010 H   0  0  0  0  0  0  0  0  0  0  0  0
    1.2025    0.6989   -0.0014 C   0  0  0  0  0  0  0  0  0  0  0  0
    2.0682    1.1971   -0.0041 H   0  0  0  0  0  0  0  0  0  0  0  0
  1  5  1  0
  5  6  1  0
  5  7  2  0
  1  2  1  0
  1  3  1  0
  1  4  1  0
  8 12  1  0
 12 13  2  0
 13 15  1  0
 15 17  2  0
 17 19  1  0
 19 21  2  0
 21 12  1  0
  8  9  1  0
  8 10  1  0
  8 11  1  0
 13 14  1  0
 15 16  1  0
 17 18  1  0
 19 20  1  0
 21 22  1  0
M  CHG  1   6  -1
M  END
>  <PDB_ID>  (676) 
pdb1lfa

>  <RESIDUE_NAME>  (676) 
ASP   PHE

>  <FRAG_NAME>  (676) 
ACET   MBZ

>  <FRAG_ATOM_NUM>  (676) 
fragi: 7  fragj: 15

>  <atom.prop.CHAIN_ID>  (676) 
A A A A A A A Z Z Z Z Z Z Z Z Z Z Z Z Z Z Z

>  <atom.prop.IS_HEAVY_ATOM>  (676) 
1 0 0 0 1 1 1 1 0 0 0 1 1 0 1 0 1 0 1 0 1 0

>  <DIFUSE_FUNC_ATOM>  (676) 
atom 6   atom 7   

>  <FINAL_SINGLE_POINT_ENERGY>  (676) 
0

>  <NONCOV_INTER_ENERGY_QM>  (676) 
0

>  <FF_Energy>  (676) 
-2.13

>  <QM_Energy>  (676) 
-8.69

>  <source>  (676) 
ACET_MBZ_00

>  <Index>  (676) 
23904

$$$$
ACET-pdb1lga-A-ASP-141:MBZ-pdb1lga-A-PHE-81
     RDKit          3D

 22 21  0  0  0  0  0  0  0  0999 V2000
   -0.0494    0.3157    3.5215 C   0  0  0  0  0  0  0  0  0  0  0  0
   -0.5108   -0.0934    2.7286 H   0  0  0  0  0  0  0  0  0  0  0  0
   -0.5311    0.0360    4.3560 H   0  0  0  0  0  0  0  0  0  0  0  0
    0.9766   -0.0497    3.5635 H   0  0  0  0  0  0  0  0  0  0  0  0
   -0.1668    1.8246    3.3996 C   0  0  0  0  0  0  0  0  0  0  0  0
    0.8053    2.5386    3.1858 O   0  0  0  0  0  1  0  0  0  0  0  0
   -1.2715    2.3146    3.4609 O   0  0  0  0  0  0  0  0  0  0  0  0
    0.0758    2.8917   -0.0153 C   0  0  0  0  0  0  0  0  0  0  0  0
    0.7642    3.1597   -0.6736 H   0  0  0  0  0  0  0  0  0  0  0  0
    0.3143    3.1946    0.8958 H   0  0  0  0  0  0  0  0  0  0  0  0
   -0.8564    3.3838   -0.2929 H   0  0  0  0  0  0  0  0  0  0  0  0
    0.0101    1.3774   -0.0010 C   0  0  0  0  0  0  0  0  0  0  0  0
   -1.2007    0.7021    0.0011 C   0  0  0  0  0  0  0  0  0  0  0  0
   -2.0519    1.1988    0.0020 H   0  0  0  0  0  0  0  0  0  0  0  0
   -1.1985   -0.6784   -0.0000 C   0  0  0  0  0  0  0  0  0  0  0  0
   -2.0777   -1.1782    0.0007 H   0  0  0  0  0  0  0  0  0  0  0  0
   -0.0025   -1.3754    0.0002 C   0  0  0  0  0  0  0  0  0  0  0  0
   -0.0176   -2.3808   -0.0003 H   0  0  0  0  0  0  0  0  0  0  0  0
    1.1985   -0.7006   -0.0000 C   0  0  0  0  0  0  0  0  0  0  0  0
    2.0745   -1.2046    0.0013 H   0  0  0  0  0  0  0  0  0  0  0  0
    1.1931    0.6749   -0.0004 C   0  0  0  0  0  0  0  0  0  0  0  0
    2.0661    1.1745   -0.0011 H   0  0  0  0  0  0  0  0  0  0  0  0
  1  5  1  0
  5  6  1  0
  5  7  2  0
  1  2  1  0
  1  3  1  0
  1  4  1  0
  8 12  1  0
 12 13  2  0
 13 15  1  0
 15 17  2  0
 17 19  1  0
 19 21  2  0
 21 12  1  0
  8  9  1  0
  8 10  1  0
  8 11  1  0
 13 14  1  0
 15 16  1  0
 17 18  1  0
 19 20  1  0
 21 22  1  0
M  CHG  1   6  -1
M  END
>  <PDB_ID>  (677) 
pdb1lga

>  <RESIDUE_NAME>  (677) 
ASP   PHE

>  <FRAG_NAME>  (677) 
ACET   MBZ

>  <FRAG_ATOM_NUM>  (677) 
fragi: 7  fragj: 15

>  <atom.prop.CHAIN_ID>  (677) 
A A A A A A A Z Z Z Z Z Z Z Z Z Z Z Z Z Z Z

>  <atom.prop.IS_HEAVY_ATOM>  (677) 
1 0 0 0 1 1 1 1 0 0 0 1 1 0 1 0 1 0 1 0 1 0

>  <DIFUSE_FUNC_ATOM>  (677) 
atom 6   atom 7   

>  <FINAL_SINGLE_POINT_ENERGY>  (677) 
0

>  <NONCOV_INTER_ENERGY_QM>  (677) 
0

>  <FF_Energy>  (677) 
0.46

>  <QM_Energy>  (677) 
-6.73

>  <source>  (677) 
ACET_MBZ_00

>  <Index>  (677) 
24024

$$$$
ACET-pdb2pnq-A-GLU-86:MBZ-pdb2pnq-A-PHE-129
     RDKit          3D

 22 21  0  0  0  0  0  0  0  0999 V2000
   -5.1708    1.7559   -1.7487 C   0  0  0  0  0  0  0  0  0  0  0  0
   -5.4187    1.9004   -2.6868 H   0  0  0  0  0  0  0  0  0  0  0  0
   -5.9500    1.7136   -1.1545 H   0  0  0  0  0  0  0  0  0  0  0  0
   -4.6231    0.8163   -1.6747 H   0  0  0  0  0  0  0  0  0  0  0  0
   -4.3301    2.9462   -1.3118 C   0  0  0  0  0  0  0  0  0  0  0  0
   -3.6955    2.8676   -0.2388 O   0  0  0  0  0  1  0  0  0  0  0  0
   -4.3038    3.9664   -2.0367 O   0  0  0  0  0  0  0  0  0  0  0  0
    0.0099    2.9110   -0.0339 C   0  0  0  0  0  0  0  0  0  0  0  0
    0.9312    3.2202    0.1527 H   0  0  0  0  0  0  0  0  0  0  0  0
   -0.6229    3.2394    0.6539 H   0  0  0  0  0  0  0  0  0  0  0  0
   -0.2930    3.3391   -0.9895 H   0  0  0  0  0  0  0  0  0  0  0  0
    0.0026    1.4117   -0.0004 C   0  0  0  0  0  0  0  0  0  0  0  0
   -1.2066    0.6977    0.0012 C   0  0  0  0  0  0  0  0  0  0  0  0
   -2.0696    1.1853    0.0022 H   0  0  0  0  0  0  0  0  0  0  0  0
   -1.2150   -0.7110   -0.0000 C   0  0  0  0  0  0  0  0  0  0  0  0
   -2.0875   -1.1980    0.0018 H   0  0  0  0  0  0  0  0  0  0  0  0
   -0.0048   -1.4038   -0.0021 C   0  0  0  0  0  0  0  0  0  0  0  0
    0.0003   -2.4002   -0.0054 H   0  0  0  0  0  0  0  0  0  0  0  0
    1.2150   -0.6987   -0.0000 C   0  0  0  0  0  0  0  0  0  0  0  0
    2.0883   -1.1965    0.0020 H   0  0  0  0  0  0  0  0  0  0  0  0
    1.2088    0.7040    0.0013 C   0  0  0  0  0  0  0  0  0  0  0  0
    2.0731    1.1985    0.0026 H   0  0  0  0  0  0  0  0  0  0  0  0
  1  5  1  0
  5  6  1  0
  5  7  2  0
  1  2  1  0
  1  3  1  0
  1  4  1  0
  8 12  1  0
 12 13  2  0
 13 15  1  0
 15 17  2  0
 17 19  1  0
 19 21  2  0
 21 12  1  0
  8  9  1  0
  8 10  1  0
  8 11  1  0
 13 14  1  0
 15 16  1  0
 17 18  1  0
 19 20  1  0
 21 22  1  0
M  CHG  1   6  -1
M  END
>  <PDB_ID>  (678) 
pdb2pnq

>  <RESIDUE_NAME>  (678) 
GLU   PHE

>  <FRAG_NAME>  (678) 
ACET   MBZ

>  <FRAG_ATOM_NUM>  (678) 
fragi: 7  fragj: 15

>  <atom.prop.CHAIN_ID>  (678) 
A A A A A A A Z Z Z Z Z Z Z Z Z Z Z Z Z Z Z

>  <atom.prop.IS_HEAVY_ATOM>  (678) 
1 0 0 0 1 1 1 1 0 0 0 1 1 0 1 0 1 0 1 0 1 0

>  <DIFUSE_FUNC_ATOM>  (678) 
atom 6   atom 7   

>  <FINAL_SINGLE_POINT_ENERGY>  (678) 
0

>  <NONCOV_INTER_ENERGY_QM>  (678) 
0

>  <FF_Energy>  (678) 
-1.93

>  <QM_Energy>  (678) 
-7.56

>  <source>  (678) 
ACET_MBZ_00

>  <Index>  (678) 
24080

$$$$
ACET-pdb1lla-A-ASP-336:MBZ-pdb1lla-A-PHE-341
     RDKit          3D

 22 21  0  0  0  0  0  0  0  0999 V2000
    4.3423    3.7904   -0.4431 C   0  0  0  0  0  0  0  0  0  0  0  0
    4.0215    3.7071    0.5026 H   0  0  0  0  0  0  0  0  0  0  0  0
    4.8858    4.6263   -0.5341 H   0  0  0  0  0  0  0  0  0  0  0  0
    5.0097    2.9496   -0.6317 H   0  0  0  0  0  0  0  0  0  0  0  0
    3.1410    3.8801   -1.3649 C   0  0  0  0  0  0  0  0  0  0  0  0
    2.7847    2.8941   -2.0153 O   0  0  0  0  0  1  0  0  0  0  0  0
    2.5510    4.9405   -1.4664 O   0  0  0  0  0  0  0  0  0  0  0  0
    0.0124    2.8759   -0.0531 C   0  0  0  0  0  0  0  0  0  0  0  0
    0.9384    3.1725   -0.1460 H   0  0  0  0  0  0  0  0  0  0  0  0
   -0.4242    3.2135    0.7535 H   0  0  0  0  0  0  0  0  0  0  0  0
   -0.5452    3.2428   -0.9147 H   0  0  0  0  0  0  0  0  0  0  0  0
    0.0020    1.3725   -0.0003 C   0  0  0  0  0  0  0  0  0  0  0  0
   -1.1947    0.6953    0.0028 C   0  0  0  0  0  0  0  0  0  0  0  0
   -2.0546    1.1846    0.0053 H   0  0  0  0  0  0  0  0  0  0  0  0
   -1.1889   -0.6875   -0.0000 C   0  0  0  0  0  0  0  0  0  0  0  0
   -2.0719   -1.1857    0.0019 H   0  0  0  0  0  0  0  0  0  0  0  0
    0.0019   -1.3867   -0.0041 C   0  0  0  0  0  0  0  0  0  0  0  0
   -0.0015   -2.3833   -0.0100 H   0  0  0  0  0  0  0  0  0  0  0  0
    1.1889   -0.6856   -0.0000 C   0  0  0  0  0  0  0  0  0  0  0  0
    2.0777   -1.1870    0.0034 H   0  0  0  0  0  0  0  0  0  0  0  0
    1.1907    0.6920    0.0017 C   0  0  0  0  0  0  0  0  0  0  0  0
    2.0565    1.1883    0.0031 H   0  0  0  0  0  0  0  0  0  0  0  0
  1  5  1  0
  5  6  1  0
  5  7  2  0
  1  2  1  0
  1  3  1  0
  1  4  1  0
  8 12  1  0
 12 13  2  0
 13 15  1  0
 15 17  2  0
 17 19  1  0
 19 21  2  0
 21 12  1  0
  8  9  1  0
  8 10  1  0
  8 11  1  0
 13 14  1  0
 15 16  1  0
 17 18  1  0
 19 20  1  0
 21 22  1  0
M  CHG  1   6  -1
M  END
>  <PDB_ID>  (679) 
pdb1lla

>  <RESIDUE_NAME>  (679) 
ASP   PHE

>  <FRAG_NAME>  (679) 
ACET   MBZ

>  <FRAG_ATOM_NUM>  (679) 
fragi: 7  fragj: 15

>  <atom.prop.CHAIN_ID>  (679) 
A A A A A A A Z Z Z Z Z Z Z Z Z Z Z Z Z Z Z

>  <atom.prop.IS_HEAVY_ATOM>  (679) 
1 0 0 0 1 1 1 1 0 0 0 1 1 0 1 0 1 0 1 0 1 0

>  <DIFUSE_FUNC_ATOM>  (679) 
atom 6   atom 7   

>  <FINAL_SINGLE_POINT_ENERGY>  (679) 
0

>  <NONCOV_INTER_ENERGY_QM>  (679) 
0

>  <FF_Energy>  (679) 
-1.07

>  <QM_Energy>  (679) 
-6.59

>  <source>  (679) 
ACET_MBZ_00

>  <Index>  (679) 
24113

$$$$
ACET-pdb1lla-A-GLU-113:MBZ-pdb1lla-A-PHE-517
     RDKit          3D

 22 21  0  0  0  0  0  0  0  0999 V2000
    5.3705    2.6468    0.0371 C   0  0  0  0  0  0  0  0  0  0  0  0
    5.6301    2.8127    0.9732 H   0  0  0  0  0  0  0  0  0  0  0  0
    6.1049    2.8492   -0.5882 H   0  0  0  0  0  0  0  0  0  0  0  0
    5.0811    1.6018   -0.0742 H   0  0  0  0  0  0  0  0  0  0  0  0
    4.2358    3.6191   -0.2864 C   0  0  0  0  0  0  0  0  0  0  0  0
    3.1148    3.2032   -0.5249 O   0  0  0  0  0  1  0  0  0  0  0  0
    4.4633    4.8179   -0.2908 O   0  0  0  0  0  0  0  0  0  0  0  0
    0.0030    2.8737    0.0704 C   0  0  0  0  0  0  0  0  0  0  0  0
    0.9385    3.1522    0.3354 H   0  0  0  0  0  0  0  0  0  0  0  0
   -0.6185    3.1348    0.8247 H   0  0  0  0  0  0  0  0  0  0  0  0
   -0.2820    3.4386   -0.8171 H   0  0  0  0  0  0  0  0  0  0  0  0
   -0.0026    1.3674    0.0001 C   0  0  0  0  0  0  0  0  0  0  0  0
   -1.1950    0.6887   -0.0026 C   0  0  0  0  0  0  0  0  0  0  0  0
   -2.0565    1.1788   -0.0071 H   0  0  0  0  0  0  0  0  0  0  0  0
   -1.1876   -0.6862   -0.0000 C   0  0  0  0  0  0  0  0  0  0  0  0
   -2.0680   -1.1884    0.0004 H   0  0  0  0  0  0  0  0  0  0  0  0
    0.0010   -1.3695    0.0035 C   0  0  0  0  0  0  0  0  0  0  0  0
   -0.0036   -2.3770    0.0077 H   0  0  0  0  0  0  0  0  0  0  0  0
    1.1876   -0.6867    0.0000 C   0  0  0  0  0  0  0  0  0  0  0  0
    2.0733   -1.1939   -0.0000 H   0  0  0  0  0  0  0  0  0  0  0  0
    1.1966    0.6863   -0.0010 C   0  0  0  0  0  0  0  0  0  0  0  0
    2.0555    1.1859   -0.0032 H   0  0  0  0  0  0  0  0  0  0  0  0
  1  5  1  0
  5  6  1  0
  5  7  2  0
  1  2  1  0
  1  3  1  0
  1  4  1  0
  8 12  1  0
 12 13  2  0
 13 15  1  0
 15 17  2  0
 17 19  1  0
 19 21  2  0
 21 12  1  0
  8  9  1  0
  8 10  1  0
  8 11  1  0
 13 14  1  0
 15 16  1  0
 17 18  1  0
 19 20  1  0
 21 22  1  0
M  CHG  1   6  -1
M  END
>  <PDB_ID>  (680) 
pdb1lla

>  <RESIDUE_NAME>  (680) 
GLU   PHE

>  <FRAG_NAME>  (680) 
ACET   MBZ

>  <FRAG_ATOM_NUM>  (680) 
fragi: 7  fragj: 15

>  <atom.prop.CHAIN_ID>  (680) 
A A A A A A A Z Z Z Z Z Z Z Z Z Z Z Z Z Z Z

>  <atom.prop.IS_HEAVY_ATOM>  (680) 
1 0 0 0 1 1 1 1 0 0 0 1 1 0 1 0 1 0 1 0 1 0

>  <DIFUSE_FUNC_ATOM>  (680) 
atom 6   atom 7   

>  <FINAL_SINGLE_POINT_ENERGY>  (680) 
0

>  <NONCOV_INTER_ENERGY_QM>  (680) 
0

>  <FF_Energy>  (680) 
-0.87

>  <QM_Energy>  (680) 
-7.94

>  <source>  (680) 
ACET_MBZ_00

>  <Index>  (680) 
24115

$$$$
ACET-pdb2pof-A-GLU-184:MBZ-pdb2pof-A-PHE-222
     RDKit          3D

 22 21  0  0  0  0  0  0  0  0999 V2000
   -4.6174   -1.9630   -0.2409 C   0  0  0  0  0  0  0  0  0  0  0  0
   -3.9746   -1.2318   -0.1226 H   0  0  0  0  0  0  0  0  0  0  0  0
   -5.2641   -2.0205    0.4941 H   0  0  0  0  0  0  0  0  0  0  0  0
   -5.1610   -1.7992   -1.1714 H   0  0  0  0  0  0  0  0  0  0  0  0
   -3.8206   -3.2721   -0.2469 C   0  0  0  0  0  0  0  0  0  0  0  0
   -4.3177   -4.3030   -0.7577 O   0  0  0  0  0  1  0  0  0  0  0  0
   -2.6790   -3.2715    0.2687 O   0  0  0  0  0  0  0  0  0  0  0  0
   -0.0015    2.8914    0.0334 C   0  0  0  0  0  0  0  0  0  0  0  0
   -0.7180    3.2150   -0.5694 H   0  0  0  0  0  0  0  0  0  0  0  0
    0.8870    3.2113   -0.2689 H   0  0  0  0  0  0  0  0  0  0  0  0
   -0.1847    3.3189    1.0192 H   0  0  0  0  0  0  0  0  0  0  0  0
   -0.0004    1.4011    0.0038 C   0  0  0  0  0  0  0  0  0  0  0  0
   -1.1964    0.6989   -0.0006 C   0  0  0  0  0  0  0  0  0  0  0  0
   -2.0633    1.1876   -0.0055 H   0  0  0  0  0  0  0  0  0  0  0  0
   -1.2044   -0.6984    0.0000 C   0  0  0  0  0  0  0  0  0  0  0  0
   -2.0814   -1.1869    0.0030 H   0  0  0  0  0  0  0  0  0  0  0  0
   -0.0029   -1.3953   -0.0014 C   0  0  0  0  0  0  0  0  0  0  0  0
   -0.0055   -2.3939   -0.0040 H   0  0  0  0  0  0  0  0  0  0  0  0
    1.2044   -0.6994   -0.0000 C   0  0  0  0  0  0  0  0  0  0  0  0
    2.0822   -1.1987    0.0037 H   0  0  0  0  0  0  0  0  0  0  0  0
    1.1997    0.6931   -0.0018 C   0  0  0  0  0  0  0  0  0  0  0  0
    2.0658    1.1900   -0.0082 H   0  0  0  0  0  0  0  0  0  0  0  0
  1  5  1  0
  5  6  1  0
  5  7  2  0
  1  2  1  0
  1  3  1  0
  1  4  1  0
  8 12  1  0
 12 13  2  0
 13 15  1  0
 15 17  2  0
 17 19  1  0
 19 21  2  0
 21 12  1  0
  8  9  1  0
  8 10  1  0
  8 11  1  0
 13 14  1  0
 15 16  1  0
 17 18  1  0
 19 20  1  0
 21 22  1  0
M  CHG  1   6  -1
M  END
>  <PDB_ID>  (681) 
pdb2pof

>  <RESIDUE_NAME>  (681) 
GLU   PHE

>  <FRAG_NAME>  (681) 
ACET   MBZ

>  <FRAG_ATOM_NUM>  (681) 
fragi: 7  fragj: 15

>  <atom.prop.CHAIN_ID>  (681) 
A A A A A A A Z Z Z Z Z Z Z Z Z Z Z Z Z Z Z

>  <atom.prop.IS_HEAVY_ATOM>  (681) 
1 0 0 0 1 1 1 1 0 0 0 1 1 0 1 0 1 0 1 0 1 0

>  <DIFUSE_FUNC_ATOM>  (681) 
atom 6   atom 7   

>  <FINAL_SINGLE_POINT_ENERGY>  (681) 
0

>  <NONCOV_INTER_ENERGY_QM>  (681) 
0

>  <FF_Energy>  (681) 
1.98

>  <QM_Energy>  (681) 
-4.67

>  <source>  (681) 
ACET_MBZ_00

>  <Index>  (681) 
24139

$$$$
ACET-pdb1llq-B-ASP-294:MBZ-pdb1llq-B-PHE-483
     RDKit          3D

 22 21  0  0  0  0  0  0  0  0999 V2000
    2.3940    3.1563   -3.9134 C   0  0  0  0  0  0  0  0  0  0  0  0
    1.4133    3.2936   -3.9107 H   0  0  0  0  0  0  0  0  0  0  0  0
    2.6570    2.4898   -4.5964 H   0  0  0  0  0  0  0  0  0  0  0  0
    2.8696    4.1051   -4.1619 H   0  0  0  0  0  0  0  0  0  0  0  0
    2.8177    2.6466   -2.5462 C   0  0  0  0  0  0  0  0  0  0  0  0
    2.7739    3.4468   -1.5822 O   0  0  0  0  0  1  0  0  0  0  0  0
    3.1910    1.4588   -2.4306 O   0  0  0  0  0  0  0  0  0  0  0  0
   -0.0035    2.9095   -0.0149 C   0  0  0  0  0  0  0  0  0  0  0  0
   -0.6722    3.2132   -0.6782 H   0  0  0  0  0  0  0  0  0  0  0  0
    0.9061    3.2152   -0.2595 H   0  0  0  0  0  0  0  0  0  0  0  0
   -0.2574    3.3695    0.9401 H   0  0  0  0  0  0  0  0  0  0  0  0
   -0.0051    1.4072   -0.0010 C   0  0  0  0  0  0  0  0  0  0  0  0
   -1.2039    0.6976    0.0008 C   0  0  0  0  0  0  0  0  0  0  0  0
   -2.0704    1.1848    0.0010 H   0  0  0  0  0  0  0  0  0  0  0  0
   -1.2066   -0.6997   -0.0000 C   0  0  0  0  0  0  0  0  0  0  0  0
   -2.0756   -1.1979    0.0007 H   0  0  0  0  0  0  0  0  0  0  0  0
    0.0127   -1.4028    0.0006 C   0  0  0  0  0  0  0  0  0  0  0  0
    0.0025   -2.3972    0.0016 H   0  0  0  0  0  0  0  0  0  0  0  0
    1.2066   -0.7012   -0.0000 C   0  0  0  0  0  0  0  0  0  0  0  0
    2.0930   -1.1887    0.0014 H   0  0  0  0  0  0  0  0  0  0  0  0
    1.1963    0.6988   -0.0005 C   0  0  0  0  0  0  0  0  0  0  0  0
    2.0633    1.1947   -0.0010 H   0  0  0  0  0  0  0  0  0  0  0  0
  1  5  1  0
  5  6  1  0
  5  7  2  0
  1  2  1  0
  1  3  1  0
  1  4  1  0
  8 12  1  0
 12 13  2  0
 13 15  1  0
 15 17  2  0
 17 19  1  0
 19 21  2  0
 21 12  1  0
  8  9  1  0
  8 10  1  0
  8 11  1  0
 13 14  1  0
 15 16  1  0
 17 18  1  0
 19 20  1  0
 21 22  1  0
M  CHG  1   6  -1
M  END
>  <PDB_ID>  (682) 
pdb1llq

>  <RESIDUE_NAME>  (682) 
ASP   PHE

>  <FRAG_NAME>  (682) 
ACET   MBZ

>  <FRAG_ATOM_NUM>  (682) 
fragi: 7  fragj: 15

>  <atom.prop.CHAIN_ID>  (682) 
A A A A A A A Z Z Z Z Z Z Z Z Z Z Z Z Z Z Z

>  <atom.prop.IS_HEAVY_ATOM>  (682) 
1 0 0 0 1 1 1 1 0 0 0 1 1 0 1 0 1 0 1 0 1 0

>  <DIFUSE_FUNC_ATOM>  (682) 
atom 6   atom 7   

>  <FINAL_SINGLE_POINT_ENERGY>  (682) 
0

>  <NONCOV_INTER_ENERGY_QM>  (682) 
0

>  <FF_Energy>  (682) 
-0.89

>  <QM_Energy>  (682) 
-7.89

>  <source>  (682) 
ACET_MBZ_00

>  <Index>  (682) 
24204

$$$$
ACET-pdb1li4-A-GLU-341:MBZ-pdb1li4-A-PHE-82
     RDKit          3D

 22 21  0  0  0  0  0  0  0  0999 V2000
    2.9748   -4.2020    1.8687 C   0  0  0  0  0  0  0  0  0  0  0  0
    3.3772   -4.8710    2.4573 H   0  0  0  0  0  0  0  0  0  0  0  0
    2.5180   -3.4873    2.3551 H   0  0  0  0  0  0  0  0  0  0  0  0
    3.7451   -3.7720    1.2285 H   0  0  0  0  0  0  0  0  0  0  0  0
    1.8992   -4.9305    1.0433 C   0  0  0  0  0  0  0  0  0  0  0  0
    1.9507   -6.1823    0.9571 O   0  0  0  0  0  1  0  0  0  0  0  0
    1.0427   -4.2444    0.4601 O   0  0  0  0  0  0  0  0  0  0  0  0
    0.0172    2.9377    0.0353 C   0  0  0  0  0  0  0  0  0  0  0  0
    0.9217    3.2336   -0.2423 H   0  0  0  0  0  0  0  0  0  0  0  0
   -0.1773    3.2251    0.9643 H   0  0  0  0  0  0  0  0  0  0  0  0
   -0.7023    3.4332   -0.6166 H   0  0  0  0  0  0  0  0  0  0  0  0
   -0.0104    1.4239   -0.0005 C   0  0  0  0  0  0  0  0  0  0  0  0
   -1.2104    0.7213   -0.0007 C   0  0  0  0  0  0  0  0  0  0  0  0
   -2.0766    1.2032   -0.0022 H   0  0  0  0  0  0  0  0  0  0  0  0
   -1.2181   -0.6920    0.0000 C   0  0  0  0  0  0  0  0  0  0  0  0
   -2.0882   -1.1834    0.0038 H   0  0  0  0  0  0  0  0  0  0  0  0
    0.0087   -1.4190   -0.0025 C   0  0  0  0  0  0  0  0  0  0  0  0
   -0.0177   -2.4081   -0.0068 H   0  0  0  0  0  0  0  0  0  0  0  0
    1.2181   -0.7255    0.0000 C   0  0  0  0  0  0  0  0  0  0  0  0
    2.0965   -1.2130    0.0011 H   0  0  0  0  0  0  0  0  0  0  0  0
    1.2122    0.6913    0.0037 C   0  0  0  0  0  0  0  0  0  0  0  0
    2.0731    1.1859    0.0082 H   0  0  0  0  0  0  0  0  0  0  0  0
  1  5  1  0
  5  6  1  0
  5  7  2  0
  1  2  1  0
  1  3  1  0
  1  4  1  0
  8 12  1  0
 12 13  2  0
 13 15  1  0
 15 17  2  0
 17 19  1  0
 19 21  2  0
 21 12  1  0
  8  9  1  0
  8 10  1  0
  8 11  1  0
 13 14  1  0
 15 16  1  0
 17 18  1  0
 19 20  1  0
 21 22  1  0
M  CHG  1   6  -1
M  END
>  <PDB_ID>  (683) 
pdb1li4

>  <RESIDUE_NAME>  (683) 
GLU   PHE

>  <FRAG_NAME>  (683) 
ACET   MBZ

>  <FRAG_ATOM_NUM>  (683) 
fragi: 7  fragj: 15

>  <atom.prop.CHAIN_ID>  (683) 
A A A A A A A Z Z Z Z Z Z Z Z Z Z Z Z Z Z Z

>  <atom.prop.IS_HEAVY_ATOM>  (683) 
1 0 0 0 1 1 1 1 0 0 0 1 1 0 1 0 1 0 1 0 1 0

>  <DIFUSE_FUNC_ATOM>  (683) 
atom 6   atom 7   

>  <FINAL_SINGLE_POINT_ENERGY>  (683) 
0

>  <NONCOV_INTER_ENERGY_QM>  (683) 
0

>  <FF_Energy>  (683) 
-0.44

>  <QM_Energy>  (683) 
-5.89

>  <source>  (683) 
ACET_MBZ_00

>  <Index>  (683) 
24247

$$$$
ACET-pdb1ln8-A-ASP-94:MBZ-pdb1ln8-A-PHE-5
     RDKit          3D

 22 21  0  0  0  0  0  0  0  0999 V2000
   -3.2134    1.6528   -2.9351 C   0  0  0  0  0  0  0  0  0  0  0  0
   -3.8478    2.1586   -3.5125 H   0  0  0  0  0  0  0  0  0  0  0  0
   -3.4021    1.8367   -1.9750 H   0  0  0  0  0  0  0  0  0  0  0  0
   -3.3632    0.5881   -3.1145 H   0  0  0  0  0  0  0  0  0  0  0  0
   -1.8044    2.1128   -3.2484 C   0  0  0  0  0  0  0  0  0  0  0  0
   -0.9683    1.2842   -3.7051 O   0  0  0  0  0  1  0  0  0  0  0  0
   -1.4385    3.2967   -3.0876 O   0  0  0  0  0  0  0  0  0  0  0  0
    0.0392    2.9264   -0.0125 C   0  0  0  0  0  0  0  0  0  0  0  0
   -0.0749    3.2188   -0.9511 H   0  0  0  0  0  0  0  0  0  0  0  0
    0.9184    3.2062    0.3450 H   0  0  0  0  0  0  0  0  0  0  0  0
   -0.7344    3.4088    0.5850 H   0  0  0  0  0  0  0  0  0  0  0  0
   -0.0024    1.4056    0.0048 C   0  0  0  0  0  0  0  0  0  0  0  0
   -1.1943    0.6954   -0.0111 C   0  0  0  0  0  0  0  0  0  0  0  0
   -2.0633    1.1881   -0.0320 H   0  0  0  0  0  0  0  0  0  0  0  0
   -1.2024   -0.6902   -0.0000 C   0  0  0  0  0  0  0  0  0  0  0  0
   -2.0782   -1.1864    0.0075 H   0  0  0  0  0  0  0  0  0  0  0  0
    0.0043   -1.3994    0.0027 C   0  0  0  0  0  0  0  0  0  0  0  0
   -0.0071   -2.3930    0.0056 H   0  0  0  0  0  0  0  0  0  0  0  0
    1.2024   -0.7007    0.0000 C   0  0  0  0  0  0  0  0  0  0  0  0
    2.0853   -1.1955   -0.0026 H   0  0  0  0  0  0  0  0  0  0  0  0
    1.1924    0.6893    0.0036 C   0  0  0  0  0  0  0  0  0  0  0  0
    2.0633    1.1880    0.0048 H   0  0  0  0  0  0  0  0  0  0  0  0
  1  5  1  0
  5  6  1  0
  5  7  2  0
  1  2  1  0
  1  3  1  0
  1  4  1  0
  8 12  1  0
 12 13  2  0
 13 15  1  0
 15 17  2  0
 17 19  1  0
 19 21  2  0
 21 12  1  0
  8  9  1  0
  8 10  1  0
  8 11  1  0
 13 14  1  0
 15 16  1  0
 17 18  1  0
 19 20  1  0
 21 22  1  0
M  CHG  1   6  -1
M  END
>  <PDB_ID>  (684) 
pdb1ln8

>  <RESIDUE_NAME>  (684) 
ASP   PHE

>  <FRAG_NAME>  (684) 
ACET   MBZ

>  <FRAG_ATOM_NUM>  (684) 
fragi: 7  fragj: 15

>  <atom.prop.CHAIN_ID>  (684) 
A A A A A A A Z Z Z Z Z Z Z Z Z Z Z Z Z Z Z

>  <atom.prop.IS_HEAVY_ATOM>  (684) 
1 0 0 0 1 1 1 1 0 0 0 1 1 0 1 0 1 0 1 0 1 0

>  <DIFUSE_FUNC_ATOM>  (684) 
atom 6   atom 7   

>  <FINAL_SINGLE_POINT_ENERGY>  (684) 
0

>  <NONCOV_INTER_ENERGY_QM>  (684) 
0

>  <FF_Energy>  (684) 
0.9

>  <QM_Energy>  (684) 
-4.29

>  <source>  (684) 
ACET_MBZ_00

>  <Index>  (684) 
24261

$$$$
ACET-pdb2ppy-A-GLU-5:MBZ-pdb2ppy-A-PHE-14
     RDKit          3D

 22 21  0  0  0  0  0  0  0  0999 V2000
   -4.5226    0.7872    0.1767 C   0  0  0  0  0  0  0  0  0  0  0  0
   -3.6726    1.2123    0.4263 H   0  0  0  0  0  0  0  0  0  0  0  0
   -5.2845    1.4035    0.2543 H   0  0  0  0  0  0  0  0  0  0  0  0
   -4.4491    0.4641   -0.8617 H   0  0  0  0  0  0  0  0  0  0  0  0
   -4.7619   -0.3636    1.1373 C   0  0  0  0  0  0  0  0  0  0  0  0
   -5.7471   -1.1062    0.9424 O   0  0  0  0  0  1  0  0  0  0  0  0
   -3.9716   -0.5221    2.0917 O   0  0  0  0  0  0  0  0  0  0  0  0
    0.0047    2.9071    0.0118 C   0  0  0  0  0  0  0  0  0  0  0  0
    0.9329    3.2109    0.1738 H   0  0  0  0  0  0  0  0  0  0  0  0
   -0.6018    3.2105    0.7324 H   0  0  0  0  0  0  0  0  0  0  0  0
   -0.3343    3.3605   -0.9197 H   0  0  0  0  0  0  0  0  0  0  0  0
    0.0007    1.4058    0.0007 C   0  0  0  0  0  0  0  0  0  0  0  0
   -1.1964    0.6981   -0.0002 C   0  0  0  0  0  0  0  0  0  0  0  0
   -2.0633    1.1867   -0.0025 H   0  0  0  0  0  0  0  0  0  0  0  0
   -1.2038   -0.6997    0.0000 C   0  0  0  0  0  0  0  0  0  0  0  0
   -2.0809   -1.1896    0.0022 H   0  0  0  0  0  0  0  0  0  0  0  0
   -0.0013   -1.3988   -0.0005 C   0  0  0  0  0  0  0  0  0  0  0  0
   -0.0048   -2.3959   -0.0019 H   0  0  0  0  0  0  0  0  0  0  0  0
    1.2038   -0.7009   -0.0000 C   0  0  0  0  0  0  0  0  0  0  0  0
    2.0833   -1.1957    0.0018 H   0  0  0  0  0  0  0  0  0  0  0  0
    1.1969    0.6955   -0.0000 C   0  0  0  0  0  0  0  0  0  0  0  0
    2.0665    1.1898   -0.0015 H   0  0  0  0  0  0  0  0  0  0  0  0
  1  5  1  0
  5  6  1  0
  5  7  2  0
  1  2  1  0
  1  3  1  0
  1  4  1  0
  8 12  1  0
 12 13  2  0
 13 15  1  0
 15 17  2  0
 17 19  1  0
 19 21  2  0
 21 12  1  0
  8  9  1  0
  8 10  1  0
  8 11  1  0
 13 14  1  0
 15 16  1  0
 17 18  1  0
 19 20  1  0
 21 22  1  0
M  CHG  1   6  -1
M  END
>  <PDB_ID>  (685) 
pdb2ppy

>  <RESIDUE_NAME>  (685) 
GLU   PHE

>  <FRAG_NAME>  (685) 
ACET   MBZ

>  <FRAG_ATOM_NUM>  (685) 
fragi: 7  fragj: 15

>  <atom.prop.CHAIN_ID>  (685) 
A A A A A A A Z Z Z Z Z Z Z Z Z Z Z Z Z Z Z

>  <atom.prop.IS_HEAVY_ATOM>  (685) 
1 0 0 0 1 1 1 1 0 0 0 1 1 0 1 0 1 0 1 0 1 0

>  <DIFUSE_FUNC_ATOM>  (685) 
atom 6   atom 7   

>  <FINAL_SINGLE_POINT_ENERGY>  (685) 
0

>  <NONCOV_INTER_ENERGY_QM>  (685) 
0

>  <FF_Energy>  (685) 
8.09

>  <QM_Energy>  (685) 
-1.36

>  <source>  (685) 
ACET_MBZ_00

>  <Index>  (685) 
24264

$$$$
ACET-pdb2ppy-C-GLU-5:MBZ-pdb2ppy-C-PHE-14
     RDKit          3D

 22 21  0  0  0  0  0  0  0  0999 V2000
   -4.4024    0.2207   -2.4653 C   0  0  0  0  0  0  0  0  0  0  0  0
   -5.1344    0.8403   -2.6802 H   0  0  0  0  0  0  0  0  0  0  0  0
   -4.4193   -0.5857   -3.0263 H   0  0  0  0  0  0  0  0  0  0  0  0
   -3.4564    0.7360   -2.6319 H   0  0  0  0  0  0  0  0  0  0  0  0
   -4.5823   -0.2188   -1.0255 C   0  0  0  0  0  0  0  0  0  0  0  0
   -3.9416   -1.2086   -0.6133 O   0  0  0  0  0  1  0  0  0  0  0  0
   -5.3660    0.4358   -0.3018 O   0  0  0  0  0  0  0  0  0  0  0  0
    0.0043    2.9018    0.0130 C   0  0  0  0  0  0  0  0  0  0  0  0
    0.8597    3.2044    0.4089 H   0  0  0  0  0  0  0  0  0  0  0  0
   -0.7674    3.2064    0.5540 H   0  0  0  0  0  0  0  0  0  0  0  0
   -0.0830    3.3542   -0.9749 H   0  0  0  0  0  0  0  0  0  0  0  0
    0.0012    1.4031    0.0004 C   0  0  0  0  0  0  0  0  0  0  0  0
   -1.1953    0.6958   -0.0011 C   0  0  0  0  0  0  0  0  0  0  0  0
   -2.0627    1.1846   -0.0042 H   0  0  0  0  0  0  0  0  0  0  0  0
   -1.2016   -0.6986    0.0000 C   0  0  0  0  0  0  0  0  0  0  0  0
   -2.0795   -1.1893    0.0008 H   0  0  0  0  0  0  0  0  0  0  0  0
   -0.0009   -1.3966    0.0015 C   0  0  0  0  0  0  0  0  0  0  0  0
   -0.0043   -2.3947    0.0034 H   0  0  0  0  0  0  0  0  0  0  0  0
    1.2016   -0.6984   -0.0000 C   0  0  0  0  0  0  0  0  0  0  0  0
    2.0824   -1.1944    0.0007 H   0  0  0  0  0  0  0  0  0  0  0  0
    1.1950    0.6947   -0.0008 C   0  0  0  0  0  0  0  0  0  0  0  0
    2.0650    1.1894   -0.0027 H   0  0  0  0  0  0  0  0  0  0  0  0
  1  5  1  0
  5  6  1  0
  5  7  2  0
  1  2  1  0
  1  3  1  0
  1  4  1  0
  8 12  1  0
 12 13  2  0
 13 15  1  0
 15 17  2  0
 17 19  1  0
 19 21  2  0
 21 12  1  0
  8  9  1  0
  8 10  1  0
  8 11  1  0
 13 14  1  0
 15 16  1  0
 17 18  1  0
 19 20  1  0
 21 22  1  0
M  CHG  1   6  -1
M  END
>  <PDB_ID>  (686) 
pdb2ppy

>  <RESIDUE_NAME>  (686) 
GLU   PHE

>  <FRAG_NAME>  (686) 
ACET   MBZ

>  <FRAG_ATOM_NUM>  (686) 
fragi: 7  fragj: 15

>  <atom.prop.CHAIN_ID>  (686) 
A A A A A A A Z Z Z Z Z Z Z Z Z Z Z Z Z Z Z

>  <atom.prop.IS_HEAVY_ATOM>  (686) 
1 0 0 0 1 1 1 1 0 0 0 1 1 0 1 0 1 0 1 0 1 0

>  <DIFUSE_FUNC_ATOM>  (686) 
atom 6   atom 7   

>  <FINAL_SINGLE_POINT_ENERGY>  (686) 
0

>  <NONCOV_INTER_ENERGY_QM>  (686) 
0

>  <FF_Energy>  (686) 
7.41

>  <QM_Energy>  (686) 
-5.94

>  <source>  (686) 
ACET_MBZ_00

>  <Index>  (686) 
24270

$$$$
ACET-pdb2ppy-D-GLU-5:MBZ-pdb2ppy-D-PHE-14
     RDKit          3D

 22 21  0  0  0  0  0  0  0  0999 V2000
   -4.4072    0.6014   -0.6785 C   0  0  0  0  0  0  0  0  0  0  0  0
   -3.6597    1.0677   -0.2062 H   0  0  0  0  0  0  0  0  0  0  0  0
   -5.1487    1.2488   -0.8530 H   0  0  0  0  0  0  0  0  0  0  0  0
   -4.0270    0.2691   -1.6444 H   0  0  0  0  0  0  0  0  0  0  0  0
   -4.9449   -0.4657    0.2595 C   0  0  0  0  0  0  0  0  0  0  0  0
   -5.3899   -1.5658   -0.1663 O   0  0  0  0  0  1  0  0  0  0  0  0
   -4.9478   -0.1752    1.4781 O   0  0  0  0  0  0  0  0  0  0  0  0
   -0.0013    2.9098   -0.0031 C   0  0  0  0  0  0  0  0  0  0  0  0
    0.8833    3.2177    0.3145 H   0  0  0  0  0  0  0  0  0  0  0  0
   -0.7257    3.2176    0.5963 H   0  0  0  0  0  0  0  0  0  0  0  0
   -0.1731    3.3516   -0.9846 H   0  0  0  0  0  0  0  0  0  0  0  0
   -0.0002    1.4052    0.0006 C   0  0  0  0  0  0  0  0  0  0  0  0
   -1.1947    0.7001   -0.0014 C   0  0  0  0  0  0  0  0  0  0  0  0
   -2.0634    1.1863   -0.0048 H   0  0  0  0  0  0  0  0  0  0  0  0
   -1.2013   -0.6991    0.0000 C   0  0  0  0  0  0  0  0  0  0  0  0
   -2.0794   -1.1877    0.0026 H   0  0  0  0  0  0  0  0  0  0  0  0
   -0.0009   -1.3975   -0.0003 C   0  0  0  0  0  0  0  0  0  0  0  0
   -0.0068   -2.3965   -0.0015 H   0  0  0  0  0  0  0  0  0  0  0  0
    1.2013   -0.7036   -0.0000 C   0  0  0  0  0  0  0  0  0  0  0  0
    2.0816   -1.1972    0.0010 H   0  0  0  0  0  0  0  0  0  0  0  0
    1.1958    0.6949    0.0011 C   0  0  0  0  0  0  0  0  0  0  0  0
    2.0653    1.1881    0.0010 H   0  0  0  0  0  0  0  0  0  0  0  0
  1  5  1  0
  5  6  1  0
  5  7  2  0
  1  2  1  0
  1  3  1  0
  1  4  1  0
  8 12  1  0
 12 13  2  0
 13 15  1  0
 15 17  2  0
 17 19  1  0
 19 21  2  0
 21 12  1  0
  8  9  1  0
  8 10  1  0
  8 11  1  0
 13 14  1  0
 15 16  1  0
 17 18  1  0
 19 20  1  0
 21 22  1  0
M  CHG  1   6  -1
M  END
>  <PDB_ID>  (687) 
pdb2ppy

>  <RESIDUE_NAME>  (687) 
GLU   PHE

>  <FRAG_NAME>  (687) 
ACET   MBZ

>  <FRAG_ATOM_NUM>  (687) 
fragi: 7  fragj: 15

>  <atom.prop.CHAIN_ID>  (687) 
A A A A A A A Z Z Z Z Z Z Z Z Z Z Z Z Z Z Z

>  <atom.prop.IS_HEAVY_ATOM>  (687) 
1 0 0 0 1 1 1 1 0 0 0 1 1 0 1 0 1 0 1 0 1 0

>  <DIFUSE_FUNC_ATOM>  (687) 
atom 6   atom 7   

>  <FINAL_SINGLE_POINT_ENERGY>  (687) 
0

>  <NONCOV_INTER_ENERGY_QM>  (687) 
0

>  <FF_Energy>  (687) 
11.78

>  <QM_Energy>  (687) 
-1.06

>  <source>  (687) 
ACET_MBZ_00

>  <Index>  (687) 
24273

$$$$
ACET-pdb2ppy-E-GLU-5:MBZ-pdb2ppy-E-PHE-14
     RDKit          3D

 22 21  0  0  0  0  0  0  0  0999 V2000
   -3.3864   -0.5820   -2.5021 C   0  0  0  0  0  0  0  0  0  0  0  0
   -3.0975   -0.9044   -3.3823 H   0  0  0  0  0  0  0  0  0  0  0  0
   -2.6432   -0.2334   -1.9659 H   0  0  0  0  0  0  0  0  0  0  0  0
   -4.1141    0.2163   -2.6479 H   0  0  0  0  0  0  0  0  0  0  0  0
   -3.9737   -1.7653   -1.7527 C   0  0  0  0  0  0  0  0  0  0  0  0
   -4.7409   -2.5381   -2.3647 O   0  0  0  0  0  1  0  0  0  0  0  0
   -3.6805   -1.9172   -0.5487 O   0  0  0  0  0  0  0  0  0  0  0  0
    0.0056    2.9038    0.0371 C   0  0  0  0  0  0  0  0  0  0  0  0
    0.8886    3.1996    0.3749 H   0  0  0  0  0  0  0  0  0  0  0  0
   -0.7219    3.1993    0.6413 H   0  0  0  0  0  0  0  0  0  0  0  0
   -0.1551    3.3763   -0.9319 H   0  0  0  0  0  0  0  0  0  0  0  0
    0.0003    1.4044    0.0002 C   0  0  0  0  0  0  0  0  0  0  0  0
   -1.1971    0.6969   -0.0017 C   0  0  0  0  0  0  0  0  0  0  0  0
   -2.0636    1.1848   -0.0051 H   0  0  0  0  0  0  0  0  0  0  0  0
   -1.2017   -0.6991   -0.0000 C   0  0  0  0  0  0  0  0  0  0  0  0
   -2.0791   -1.1904    0.0011 H   0  0  0  0  0  0  0  0  0  0  0  0
   -0.0000   -1.3982    0.0017 C   0  0  0  0  0  0  0  0  0  0  0  0
   -0.0042   -2.3958    0.0032 H   0  0  0  0  0  0  0  0  0  0  0  0
    1.2017   -0.7001   -0.0000 C   0  0  0  0  0  0  0  0  0  0  0  0
    2.0836   -1.1949    0.0003 H   0  0  0  0  0  0  0  0  0  0  0  0
    1.1969    0.6961   -0.0001 C   0  0  0  0  0  0  0  0  0  0  0  0
    2.0652    1.1901   -0.0015 H   0  0  0  0  0  0  0  0  0  0  0  0
  1  5  1  0
  5  6  1  0
  5  7  2  0
  1  2  1  0
  1  3  1  0
  1  4  1  0
  8 12  1  0
 12 13  2  0
 13 15  1  0
 15 17  2  0
 17 19  1  0
 19 21  2  0
 21 12  1  0
  8  9  1  0
  8 10  1  0
  8 11  1  0
 13 14  1  0
 15 16  1  0
 17 18  1  0
 19 20  1  0
 21 22  1  0
M  CHG  1   6  -1
M  END
>  <PDB_ID>  (688) 
pdb2ppy

>  <RESIDUE_NAME>  (688) 
GLU   PHE

>  <FRAG_NAME>  (688) 
ACET   MBZ

>  <FRAG_ATOM_NUM>  (688) 
fragi: 7  fragj: 15

>  <atom.prop.CHAIN_ID>  (688) 
A A A A A A A Z Z Z Z Z Z Z Z Z Z Z Z Z Z Z

>  <atom.prop.IS_HEAVY_ATOM>  (688) 
1 0 0 0 1 1 1 1 0 0 0 1 1 0 1 0 1 0 1 0 1 0

>  <DIFUSE_FUNC_ATOM>  (688) 
atom 6   atom 7   

>  <FINAL_SINGLE_POINT_ENERGY>  (688) 
0

>  <NONCOV_INTER_ENERGY_QM>  (688) 
0

>  <FF_Energy>  (688) 
22.85

>  <QM_Energy>  (688) 
-3.31

>  <source>  (688) 
ACET_MBZ_00

>  <Index>  (688) 
24276

$$$$
ACET-pdb1lga-B-ASP-141:MBZ-pdb1lga-B-PHE-81
     RDKit          3D

 22 21  0  0  0  0  0  0  0  0999 V2000
   -0.1878    0.1640    3.6220 C   0  0  0  0  0  0  0  0  0  0  0  0
   -0.6582   -0.2552    2.8359 H   0  0  0  0  0  0  0  0  0  0  0  0
   -0.6406   -0.1482    4.4647 H   0  0  0  0  0  0  0  0  0  0  0  0
    0.8441   -0.1872    3.6340 H   0  0  0  0  0  0  0  0  0  0  0  0
   -0.3684    1.6762    3.5241 C   0  0  0  0  0  0  0  0  0  0  0  0
    0.6001    2.4087    3.3163 O   0  0  0  0  0  1  0  0  0  0  0  0
   -1.5052    2.1197    3.6379 O   0  0  0  0  0  0  0  0  0  0  0  0
    0.0521    2.9395    0.0075 C   0  0  0  0  0  0  0  0  0  0  0  0
    0.7772    3.2021   -0.6160 H   0  0  0  0  0  0  0  0  0  0  0  0
    0.2710    3.2103    0.9367 H   0  0  0  0  0  0  0  0  0  0  0  0
   -0.8682    3.4392   -0.2949 H   0  0  0  0  0  0  0  0  0  0  0  0
    0.0028    1.3920   -0.0006 C   0  0  0  0  0  0  0  0  0  0  0  0
   -1.1985    0.7046   -0.0012 C   0  0  0  0  0  0  0  0  0  0  0  0
   -2.0582    1.1932   -0.0032 H   0  0  0  0  0  0  0  0  0  0  0  0
   -1.1936   -0.6830   -0.0000 C   0  0  0  0  0  0  0  0  0  0  0  0
   -2.0752   -1.1793    0.0018 H   0  0  0  0  0  0  0  0  0  0  0  0
   -0.0004   -1.3816    0.0003 C   0  0  0  0  0  0  0  0  0  0  0  0
   -0.0180   -2.3868    0.0005 H   0  0  0  0  0  0  0  0  0  0  0  0
    1.1936   -0.7084    0.0000 C   0  0  0  0  0  0  0  0  0  0  0  0
    2.0743   -1.2094    0.0007 H   0  0  0  0  0  0  0  0  0  0  0  0
    1.1961    0.6763    0.0015 C   0  0  0  0  0  0  0  0  0  0  0  0
    2.0662    1.1710    0.0033 H   0  0  0  0  0  0  0  0  0  0  0  0
  1  5  1  0
  5  6  1  0
  5  7  2  0
  1  2  1  0
  1  3  1  0
  1  4  1  0
  8 12  1  0
 12 13  2  0
 13 15  1  0
 15 17  2  0
 17 19  1  0
 19 21  2  0
 21 12  1  0
  8  9  1  0
  8 10  1  0
  8 11  1  0
 13 14  1  0
 15 16  1  0
 17 18  1  0
 19 20  1  0
 21 22  1  0
M  CHG  1   6  -1
M  END
>  <PDB_ID>  (689) 
pdb1lga

>  <RESIDUE_NAME>  (689) 
ASP   PHE

>  <FRAG_NAME>  (689) 
ACET   MBZ

>  <FRAG_ATOM_NUM>  (689) 
fragi: 7  fragj: 15

>  <atom.prop.CHAIN_ID>  (689) 
A A A A A A A Z Z Z Z Z Z Z Z Z Z Z Z Z Z Z

>  <atom.prop.IS_HEAVY_ATOM>  (689) 
1 0 0 0 1 1 1 1 0 0 0 1 1 0 1 0 1 0 1 0 1 0

>  <DIFUSE_FUNC_ATOM>  (689) 
atom 6   atom 7   

>  <FINAL_SINGLE_POINT_ENERGY>  (689) 
0

>  <NONCOV_INTER_ENERGY_QM>  (689) 
0

>  <FF_Energy>  (689) 
0.1

>  <QM_Energy>  (689) 
-5.9

>  <source>  (689) 
ACET_MBZ_00

>  <Index>  (689) 
24283

$$$$
ACET-pdb1lnw-A-GLU-84:MBZ-pdb1lnw-A-PHE-96
     RDKit          3D

 22 21  0  0  0  0  0  0  0  0999 V2000
   -4.0930   -1.5834   -1.4187 C   0  0  0  0  0  0  0  0  0  0  0  0
   -3.6894   -1.1003   -0.6691 H   0  0  0  0  0  0  0  0  0  0  0  0
   -4.2786   -2.5227   -1.2121 H   0  0  0  0  0  0  0  0  0  0  0  0
   -5.0314   -1.0939   -1.6791 H   0  0  0  0  0  0  0  0  0  0  0  0
   -3.0985   -1.5565   -2.5703 C   0  0  0  0  0  0  0  0  0  0  0  0
   -2.0782   -2.2728   -2.4986 O   0  0  0  0  0  1  0  0  0  0  0  0
   -3.3345   -0.8107   -3.5455 O   0  0  0  0  0  0  0  0  0  0  0  0
    0.0002    2.9057   -0.0149 C   0  0  0  0  0  0  0  0  0  0  0  0
   -0.8400    3.2095   -0.4427 H   0  0  0  0  0  0  0  0  0  0  0  0
    0.7912    3.2108   -0.5266 H   0  0  0  0  0  0  0  0  0  0  0  0
    0.0508    3.3647    0.9725 H   0  0  0  0  0  0  0  0  0  0  0  0
    0.0023    1.4047   -0.0005 C   0  0  0  0  0  0  0  0  0  0  0  0
   -1.1959    0.6963    0.0008 C   0  0  0  0  0  0  0  0  0  0  0  0
   -2.0629    1.1857    0.0010 H   0  0  0  0  0  0  0  0  0  0  0  0
   -1.2038   -0.7002   -0.0000 C   0  0  0  0  0  0  0  0  0  0  0  0
   -2.0823   -1.1892    0.0009 H   0  0  0  0  0  0  0  0  0  0  0  0
   -0.0036   -1.3979   -0.0004 C   0  0  0  0  0  0  0  0  0  0  0  0
   -0.0065   -2.3961   -0.0011 H   0  0  0  0  0  0  0  0  0  0  0  0
    1.2038   -0.7012    0.0000 C   0  0  0  0  0  0  0  0  0  0  0  0
    2.0821   -1.1959    0.0016 H   0  0  0  0  0  0  0  0  0  0  0  0
    1.1973    0.6983    0.0001 C   0  0  0  0  0  0  0  0  0  0  0  0
    2.0670    1.1908   -0.0007 H   0  0  0  0  0  0  0  0  0  0  0  0
  1  5  1  0
  5  6  1  0
  5  7  2  0
  1  2  1  0
  1  3  1  0
  1  4  1  0
  8 12  1  0
 12 13  2  0
 13 15  1  0
 15 17  2  0
 17 19  1  0
 19 21  2  0
 21 12  1  0
  8  9  1  0
  8 10  1  0
  8 11  1  0
 13 14  1  0
 15 16  1  0
 17 18  1  0
 19 20  1  0
 21 22  1  0
M  CHG  1   6  -1
M  END
>  <PDB_ID>  (690) 
pdb1lnw

>  <RESIDUE_NAME>  (690) 
GLU   PHE

>  <FRAG_NAME>  (690) 
ACET   MBZ

>  <FRAG_ATOM_NUM>  (690) 
fragi: 7  fragj: 15

>  <atom.prop.CHAIN_ID>  (690) 
A A A A A A A Z Z Z Z Z Z Z Z Z Z Z Z Z Z Z

>  <atom.prop.IS_HEAVY_ATOM>  (690) 
1 0 0 0 1 1 1 1 0 0 0 1 1 0 1 0 1 0 1 0 1 0

>  <DIFUSE_FUNC_ATOM>  (690) 
atom 6   atom 7   

>  <FINAL_SINGLE_POINT_ENERGY>  (690) 
0

>  <NONCOV_INTER_ENERGY_QM>  (690) 
0

>  <FF_Energy>  (690) 
7.23

>  <QM_Energy>  (690) 
-0.16

>  <source>  (690) 
ACET_MBZ_00

>  <Index>  (690) 
24328

$$$$
ACET-pdb1lpb-B-GLU-385:MBZ-pdb1lpb-B-PHE-297
     RDKit          3D

 22 21  0  0  0  0  0  0  0  0999 V2000
   -0.0937    2.7656    4.8619 C   0  0  0  0  0  0  0  0  0  0  0  0
   -1.0110    2.5501    5.1766 H   0  0  0  0  0  0  0  0  0  0  0  0
    0.2775    3.5346    5.3696 H   0  0  0  0  0  0  0  0  0  0  0  0
    0.5445    1.8968    5.0234 H   0  0  0  0  0  0  0  0  0  0  0  0
   -0.2055    3.1950    3.4214 C   0  0  0  0  0  0  0  0  0  0  0  0
    0.8009    3.5730    2.8026 O   0  0  0  0  0  1  0  0  0  0  0  0
   -1.3348    3.2060    2.9056 O   0  0  0  0  0  0  0  0  0  0  0  0
    0.0031    2.8811   -0.0259 C   0  0  0  0  0  0  0  0  0  0  0  0
    0.8207    3.2051    0.4371 H   0  0  0  0  0  0  0  0  0  0  0  0
   -0.8124    3.2074    0.4394 H   0  0  0  0  0  0  0  0  0  0  0  0
    0.0023    3.3146   -1.0260 H   0  0  0  0  0  0  0  0  0  0  0  0
    0.0009    1.4046   -0.0008 C   0  0  0  0  0  0  0  0  0  0  0  0
   -1.2028    0.7003    0.0012 C   0  0  0  0  0  0  0  0  0  0  0  0
   -2.0657    1.1941    0.0018 H   0  0  0  0  0  0  0  0  0  0  0  0
   -1.2109   -0.6915    0.0000 C   0  0  0  0  0  0  0  0  0  0  0  0
   -2.0875   -1.1845    0.0015 H   0  0  0  0  0  0  0  0  0  0  0  0
   -0.0056   -1.4021   -0.0014 C   0  0  0  0  0  0  0  0  0  0  0  0
   -0.0138   -2.3948   -0.0039 H   0  0  0  0  0  0  0  0  0  0  0  0
    1.2109   -0.7036   -0.0000 C   0  0  0  0  0  0  0  0  0  0  0  0
    2.0850   -1.2052    0.0013 H   0  0  0  0  0  0  0  0  0  0  0  0
    1.2075    0.6923    0.0010 C   0  0  0  0  0  0  0  0  0  0  0  0
    2.0707    1.1892    0.0018 H   0  0  0  0  0  0  0  0  0  0  0  0
  1  5  1  0
  5  6  1  0
  5  7  2  0
  1  2  1  0
  1  3  1  0
  1  4  1  0
  8 12  1  0
 12 13  2  0
 13 15  1  0
 15 17  2  0
 17 19  1  0
 19 21  2  0
 21 12  1  0
  8  9  1  0
  8 10  1  0
  8 11  1  0
 13 14  1  0
 15 16  1  0
 17 18  1  0
 19 20  1  0
 21 22  1  0
M  CHG  1   6  -1
M  END
>  <PDB_ID>  (691) 
pdb1lpb

>  <RESIDUE_NAME>  (691) 
GLU   PHE

>  <FRAG_NAME>  (691) 
ACET   MBZ

>  <FRAG_ATOM_NUM>  (691) 
fragi: 7  fragj: 15

>  <atom.prop.CHAIN_ID>  (691) 
A A A A A A A Z Z Z Z Z Z Z Z Z Z Z Z Z Z Z

>  <atom.prop.IS_HEAVY_ATOM>  (691) 
1 0 0 0 1 1 1 1 0 0 0 1 1 0 1 0 1 0 1 0 1 0

>  <DIFUSE_FUNC_ATOM>  (691) 
atom 6   atom 7   

>  <FINAL_SINGLE_POINT_ENERGY>  (691) 
0

>  <NONCOV_INTER_ENERGY_QM>  (691) 
0

>  <FF_Energy>  (691) 
0.5

>  <QM_Energy>  (691) 
-6.18

>  <source>  (691) 
ACET_MBZ_00

>  <Index>  (691) 
24352

$$$$
ACET-pdb2ppl-A-GLU-403:MBZ-pdb2ppl-A-PHE-315
     RDKit          3D

 22 21  0  0  0  0  0  0  0  0999 V2000
   -1.5250    1.3320    3.9488 C   0  0  0  0  0  0  0  0  0  0  0  0
   -1.4287    0.5943    3.3107 H   0  0  0  0  0  0  0  0  0  0  0  0
   -2.4454    1.4357    4.2704 H   0  0  0  0  0  0  0  0  0  0  0  0
   -0.8848    1.1250    4.8064 H   0  0  0  0  0  0  0  0  0  0  0  0
   -1.1444    2.6227    3.2219 C   0  0  0  0  0  0  0  0  0  0  0  0
    0.0354    3.0576    3.2888 O   0  0  0  0  0  1  0  0  0  0  0  0
   -2.0389    3.2068    2.5768 O   0  0  0  0  0  0  0  0  0  0  0  0
   -0.0023    2.9290    0.0101 C   0  0  0  0  0  0  0  0  0  0  0  0
    0.8032    3.2257    0.5079 H   0  0  0  0  0  0  0  0  0  0  0  0
   -0.8299    3.2236    0.4716 H   0  0  0  0  0  0  0  0  0  0  0  0
    0.0183    3.4074   -0.9690 H   0  0  0  0  0  0  0  0  0  0  0  0
    0.0007    1.4128   -0.0120 C   0  0  0  0  0  0  0  0  0  0  0  0
   -1.1984    0.6971    0.0026 C   0  0  0  0  0  0  0  0  0  0  0  0
   -2.0657    1.1817    0.0134 H   0  0  0  0  0  0  0  0  0  0  0  0
   -1.2033   -0.7084   -0.0000 C   0  0  0  0  0  0  0  0  0  0  0  0
   -2.0810   -1.1954   -0.0045 H   0  0  0  0  0  0  0  0  0  0  0  0
   -0.0015   -1.4044    0.0056 C   0  0  0  0  0  0  0  0  0  0  0  0
    0.0002   -2.3998    0.0128 H   0  0  0  0  0  0  0  0  0  0  0  0
    1.2033   -0.6993    0.0000 C   0  0  0  0  0  0  0  0  0  0  0  0
    2.0851   -1.1931   -0.0055 H   0  0  0  0  0  0  0  0  0  0  0  0
    1.1992    0.7021    0.0038 C   0  0  0  0  0  0  0  0  0  0  0  0
    2.0674    1.1943    0.0173 H   0  0  0  0  0  0  0  0  0  0  0  0
  1  5  1  0
  5  6  1  0
  5  7  2  0
  1  2  1  0
  1  3  1  0
  1  4  1  0
  8 12  1  0
 12 13  2  0
 13 15  1  0
 15 17  2  0
 17 19  1  0
 19 21  2  0
 21 12  1  0
  8  9  1  0
  8 10  1  0
  8 11  1  0
 13 14  1  0
 15 16  1  0
 17 18  1  0
 19 20  1  0
 21 22  1  0
M  CHG  1   6  -1
M  END
>  <PDB_ID>  (692) 
pdb2ppl

>  <RESIDUE_NAME>  (692) 
GLU   PHE

>  <FRAG_NAME>  (692) 
ACET   MBZ

>  <FRAG_ATOM_NUM>  (692) 
fragi: 7  fragj: 15

>  <atom.prop.CHAIN_ID>  (692) 
A A A A A A A Z Z Z Z Z Z Z Z Z Z Z Z Z Z Z

>  <atom.prop.IS_HEAVY_ATOM>  (692) 
1 0 0 0 1 1 1 1 0 0 0 1 1 0 1 0 1 0 1 0 1 0

>  <DIFUSE_FUNC_ATOM>  (692) 
atom 6   atom 7   

>  <FINAL_SINGLE_POINT_ENERGY>  (692) 
0

>  <NONCOV_INTER_ENERGY_QM>  (692) 
0

>  <FF_Energy>  (692) 
-0.19

>  <QM_Energy>  (692) 
-7.27

>  <source>  (692) 
ACET_MBZ_00

>  <Index>  (692) 
24363

$$$$
ACET-pdb1lq1-C-GLU-178:MBZ-pdb1lq1-C-PHE-205
     RDKit          3D

 22 21  0  0  0  0  0  0  0  0999 V2000
   -3.4487   -3.0366   -0.1633 C   0  0  0  0  0  0  0  0  0  0  0  0
   -2.4860   -3.2426   -0.2543 H   0  0  0  0  0  0  0  0  0  0  0  0
   -3.5884   -2.1238    0.1908 H   0  0  0  0  0  0  0  0  0  0  0  0
   -3.9177   -3.1094   -1.1445 H   0  0  0  0  0  0  0  0  0  0  0  0
   -4.0184   -4.0031    0.8575 C   0  0  0  0  0  0  0  0  0  0  0  0
   -5.1796   -3.8431    1.2859 O   0  0  0  0  0  1  0  0  0  0  0  0
   -3.2785   -4.9381    1.2258 O   0  0  0  0  0  0  0  0  0  0  0  0
    0.0113    2.8952    0.0894 C   0  0  0  0  0  0  0  0  0  0  0  0
   -0.8150    3.2345   -0.3303 H   0  0  0  0  0  0  0  0  0  0  0  0
    0.8167    3.2295   -0.3727 H   0  0  0  0  0  0  0  0  0  0  0  0
    0.0392    3.2686    1.1130 H   0  0  0  0  0  0  0  0  0  0  0  0
    0.0045    1.4005    0.0012 C   0  0  0  0  0  0  0  0  0  0  0  0
   -1.1995    0.6916   -0.0010 C   0  0  0  0  0  0  0  0  0  0  0  0
   -2.0624    1.1838   -0.0043 H   0  0  0  0  0  0  0  0  0  0  0  0
   -1.2050   -0.7003    0.0000 C   0  0  0  0  0  0  0  0  0  0  0  0
   -2.0823   -1.1919    0.0011 H   0  0  0  0  0  0  0  0  0  0  0  0
   -0.0063   -1.3936    0.0018 C   0  0  0  0  0  0  0  0  0  0  0  0
   -0.0018   -2.3913    0.0033 H   0  0  0  0  0  0  0  0  0  0  0  0
    1.2050   -0.6906    0.0000 C   0  0  0  0  0  0  0  0  0  0  0  0
    2.0810   -1.1968    0.0018 H   0  0  0  0  0  0  0  0  0  0  0  0
    1.2014    0.6924   -0.0019 C   0  0  0  0  0  0  0  0  0  0  0  0
    2.0687    1.1927   -0.0059 H   0  0  0  0  0  0  0  0  0  0  0  0
  1  5  1  0
  5  6  1  0
  5  7  2  0
  1  2  1  0
  1  3  1  0
  1  4  1  0
  8 12  1  0
 12 13  2  0
 13 15  1  0
 15 17  2  0
 17 19  1  0
 19 21  2  0
 21 12  1  0
  8  9  1  0
  8 10  1  0
  8 11  1  0
 13 14  1  0
 15 16  1  0
 17 18  1  0
 19 20  1  0
 21 22  1  0
M  CHG  1   6  -1
M  END
>  <PDB_ID>  (693) 
pdb1lq1

>  <RESIDUE_NAME>  (693) 
GLU   PHE

>  <FRAG_NAME>  (693) 
ACET   MBZ

>  <FRAG_ATOM_NUM>  (693) 
fragi: 7  fragj: 15

>  <atom.prop.CHAIN_ID>  (693) 
A A A A A A A Z Z Z Z Z Z Z Z Z Z Z Z Z Z Z

>  <atom.prop.IS_HEAVY_ATOM>  (693) 
1 0 0 0 1 1 1 1 0 0 0 1 1 0 1 0 1 0 1 0 1 0

>  <DIFUSE_FUNC_ATOM>  (693) 
atom 6   atom 7   

>  <FINAL_SINGLE_POINT_ENERGY>  (693) 
0

>  <NONCOV_INTER_ENERGY_QM>  (693) 
0

>  <FF_Energy>  (693) 
6.6

>  <QM_Energy>  (693) 
-0.04

>  <source>  (693) 
ACET_MBZ_00

>  <Index>  (693) 
24372

$$$$
ACET-pdb2pr5-B-ASP-125:MBZ-pdb2pr5-B-PHE-102
     RDKit          3D

 22 21  0  0  0  0  0  0  0  0999 V2000
    3.6882    1.4474    3.0087 C   0  0  0  0  0  0  0  0  0  0  0  0
    3.2239    0.5720    2.9494 H   0  0  0  0  0  0  0  0  0  0  0  0
    4.0974    1.5664    3.9052 H   0  0  0  0  0  0  0  0  0  0  0  0
    4.4897    1.4529    2.2700 H   0  0  0  0  0  0  0  0  0  0  0  0
    2.6674    2.5571    2.7857 C   0  0  0  0  0  0  0  0  0  0  0  0
    2.9368    3.4898    2.0064 O   0  0  0  0  0  1  0  0  0  0  0  0
    1.5825    2.5163    3.4107 O   0  0  0  0  0  0  0  0  0  0  0  0
    0.0057    2.9185    0.0173 C   0  0  0  0  0  0  0  0  0  0  0  0
    0.9055    3.2137    0.3032 H   0  0  0  0  0  0  0  0  0  0  0  0
   -0.6886    3.2164    0.6566 H   0  0  0  0  0  0  0  0  0  0  0  0
   -0.2067    3.3861   -0.9441 H   0  0  0  0  0  0  0  0  0  0  0  0
   -0.0028    1.4110   -0.0089 C   0  0  0  0  0  0  0  0  0  0  0  0
   -1.1985    0.7105    0.0006 C   0  0  0  0  0  0  0  0  0  0  0  0
   -2.0661    1.1860    0.0069 H   0  0  0  0  0  0  0  0  0  0  0  0
   -1.1994   -0.7050    0.0000 C   0  0  0  0  0  0  0  0  0  0  0  0
   -2.0765   -1.1902    0.0021 H   0  0  0  0  0  0  0  0  0  0  0  0
    0.0076   -1.4053   -0.0021 C   0  0  0  0  0  0  0  0  0  0  0  0
    0.0015   -2.4002   -0.0058 H   0  0  0  0  0  0  0  0  0  0  0  0
    1.1994   -0.7029   -0.0000 C   0  0  0  0  0  0  0  0  0  0  0  0
    2.0871   -1.1953   -0.0045 H   0  0  0  0  0  0  0  0  0  0  0  0
    1.1937    0.6917    0.0104 C   0  0  0  0  0  0  0  0  0  0  0  0
    2.0635    1.1870    0.0316 H   0  0  0  0  0  0  0  0  0  0  0  0
  1  5  1  0
  5  6  1  0
  5  7  2  0
  1  2  1  0
  1  3  1  0
  1  4  1  0
  8 12  1  0
 12 13  2  0
 13 15  1  0
 15 17  2  0
 17 19  1  0
 19 21  2  0
 21 12  1  0
  8  9  1  0
  8 10  1  0
  8 11  1  0
 13 14  1  0
 15 16  1  0
 17 18  1  0
 19 20  1  0
 21 22  1  0
M  CHG  1   6  -1
M  END
>  <PDB_ID>  (694) 
pdb2pr5

>  <RESIDUE_NAME>  (694) 
ASP   PHE

>  <FRAG_NAME>  (694) 
ACET   MBZ

>  <FRAG_ATOM_NUM>  (694) 
fragi: 7  fragj: 15

>  <atom.prop.CHAIN_ID>  (694) 
A A A A A A A Z Z Z Z Z Z Z Z Z Z Z Z Z Z Z

>  <atom.prop.IS_HEAVY_ATOM>  (694) 
1 0 0 0 1 1 1 1 0 0 0 1 1 0 1 0 1 0 1 0 1 0

>  <DIFUSE_FUNC_ATOM>  (694) 
atom 6   atom 7   

>  <FINAL_SINGLE_POINT_ENERGY>  (694) 
0

>  <NONCOV_INTER_ENERGY_QM>  (694) 
0

>  <FF_Energy>  (694) 
-0.95

>  <QM_Energy>  (694) 
-6.33

>  <source>  (694) 
ACET_MBZ_00

>  <Index>  (694) 
24377

$$$$
ACET-pdb1lq8-C-ASP-117:MBZ-pdb1lq8-C-PHE-143
     RDKit          3D

 22 21  0  0  0  0  0  0  0  0999 V2000
    4.1972    1.4065   -1.5762 C   0  0  0  0  0  0  0  0  0  0  0  0
    3.5977    1.0508   -0.8691 H   0  0  0  0  0  0  0  0  0  0  0  0
    5.1422    1.3895   -1.2750 H   0  0  0  0  0  0  0  0  0  0  0  0
    4.1094    0.7590   -2.4487 H   0  0  0  0  0  0  0  0  0  0  0  0
    3.8049    2.8416   -1.8735 C   0  0  0  0  0  0  0  0  0  0  0  0
    2.6264    3.0866   -2.2217 O   0  0  0  0  0  1  0  0  0  0  0  0
    4.6764    3.7267   -1.7573 O   0  0  0  0  0  0  0  0  0  0  0  0
   -0.0094    2.9157   -0.0133 C   0  0  0  0  0  0  0  0  0  0  0  0
    0.9121    3.2234   -0.1810 H   0  0  0  0  0  0  0  0  0  0  0  0
   -0.3468    3.2245    0.8598 H   0  0  0  0  0  0  0  0  0  0  0  0
   -0.6498    3.3375   -0.7879 H   0  0  0  0  0  0  0  0  0  0  0  0
   -0.0005    1.4067   -0.0007 C   0  0  0  0  0  0  0  0  0  0  0  0
   -1.1980    0.6905    0.0010 C   0  0  0  0  0  0  0  0  0  0  0  0
   -2.0662    1.1792    0.0013 H   0  0  0  0  0  0  0  0  0  0  0  0
   -1.2036   -0.7053    0.0000 C   0  0  0  0  0  0  0  0  0  0  0  0
   -2.0776   -1.1971    0.0008 H   0  0  0  0  0  0  0  0  0  0  0  0
    0.0017   -1.3981    0.0002 C   0  0  0  0  0  0  0  0  0  0  0  0
    0.0036   -2.3949    0.0002 H   0  0  0  0  0  0  0  0  0  0  0  0
    1.2036   -0.6935   -0.0000 C   0  0  0  0  0  0  0  0  0  0  0  0
    2.0854   -1.1895    0.0017 H   0  0  0  0  0  0  0  0  0  0  0  0
    1.1968    0.6996   -0.0005 C   0  0  0  0  0  0  0  0  0  0  0  0
    2.0644    1.1958   -0.0019 H   0  0  0  0  0  0  0  0  0  0  0  0
  1  5  1  0
  5  6  1  0
  5  7  2  0
  1  2  1  0
  1  3  1  0
  1  4  1  0
  8 12  1  0
 12 13  2  0
 13 15  1  0
 15 17  2  0
 17 19  1  0
 19 21  2  0
 21 12  1  0
  8  9  1  0
  8 10  1  0
  8 11  1  0
 13 14  1  0
 15 16  1  0
 17 18  1  0
 19 20  1  0
 21 22  1  0
M  CHG  1   6  -1
M  END
>  <PDB_ID>  (695) 
pdb1lq8

>  <RESIDUE_NAME>  (695) 
ASP   PHE

>  <FRAG_NAME>  (695) 
ACET   MBZ

>  <FRAG_ATOM_NUM>  (695) 
fragi: 7  fragj: 15

>  <atom.prop.CHAIN_ID>  (695) 
A A A A A A A Z Z Z Z Z Z Z Z Z Z Z Z Z Z Z

>  <atom.prop.IS_HEAVY_ATOM>  (695) 
1 0 0 0 1 1 1 1 0 0 0 1 1 0 1 0 1 0 1 0 1 0

>  <DIFUSE_FUNC_ATOM>  (695) 
atom 6   atom 7   

>  <FINAL_SINGLE_POINT_ENERGY>  (695) 
0

>  <NONCOV_INTER_ENERGY_QM>  (695) 
0

>  <FF_Energy>  (695) 
3.33

>  <QM_Energy>  (695) 
-3.89

>  <source>  (695) 
ACET_MBZ_00

>  <Index>  (695) 
24383

$$$$
ACET-pdb1lq8-G-ASP-28:MBZ-pdb1lq8-G-PHE-31
     RDKit          3D

 22 21  0  0  0  0  0  0  0  0999 V2000
    4.3483    4.2951    0.6995 C   0  0  0  0  0  0  0  0  0  0  0  0
    4.7293    4.5885    1.5723 H   0  0  0  0  0  0  0  0  0  0  0  0
    3.4821    4.7584    0.5332 H   0  0  0  0  0  0  0  0  0  0  0  0
    5.0436    4.5950   -0.0847 H   0  0  0  0  0  0  0  0  0  0  0  0
    4.1149    2.8160    0.7375 C   0  0  0  0  0  0  0  0  0  0  0  0
    3.6423    2.2680   -0.2735 O   0  0  0  0  0  1  0  0  0  0  0  0
    4.4021    2.2032    1.7840 O   0  0  0  0  0  0  0  0  0  0  0  0
    0.0002    2.9015   -0.1740 C   0  0  0  0  0  0  0  0  0  0  0  0
    0.8687    3.2449    0.1350 H   0  0  0  0  0  0  0  0  0  0  0  0
   -0.7508    3.2693    0.3446 H   0  0  0  0  0  0  0  0  0  0  0  0
   -0.1300    3.1989   -1.2145 H   0  0  0  0  0  0  0  0  0  0  0  0
   -0.0004    1.4124   -0.0027 C   0  0  0  0  0  0  0  0  0  0  0  0
   -1.1941    0.7038    0.0031 C   0  0  0  0  0  0  0  0  0  0  0  0
   -2.0639    1.1863    0.0082 H   0  0  0  0  0  0  0  0  0  0  0  0
   -1.1987   -0.7010   -0.0000 C   0  0  0  0  0  0  0  0  0  0  0  0
   -2.0794   -1.1870    0.0012 H   0  0  0  0  0  0  0  0  0  0  0  0
   -0.0002   -1.4041   -0.0032 C   0  0  0  0  0  0  0  0  0  0  0  0
   -0.0072   -2.4004   -0.0081 H   0  0  0  0  0  0  0  0  0  0  0  0
    1.1987   -0.7081    0.0000 C   0  0  0  0  0  0  0  0  0  0  0  0
    2.0824   -1.1984    0.0018 H   0  0  0  0  0  0  0  0  0  0  0  0
    1.1947    0.6969    0.0028 C   0  0  0  0  0  0  0  0  0  0  0  0
    2.0658    1.1855    0.0083 H   0  0  0  0  0  0  0  0  0  0  0  0
  1  5  1  0
  5  6  1  0
  5  7  2  0
  1  2  1  0
  1  3  1  0
  1  4  1  0
  8 12  1  0
 12 13  2  0
 13 15  1  0
 15 17  2  0
 17 19  1  0
 19 21  2  0
 21 12  1  0
  8  9  1  0
  8 10  1  0
  8 11  1  0
 13 14  1  0
 15 16  1  0
 17 18  1  0
 19 20  1  0
 21 22  1  0
M  CHG  1   6  -1
M  END
>  <PDB_ID>  (696) 
pdb1lq8

>  <RESIDUE_NAME>  (696) 
ASP   PHE

>  <FRAG_NAME>  (696) 
ACET   MBZ

>  <FRAG_ATOM_NUM>  (696) 
fragi: 7  fragj: 15

>  <atom.prop.CHAIN_ID>  (696) 
A A A A A A A Z Z Z Z Z Z Z Z Z Z Z Z Z Z Z

>  <atom.prop.IS_HEAVY_ATOM>  (696) 
1 0 0 0 1 1 1 1 0 0 0 1 1 0 1 0 1 0 1 0 1 0

>  <DIFUSE_FUNC_ATOM>  (696) 
atom 6   atom 7   

>  <FINAL_SINGLE_POINT_ENERGY>  (696) 
0

>  <NONCOV_INTER_ENERGY_QM>  (696) 
0

>  <FF_Energy>  (696) 
9.91

>  <QM_Energy>  (696) 
-7.04

>  <source>  (696) 
ACET_MBZ_00

>  <Index>  (696) 
24386

$$$$
ACET-pdb2psm-B-ASP-28:MBZ-pdb2psm-B-PHE-31
     RDKit          3D

 22 21  0  0  0  0  0  0  0  0999 V2000
    4.4957    3.5179   -1.3000 C   0  0  0  0  0  0  0  0  0  0  0  0
    4.7810    4.2031   -1.9591 H   0  0  0  0  0  0  0  0  0  0  0  0
    4.2656    2.6667   -1.7552 H   0  0  0  0  0  0  0  0  0  0  0  0
    5.3297    3.3281   -0.6244 H   0  0  0  0  0  0  0  0  0  0  0  0
    3.2588    4.0302   -0.5729 C   0  0  0  0  0  0  0  0  0  0  0  0
    3.3583    4.3754    0.6279 O   0  0  0  0  0  1  0  0  0  0  0  0
    2.1862    4.0969   -1.2088 O   0  0  0  0  0  0  0  0  0  0  0  0
    0.0052    2.8995    0.0554 C   0  0  0  0  0  0  0  0  0  0  0  0
   -0.7403    3.2300   -0.5015 H   0  0  0  0  0  0  0  0  0  0  0  0
    0.8777    3.2162   -0.2832 H   0  0  0  0  0  0  0  0  0  0  0  0
   -0.1271    3.2943    1.0628 H   0  0  0  0  0  0  0  0  0  0  0  0
   -0.0001    1.4030    0.0002 C   0  0  0  0  0  0  0  0  0  0  0  0
   -1.1981    0.6961    0.0003 C   0  0  0  0  0  0  0  0  0  0  0  0
   -2.0643    1.1853   -0.0005 H   0  0  0  0  0  0  0  0  0  0  0  0
   -1.2040   -0.6991    0.0000 C   0  0  0  0  0  0  0  0  0  0  0  0
   -2.0790   -1.1914    0.0007 H   0  0  0  0  0  0  0  0  0  0  0  0
    0.0013   -1.3975    0.0006 C   0  0  0  0  0  0  0  0  0  0  0  0
   -0.0022   -2.3940    0.0011 H   0  0  0  0  0  0  0  0  0  0  0  0
    1.2040   -0.6978    0.0000 C   0  0  0  0  0  0  0  0  0  0  0  0
    2.0850   -1.1938    0.0022 H   0  0  0  0  0  0  0  0  0  0  0  0
    1.1969    0.6953   -0.0011 C   0  0  0  0  0  0  0  0  0  0  0  0
    2.0653    1.1915   -0.0034 H   0  0  0  0  0  0  0  0  0  0  0  0
  1  5  1  0
  5  6  1  0
  5  7  2  0
  1  2  1  0
  1  3  1  0
  1  4  1  0
  8 12  1  0
 12 13  2  0
 13 15  1  0
 15 17  2  0
 17 19  1  0
 19 21  2  0
 21 12  1  0
  8  9  1  0
  8 10  1  0
  8 11  1  0
 13 14  1  0
 15 16  1  0
 17 18  1  0
 19 20  1  0
 21 22  1  0
M  CHG  1   6  -1
M  END
>  <PDB_ID>  (697) 
pdb2psm

>  <RESIDUE_NAME>  (697) 
ASP   PHE

>  <FRAG_NAME>  (697) 
ACET   MBZ

>  <FRAG_ATOM_NUM>  (697) 
fragi: 7  fragj: 15

>  <atom.prop.CHAIN_ID>  (697) 
A A A A A A A Z Z Z Z Z Z Z Z Z Z Z Z Z Z Z

>  <atom.prop.IS_HEAVY_ATOM>  (697) 
1 0 0 0 1 1 1 1 0 0 0 1 1 0 1 0 1 0 1 0 1 0

>  <DIFUSE_FUNC_ATOM>  (697) 
atom 6   atom 7   

>  <FINAL_SINGLE_POINT_ENERGY>  (697) 
0

>  <NONCOV_INTER_ENERGY_QM>  (697) 
0

>  <FF_Energy>  (697) 
21.56

>  <QM_Energy>  (697) 
-4.25

>  <source>  (697) 
ACET_MBZ_00

>  <Index>  (697) 
24459

$$$$
ACET-pdb2psn-A-GLU-413:MBZ-pdb2psn-A-PHE-177
     RDKit          3D

 22 21  0  0  0  0  0  0  0  0999 V2000
    2.4593    5.7536   -2.3274 C   0  0  0  0  0  0  0  0  0  0  0  0
    3.2716    6.3016   -2.2711 H   0  0  0  0  0  0  0  0  0  0  0  0
    1.7350    6.2037   -2.8149 H   0  0  0  0  0  0  0  0  0  0  0  0
    2.7074    4.8353   -2.8596 H   0  0  0  0  0  0  0  0  0  0  0  0
    1.9775    5.4929   -0.9192 C   0  0  0  0  0  0  0  0  0  0  0  0
    2.7343    4.8776   -0.1375 O   0  0  0  0  0  1  0  0  0  0  0  0
    0.8347    5.9019   -0.5992 O   0  0  0  0  0  0  0  0  0  0  0  0
   -0.0031    2.8960    0.1099 C   0  0  0  0  0  0  0  0  0  0  0  0
   -0.7273    3.2457   -0.4614 H   0  0  0  0  0  0  0  0  0  0  0  0
    0.8810    3.2291   -0.1740 H   0  0  0  0  0  0  0  0  0  0  0  0
   -0.1811    3.2484    1.1259 H   0  0  0  0  0  0  0  0  0  0  0  0
    0.0012    1.4055    0.0021 C   0  0  0  0  0  0  0  0  0  0  0  0
   -1.1968    0.6938   -0.0025 C   0  0  0  0  0  0  0  0  0  0  0  0
   -2.0639    1.1845   -0.0086 H   0  0  0  0  0  0  0  0  0  0  0  0
   -1.2040   -0.6987    0.0000 C   0  0  0  0  0  0  0  0  0  0  0  0
   -2.0795   -1.1920    0.0004 H   0  0  0  0  0  0  0  0  0  0  0  0
    0.0008   -1.3999    0.0041 C   0  0  0  0  0  0  0  0  0  0  0  0
   -0.0062   -2.3967    0.0096 H   0  0  0  0  0  0  0  0  0  0  0  0
    1.2040   -0.7037   -0.0000 C   0  0  0  0  0  0  0  0  0  0  0  0
    2.0849   -1.1919    0.0013 H   0  0  0  0  0  0  0  0  0  0  0  0
    1.1948    0.7030   -0.0037 C   0  0  0  0  0  0  0  0  0  0  0  0
    2.0648    1.1925   -0.0116 H   0  0  0  0  0  0  0  0  0  0  0  0
  1  5  1  0
  5  6  1  0
  5  7  2  0
  1  2  1  0
  1  3  1  0
  1  4  1  0
  8 12  1  0
 12 13  2  0
 13 15  1  0
 15 17  2  0
 17 19  1  0
 19 21  2  0
 21 12  1  0
  8  9  1  0
  8 10  1  0
  8 11  1  0
 13 14  1  0
 15 16  1  0
 17 18  1  0
 19 20  1  0
 21 22  1  0
M  CHG  1   6  -1
M  END
>  <PDB_ID>  (698) 
pdb2psn

>  <RESIDUE_NAME>  (698) 
GLU   PHE

>  <FRAG_NAME>  (698) 
ACET   MBZ

>  <FRAG_ATOM_NUM>  (698) 
fragi: 7  fragj: 15

>  <atom.prop.CHAIN_ID>  (698) 
A A A A A A A Z Z Z Z Z Z Z Z Z Z Z Z Z Z Z

>  <atom.prop.IS_HEAVY_ATOM>  (698) 
1 0 0 0 1 1 1 1 0 0 0 1 1 0 1 0 1 0 1 0 1 0

>  <DIFUSE_FUNC_ATOM>  (698) 
atom 6   atom 7   

>  <FINAL_SINGLE_POINT_ENERGY>  (698) 
0

>  <NONCOV_INTER_ENERGY_QM>  (698) 
0

>  <FF_Energy>  (698) 
-1.05

>  <QM_Energy>  (698) 
-6.64

>  <source>  (698) 
ACET_MBZ_00

>  <Index>  (698) 
24464

$$$$
ACET-pdb2psn-B-GLU-413:MBZ-pdb2psn-B-PHE-177
     RDKit          3D

 22 21  0  0  0  0  0  0  0  0999 V2000
    2.4329    5.9997   -2.1218 C   0  0  0  0  0  0  0  0  0  0  0  0
    3.2658    6.5153   -2.0313 H   0  0  0  0  0  0  0  0  0  0  0  0
    1.7176    6.5212   -2.5507 H   0  0  0  0  0  0  0  0  0  0  0  0
    2.6389    5.1264   -2.7407 H   0  0  0  0  0  0  0  0  0  0  0  0
    1.9643    5.6347   -0.7316 C   0  0  0  0  0  0  0  0  0  0  0  0
    2.7894    5.1625    0.0718 O   0  0  0  0  0  1  0  0  0  0  0  0
    0.7589    5.8146   -0.4433 O   0  0  0  0  0  0  0  0  0  0  0  0
   -0.0056    2.8990    0.1552 C   0  0  0  0  0  0  0  0  0  0  0  0
   -0.7305    3.2624   -0.4014 H   0  0  0  0  0  0  0  0  0  0  0  0
    0.8772    3.2371   -0.1169 H   0  0  0  0  0  0  0  0  0  0  0  0
   -0.1818    3.2187    1.1822 H   0  0  0  0  0  0  0  0  0  0  0  0
   -0.0020    1.4018    0.0024 C   0  0  0  0  0  0  0  0  0  0  0  0
   -1.2011    0.6943   -0.0019 C   0  0  0  0  0  0  0  0  0  0  0  0
   -2.0659    1.1877   -0.0075 H   0  0  0  0  0  0  0  0  0  0  0  0
   -1.2070   -0.6926    0.0000 C   0  0  0  0  0  0  0  0  0  0  0  0
   -2.0793   -1.1909   -0.0010 H   0  0  0  0  0  0  0  0  0  0  0  0
    0.0032   -1.3937    0.0047 C   0  0  0  0  0  0  0  0  0  0  0  0
   -0.0064   -2.3921    0.0114 H   0  0  0  0  0  0  0  0  0  0  0  0
    1.2070   -0.7005   -0.0000 C   0  0  0  0  0  0  0  0  0  0  0  0
    2.0861   -1.1976    0.0015 H   0  0  0  0  0  0  0  0  0  0  0  0
    1.1999    0.6907   -0.0052 C   0  0  0  0  0  0  0  0  0  0  0  0
    2.0658    1.1903   -0.0159 H   0  0  0  0  0  0  0  0  0  0  0  0
  1  5  1  0
  5  6  1  0
  5  7  2  0
  1  2  1  0
  1  3  1  0
  1  4  1  0
  8 12  1  0
 12 13  2  0
 13 15  1  0
 15 17  2  0
 17 19  1  0
 19 21  2  0
 21 12  1  0
  8  9  1  0
  8 10  1  0
  8 11  1  0
 13 14  1  0
 15 16  1  0
 17 18  1  0
 19 20  1  0
 21 22  1  0
M  CHG  1   6  -1
M  END
>  <PDB_ID>  (699) 
pdb2psn

>  <RESIDUE_NAME>  (699) 
GLU   PHE

>  <FRAG_NAME>  (699) 
ACET   MBZ

>  <FRAG_ATOM_NUM>  (699) 
fragi: 7  fragj: 15

>  <atom.prop.CHAIN_ID>  (699) 
A A A A A A A Z Z Z Z Z Z Z Z Z Z Z Z Z Z Z

>  <atom.prop.IS_HEAVY_ATOM>  (699) 
1 0 0 0 1 1 1 1 0 0 0 1 1 0 1 0 1 0 1 0 1 0

>  <DIFUSE_FUNC_ATOM>  (699) 
atom 6   atom 7   

>  <FINAL_SINGLE_POINT_ENERGY>  (699) 
0

>  <NONCOV_INTER_ENERGY_QM>  (699) 
0

>  <FF_Energy>  (699) 
-1.03

>  <QM_Energy>  (699) 
-6.17

>  <source>  (699) 
ACET_MBZ_00

>  <Index>  (699) 
24468

$$$$
ACET-pdb2psn-D-GLU-413:MBZ-pdb2psn-D-PHE-177
     RDKit          3D

 22 21  0  0  0  0  0  0  0  0999 V2000
    1.8989    6.1846   -2.2966 C   0  0  0  0  0  0  0  0  0  0  0  0
    2.6798    6.7744   -2.2335 H   0  0  0  0  0  0  0  0  0  0  0  0
    1.1345    6.6171   -2.7345 H   0  0  0  0  0  0  0  0  0  0  0  0
    2.1817    5.3151   -2.8899 H   0  0  0  0  0  0  0  0  0  0  0  0
    1.4739    5.8254   -0.8751 C   0  0  0  0  0  0  0  0  0  0  0  0
    2.3300    5.3611   -0.0968 O   0  0  0  0  0  1  0  0  0  0  0  0
    0.2762    5.9955   -0.5389 O   0  0  0  0  0  0  0  0  0  0  0  0
   -0.0028    2.9055    0.1613 C   0  0  0  0  0  0  0  0  0  0  0  0
   -0.7496    3.2672   -0.3668 H   0  0  0  0  0  0  0  0  0  0  0  0
    0.8683    3.2463   -0.1420 H   0  0  0  0  0  0  0  0  0  0  0  0
   -0.1427    3.2174    1.1963 H   0  0  0  0  0  0  0  0  0  0  0  0
    0.0002    1.4076    0.0023 C   0  0  0  0  0  0  0  0  0  0  0  0
   -1.1969    0.6974   -0.0042 C   0  0  0  0  0  0  0  0  0  0  0  0
   -2.0644    1.1851   -0.0130 H   0  0  0  0  0  0  0  0  0  0  0  0
   -1.2029   -0.6996    0.0000 C   0  0  0  0  0  0  0  0  0  0  0  0
   -2.0800   -1.1901    0.0000 H   0  0  0  0  0  0  0  0  0  0  0  0
   -0.0014   -1.3984    0.0059 C   0  0  0  0  0  0  0  0  0  0  0  0
   -0.0058   -2.3966    0.0134 H   0  0  0  0  0  0  0  0  0  0  0  0
    1.2029   -0.7018   -0.0000 C   0  0  0  0  0  0  0  0  0  0  0  0
    2.0831   -1.1974    0.0000 H   0  0  0  0  0  0  0  0  0  0  0  0
    1.1982    0.6949   -0.0039 C   0  0  0  0  0  0  0  0  0  0  0  0
    2.0674    1.1889   -0.0125 H   0  0  0  0  0  0  0  0  0  0  0  0
  1  5  1  0
  5  6  1  0
  5  7  2  0
  1  2  1  0
  1  3  1  0
  1  4  1  0
  8 12  1  0
 12 13  2  0
 13 15  1  0
 15 17  2  0
 17 19  1  0
 19 21  2  0
 21 12  1  0
  8  9  1  0
  8 10  1  0
  8 11  1  0
 13 14  1  0
 15 16  1  0
 17 18  1  0
 19 20  1  0
 21 22  1  0
M  CHG  1   6  -1
M  END
>  <PDB_ID>  (700) 
pdb2psn

>  <RESIDUE_NAME>  (700) 
GLU   PHE

>  <FRAG_NAME>  (700) 
ACET   MBZ

>  <FRAG_ATOM_NUM>  (700) 
fragi: 7  fragj: 15

>  <atom.prop.CHAIN_ID>  (700) 
A A A A A A A Z Z Z Z Z Z Z Z Z Z Z Z Z Z Z

>  <atom.prop.IS_HEAVY_ATOM>  (700) 
1 0 0 0 1 1 1 1 0 0 0 1 1 0 1 0 1 0 1 0 1 0

>  <DIFUSE_FUNC_ATOM>  (700) 
atom 6   atom 7   

>  <FINAL_SINGLE_POINT_ENERGY>  (700) 
0

>  <NONCOV_INTER_ENERGY_QM>  (700) 
0

>  <FF_Energy>  (700) 
-1.2

>  <QM_Energy>  (700) 
-6.39

>  <source>  (700) 
ACET_MBZ_00

>  <Index>  (700) 
24476

$$$$
ACET-pdb1loa-F-GLU-31:MBZ-pdb1loa-E-PHE-123
     RDKit          3D

 22 21  0  0  0  0  0  0  0  0999 V2000
    4.7404   -1.0196    2.1800 C   0  0  0  0  0  0  0  0  0  0  0  0
    5.6037   -1.4798    2.3439 H   0  0  0  0  0  0  0  0  0  0  0  0
    3.9789   -1.6076    2.4220 H   0  0  0  0  0  0  0  0  0  0  0  0
    4.7019   -0.1327    2.8124 H   0  0  0  0  0  0  0  0  0  0  0  0
    4.6478   -0.7635    0.6695 C   0  0  0  0  0  0  0  0  0  0  0  0
    4.1201    0.2715    0.2196 O   0  0  0  0  0  1  0  0  0  0  0  0
    5.1275   -1.6266   -0.0714 O   0  0  0  0  0  0  0  0  0  0  0  0
   -0.0207    2.9604   -0.0648 C   0  0  0  0  0  0  0  0  0  0  0  0
    0.8442    3.2779    0.2968 H   0  0  0  0  0  0  0  0  0  0  0  0
   -0.7764    3.2714    0.4942 H   0  0  0  0  0  0  0  0  0  0  0  0
   -0.1430    3.3945   -1.0570 H   0  0  0  0  0  0  0  0  0  0  0  0
   -0.0067    1.4162   -0.0008 C   0  0  0  0  0  0  0  0  0  0  0  0
   -1.1828    0.6712    0.0018 C   0  0  0  0  0  0  0  0  0  0  0  0
   -2.0654    1.1477    0.0032 H   0  0  0  0  0  0  0  0  0  0  0  0
   -1.1720   -0.7191   -0.0000 C   0  0  0  0  0  0  0  0  0  0  0  0
   -2.0592   -1.2130    0.0048 H   0  0  0  0  0  0  0  0  0  0  0  0
    0.0096   -1.4079   -0.0064 C   0  0  0  0  0  0  0  0  0  0  0  0
    0.0258   -2.3962   -0.0159 H   0  0  0  0  0  0  0  0  0  0  0  0
    1.1720   -0.6748    0.0000 C   0  0  0  0  0  0  0  0  0  0  0  0
    2.0813   -1.1652    0.0025 H   0  0  0  0  0  0  0  0  0  0  0  0
    1.1799    0.7143    0.0054 C   0  0  0  0  0  0  0  0  0  0  0  0
    2.0513    1.2021    0.0135 H   0  0  0  0  0  0  0  0  0  0  0  0
  1  5  1  0
  5  6  1  0
  5  7  2  0
  1  2  1  0
  1  3  1  0
  1  4  1  0
  8 12  1  0
 12 13  2  0
 13 15  1  0
 15 17  2  0
 17 19  1  0
 19 21  2  0
 21 12  1  0
  8  9  1  0
  8 10  1  0
  8 11  1  0
 13 14  1  0
 15 16  1  0
 17 18  1  0
 19 20  1  0
 21 22  1  0
M  CHG  1   6  -1
M  END
>  <PDB_ID>  (701) 
pdb1loa

>  <RESIDUE_NAME>  (701) 
GLU   PHE

>  <FRAG_NAME>  (701) 
ACET   MBZ

>  <FRAG_ATOM_NUM>  (701) 
fragi: 7  fragj: 15

>  <atom.prop.CHAIN_ID>  (701) 
A A A A A A A Z Z Z Z Z Z Z Z Z Z Z Z Z Z Z

>  <atom.prop.IS_HEAVY_ATOM>  (701) 
1 0 0 0 1 1 1 1 0 0 0 1 1 0 1 0 1 0 1 0 1 0

>  <DIFUSE_FUNC_ATOM>  (701) 
atom 6   atom 7   

>  <FINAL_SINGLE_POINT_ENERGY>  (701) 
0

>  <NONCOV_INTER_ENERGY_QM>  (701) 
0

>  <FF_Energy>  (701) 
-1.06

>  <QM_Energy>  (701) 
-6.74

>  <source>  (701) 
ACET_MBZ_00

>  <Index>  (701) 
24562

$$$$
ACET-pdb1luf-A-GLU-625:MBZ-pdb1luf-A-PHE-585
     RDKit          3D

 22 21  0  0  0  0  0  0  0  0999 V2000
    1.5976   -4.8067    2.0028 C   0  0  0  0  0  0  0  0  0  0  0  0
    1.5827   -5.7684    1.8078 H   0  0  0  0  0  0  0  0  0  0  0  0
    0.6967   -4.4240    2.0730 H   0  0  0  0  0  0  0  0  0  0  0  0
    2.1094   -4.6585    2.9538 H   0  0  0  0  0  0  0  0  0  0  0  0
    2.3005   -4.1155    0.8468 C   0  0  0  0  0  0  0  0  0  0  0  0
    2.6710   -2.9285    0.9872 O   0  0  0  0  0  1  0  0  0  0  0  0
    2.4787   -4.7651   -0.2074 O   0  0  0  0  0  0  0  0  0  0  0  0
    0.0073    2.9184    0.0639 C   0  0  0  0  0  0  0  0  0  0  0  0
    0.9385    3.2245   -0.0692 H   0  0  0  0  0  0  0  0  0  0  0  0
   -0.3342    3.1872    0.9530 H   0  0  0  0  0  0  0  0  0  0  0  0
   -0.6133    3.4009   -0.6911 H   0  0  0  0  0  0  0  0  0  0  0  0
    0.0013    1.4103    0.0009 C   0  0  0  0  0  0  0  0  0  0  0  0
   -1.2003    0.6971   -0.0008 C   0  0  0  0  0  0  0  0  0  0  0  0
   -2.0664    1.1851   -0.0043 H   0  0  0  0  0  0  0  0  0  0  0  0
   -1.2081   -0.7044    0.0000 C   0  0  0  0  0  0  0  0  0  0  0  0
   -2.0834   -1.1920    0.0006 H   0  0  0  0  0  0  0  0  0  0  0  0
   -0.0038   -1.4013    0.0013 C   0  0  0  0  0  0  0  0  0  0  0  0
   -0.0035   -2.3982    0.0031 H   0  0  0  0  0  0  0  0  0  0  0  0
    1.2081   -0.6998    0.0000 C   0  0  0  0  0  0  0  0  0  0  0  0
    2.0848   -1.1975    0.0014 H   0  0  0  0  0  0  0  0  0  0  0  0
    1.2028    0.6981   -0.0015 C   0  0  0  0  0  0  0  0  0  0  0  0
    2.0695    1.1933   -0.0046 H   0  0  0  0  0  0  0  0  0  0  0  0
  1  5  1  0
  5  6  1  0
  5  7  2  0
  1  2  1  0
  1  3  1  0
  1  4  1  0
  8 12  1  0
 12 13  2  0
 13 15  1  0
 15 17  2  0
 17 19  1  0
 19 21  2  0
 21 12  1  0
  8  9  1  0
  8 10  1  0
  8 11  1  0
 13 14  1  0
 15 16  1  0
 17 18  1  0
 19 20  1  0
 21 22  1  0
M  CHG  1   6  -1
M  END
>  <PDB_ID>  (702) 
pdb1luf

>  <RESIDUE_NAME>  (702) 
GLU   PHE

>  <FRAG_NAME>  (702) 
ACET   MBZ

>  <FRAG_ATOM_NUM>  (702) 
fragi: 7  fragj: 15

>  <atom.prop.CHAIN_ID>  (702) 
A A A A A A A Z Z Z Z Z Z Z Z Z Z Z Z Z Z Z

>  <atom.prop.IS_HEAVY_ATOM>  (702) 
1 0 0 0 1 1 1 1 0 0 0 1 1 0 1 0 1 0 1 0 1 0

>  <DIFUSE_FUNC_ATOM>  (702) 
atom 6   atom 7   

>  <FINAL_SINGLE_POINT_ENERGY>  (702) 
0

>  <NONCOV_INTER_ENERGY_QM>  (702) 
0

>  <FF_Energy>  (702) 
2.7

>  <QM_Energy>  (702) 
-5.44

>  <source>  (702) 
ACET_MBZ_00

>  <Index>  (702) 
24582

$$$$
ACET-pdb2pvz-A-ASP-62:MBZ-pdb2pvz-B-PHE-172
     RDKit          3D

 22 21  0  0  0  0  0  0  0  0999 V2000
    4.9592    1.8242   -0.9458 C   0  0  0  0  0  0  0  0  0  0  0  0
    5.0243    2.1343   -1.8881 H   0  0  0  0  0  0  0  0  0  0  0  0
    4.3282    1.0594   -0.8750 H   0  0  0  0  0  0  0  0  0  0  0  0
    5.9453    1.4743   -0.6404 H   0  0  0  0  0  0  0  0  0  0  0  0
    4.4484    2.9625   -0.0891 C   0  0  0  0  0  0  0  0  0  0  0  0
    5.2137    3.4845    0.7495 O   0  0  0  0  0  1  0  0  0  0  0  0
    3.2742    3.3489   -0.2768 O   0  0  0  0  0  0  0  0  0  0  0  0
   -0.0031    2.9094   -0.0098 C   0  0  0  0  0  0  0  0  0  0  0  0
    0.8936    3.2165    0.2669 H   0  0  0  0  0  0  0  0  0  0  0  0
   -0.7014    3.2181    0.6179 H   0  0  0  0  0  0  0  0  0  0  0  0
   -0.2177    3.3449   -0.9857 H   0  0  0  0  0  0  0  0  0  0  0  0
   -0.0027    1.4042   -0.0034 C   0  0  0  0  0  0  0  0  0  0  0  0
   -1.2000    0.6935    0.0047 C   0  0  0  0  0  0  0  0  0  0  0  0
   -2.0668    1.1813    0.0122 H   0  0  0  0  0  0  0  0  0  0  0  0
   -1.2012   -0.7001   -0.0000 C   0  0  0  0  0  0  0  0  0  0  0  0
   -2.0741   -1.1967   -0.0032 H   0  0  0  0  0  0  0  0  0  0  0  0
    0.0082   -1.3952    0.0023 C   0  0  0  0  0  0  0  0  0  0  0  0
    0.0006   -2.3951    0.0046 H   0  0  0  0  0  0  0  0  0  0  0  0
    1.2012   -0.7007    0.0000 C   0  0  0  0  0  0  0  0  0  0  0  0
    2.0868   -1.1902    0.0026 H   0  0  0  0  0  0  0  0  0  0  0  0
    1.1945    0.6984   -0.0035 C   0  0  0  0  0  0  0  0  0  0  0  0
    2.0631    1.1923   -0.0069 H   0  0  0  0  0  0  0  0  0  0  0  0
  1  5  1  0
  5  6  1  0
  5  7  2  0
  1  2  1  0
  1  3  1  0
  1  4  1  0
  8 12  1  0
 12 13  2  0
 13 15  1  0
 15 17  2  0
 17 19  1  0
 19 21  2  0
 21 12  1  0
  8  9  1  0
  8 10  1  0
  8 11  1  0
 13 14  1  0
 15 16  1  0
 17 18  1  0
 19 20  1  0
 21 22  1  0
M  CHG  1   6  -1
M  END
>  <PDB_ID>  (703) 
pdb2pvz

>  <RESIDUE_NAME>  (703) 
ASP   PHE

>  <FRAG_NAME>  (703) 
ACET   MBZ

>  <FRAG_ATOM_NUM>  (703) 
fragi: 7  fragj: 15

>  <atom.prop.CHAIN_ID>  (703) 
A A A A A A A Z Z Z Z Z Z Z Z Z Z Z Z Z Z Z

>  <atom.prop.IS_HEAVY_ATOM>  (703) 
1 0 0 0 1 1 1 1 0 0 0 1 1 0 1 0 1 0 1 0 1 0

>  <DIFUSE_FUNC_ATOM>  (703) 
atom 6   atom 7   

>  <FINAL_SINGLE_POINT_ENERGY>  (703) 
0

>  <NONCOV_INTER_ENERGY_QM>  (703) 
0

>  <FF_Energy>  (703) 
-2.07

>  <QM_Energy>  (703) 
-7.9

>  <source>  (703) 
ACET_MBZ_00

>  <Index>  (703) 
24635

$$$$
ACET-pdb1lwj-A-ASP-314:MBZ-pdb1lwj-A-PHE-311
     RDKit          3D

 22 21  0  0  0  0  0  0  0  0999 V2000
    3.1019    4.9352    2.8503 C   0  0  0  0  0  0  0  0  0  0  0  0
    2.1148    5.0195    2.7983 H   0  0  0  0  0  0  0  0  0  0  0  0
    3.5379    5.8154    2.7158 H   0  0  0  0  0  0  0  0  0  0  0  0
    3.3566    4.5838    3.8502 H   0  0  0  0  0  0  0  0  0  0  0  0
    3.5693    3.9842    1.7535 C   0  0  0  0  0  0  0  0  0  0  0  0
    4.4716    3.1529    2.0019 O   0  0  0  0  0  1  0  0  0  0  0  0
    3.0460    4.0852    0.6290 O   0  0  0  0  0  0  0  0  0  0  0  0
    0.0297    2.9254   -0.0697 C   0  0  0  0  0  0  0  0  0  0  0  0
   -0.1924    3.1902   -1.0002 H   0  0  0  0  0  0  0  0  0  0  0  0
    0.9452    3.2226    0.1711 H   0  0  0  0  0  0  0  0  0  0  0  0
   -0.6684    3.4350    0.5945 H   0  0  0  0  0  0  0  0  0  0  0  0
    0.0015    1.4106   -0.0006 C   0  0  0  0  0  0  0  0  0  0  0  0
   -1.1971    0.7035    0.0003 C   0  0  0  0  0  0  0  0  0  0  0  0
   -2.0630    1.1894   -0.0000 H   0  0  0  0  0  0  0  0  0  0  0  0
   -1.2017   -0.6976    0.0000 C   0  0  0  0  0  0  0  0  0  0  0  0
   -2.0831   -1.1846    0.0016 H   0  0  0  0  0  0  0  0  0  0  0  0
   -0.0052   -1.3997   -0.0009 C   0  0  0  0  0  0  0  0  0  0  0  0
   -0.0111   -2.3970   -0.0024 H   0  0  0  0  0  0  0  0  0  0  0  0
    1.2017   -0.7064   -0.0000 C   0  0  0  0  0  0  0  0  0  0  0  0
    2.0801   -1.2057    0.0011 H   0  0  0  0  0  0  0  0  0  0  0  0
    1.2008    0.6895    0.0012 C   0  0  0  0  0  0  0  0  0  0  0  0
    2.0697    1.1828    0.0027 H   0  0  0  0  0  0  0  0  0  0  0  0
  1  5  1  0
  5  6  1  0
  5  7  2  0
  1  2  1  0
  1  3  1  0
  1  4  1  0
  8 12  1  0
 12 13  2  0
 13 15  1  0
 15 17  2  0
 17 19  1  0
 19 21  2  0
 21 12  1  0
  8  9  1  0
  8 10  1  0
  8 11  1  0
 13 14  1  0
 15 16  1  0
 17 18  1  0
 19 20  1  0
 21 22  1  0
M  CHG  1   6  -1
M  END
>  <PDB_ID>  (704) 
pdb1lwj

>  <RESIDUE_NAME>  (704) 
ASP   PHE

>  <FRAG_NAME>  (704) 
ACET   MBZ

>  <FRAG_ATOM_NUM>  (704) 
fragi: 7  fragj: 15

>  <atom.prop.CHAIN_ID>  (704) 
A A A A A A A Z Z Z Z Z Z Z Z Z Z Z Z Z Z Z

>  <atom.prop.IS_HEAVY_ATOM>  (704) 
1 0 0 0 1 1 1 1 0 0 0 1 1 0 1 0 1 0 1 0 1 0

>  <DIFUSE_FUNC_ATOM>  (704) 
atom 6   atom 7   

>  <FINAL_SINGLE_POINT_ENERGY>  (704) 
0

>  <NONCOV_INTER_ENERGY_QM>  (704) 
0

>  <FF_Energy>  (704) 
-1.65

>  <QM_Energy>  (704) 
-7.12

>  <source>  (704) 
ACET_MBZ_00

>  <Index>  (704) 
24676

$$$$
ACET-pdb2pwy-A-GLU-135:MBZ-pdb2pwy-A-PHE-149
     RDKit          3D

 22 21  0  0  0  0  0  0  0  0999 V2000
    0.2113    0.3904    3.6104 C   0  0  0  0  0  0  0  0  0  0  0  0
    0.3579    0.1552    2.6648 H   0  0  0  0  0  0  0  0  0  0  0  0
   -0.7447    0.5205    3.8124 H   0  0  0  0  0  0  0  0  0  0  0  0
    0.5731   -0.4375    4.2200 H   0  0  0  0  0  0  0  0  0  0  0  0
    0.9229    1.7066    3.8755 C   0  0  0  0  0  0  0  0  0  0  0  0
    1.7094    1.7765    4.8377 O   0  0  0  0  0  1  0  0  0  0  0  0
    0.6851    2.6804    3.1226 O   0  0  0  0  0  0  0  0  0  0  0  0
   -0.0063    2.9237    0.0284 C   0  0  0  0  0  0  0  0  0  0  0  0
    0.8766    3.2224    0.3648 H   0  0  0  0  0  0  0  0  0  0  0  0
   -0.7338    3.2111    0.6372 H   0  0  0  0  0  0  0  0  0  0  0  0
   -0.1731    3.4042   -0.9356 H   0  0  0  0  0  0  0  0  0  0  0  0
   -0.0025    1.4160   -0.0116 C   0  0  0  0  0  0  0  0  0  0  0  0
   -1.2027    0.7011    0.0045 C   0  0  0  0  0  0  0  0  0  0  0  0
   -2.0705    1.1826    0.0178 H   0  0  0  0  0  0  0  0  0  0  0  0
   -1.2086   -0.7116    0.0000 C   0  0  0  0  0  0  0  0  0  0  0  0
   -2.0815   -1.1978   -0.0022 H   0  0  0  0  0  0  0  0  0  0  0  0
    0.0030   -1.4098    0.0001 C   0  0  0  0  0  0  0  0  0  0  0  0
    0.0040   -2.4036    0.0000 H   0  0  0  0  0  0  0  0  0  0  0  0
    1.2086   -0.7010   -0.0000 C   0  0  0  0  0  0  0  0  0  0  0  0
    2.0907   -1.1925   -0.0033 H   0  0  0  0  0  0  0  0  0  0  0  0
    1.2022    0.7052    0.0070 C   0  0  0  0  0  0  0  0  0  0  0  0
    2.0672    1.1978    0.0244 H   0  0  0  0  0  0  0  0  0  0  0  0
  1  5  1  0
  5  6  1  0
  5  7  2  0
  1  2  1  0
  1  3  1  0
  1  4  1  0
  8 12  1  0
 12 13  2  0
 13 15  1  0
 15 17  2  0
 17 19  1  0
 19 21  2  0
 21 12  1  0
  8  9  1  0
  8 10  1  0
  8 11  1  0
 13 14  1  0
 15 16  1  0
 17 18  1  0
 19 20  1  0
 21 22  1  0
M  CHG  1   6  -1
M  END
>  <PDB_ID>  (705) 
pdb2pwy

>  <RESIDUE_NAME>  (705) 
GLU   PHE

>  <FRAG_NAME>  (705) 
ACET   MBZ

>  <FRAG_ATOM_NUM>  (705) 
fragi: 7  fragj: 15

>  <atom.prop.CHAIN_ID>  (705) 
A A A A A A A Z Z Z Z Z Z Z Z Z Z Z Z Z Z Z

>  <atom.prop.IS_HEAVY_ATOM>  (705) 
1 0 0 0 1 1 1 1 0 0 0 1 1 0 1 0 1 0 1 0 1 0

>  <DIFUSE_FUNC_ATOM>  (705) 
atom 6   atom 7   

>  <FINAL_SINGLE_POINT_ENERGY>  (705) 
0

>  <NONCOV_INTER_ENERGY_QM>  (705) 
0

>  <FF_Energy>  (705) 
0.37

>  <QM_Energy>  (705) 
-4.64

>  <source>  (705) 
ACET_MBZ_00

>  <Index>  (705) 
24687

$$$$
ACET-pdb2pz8-A-ASP-221:MBZ-pdb2pz8-A-PHE-168
     RDKit          3D

 22 21  0  0  0  0  0  0  0  0999 V2000
    2.1681   -2.3905   -3.4071 C   0  0  0  0  0  0  0  0  0  0  0  0
    2.7922   -2.5882   -4.1590 H   0  0  0  0  0  0  0  0  0  0  0  0
    1.7021   -1.5251   -3.5698 H   0  0  0  0  0  0  0  0  0  0  0  0
    1.4137   -3.1769   -3.3833 H   0  0  0  0  0  0  0  0  0  0  0  0
    2.9638   -2.2853   -2.1270 C   0  0  0  0  0  0  0  0  0  0  0  0
    2.8665   -3.1814   -1.2639 O   0  0  0  0  0  1  0  0  0  0  0  0
    3.7051   -1.2890   -1.9950 O   0  0  0  0  0  0  0  0  0  0  0  0
   -0.0009    2.9025    0.0107 C   0  0  0  0  0  0  0  0  0  0  0  0
   -0.5569    3.2165   -0.7442 H   0  0  0  0  0  0  0  0  0  0  0  0
    0.9346    3.2122   -0.0798 H   0  0  0  0  0  0  0  0  0  0  0  0
   -0.4068    3.3368    0.9244 H   0  0  0  0  0  0  0  0  0  0  0  0
   -0.0005    1.4046    0.0001 C   0  0  0  0  0  0  0  0  0  0  0  0
   -1.1976    0.6990    0.0010 C   0  0  0  0  0  0  0  0  0  0  0  0
   -2.0641    1.1847    0.0014 H   0  0  0  0  0  0  0  0  0  0  0  0
   -1.2035   -0.7017    0.0000 C   0  0  0  0  0  0  0  0  0  0  0  0
   -2.0799   -1.1909    0.0012 H   0  0  0  0  0  0  0  0  0  0  0  0
    0.0002   -1.3995   -0.0005 C   0  0  0  0  0  0  0  0  0  0  0  0
   -0.0021   -2.3963   -0.0021 H   0  0  0  0  0  0  0  0  0  0  0  0
    1.2035   -0.6989    0.0000 C   0  0  0  0  0  0  0  0  0  0  0  0
    2.0845   -1.1948    0.0022 H   0  0  0  0  0  0  0  0  0  0  0  0
    1.1979    0.6965   -0.0006 C   0  0  0  0  0  0  0  0  0  0  0  0
    2.0656    1.1923   -0.0023 H   0  0  0  0  0  0  0  0  0  0  0  0
  1  5  1  0
  5  6  1  0
  5  7  2  0
  1  2  1  0
  1  3  1  0
  1  4  1  0
  8 12  1  0
 12 13  2  0
 13 15  1  0
 15 17  2  0
 17 19  1  0
 19 21  2  0
 21 12  1  0
  8  9  1  0
  8 10  1  0
  8 11  1  0
 13 14  1  0
 15 16  1  0
 17 18  1  0
 19 20  1  0
 21 22  1  0
M  CHG  1   6  -1
M  END
>  <PDB_ID>  (706) 
pdb2pz8

>  <RESIDUE_NAME>  (706) 
ASP   PHE

>  <FRAG_NAME>  (706) 
ACET   MBZ

>  <FRAG_ATOM_NUM>  (706) 
fragi: 7  fragj: 15

>  <atom.prop.CHAIN_ID>  (706) 
A A A A A A A Z Z Z Z Z Z Z Z Z Z Z Z Z Z Z

>  <atom.prop.IS_HEAVY_ATOM>  (706) 
1 0 0 0 1 1 1 1 0 0 0 1 1 0 1 0 1 0 1 0 1 0

>  <DIFUSE_FUNC_ATOM>  (706) 
atom 6   atom 7   

>  <FINAL_SINGLE_POINT_ENERGY>  (706) 
0

>  <NONCOV_INTER_ENERGY_QM>  (706) 
0

>  <FF_Energy>  (706) 
-1.41

>  <QM_Energy>  (706) 
-6.66

>  <source>  (706) 
ACET_MBZ_00

>  <Index>  (706) 
24768

$$$$
ACET-pdb1m0t-A-ASP-298:MBZ-pdb1m0t-A-PHE-254
     RDKit          3D

 22 21  0  0  0  0  0  0  0  0999 V2000
    2.2953    2.1669    3.2778 C   0  0  0  0  0  0  0  0  0  0  0  0
    3.0278    2.1198    3.9470 H   0  0  0  0  0  0  0  0  0  0  0  0
    2.1934    1.2967    2.8104 H   0  0  0  0  0  0  0  0  0  0  0  0
    1.3658    2.3818    3.8050 H   0  0  0  0  0  0  0  0  0  0  0  0
    2.6424    3.2319    2.2515 C   0  0  0  0  0  0  0  0  0  0  0  0
    1.9714    4.2873    2.2247 O   0  0  0  0  0  1  0  0  0  0  0  0
    3.5848    3.0038    1.4704 O   0  0  0  0  0  0  0  0  0  0  0  0
   -0.0010    2.9390    0.0294 C   0  0  0  0  0  0  0  0  0  0  0  0
    0.8843    3.2449   -0.2727 H   0  0  0  0  0  0  0  0  0  0  0  0
   -0.1956    3.2212    0.9518 H   0  0  0  0  0  0  0  0  0  0  0  0
   -0.7523    3.3830   -0.6236 H   0  0  0  0  0  0  0  0  0  0  0  0
    0.0032    1.4136    0.0034 C   0  0  0  0  0  0  0  0  0  0  0  0
   -1.1993    0.7017   -0.0049 C   0  0  0  0  0  0  0  0  0  0  0  0
   -2.0650    1.1860   -0.0160 H   0  0  0  0  0  0  0  0  0  0  0  0
   -1.2070   -0.7083   -0.0000 C   0  0  0  0  0  0  0  0  0  0  0  0
   -2.0849   -1.1928    0.0063 H   0  0  0  0  0  0  0  0  0  0  0  0
   -0.0027   -1.4123   -0.0023 C   0  0  0  0  0  0  0  0  0  0  0  0
   -0.0008   -2.4027   -0.0065 H   0  0  0  0  0  0  0  0  0  0  0  0
    1.2070   -0.6994   -0.0000 C   0  0  0  0  0  0  0  0  0  0  0  0
    2.0872   -1.1921    0.0009 H   0  0  0  0  0  0  0  0  0  0  0  0
    1.1988    0.7047    0.0038 C   0  0  0  0  0  0  0  0  0  0  0  0
    2.0686    1.1959    0.0062 H   0  0  0  0  0  0  0  0  0  0  0  0
  1  5  1  0
  5  6  1  0
  5  7  2  0
  1  2  1  0
  1  3  1  0
  1  4  1  0
  8 12  1  0
 12 13  2  0
 13 15  1  0
 15 17  2  0
 17 19  1  0
 19 21  2  0
 21 12  1  0
  8  9  1  0
  8 10  1  0
  8 11  1  0
 13 14  1  0
 15 16  1  0
 17 18  1  0
 19 20  1  0
 21 22  1  0
M  CHG  1   6  -1
M  END
>  <PDB_ID>  (707) 
pdb1m0t

>  <RESIDUE_NAME>  (707) 
ASP   PHE

>  <FRAG_NAME>  (707) 
ACET   MBZ

>  <FRAG_ATOM_NUM>  (707) 
fragi: 7  fragj: 15

>  <atom.prop.CHAIN_ID>  (707) 
A A A A A A A Z Z Z Z Z Z Z Z Z Z Z Z Z Z Z

>  <atom.prop.IS_HEAVY_ATOM>  (707) 
1 0 0 0 1 1 1 1 0 0 0 1 1 0 1 0 1 0 1 0 1 0

>  <DIFUSE_FUNC_ATOM>  (707) 
atom 6   atom 7   

>  <FINAL_SINGLE_POINT_ENERGY>  (707) 
0

>  <NONCOV_INTER_ENERGY_QM>  (707) 
0

>  <FF_Energy>  (707) 
-2.49

>  <QM_Energy>  (707) 
-7.72

>  <source>  (707) 
ACET_MBZ_00

>  <Index>  (707) 
24773

$$$$
ACET-pdb2pzi-B-ASP-587:MBZ-pdb2pzi-B-PHE-591
     RDKit          3D

 22 21  0  0  0  0  0  0  0  0999 V2000
    4.5671    2.7992   -3.3977 C   0  0  0  0  0  0  0  0  0  0  0  0
    5.1934    2.9543   -2.6425 H   0  0  0  0  0  0  0  0  0  0  0  0
    4.2691    3.6621   -3.7871 H   0  0  0  0  0  0  0  0  0  0  0  0
    5.0996    2.2443   -4.1701 H   0  0  0  0  0  0  0  0  0  0  0  0
    3.3461    2.0546   -2.8717 C   0  0  0  0  0  0  0  0  0  0  0  0
    3.2448    0.8155   -3.0578 O   0  0  0  0  0  1  0  0  0  0  0  0
    2.4855    2.7196   -2.2600 O   0  0  0  0  0  0  0  0  0  0  0  0
    0.0049    2.9424    0.0333 C   0  0  0  0  0  0  0  0  0  0  0  0
    0.9441    3.2355   -0.0627 H   0  0  0  0  0  0  0  0  0  0  0  0
   -0.3700    3.2176    0.9060 H   0  0  0  0  0  0  0  0  0  0  0  0
   -0.5819    3.4161   -0.7537 H   0  0  0  0  0  0  0  0  0  0  0  0
   -0.0017    1.4153   -0.0049 C   0  0  0  0  0  0  0  0  0  0  0  0
   -1.2032    0.6968    0.0043 C   0  0  0  0  0  0  0  0  0  0  0  0
   -2.0700    1.1806    0.0124 H   0  0  0  0  0  0  0  0  0  0  0  0
   -1.2053   -0.7087    0.0000 C   0  0  0  0  0  0  0  0  0  0  0  0
   -2.0807   -1.1980   -0.0021 H   0  0  0  0  0  0  0  0  0  0  0  0
    0.0008   -1.4050    0.0004 C   0  0  0  0  0  0  0  0  0  0  0  0
    0.0016   -2.4000    0.0005 H   0  0  0  0  0  0  0  0  0  0  0  0
    1.2053   -0.6989    0.0000 C   0  0  0  0  0  0  0  0  0  0  0  0
    2.0875   -1.1949    0.0013 H   0  0  0  0  0  0  0  0  0  0  0  0
    1.2041    0.7004    0.0002 C   0  0  0  0  0  0  0  0  0  0  0  0
    2.0690    1.1944    0.0032 H   0  0  0  0  0  0  0  0  0  0  0  0
  1  5  1  0
  5  6  1  0
  5  7  2  0
  1  2  1  0
  1  3  1  0
  1  4  1  0
  8 12  1  0
 12 13  2  0
 13 15  1  0
 15 17  2  0
 17 19  1  0
 19 21  2  0
 21 12  1  0
  8  9  1  0
  8 10  1  0
  8 11  1  0
 13 14  1  0
 15 16  1  0
 17 18  1  0
 19 20  1  0
 21 22  1  0
M  CHG  1   6  -1
M  END
>  <PDB_ID>  (708) 
pdb2pzi

>  <RESIDUE_NAME>  (708) 
ASP   PHE

>  <FRAG_NAME>  (708) 
ACET   MBZ

>  <FRAG_ATOM_NUM>  (708) 
fragi: 7  fragj: 15

>  <atom.prop.CHAIN_ID>  (708) 
A A A A A A A Z Z Z Z Z Z Z Z Z Z Z Z Z Z Z

>  <atom.prop.IS_HEAVY_ATOM>  (708) 
1 0 0 0 1 1 1 1 0 0 0 1 1 0 1 0 1 0 1 0 1 0

>  <DIFUSE_FUNC_ATOM>  (708) 
atom 6   atom 7   

>  <FINAL_SINGLE_POINT_ENERGY>  (708) 
0

>  <NONCOV_INTER_ENERGY_QM>  (708) 
0

>  <FF_Energy>  (708) 
0.16

>  <QM_Energy>  (708) 
-5.07

>  <source>  (708) 
ACET_MBZ_00

>  <Index>  (708) 
24801

$$$$
ACET-pdb2q04-D-ASP-170:MBZ-pdb2q04-B-PHE-207
     RDKit          3D

 22 21  0  0  0  0  0  0  0  0999 V2000
    5.8097    2.8092   -0.3425 C   0  0  0  0  0  0  0  0  0  0  0  0
    5.9794    3.5216    0.3296 H   0  0  0  0  0  0  0  0  0  0  0  0
    5.1044    3.0960   -0.9807 H   0  0  0  0  0  0  0  0  0  0  0  0
    6.7289    2.6782   -0.9136 H   0  0  0  0  0  0  0  0  0  0  0  0
    5.3693    1.5544    0.3591 C   0  0  0  0  0  0  0  0  0  0  0  0
    6.1906    0.6230    0.4991 O   0  0  0  0  0  1  0  0  0  0  0  0
    4.1993    1.4970    0.7822 O   0  0  0  0  0  0  0  0  0  0  0  0
   -0.0058    2.8977   -0.0253 C   0  0  0  0  0  0  0  0  0  0  0  0
    0.9409    3.2076   -0.0913 H   0  0  0  0  0  0  0  0  0  0  0  0
   -0.4034    3.2108    0.8361 H   0  0  0  0  0  0  0  0  0  0  0  0
   -0.5649    3.3621   -0.8375 H   0  0  0  0  0  0  0  0  0  0  0  0
    0.0021    1.3985   -0.0074 C   0  0  0  0  0  0  0  0  0  0  0  0
   -1.1989    0.6918   -0.0089 C   0  0  0  0  0  0  0  0  0  0  0  0
   -2.0633    1.1945   -0.0170 H   0  0  0  0  0  0  0  0  0  0  0  0
   -1.2195   -0.6910    0.0000 C   0  0  0  0  0  0  0  0  0  0  0  0
   -2.0880   -1.1863   -0.0111 H   0  0  0  0  0  0  0  0  0  0  0  0
   -0.0065   -1.3904    0.0255 C   0  0  0  0  0  0  0  0  0  0  0  0
   -0.0128   -2.3894    0.0619 H   0  0  0  0  0  0  0  0  0  0  0  0
    1.2195   -0.7013   -0.0000 C   0  0  0  0  0  0  0  0  0  0  0  0
    2.0846   -1.2008   -0.0088 H   0  0  0  0  0  0  0  0  0  0  0  0
    1.2033    0.6924   -0.0092 C   0  0  0  0  0  0  0  0  0  0  0  0
    2.0700    1.1941   -0.0189 H   0  0  0  0  0  0  0  0  0  0  0  0
  1  5  1  0
  5  6  1  0
  5  7  2  0
  1  2  1  0
  1  3  1  0
  1  4  1  0
  8 12  1  0
 12 13  2  0
 13 15  1  0
 15 17  2  0
 17 19  1  0
 19 21  2  0
 21 12  1  0
  8  9  1  0
  8 10  1  0
  8 11  1  0
 13 14  1  0
 15 16  1  0
 17 18  1  0
 19 20  1  0
 21 22  1  0
M  CHG  1   6  -1
M  END
>  <PDB_ID>  (709) 
pdb2q04

>  <RESIDUE_NAME>  (709) 
ASP   PHE

>  <FRAG_NAME>  (709) 
ACET   MBZ

>  <FRAG_ATOM_NUM>  (709) 
fragi: 7  fragj: 15

>  <atom.prop.CHAIN_ID>  (709) 
A A A A A A A Z Z Z Z Z Z Z Z Z Z Z Z Z Z Z

>  <atom.prop.IS_HEAVY_ATOM>  (709) 
1 0 0 0 1 1 1 1 0 0 0 1 1 0 1 0 1 0 1 0 1 0

>  <DIFUSE_FUNC_ATOM>  (709) 
atom 6   atom 7   

>  <FINAL_SINGLE_POINT_ENERGY>  (709) 
0

>  <NONCOV_INTER_ENERGY_QM>  (709) 
0

>  <FF_Energy>  (709) 
-1.5

>  <QM_Energy>  (709) 
-6.57

>  <source>  (709) 
ACET_MBZ_00

>  <Index>  (709) 
24850

$$$$
ACET-pdb2q0k-A-GLU-45:MBZ-pdb2q0k-A-PHE-140
     RDKit          3D

 22 21  0  0  0  0  0  0  0  0999 V2000
    0.2440   -4.2855   -2.7074 C   0  0  0  0  0  0  0  0  0  0  0  0
    0.0967   -4.3396   -1.7377 H   0  0  0  0  0  0  0  0  0  0  0  0
    0.6909   -5.0861   -3.0615 H   0  0  0  0  0  0  0  0  0  0  0  0
   -0.7250   -4.1861   -3.1965 H   0  0  0  0  0  0  0  0  0  0  0  0
    1.1496   -3.1022   -2.9692 C   0  0  0  0  0  0  0  0  0  0  0  0
    1.4564   -2.8047   -4.1467 O   0  0  0  0  0  1  0  0  0  0  0  0
    1.5753   -2.4814   -1.9820 O   0  0  0  0  0  0  0  0  0  0  0  0
    0.0126    2.8787    0.0053 C   0  0  0  0  0  0  0  0  0  0  0  0
   -0.9114    3.1961    0.1670 H   0  0  0  0  0  0  0  0  0  0  0  0
    0.3485    3.1932   -0.8720 H   0  0  0  0  0  0  0  0  0  0  0  0
    0.6491    3.3131    0.7762 H   0  0  0  0  0  0  0  0  0  0  0  0
    0.0050    1.3906   -0.0004 C   0  0  0  0  0  0  0  0  0  0  0  0
   -1.1932    0.6833    0.0017 C   0  0  0  0  0  0  0  0  0  0  0  0
   -2.0572    1.1838    0.0037 H   0  0  0  0  0  0  0  0  0  0  0  0
   -1.1969   -0.6878   -0.0000 C   0  0  0  0  0  0  0  0  0  0  0  0
   -2.0769   -1.1878    0.0025 H   0  0  0  0  0  0  0  0  0  0  0  0
   -0.0063   -1.3818   -0.0028 C   0  0  0  0  0  0  0  0  0  0  0  0
   -0.0068   -2.3814   -0.0072 H   0  0  0  0  0  0  0  0  0  0  0  0
    1.1969   -0.6866    0.0000 C   0  0  0  0  0  0  0  0  0  0  0  0
    2.0751   -1.1971    0.0025 H   0  0  0  0  0  0  0  0  0  0  0  0
    1.1946    0.6822    0.0014 C   0  0  0  0  0  0  0  0  0  0  0  0
    2.0648    1.1857    0.0031 H   0  0  0  0  0  0  0  0  0  0  0  0
  1  5  1  0
  5  6  1  0
  5  7  2  0
  1  2  1  0
  1  3  1  0
  1  4  1  0
  8 12  1  0
 12 13  2  0
 13 15  1  0
 15 17  2  0
 17 19  1  0
 19 21  2  0
 21 12  1  0
  8  9  1  0
  8 10  1  0
  8 11  1  0
 13 14  1  0
 15 16  1  0
 17 18  1  0
 19 20  1  0
 21 22  1  0
M  CHG  1   6  -1
M  END
>  <PDB_ID>  (710) 
pdb2q0k

>  <RESIDUE_NAME>  (710) 
GLU   PHE

>  <FRAG_NAME>  (710) 
ACET   MBZ

>  <FRAG_ATOM_NUM>  (710) 
fragi: 7  fragj: 15

>  <atom.prop.CHAIN_ID>  (710) 
A A A A A A A Z Z Z Z Z Z Z Z Z Z Z Z Z Z Z

>  <atom.prop.IS_HEAVY_ATOM>  (710) 
1 0 0 0 1 1 1 1 0 0 0 1 1 0 1 0 1 0 1 0 1 0

>  <DIFUSE_FUNC_ATOM>  (710) 
atom 6   atom 7   

>  <FINAL_SINGLE_POINT_ENERGY>  (710) 
0

>  <NONCOV_INTER_ENERGY_QM>  (710) 
0

>  <FF_Energy>  (710) 
5.62

>  <QM_Energy>  (710) 
-0.76

>  <source>  (710) 
ACET_MBZ_00

>  <Index>  (710) 
24878

$$$$
ACET-pdb2q0o-A-ASP-140:MBZ-pdb2q0o-A-PHE-86
     RDKit          3D

 22 21  0  0  0  0  0  0  0  0999 V2000
   -1.7726    0.9370   -3.5124 C   0  0  0  0  0  0  0  0  0  0  0  0
   -1.4129    0.3433   -2.8024 H   0  0  0  0  0  0  0  0  0  0  0  0
   -1.5159    0.6010   -4.4111 H   0  0  0  0  0  0  0  0  0  0  0  0
   -2.8603    0.9189   -3.4455 H   0  0  0  0  0  0  0  0  0  0  0  0
   -1.1844    2.3316   -3.3261 C   0  0  0  0  0  0  0  0  0  0  0  0
   -1.9368    3.2669   -2.9808 O   0  0  0  0  0  1  0  0  0  0  0  0
    0.0449    2.4941   -3.5197 O   0  0  0  0  0  0  0  0  0  0  0  0
    0.0069    2.9056    0.0263 C   0  0  0  0  0  0  0  0  0  0  0  0
   -0.6678    3.2254   -0.6209 H   0  0  0  0  0  0  0  0  0  0  0  0
    0.9141    3.2119   -0.2178 H   0  0  0  0  0  0  0  0  0  0  0  0
   -0.2379    3.3284    1.0006 H   0  0  0  0  0  0  0  0  0  0  0  0
    0.0014    1.4023    0.0003 C   0  0  0  0  0  0  0  0  0  0  0  0
   -1.1952    0.6971    0.0026 C   0  0  0  0  0  0  0  0  0  0  0  0
   -2.0621    1.1850    0.0048 H   0  0  0  0  0  0  0  0  0  0  0  0
   -1.2048   -0.7025    0.0000 C   0  0  0  0  0  0  0  0  0  0  0  0
   -2.0809   -1.1900    0.0004 H   0  0  0  0  0  0  0  0  0  0  0  0
   -0.0021   -1.3992   -0.0008 C   0  0  0  0  0  0  0  0  0  0  0  0
   -0.0000   -2.3949   -0.0028 H   0  0  0  0  0  0  0  0  0  0  0  0
    1.2048   -0.6936    0.0000 C   0  0  0  0  0  0  0  0  0  0  0  0
    2.0845   -1.1925    0.0039 H   0  0  0  0  0  0  0  0  0  0  0  0
    1.1959    0.6959   -0.0021 C   0  0  0  0  0  0  0  0  0  0  0  0
    2.0654    1.1946   -0.0062 H   0  0  0  0  0  0  0  0  0  0  0  0
  1  5  1  0
  5  6  1  0
  5  7  2  0
  1  2  1  0
  1  3  1  0
  1  4  1  0
  8 12  1  0
 12 13  2  0
 13 15  1  0
 15 17  2  0
 17 19  1  0
 19 21  2  0
 21 12  1  0
  8  9  1  0
  8 10  1  0
  8 11  1  0
 13 14  1  0
 15 16  1  0
 17 18  1  0
 19 20  1  0
 21 22  1  0
M  CHG  1   6  -1
M  END
>  <PDB_ID>  (711) 
pdb2q0o

>  <RESIDUE_NAME>  (711) 
ASP   PHE

>  <FRAG_NAME>  (711) 
ACET   MBZ

>  <FRAG_ATOM_NUM>  (711) 
fragi: 7  fragj: 15

>  <atom.prop.CHAIN_ID>  (711) 
A A A A A A A Z Z Z Z Z Z Z Z Z Z Z Z Z Z Z

>  <atom.prop.IS_HEAVY_ATOM>  (711) 
1 0 0 0 1 1 1 1 0 0 0 1 1 0 1 0 1 0 1 0 1 0

>  <DIFUSE_FUNC_ATOM>  (711) 
atom 6   atom 7   

>  <FINAL_SINGLE_POINT_ENERGY>  (711) 
0

>  <NONCOV_INTER_ENERGY_QM>  (711) 
0

>  <FF_Energy>  (711) 
-0.23

>  <QM_Energy>  (711) 
-5.89

>  <source>  (711) 
ACET_MBZ_00

>  <Index>  (711) 
24885

$$$$
ACET-pdb2q14-E-GLU-84:MBZ-pdb2q14-E-PHE-81
     RDKit          3D

 22 21  0  0  0  0  0  0  0  0999 V2000
    3.8513    3.7783   -2.2240 C   0  0  0  0  0  0  0  0  0  0  0  0
    4.7805    3.7968   -2.5530 H   0  0  0  0  0  0  0  0  0  0  0  0
    3.7926    4.0392   -1.2759 H   0  0  0  0  0  0  0  0  0  0  0  0
    3.2560    4.4724   -2.8173 H   0  0  0  0  0  0  0  0  0  0  0  0
    3.3742    2.3202   -2.3156 C   0  0  0  0  0  0  0  0  0  0  0  0
    2.1399    2.1077   -2.4384 O   0  0  0  0  0  1  0  0  0  0  0  0
    4.2313    1.3926   -2.2510 O   0  0  0  0  0  0  0  0  0  0  0  0
   -0.0284    2.9176   -0.0318 C   0  0  0  0  0  0  0  0  0  0  0  0
    0.8897    3.2401   -0.1650 H   0  0  0  0  0  0  0  0  0  0  0  0
   -0.4204    3.2393    0.8090 H   0  0  0  0  0  0  0  0  0  0  0  0
   -0.6389    3.2951   -0.8521 H   0  0  0  0  0  0  0  0  0  0  0  0
    0.0056    1.4130    0.0126 C   0  0  0  0  0  0  0  0  0  0  0  0
   -1.1969    0.6839    0.0007 C   0  0  0  0  0  0  0  0  0  0  0  0
   -2.0657    1.1763   -0.0088 H   0  0  0  0  0  0  0  0  0  0  0  0
   -1.2099   -0.7157   -0.0000 C   0  0  0  0  0  0  0  0  0  0  0  0
   -2.0893   -1.1998    0.0092 H   0  0  0  0  0  0  0  0  0  0  0  0
   -0.0129   -1.4122   -0.0110 C   0  0  0  0  0  0  0  0  0  0  0  0
    0.0021   -2.4028   -0.0266 H   0  0  0  0  0  0  0  0  0  0  0  0
    1.2099   -0.6925   -0.0000 C   0  0  0  0  0  0  0  0  0  0  0  0
    2.0854   -1.1855    0.0115 H   0  0  0  0  0  0  0  0  0  0  0  0
    1.2043    0.7235   -0.0023 C   0  0  0  0  0  0  0  0  0  0  0  0
    2.0702    1.2087   -0.0154 H   0  0  0  0  0  0  0  0  0  0  0  0
  1  5  1  0
  5  6  1  0
  5  7  2  0
  1  2  1  0
  1  3  1  0
  1  4  1  0
  8 12  1  0
 12 13  2  0
 13 15  1  0
 15 17  2  0
 17 19  1  0
 19 21  2  0
 21 12  1  0
  8  9  1  0
  8 10  1  0
  8 11  1  0
 13 14  1  0
 15 16  1  0
 17 18  1  0
 19 20  1  0
 21 22  1  0
M  CHG  1   6  -1
M  END
>  <PDB_ID>  (712) 
pdb2q14

>  <RESIDUE_NAME>  (712) 
GLU   PHE

>  <FRAG_NAME>  (712) 
ACET   MBZ

>  <FRAG_ATOM_NUM>  (712) 
fragi: 7  fragj: 15

>  <atom.prop.CHAIN_ID>  (712) 
A A A A A A A Z Z Z Z Z Z Z Z Z Z Z Z Z Z Z

>  <atom.prop.IS_HEAVY_ATOM>  (712) 
1 0 0 0 1 1 1 1 0 0 0 1 1 0 1 0 1 0 1 0 1 0

>  <DIFUSE_FUNC_ATOM>  (712) 
atom 6   atom 7   

>  <FINAL_SINGLE_POINT_ENERGY>  (712) 
0

>  <NONCOV_INTER_ENERGY_QM>  (712) 
0

>  <FF_Energy>  (712) 
1.06

>  <QM_Energy>  (712) 
-4.72

>  <source>  (712) 
ACET_MBZ_00

>  <Index>  (712) 
24986

$$$$
ACET-pdb1m41-A-GLU-133:MBZ-pdb1m41-A-PHE-149
     RDKit          3D

 22 21  0  0  0  0  0  0  0  0999 V2000
    2.1096   -4.5256   -1.1527 C   0  0  0  0  0  0  0  0  0  0  0  0
    1.2963   -4.3315   -0.6407 H   0  0  0  0  0  0  0  0  0  0  0  0
    2.2135   -5.4811   -1.3493 H   0  0  0  0  0  0  0  0  0  0  0  0
    2.0538   -3.9854   -2.0979 H   0  0  0  0  0  0  0  0  0  0  0  0
    3.2974   -4.0972   -0.3112 C   0  0  0  0  0  0  0  0  0  0  0  0
    3.3991   -2.8892    0.0065 O   0  0  0  0  0  1  0  0  0  0  0  0
    4.1277   -4.9683    0.0317 O   0  0  0  0  0  0  0  0  0  0  0  0
   -0.0057    2.9082   -0.0530 C   0  0  0  0  0  0  0  0  0  0  0  0
   -0.9353    3.2061   -0.2256 H   0  0  0  0  0  0  0  0  0  0  0  0
    0.5988    3.1924   -0.7854 H   0  0  0  0  0  0  0  0  0  0  0  0
    0.3327    3.3924    0.8631 H   0  0  0  0  0  0  0  0  0  0  0  0
    0.0000    1.4080   -0.0009 C   0  0  0  0  0  0  0  0  0  0  0  0
   -1.2053    0.6992    0.0010 C   0  0  0  0  0  0  0  0  0  0  0  0
   -2.0688    1.1886    0.0017 H   0  0  0  0  0  0  0  0  0  0  0  0
   -1.2108   -0.7014   -0.0000 C   0  0  0  0  0  0  0  0  0  0  0  0
   -2.0823   -1.1942    0.0015 H   0  0  0  0  0  0  0  0  0  0  0  0
    0.0030   -1.4025   -0.0011 C   0  0  0  0  0  0  0  0  0  0  0  0
   -0.0027   -2.3980   -0.0035 H   0  0  0  0  0  0  0  0  0  0  0  0
    1.2108   -0.7023    0.0000 C   0  0  0  0  0  0  0  0  0  0  0  0
    2.0898   -1.1957    0.0014 H   0  0  0  0  0  0  0  0  0  0  0  0
    1.2023    0.6990    0.0010 C   0  0  0  0  0  0  0  0  0  0  0  0
    2.0689    1.1938    0.0017 H   0  0  0  0  0  0  0  0  0  0  0  0
  1  5  1  0
  5  6  1  0
  5  7  2  0
  1  2  1  0
  1  3  1  0
  1  4  1  0
  8 12  1  0
 12 13  2  0
 13 15  1  0
 15 17  2  0
 17 19  1  0
 19 21  2  0
 21 12  1  0
  8  9  1  0
  8 10  1  0
  8 11  1  0
 13 14  1  0
 15 16  1  0
 17 18  1  0
 19 20  1  0
 21 22  1  0
M  CHG  1   6  -1
M  END
>  <PDB_ID>  (713) 
pdb1m41

>  <RESIDUE_NAME>  (713) 
GLU   PHE

>  <FRAG_NAME>  (713) 
ACET   MBZ

>  <FRAG_ATOM_NUM>  (713) 
fragi: 7  fragj: 15

>  <atom.prop.CHAIN_ID>  (713) 
A A A A A A A Z Z Z Z Z Z Z Z Z Z Z Z Z Z Z

>  <atom.prop.IS_HEAVY_ATOM>  (713) 
1 0 0 0 1 1 1 1 0 0 0 1 1 0 1 0 1 0 1 0 1 0

>  <DIFUSE_FUNC_ATOM>  (713) 
atom 6   atom 7   

>  <FINAL_SINGLE_POINT_ENERGY>  (713) 
0

>  <NONCOV_INTER_ENERGY_QM>  (713) 
0

>  <FF_Energy>  (713) 
-0.24

>  <QM_Energy>  (713) 
-6.24

>  <source>  (713) 
ACET_MBZ_00

>  <Index>  (713) 
25033

$$$$
ACET-pdb1m3u-A-ASP-26:MBZ-pdb1m3u-A-PHE-29
     RDKit          3D

 22 21  0  0  0  0  0  0  0  0999 V2000
   -5.5148    4.2852    0.0696 C   0  0  0  0  0  0  0  0  0  0  0  0
   -6.0320    4.2694    0.9153 H   0  0  0  0  0  0  0  0  0  0  0  0
   -6.0906    4.0521   -0.7015 H   0  0  0  0  0  0  0  0  0  0  0  0
   -5.1742    5.3097   -0.0801 H   0  0  0  0  0  0  0  0  0  0  0  0
   -4.3731    3.2970    0.1608 C   0  0  0  0  0  0  0  0  0  0  0  0
   -3.7292    3.1970    1.2250 O   0  0  0  0  0  1  0  0  0  0  0  0
   -4.0250    2.5651   -0.7941 O   0  0  0  0  0  0  0  0  0  0  0  0
   -0.0036    2.9271    0.0101 C   0  0  0  0  0  0  0  0  0  0  0  0
   -0.8960    3.2295   -0.2585 H   0  0  0  0  0  0  0  0  0  0  0  0
    0.7030    3.2381   -0.5928 H   0  0  0  0  0  0  0  0  0  0  0  0
    0.2019    3.3291    1.0022 H   0  0  0  0  0  0  0  0  0  0  0  0
   -0.0015    1.3996   -0.0176 C   0  0  0  0  0  0  0  0  0  0  0  0
   -1.1838    0.6955    0.0312 C   0  0  0  0  0  0  0  0  0  0  0  0
   -2.0555    1.1930    0.0896 H   0  0  0  0  0  0  0  0  0  0  0  0
   -1.2072   -0.6845    0.0000 C   0  0  0  0  0  0  0  0  0  0  0  0
   -2.0912   -1.1695   -0.0142 H   0  0  0  0  0  0  0  0  0  0  0  0
   -0.0195   -1.3948   -0.0103 C   0  0  0  0  0  0  0  0  0  0  0  0
   -0.0254   -2.3907   -0.0254 H   0  0  0  0  0  0  0  0  0  0  0  0
    1.2072   -0.7048    0.0000 C   0  0  0  0  0  0  0  0  0  0  0  0
    2.0738   -1.2117    0.0108 H   0  0  0  0  0  0  0  0  0  0  0  0
    1.2048    0.6889   -0.0033 C   0  0  0  0  0  0  0  0  0  0  0  0
    2.0682    1.1864    0.0041 H   0  0  0  0  0  0  0  0  0  0  0  0
  1  5  1  0
  5  6  1  0
  5  7  2  0
  1  2  1  0
  1  3  1  0
  1  4  1  0
  8 12  1  0
 12 13  2  0
 13 15  1  0
 15 17  2  0
 17 19  1  0
 19 21  2  0
 21 12  1  0
  8  9  1  0
  8 10  1  0
  8 11  1  0
 13 14  1  0
 15 16  1  0
 17 18  1  0
 19 20  1  0
 21 22  1  0
M  CHG  1   6  -1
M  END
>  <PDB_ID>  (714) 
pdb1m3u

>  <RESIDUE_NAME>  (714) 
ASP   PHE

>  <FRAG_NAME>  (714) 
ACET   MBZ

>  <FRAG_ATOM_NUM>  (714) 
fragi: 7  fragj: 15

>  <atom.prop.CHAIN_ID>  (714) 
A A A A A A A Z Z Z Z Z Z Z Z Z Z Z Z Z Z Z

>  <atom.prop.IS_HEAVY_ATOM>  (714) 
1 0 0 0 1 1 1 1 0 0 0 1 1 0 1 0 1 0 1 0 1 0

>  <DIFUSE_FUNC_ATOM>  (714) 
atom 6   atom 7   

>  <FINAL_SINGLE_POINT_ENERGY>  (714) 
0

>  <NONCOV_INTER_ENERGY_QM>  (714) 
0

>  <FF_Energy>  (714) 
0.04

>  <QM_Energy>  (714) 
-8.73

>  <source>  (714) 
ACET_MBZ_00

>  <Index>  (714) 
25037

$$$$
ACET-pdb1m4r-B-GLU-77:MBZ-pdb1m4r-A-PHE-80
     RDKit          3D

 22 21  0  0  0  0  0  0  0  0999 V2000
    3.3339   -1.9892    2.1936 C   0  0  0  0  0  0  0  0  0  0  0  0
    2.6446   -2.0389    1.4962 H   0  0  0  0  0  0  0  0  0  0  0  0
    2.9621   -2.1035    3.0959 H   0  0  0  0  0  0  0  0  0  0  0  0
    4.0568   -2.7856    2.0169 H   0  0  0  0  0  0  0  0  0  0  0  0
    3.9569   -0.6056    2.1258 C   0  0  0  0  0  0  0  0  0  0  0  0
    4.7584   -0.3581    1.1988 O   0  0  0  0  0  1  0  0  0  0  0  0
    3.6351    0.2395    2.9891 O   0  0  0  0  0  0  0  0  0  0  0  0
    0.0030    2.9040   -0.0413 C   0  0  0  0  0  0  0  0  0  0  0  0
    0.9156    3.2143    0.1732 H   0  0  0  0  0  0  0  0  0  0  0  0
   -0.6543    3.2294    0.6212 H   0  0  0  0  0  0  0  0  0  0  0  0
   -0.2703    3.3136   -1.0137 H   0  0  0  0  0  0  0  0  0  0  0  0
    0.0003    1.4039   -0.0014 C   0  0  0  0  0  0  0  0  0  0  0  0
   -1.1974    0.6962    0.0004 C   0  0  0  0  0  0  0  0  0  0  0  0
   -2.0645    1.1840    0.0005 H   0  0  0  0  0  0  0  0  0  0  0  0
   -1.2036   -0.7027   -0.0000 C   0  0  0  0  0  0  0  0  0  0  0  0
   -2.0792   -1.1922    0.0015 H   0  0  0  0  0  0  0  0  0  0  0  0
    0.0005   -1.3981   -0.0004 C   0  0  0  0  0  0  0  0  0  0  0  0
    0.0003   -2.3949   -0.0015 H   0  0  0  0  0  0  0  0  0  0  0  0
    1.2036   -0.6957    0.0000 C   0  0  0  0  0  0  0  0  0  0  0  0
    2.0849   -1.1921    0.0004 H   0  0  0  0  0  0  0  0  0  0  0  0
    1.1966    0.6964    0.0014 C   0  0  0  0  0  0  0  0  0  0  0  0
    2.0652    1.1928    0.0033 H   0  0  0  0  0  0  0  0  0  0  0  0
  1  5  1  0
  5  6  1  0
  5  7  2  0
  1  2  1  0
  1  3  1  0
  1  4  1  0
  8 12  1  0
 12 13  2  0
 13 15  1  0
 15 17  2  0
 17 19  1  0
 19 21  2  0
 21 12  1  0
  8  9  1  0
  8 10  1  0
  8 11  1  0
 13 14  1  0
 15 16  1  0
 17 18  1  0
 19 20  1  0
 21 22  1  0
M  CHG  1   6  -1
M  END
>  <PDB_ID>  (715) 
pdb1m4r

>  <RESIDUE_NAME>  (715) 
GLU   PHE

>  <FRAG_NAME>  (715) 
ACET   MBZ

>  <FRAG_ATOM_NUM>  (715) 
fragi: 7  fragj: 15

>  <atom.prop.CHAIN_ID>  (715) 
A A A A A A A Z Z Z Z Z Z Z Z Z Z Z Z Z Z Z

>  <atom.prop.IS_HEAVY_ATOM>  (715) 
1 0 0 0 1 1 1 1 0 0 0 1 1 0 1 0 1 0 1 0 1 0

>  <DIFUSE_FUNC_ATOM>  (715) 
atom 6   atom 7   

>  <FINAL_SINGLE_POINT_ENERGY>  (715) 
0

>  <NONCOV_INTER_ENERGY_QM>  (715) 
0

>  <FF_Energy>  (715) 
2.81

>  <QM_Energy>  (715) 
-2.58

>  <source>  (715) 
ACET_MBZ_00

>  <Index>  (715) 
25077

$$$$
ACET-pdb2pzi-A-ASP-587:MBZ-pdb2pzi-A-PHE-591
     RDKit          3D

 22 21  0  0  0  0  0  0  0  0999 V2000
    4.5319    3.2043   -3.3395 C   0  0  0  0  0  0  0  0  0  0  0  0
    5.1703    3.3905   -2.6001 H   0  0  0  0  0  0  0  0  0  0  0  0
    4.2141    4.0545   -3.7440 H   0  0  0  0  0  0  0  0  0  0  0  0
    5.0569    2.6370   -4.1080 H   0  0  0  0  0  0  0  0  0  0  0  0
    3.3248    2.4635   -2.7592 C   0  0  0  0  0  0  0  0  0  0  0  0
    3.2354    1.2227   -2.8914 O   0  0  0  0  0  1  0  0  0  0  0  0
    2.4539    3.1381   -2.1638 O   0  0  0  0  0  0  0  0  0  0  0  0
   -0.0123    2.9697   -0.0069 C   0  0  0  0  0  0  0  0  0  0  0  0
    0.9160    3.2666   -0.1483 H   0  0  0  0  0  0  0  0  0  0  0  0
   -0.3625    3.2537    0.8683 H   0  0  0  0  0  0  0  0  0  0  0  0
   -0.6343    3.4155   -0.7831 H   0  0  0  0  0  0  0  0  0  0  0  0
   -0.0033    1.4263   -0.0153 C   0  0  0  0  0  0  0  0  0  0  0  0
   -1.2066    0.6924    0.0074 C   0  0  0  0  0  0  0  0  0  0  0  0
   -2.0750    1.1798    0.0277 H   0  0  0  0  0  0  0  0  0  0  0  0
   -1.2119   -0.7116    0.0000 C   0  0  0  0  0  0  0  0  0  0  0  0
   -2.0806   -1.2050   -0.0110 H   0  0  0  0  0  0  0  0  0  0  0  0
    0.0082   -1.4129    0.0097 C   0  0  0  0  0  0  0  0  0  0  0  0
    0.0017   -2.4077    0.0223 H   0  0  0  0  0  0  0  0  0  0  0  0
    1.2119   -0.7097    0.0000 C   0  0  0  0  0  0  0  0  0  0  0  0
    2.0953   -1.1895   -0.0046 H   0  0  0  0  0  0  0  0  0  0  0  0
    1.2017    0.7156   -0.0018 C   0  0  0  0  0  0  0  0  0  0  0  0
    2.0693    1.2011    0.0056 H   0  0  0  0  0  0  0  0  0  0  0  0
  1  5  1  0
  5  6  1  0
  5  7  2  0
  1  2  1  0
  1  3  1  0
  1  4  1  0
  8 12  1  0
 12 13  2  0
 13 15  1  0
 15 17  2  0
 17 19  1  0
 19 21  2  0
 21 12  1  0
  8  9  1  0
  8 10  1  0
  8 11  1  0
 13 14  1  0
 15 16  1  0
 17 18  1  0
 19 20  1  0
 21 22  1  0
M  CHG  1   6  -1
M  END
>  <PDB_ID>  (716) 
pdb2pzi

>  <RESIDUE_NAME>  (716) 
ASP   PHE

>  <FRAG_NAME>  (716) 
ACET   MBZ

>  <FRAG_ATOM_NUM>  (716) 
fragi: 7  fragj: 15

>  <atom.prop.CHAIN_ID>  (716) 
A A A A A A A Z Z Z Z Z Z Z Z Z Z Z Z Z Z Z

>  <atom.prop.IS_HEAVY_ATOM>  (716) 
1 0 0 0 1 1 1 1 0 0 0 1 1 0 1 0 1 0 1 0 1 0

>  <DIFUSE_FUNC_ATOM>  (716) 
atom 6   atom 7   

>  <FINAL_SINGLE_POINT_ENERGY>  (716) 
0

>  <NONCOV_INTER_ENERGY_QM>  (716) 
0

>  <FF_Energy>  (716) 
-0.15

>  <QM_Energy>  (716) 
-5.79

>  <source>  (716) 
ACET_MBZ_00

>  <Index>  (716) 
25096

$$$$
ACET-pdb1lwj-B-GLU-841:MBZ-pdb1lwj-B-PHE-844
     RDKit          3D

 22 21  0  0  0  0  0  0  0  0999 V2000
   -3.7824   -1.7621   -1.7100 C   0  0  0  0  0  0  0  0  0  0  0  0
   -3.4768   -2.2696   -2.4898 H   0  0  0  0  0  0  0  0  0  0  0  0
   -3.2962   -1.9926   -0.8914 H   0  0  0  0  0  0  0  0  0  0  0  0
   -3.6391   -0.7006   -1.9116 H   0  0  0  0  0  0  0  0  0  0  0  0
   -5.2370   -2.0910   -1.4875 C   0  0  0  0  0  0  0  0  0  0  0  0
   -5.8636   -1.4311   -0.6273 O   0  0  0  0  0  1  0  0  0  0  0  0
   -5.7493   -3.0016   -2.1697 O   0  0  0  0  0  0  0  0  0  0  0  0
    0.0095    2.8998    0.0058 C   0  0  0  0  0  0  0  0  0  0  0  0
    0.9507    3.2060    0.0567 H   0  0  0  0  0  0  0  0  0  0  0  0
   -0.5076    3.2115    0.7913 H   0  0  0  0  0  0  0  0  0  0  0  0
   -0.4340    3.3602   -0.8771 H   0  0  0  0  0  0  0  0  0  0  0  0
    0.0002    1.4020   -0.0010 C   0  0  0  0  0  0  0  0  0  0  0  0
   -1.2016    0.6957    0.0006 C   0  0  0  0  0  0  0  0  0  0  0  0
   -2.0652    1.1883    0.0005 H   0  0  0  0  0  0  0  0  0  0  0  0
   -1.2095   -0.6979   -0.0000 C   0  0  0  0  0  0  0  0  0  0  0  0
   -2.0837   -1.1909    0.0009 H   0  0  0  0  0  0  0  0  0  0  0  0
   -0.0020   -1.3981   -0.0005 C   0  0  0  0  0  0  0  0  0  0  0  0
   -0.0036   -2.3938   -0.0013 H   0  0  0  0  0  0  0  0  0  0  0  0
    1.2095   -0.6961    0.0000 C   0  0  0  0  0  0  0  0  0  0  0  0
    2.0860   -1.1967    0.0009 H   0  0  0  0  0  0  0  0  0  0  0  0
    1.2034    0.6943    0.0009 C   0  0  0  0  0  0  0  0  0  0  0  0
    2.0683    1.1943    0.0017 H   0  0  0  0  0  0  0  0  0  0  0  0
  1  5  1  0
  5  6  1  0
  5  7  2  0
  1  2  1  0
  1  3  1  0
  1  4  1  0
  8 12  1  0
 12 13  2  0
 13 15  1  0
 15 17  2  0
 17 19  1  0
 19 21  2  0
 21 12  1  0
  8  9  1  0
  8 10  1  0
  8 11  1  0
 13 14  1  0
 15 16  1  0
 17 18  1  0
 19 20  1  0
 21 22  1  0
M  CHG  1   6  -1
M  END
>  <PDB_ID>  (717) 
pdb1lwj

>  <RESIDUE_NAME>  (717) 
GLU   PHE

>  <FRAG_NAME>  (717) 
ACET   MBZ

>  <FRAG_ATOM_NUM>  (717) 
fragi: 7  fragj: 15

>  <atom.prop.CHAIN_ID>  (717) 
A A A A A A A Z Z Z Z Z Z Z Z Z Z Z Z Z Z Z

>  <atom.prop.IS_HEAVY_ATOM>  (717) 
1 0 0 0 1 1 1 1 0 0 0 1 1 0 1 0 1 0 1 0 1 0

>  <DIFUSE_FUNC_ATOM>  (717) 
atom 6   atom 7   

>  <FINAL_SINGLE_POINT_ENERGY>  (717) 
0

>  <NONCOV_INTER_ENERGY_QM>  (717) 
0

>  <FF_Energy>  (717) 
6.39

>  <QM_Energy>  (717) 
0.28

>  <source>  (717) 
ACET_MBZ_00

>  <Index>  (717) 
25147

$$$$
ACET-pdb2q32-A-GLU-102:MBZ-pdb2q32-A-PHE-99
     RDKit          3D

 22 21  0  0  0  0  0  0  0  0999 V2000
   -3.4591    2.8364    3.1862 C   0  0  0  0  0  0  0  0  0  0  0  0
   -3.1302    1.9831    3.5535 H   0  0  0  0  0  0  0  0  0  0  0  0
   -4.2200    3.1888    3.7051 H   0  0  0  0  0  0  0  0  0  0  0  0
   -2.6472    3.5622    3.2345 H   0  0  0  0  0  0  0  0  0  0  0  0
   -3.9468    2.5735    1.7799 C   0  0  0  0  0  0  0  0  0  0  0  0
   -3.4326    3.1791    0.8102 O   0  0  0  0  0  1  0  0  0  0  0  0
   -4.8656    1.7439    1.6418 O   0  0  0  0  0  0  0  0  0  0  0  0
    0.0009    2.9063    0.0089 C   0  0  0  0  0  0  0  0  0  0  0  0
    0.9133    3.2092    0.2397 H   0  0  0  0  0  0  0  0  0  0  0  0
   -0.6602    3.2083    0.6783 H   0  0  0  0  0  0  0  0  0  0  0  0
   -0.2659    3.3560   -0.9475 H   0  0  0  0  0  0  0  0  0  0  0  0
   -0.0012    1.3993   -0.0019 C   0  0  0  0  0  0  0  0  0  0  0  0
   -1.2007    0.6914    0.0031 C   0  0  0  0  0  0  0  0  0  0  0  0
   -2.0657    1.1828    0.0076 H   0  0  0  0  0  0  0  0  0  0  0  0
   -1.2060   -0.6991    0.0000 C   0  0  0  0  0  0  0  0  0  0  0  0
   -2.0776   -1.1957   -0.0022 H   0  0  0  0  0  0  0  0  0  0  0  0
    0.0045   -1.3933    0.0018 C   0  0  0  0  0  0  0  0  0  0  0  0
    0.0035   -2.3903    0.0033 H   0  0  0  0  0  0  0  0  0  0  0  0
    1.2060   -0.6898   -0.0000 C   0  0  0  0  0  0  0  0  0  0  0  0
    2.0871   -1.1911    0.0022 H   0  0  0  0  0  0  0  0  0  0  0  0
    1.1975    0.6915   -0.0030 C   0  0  0  0  0  0  0  0  0  0  0  0
    2.0637    1.1953   -0.0066 H   0  0  0  0  0  0  0  0  0  0  0  0
  1  5  1  0
  5  6  1  0
  5  7  2  0
  1  2  1  0
  1  3  1  0
  1  4  1  0
  8 12  1  0
 12 13  2  0
 13 15  1  0
 15 17  2  0
 17 19  1  0
 19 21  2  0
 21 12  1  0
  8  9  1  0
  8 10  1  0
  8 11  1  0
 13 14  1  0
 15 16  1  0
 17 18  1  0
 19 20  1  0
 21 22  1  0
M  CHG  1   6  -1
M  END
>  <PDB_ID>  (718) 
pdb2q32

>  <RESIDUE_NAME>  (718) 
GLU   PHE

>  <FRAG_NAME>  (718) 
ACET   MBZ

>  <FRAG_ATOM_NUM>  (718) 
fragi: 7  fragj: 15

>  <atom.prop.CHAIN_ID>  (718) 
A A A A A A A Z Z Z Z Z Z Z Z Z Z Z Z Z Z Z

>  <atom.prop.IS_HEAVY_ATOM>  (718) 
1 0 0 0 1 1 1 1 0 0 0 1 1 0 1 0 1 0 1 0 1 0

>  <DIFUSE_FUNC_ATOM>  (718) 
atom 6   atom 7   

>  <FINAL_SINGLE_POINT_ENERGY>  (718) 
0

>  <NONCOV_INTER_ENERGY_QM>  (718) 
0

>  <FF_Energy>  (718) 
-2.73

>  <QM_Energy>  (718) 
-7.88

>  <source>  (718) 
ACET_MBZ_00

>  <Index>  (718) 
25171

$$$$
ACET-pdb2q3f-A-ASP-107:MBZ-pdb2q3f-A-PHE-110
     RDKit          3D

 22 21  0  0  0  0  0  0  0  0999 V2000
   -5.1022   -2.0345    0.2392 C   0  0  0  0  0  0  0  0  0  0  0  0
   -5.4941   -2.9446    0.1981 H   0  0  0  0  0  0  0  0  0  0  0  0
   -4.4696   -1.8897   -0.5100 H   0  0  0  0  0  0  0  0  0  0  0  0
   -5.9142   -1.3145    0.1378 H   0  0  0  0  0  0  0  0  0  0  0  0
   -4.3553   -1.8816    1.5484 C   0  0  0  0  0  0  0  0  0  0  0  0
   -5.0095   -1.6079    2.5777 O   0  0  0  0  0  1  0  0  0  0  0  0
   -3.1197   -2.0454    1.5510 O   0  0  0  0  0  0  0  0  0  0  0  0
    0.0017    2.9103    0.0095 C   0  0  0  0  0  0  0  0  0  0  0  0
   -0.6427    3.2206   -0.6719 H   0  0  0  0  0  0  0  0  0  0  0  0
    0.9189    3.2150   -0.1958 H   0  0  0  0  0  0  0  0  0  0  0  0
   -0.2882    3.3438    0.9666 H   0  0  0  0  0  0  0  0  0  0  0  0
   -0.0010    1.4039   -0.0001 C   0  0  0  0  0  0  0  0  0  0  0  0
   -1.1952    0.6982    0.0009 C   0  0  0  0  0  0  0  0  0  0  0  0
   -2.0625    1.1887    0.0008 H   0  0  0  0  0  0  0  0  0  0  0  0
   -1.2025   -0.6929   -0.0000 C   0  0  0  0  0  0  0  0  0  0  0  0
   -2.0799   -1.1857    0.0010 H   0  0  0  0  0  0  0  0  0  0  0  0
    0.0002   -1.3989   -0.0003 C   0  0  0  0  0  0  0  0  0  0  0  0
   -0.0100   -2.3948   -0.0012 H   0  0  0  0  0  0  0  0  0  0  0  0
    1.2025   -0.7050   -0.0000 C   0  0  0  0  0  0  0  0  0  0  0  0
    2.0831   -1.1977    0.0017 H   0  0  0  0  0  0  0  0  0  0  0  0
    1.1959    0.6947   -0.0005 C   0  0  0  0  0  0  0  0  0  0  0  0
    2.0653    1.1876   -0.0016 H   0  0  0  0  0  0  0  0  0  0  0  0
  1  5  1  0
  5  6  1  0
  5  7  2  0
  1  2  1  0
  1  3  1  0
  1  4  1  0
  8 12  1  0
 12 13  2  0
 13 15  1  0
 15 17  2  0
 17 19  1  0
 19 21  2  0
 21 12  1  0
  8  9  1  0
  8 10  1  0
  8 11  1  0
 13 14  1  0
 15 16  1  0
 17 18  1  0
 19 20  1  0
 21 22  1  0
M  CHG  1   6  -1
M  END
>  <PDB_ID>  (719) 
pdb2q3f

>  <RESIDUE_NAME>  (719) 
ASP   PHE

>  <FRAG_NAME>  (719) 
ACET   MBZ

>  <FRAG_ATOM_NUM>  (719) 
fragi: 7  fragj: 15

>  <atom.prop.CHAIN_ID>  (719) 
A A A A A A A Z Z Z Z Z Z Z Z Z Z Z Z Z Z Z

>  <atom.prop.IS_HEAVY_ATOM>  (719) 
1 0 0 0 1 1 1 1 0 0 0 1 1 0 1 0 1 0 1 0 1 0

>  <DIFUSE_FUNC_ATOM>  (719) 
atom 6   atom 7   

>  <FINAL_SINGLE_POINT_ENERGY>  (719) 
0

>  <NONCOV_INTER_ENERGY_QM>  (719) 
0

>  <FF_Energy>  (719) 
4.99

>  <QM_Energy>  (719) 
-3.06

>  <source>  (719) 
ACET_MBZ_00

>  <Index>  (719) 
25209

$$$$
ACET-pdb1m6y-B-GLU-44:MBZ-pdb1m6y-B-PHE-71
     RDKit          3D

 22 21  0  0  0  0  0  0  0  0999 V2000
   -0.1740   -2.2709   -3.6932 C   0  0  0  0  0  0  0  0  0  0  0  0
   -1.0332   -2.6199   -4.0264 H   0  0  0  0  0  0  0  0  0  0  0  0
    0.1472   -2.7754   -2.9102 H   0  0  0  0  0  0  0  0  0  0  0  0
    0.5641   -2.3722   -4.4888 H   0  0  0  0  0  0  0  0  0  0  0  0
   -0.4021   -0.8350   -3.2516 C   0  0  0  0  0  0  0  0  0  0  0  0
    0.5664   -0.1747   -2.8165 O   0  0  0  0  0  1  0  0  0  0  0  0
   -1.5586   -0.3662   -3.3315 O   0  0  0  0  0  0  0  0  0  0  0  0
    0.0016    2.9146    0.0527 C   0  0  0  0  0  0  0  0  0  0  0  0
   -0.5836    3.2462   -0.6701 H   0  0  0  0  0  0  0  0  0  0  0  0
    0.9322    3.2222   -0.0634 H   0  0  0  0  0  0  0  0  0  0  0  0
   -0.3690    3.3188    0.9948 H   0  0  0  0  0  0  0  0  0  0  0  0
   -0.0002    1.4079   -0.0007 C   0  0  0  0  0  0  0  0  0  0  0  0
   -1.1983    0.6966   -0.0011 C   0  0  0  0  0  0  0  0  0  0  0  0
   -2.0660    1.1842   -0.0032 H   0  0  0  0  0  0  0  0  0  0  0  0
   -1.2054   -0.7020   -0.0000 C   0  0  0  0  0  0  0  0  0  0  0  0
   -2.0811   -1.1917   -0.0004 H   0  0  0  0  0  0  0  0  0  0  0  0
    0.0001   -1.4018    0.0034 C   0  0  0  0  0  0  0  0  0  0  0  0
   -0.0026   -2.3976    0.0078 H   0  0  0  0  0  0  0  0  0  0  0  0
    1.2054   -0.6994    0.0000 C   0  0  0  0  0  0  0  0  0  0  0  0
    2.0856   -1.1939    0.0001 H   0  0  0  0  0  0  0  0  0  0  0  0
    1.1984    0.6986   -0.0016 C   0  0  0  0  0  0  0  0  0  0  0  0
    2.0661    1.1936   -0.0036 H   0  0  0  0  0  0  0  0  0  0  0  0
  1  5  1  0
  5  6  1  0
  5  7  2  0
  1  2  1  0
  1  3  1  0
  1  4  1  0
  8 12  1  0
 12 13  2  0
 13 15  1  0
 15 17  2  0
 17 19  1  0
 19 21  2  0
 21 12  1  0
  8  9  1  0
  8 10  1  0
  8 11  1  0
 13 14  1  0
 15 16  1  0
 17 18  1  0
 19 20  1  0
 21 22  1  0
M  CHG  1   6  -1
M  END
>  <PDB_ID>  (720) 
pdb1m6y

>  <RESIDUE_NAME>  (720) 
GLU   PHE

>  <FRAG_NAME>  (720) 
ACET   MBZ

>  <FRAG_ATOM_NUM>  (720) 
fragi: 7  fragj: 15

>  <atom.prop.CHAIN_ID>  (720) 
A A A A A A A Z Z Z Z Z Z Z Z Z Z Z Z Z Z Z

>  <atom.prop.IS_HEAVY_ATOM>  (720) 
1 0 0 0 1 1 1 1 0 0 0 1 1 0 1 0 1 0 1 0 1 0

>  <DIFUSE_FUNC_ATOM>  (720) 
atom 6   atom 7   

>  <FINAL_SINGLE_POINT_ENERGY>  (720) 
0

>  <NONCOV_INTER_ENERGY_QM>  (720) 
0

>  <FF_Energy>  (720) 
7.49

>  <QM_Energy>  (720) 
1.57

>  <source>  (720) 
ACET_MBZ_00

>  <Index>  (720) 
25285

$$$$
ACET-pdb2q5r-D-GLU-62:MBZ-pdb2q5r-C-PHE-66
     RDKit          3D

 22 21  0  0  0  0  0  0  0  0999 V2000
   -3.5160    4.5770    0.0203 C   0  0  0  0  0  0  0  0  0  0  0  0
   -2.6080    4.9134    0.1981 H   0  0  0  0  0  0  0  0  0  0  0  0
   -4.2091    5.2182    0.2998 H   0  0  0  0  0  0  0  0  0  0  0  0
   -3.6134    4.4185   -1.0537 H   0  0  0  0  0  0  0  0  0  0  0  0
   -3.7059    3.3046    0.8615 C   0  0  0  0  0  0  0  0  0  0  0  0
   -4.0722    2.2324    0.3211 O   0  0  0  0  0  1  0  0  0  0  0  0
   -3.4776    3.3821    2.0863 O   0  0  0  0  0  0  0  0  0  0  0  0
    0.0043    2.9297    0.0194 C   0  0  0  0  0  0  0  0  0  0  0  0
   -0.7754    3.2410   -0.4976 H   0  0  0  0  0  0  0  0  0  0  0  0
    0.8531    3.2308   -0.3813 H   0  0  0  0  0  0  0  0  0  0  0  0
   -0.0638    3.3622    1.0176 H   0  0  0  0  0  0  0  0  0  0  0  0
   -0.0039    1.4125    0.0067 C   0  0  0  0  0  0  0  0  0  0  0  0
   -1.2079    0.7071    0.0004 C   0  0  0  0  0  0  0  0  0  0  0  0
   -2.0714    1.1927   -0.0051 H   0  0  0  0  0  0  0  0  0  0  0  0
   -1.2096   -0.6962    0.0000 C   0  0  0  0  0  0  0  0  0  0  0  0
   -2.0784   -1.1927    0.0067 H   0  0  0  0  0  0  0  0  0  0  0  0
    0.0116   -1.4033   -0.0085 C   0  0  0  0  0  0  0  0  0  0  0  0
   -0.0057   -2.3993   -0.0210 H   0  0  0  0  0  0  0  0  0  0  0  0
    1.2096   -0.7106   -0.0000 C   0  0  0  0  0  0  0  0  0  0  0  0
    2.0922   -1.2002    0.0067 H   0  0  0  0  0  0  0  0  0  0  0  0
    1.2002    0.6906    0.0014 C   0  0  0  0  0  0  0  0  0  0  0  0
    2.0678    1.1873   -0.0018 H   0  0  0  0  0  0  0  0  0  0  0  0
  1  5  1  0
  5  6  1  0
  5  7  2  0
  1  2  1  0
  1  3  1  0
  1  4  1  0
  8 12  1  0
 12 13  2  0
 13 15  1  0
 15 17  2  0
 17 19  1  0
 19 21  2  0
 21 12  1  0
  8  9  1  0
  8 10  1  0
  8 11  1  0
 13 14  1  0
 15 16  1  0
 17 18  1  0
 19 20  1  0
 21 22  1  0
M  CHG  1   6  -1
M  END
>  <PDB_ID>  (721) 
pdb2q5r

>  <RESIDUE_NAME>  (721) 
GLU   PHE

>  <FRAG_NAME>  (721) 
ACET   MBZ

>  <FRAG_ATOM_NUM>  (721) 
fragi: 7  fragj: 15

>  <atom.prop.CHAIN_ID>  (721) 
A A A A A A A Z Z Z Z Z Z Z Z Z Z Z Z Z Z Z

>  <atom.prop.IS_HEAVY_ATOM>  (721) 
1 0 0 0 1 1 1 1 0 0 0 1 1 0 1 0 1 0 1 0 1 0

>  <DIFUSE_FUNC_ATOM>  (721) 
atom 6   atom 7   

>  <FINAL_SINGLE_POINT_ENERGY>  (721) 
0

>  <NONCOV_INTER_ENERGY_QM>  (721) 
0

>  <FF_Energy>  (721) 
-1.65

>  <QM_Energy>  (721) 
-7.59

>  <source>  (721) 
ACET_MBZ_00

>  <Index>  (721) 
25305

$$$$
ACET-pdb2q6q-A-GLU-78:MBZ-pdb2q6q-A-PHE-74
     RDKit          3D

 22 21  0  0  0  0  0  0  0  0999 V2000
    3.3333   -0.7714    3.8427 C   0  0  0  0  0  0  0  0  0  0  0  0
    3.0383    0.0965    3.5034 H   0  0  0  0  0  0  0  0  0  0  0  0
    4.0705   -0.7055    4.4807 H   0  0  0  0  0  0  0  0  0  0  0  0
    2.4909   -1.2678    4.3245 H   0  0  0  0  0  0  0  0  0  0  0  0
    3.8593   -1.5705    2.6320 C   0  0  0  0  0  0  0  0  0  0  0  0
    3.0777   -1.8415    1.6795 O   0  0  0  0  0  1  0  0  0  0  0  0
    5.0573   -1.9372    2.6518 O   0  0  0  0  0  0  0  0  0  0  0  0
    0.0020    2.8543    0.0224 C   0  0  0  0  0  0  0  0  0  0  0  0
   -0.8641    3.1873   -0.3155 H   0  0  0  0  0  0  0  0  0  0  0  0
    0.7559    3.1861   -0.5217 H   0  0  0  0  0  0  0  0  0  0  0  0
    0.1306    3.2443    1.0321 H   0  0  0  0  0  0  0  0  0  0  0  0
   -0.0034    1.3844   -0.0176 C   0  0  0  0  0  0  0  0  0  0  0  0
   -1.1883    0.6942    0.0073 C   0  0  0  0  0  0  0  0  0  0  0  0
   -2.0570    1.1891    0.0303 H   0  0  0  0  0  0  0  0  0  0  0  0
   -1.2021   -0.6863    0.0000 C   0  0  0  0  0  0  0  0  0  0  0  0
   -2.0752   -1.1826   -0.0075 H   0  0  0  0  0  0  0  0  0  0  0  0
    0.0036   -1.3828    0.0049 C   0  0  0  0  0  0  0  0  0  0  0  0
   -0.0058   -2.3835    0.0116 H   0  0  0  0  0  0  0  0  0  0  0  0
    1.2021   -0.6941   -0.0000 C   0  0  0  0  0  0  0  0  0  0  0  0
    2.0819   -1.1923   -0.0058 H   0  0  0  0  0  0  0  0  0  0  0  0
    1.1881    0.6847    0.0053 C   0  0  0  0  0  0  0  0  0  0  0  0
    2.0571    1.1891    0.0250 H   0  0  0  0  0  0  0  0  0  0  0  0
  1  5  1  0
  5  6  1  0
  5  7  2  0
  1  2  1  0
  1  3  1  0
  1  4  1  0
  8 12  1  0
 12 13  2  0
 13 15  1  0
 15 17  2  0
 17 19  1  0
 19 21  2  0
 21 12  1  0
  8  9  1  0
  8 10  1  0
  8 11  1  0
 13 14  1  0
 15 16  1  0
 17 18  1  0
 19 20  1  0
 21 22  1  0
M  CHG  1   6  -1
M  END
>  <PDB_ID>  (722) 
pdb2q6q

>  <RESIDUE_NAME>  (722) 
GLU   PHE

>  <FRAG_NAME>  (722) 
ACET   MBZ

>  <FRAG_ATOM_NUM>  (722) 
fragi: 7  fragj: 15

>  <atom.prop.CHAIN_ID>  (722) 
A A A A A A A Z Z Z Z Z Z Z Z Z Z Z Z Z Z Z

>  <atom.prop.IS_HEAVY_ATOM>  (722) 
1 0 0 0 1 1 1 1 0 0 0 1 1 0 1 0 1 0 1 0 1 0

>  <DIFUSE_FUNC_ATOM>  (722) 
atom 6   atom 7   

>  <FINAL_SINGLE_POINT_ENERGY>  (722) 
0

>  <NONCOV_INTER_ENERGY_QM>  (722) 
0

>  <FF_Energy>  (722) 
4.79

>  <QM_Energy>  (722) 
-3.31

>  <source>  (722) 
ACET_MBZ_00

>  <Index>  (722) 
25358

$$$$
ACET-pdb1m8t-B-ASP-99:MBZ-pdb1m8t-B-PHE-5
     RDKit          3D

 22 21  0  0  0  0  0  0  0  0999 V2000
    3.4939    1.2626    2.3199 C   0  0  0  0  0  0  0  0  0  0  0  0
    4.2215    1.7406    2.8035 H   0  0  0  0  0  0  0  0  0  0  0  0
    3.5491    1.4521    1.3441 H   0  0  0  0  0  0  0  0  0  0  0  0
    3.6480    0.1927    2.4604 H   0  0  0  0  0  0  0  0  0  0  0  0
    2.1645    1.7387    2.8394 C   0  0  0  0  0  0  0  0  0  0  0  0
    1.4504    0.9761    3.5189 O   0  0  0  0  0  1  0  0  0  0  0  0
    1.8326    2.8977    2.5643 O   0  0  0  0  0  0  0  0  0  0  0  0
    0.0086    2.9023    0.0437 C   0  0  0  0  0  0  0  0  0  0  0  0
    0.1106    3.1814    0.9865 H   0  0  0  0  0  0  0  0  0  0  0  0
   -0.8437    3.2259   -0.3378 H   0  0  0  0  0  0  0  0  0  0  0  0
    0.8214    3.3502   -0.5280 H   0  0  0  0  0  0  0  0  0  0  0  0
   -0.0007    1.4042    0.0005 C   0  0  0  0  0  0  0  0  0  0  0  0
   -1.1991    0.6998    0.0004 C   0  0  0  0  0  0  0  0  0  0  0  0
   -2.0641    1.1892   -0.0007 H   0  0  0  0  0  0  0  0  0  0  0  0
   -1.2029   -0.6922   -0.0000 C   0  0  0  0  0  0  0  0  0  0  0  0
   -2.0784   -1.1882   -0.0007 H   0  0  0  0  0  0  0  0  0  0  0  0
    0.0039   -1.3972    0.0020 C   0  0  0  0  0  0  0  0  0  0  0  0
   -0.0083   -2.3941    0.0048 H   0  0  0  0  0  0  0  0  0  0  0  0
    1.2029   -0.7046    0.0000 C   0  0  0  0  0  0  0  0  0  0  0  0
    2.0849   -1.1988    0.0019 H   0  0  0  0  0  0  0  0  0  0  0  0
    1.1958    0.6900   -0.0029 C   0  0  0  0  0  0  0  0  0  0  0  0
    2.0658    1.1853   -0.0086 H   0  0  0  0  0  0  0  0  0  0  0  0
  1  5  1  0
  5  6  1  0
  5  7  2  0
  1  2  1  0
  1  3  1  0
  1  4  1  0
  8 12  1  0
 12 13  2  0
 13 15  1  0
 15 17  2  0
 17 19  1  0
 19 21  2  0
 21 12  1  0
  8  9  1  0
  8 10  1  0
  8 11  1  0
 13 14  1  0
 15 16  1  0
 17 18  1  0
 19 20  1  0
 21 22  1  0
M  CHG  1   6  -1
M  END
>  <PDB_ID>  (723) 
pdb1m8t

>  <RESIDUE_NAME>  (723) 
ASP   PHE

>  <FRAG_NAME>  (723) 
ACET   MBZ

>  <FRAG_ATOM_NUM>  (723) 
fragi: 7  fragj: 15

>  <atom.prop.CHAIN_ID>  (723) 
A A A A A A A Z Z Z Z Z Z Z Z Z Z Z Z Z Z Z

>  <atom.prop.IS_HEAVY_ATOM>  (723) 
1 0 0 0 1 1 1 1 0 0 0 1 1 0 1 0 1 0 1 0 1 0

>  <DIFUSE_FUNC_ATOM>  (723) 
atom 6   atom 7   

>  <FINAL_SINGLE_POINT_ENERGY>  (723) 
0

>  <NONCOV_INTER_ENERGY_QM>  (723) 
0

>  <FF_Energy>  (723) 
3.69

>  <QM_Energy>  (723) 
-4.18

>  <source>  (723) 
ACET_MBZ_00

>  <Index>  (723) 
25424

$$$$
ACET-pdb1m8t-E-ASP-99:MBZ-pdb1m8t-E-PHE-5
     RDKit          3D

 22 21  0  0  0  0  0  0  0  0999 V2000
    2.4602    1.2581    3.0982 C   0  0  0  0  0  0  0  0  0  0  0  0
    3.1590    1.6708    3.6736 H   0  0  0  0  0  0  0  0  0  0  0  0
    2.7037    1.3491    2.1389 H   0  0  0  0  0  0  0  0  0  0  0  0
    2.4240    0.1940    3.3318 H   0  0  0  0  0  0  0  0  0  0  0  0
    1.1456    1.9578    3.3417 C   0  0  0  0  0  0  0  0  0  0  0  0
    0.1574    1.2712    3.7000 O   0  0  0  0  0  1  0  0  0  0  0  0
    1.1000    3.1989    3.1714 O   0  0  0  0  0  0  0  0  0  0  0  0
    0.0096    2.9160    0.0072 C   0  0  0  0  0  0  0  0  0  0  0  0
   -0.1777    3.2130    0.9302 H   0  0  0  0  0  0  0  0  0  0  0  0
   -0.6848    3.2251   -0.6223 H   0  0  0  0  0  0  0  0  0  0  0  0
    0.9608    3.3504   -0.3006 H   0  0  0  0  0  0  0  0  0  0  0  0
    0.0022    1.4051   -0.0019 C   0  0  0  0  0  0  0  0  0  0  0  0
   -1.1931    0.6938    0.0007 C   0  0  0  0  0  0  0  0  0  0  0  0
   -2.0608    1.1829    0.0022 H   0  0  0  0  0  0  0  0  0  0  0  0
   -1.1980   -0.6982   -0.0000 C   0  0  0  0  0  0  0  0  0  0  0  0
   -2.0796   -1.1883   -0.0005 H   0  0  0  0  0  0  0  0  0  0  0  0
   -0.0058   -1.3946    0.0019 C   0  0  0  0  0  0  0  0  0  0  0  0
   -0.0074   -2.3937    0.0038 H   0  0  0  0  0  0  0  0  0  0  0  0
    1.1980   -0.6996    0.0000 C   0  0  0  0  0  0  0  0  0  0  0  0
    2.0781   -1.1986    0.0005 H   0  0  0  0  0  0  0  0  0  0  0  0
    1.1967    0.6936   -0.0007 C   0  0  0  0  0  0  0  0  0  0  0  0
    2.0661    1.1872   -0.0011 H   0  0  0  0  0  0  0  0  0  0  0  0
  1  5  1  0
  5  6  1  0
  5  7  2  0
  1  2  1  0
  1  3  1  0
  1  4  1  0
  8 12  1  0
 12 13  2  0
 13 15  1  0
 15 17  2  0
 17 19  1  0
 19 21  2  0
 21 12  1  0
  8  9  1  0
  8 10  1  0
  8 11  1  0
 13 14  1  0
 15 16  1  0
 17 18  1  0
 19 20  1  0
 21 22  1  0
M  CHG  1   6  -1
M  END
>  <PDB_ID>  (724) 
pdb1m8t

>  <RESIDUE_NAME>  (724) 
ASP   PHE

>  <FRAG_NAME>  (724) 
ACET   MBZ

>  <FRAG_ATOM_NUM>  (724) 
fragi: 7  fragj: 15

>  <atom.prop.CHAIN_ID>  (724) 
A A A A A A A Z Z Z Z Z Z Z Z Z Z Z Z Z Z Z

>  <atom.prop.IS_HEAVY_ATOM>  (724) 
1 0 0 0 1 1 1 1 0 0 0 1 1 0 1 0 1 0 1 0 1 0

>  <DIFUSE_FUNC_ATOM>  (724) 
atom 6   atom 7   

>  <FINAL_SINGLE_POINT_ENERGY>  (724) 
0

>  <NONCOV_INTER_ENERGY_QM>  (724) 
0

>  <FF_Energy>  (724) 
1.55

>  <QM_Energy>  (724) 
-3.8

>  <source>  (724) 
ACET_MBZ_00

>  <Index>  (724) 
25427

$$$$
ACET-pdb1m8t-F-ASP-99:MBZ-pdb1m8t-F-PHE-5
     RDKit          3D

 22 21  0  0  0  0  0  0  0  0999 V2000
    3.0007    1.4941    2.6860 C   0  0  0  0  0  0  0  0  0  0  0  0
    3.7419    2.0397    3.0657 H   0  0  0  0  0  0  0  0  0  0  0  0
    3.0049    1.5539    1.6932 H   0  0  0  0  0  0  0  0  0  0  0  0
    3.1842    0.4542    2.9563 H   0  0  0  0  0  0  0  0  0  0  0  0
    1.6836    2.0235    3.2059 C   0  0  0  0  0  0  0  0  0  0  0  0
    0.8175    1.2154    3.5836 O   0  0  0  0  0  1  0  0  0  0  0  0
    1.5193    3.2603    3.2199 O   0  0  0  0  0  0  0  0  0  0  0  0
    0.0084    2.8983   -0.0039 C   0  0  0  0  0  0  0  0  0  0  0  0
   -0.0095    3.2092    0.9347 H   0  0  0  0  0  0  0  0  0  0  0  0
   -0.7880    3.2089   -0.5011 H   0  0  0  0  0  0  0  0  0  0  0  0
    0.8871    3.3328   -0.4806 H   0  0  0  0  0  0  0  0  0  0  0  0
    0.0006    1.3985    0.0006 C   0  0  0  0  0  0  0  0  0  0  0  0
   -1.1956    0.6973    0.0010 C   0  0  0  0  0  0  0  0  0  0  0  0
   -2.0609    1.1866    0.0002 H   0  0  0  0  0  0  0  0  0  0  0  0
   -1.1971   -0.6917   -0.0000 C   0  0  0  0  0  0  0  0  0  0  0  0
   -2.0761   -1.1869    0.0023 H   0  0  0  0  0  0  0  0  0  0  0  0
    0.0005   -1.3891   -0.0020 C   0  0  0  0  0  0  0  0  0  0  0  0
   -0.0074   -2.3897   -0.0049 H   0  0  0  0  0  0  0  0  0  0  0  0
    1.1971   -0.6994    0.0000 C   0  0  0  0  0  0  0  0  0  0  0  0
    2.0789   -1.1994    0.0031 H   0  0  0  0  0  0  0  0  0  0  0  0
    1.1945    0.6844    0.0003 C   0  0  0  0  0  0  0  0  0  0  0  0
    2.0642    1.1826   -0.0006 H   0  0  0  0  0  0  0  0  0  0  0  0
  1  5  1  0
  5  6  1  0
  5  7  2  0
  1  2  1  0
  1  3  1  0
  1  4  1  0
  8 12  1  0
 12 13  2  0
 13 15  1  0
 15 17  2  0
 17 19  1  0
 19 21  2  0
 21 12  1  0
  8  9  1  0
  8 10  1  0
  8 11  1  0
 13 14  1  0
 15 16  1  0
 17 18  1  0
 19 20  1  0
 21 22  1  0
M  CHG  1   6  -1
M  END
>  <PDB_ID>  (725) 
pdb1m8t

>  <RESIDUE_NAME>  (725) 
ASP   PHE

>  <FRAG_NAME>  (725) 
ACET   MBZ

>  <FRAG_ATOM_NUM>  (725) 
fragi: 7  fragj: 15

>  <atom.prop.CHAIN_ID>  (725) 
A A A A A A A Z Z Z Z Z Z Z Z Z Z Z Z Z Z Z

>  <atom.prop.IS_HEAVY_ATOM>  (725) 
1 0 0 0 1 1 1 1 0 0 0 1 1 0 1 0 1 0 1 0 1 0

>  <DIFUSE_FUNC_ATOM>  (725) 
atom 6   atom 7   

>  <FINAL_SINGLE_POINT_ENERGY>  (725) 
0

>  <NONCOV_INTER_ENERGY_QM>  (725) 
0

>  <FF_Energy>  (725) 
2.58

>  <QM_Energy>  (725) 
-2.72

>  <source>  (725) 
ACET_MBZ_00

>  <Index>  (725) 
25428

$$$$
ACET-pdb2q8y-A-ASP-162:MBZ-pdb2q8y-A-PHE-172
     RDKit          3D

 22 21  0  0  0  0  0  0  0  0999 V2000
   -0.9114    1.5383   -3.5779 C   0  0  0  0  0  0  0  0  0  0  0  0
   -1.8266    1.8723   -3.7604 H   0  0  0  0  0  0  0  0  0  0  0  0
   -0.9110    0.9087   -2.8129 H   0  0  0  0  0  0  0  0  0  0  0  0
   -0.5611    1.0034   -4.4606 H   0  0  0  0  0  0  0  0  0  0  0  0
   -0.0215    2.7266   -3.2293 C   0  0  0  0  0  0  0  0  0  0  0  0
    1.1903    2.5168   -2.9958 O   0  0  0  0  0  1  0  0  0  0  0  0
   -0.5386    3.8638   -3.1810 O   0  0  0  0  0  0  0  0  0  0  0  0
    0.0069    2.9067    0.0051 C   0  0  0  0  0  0  0  0  0  0  0  0
   -0.7646    3.2155   -0.5334 H   0  0  0  0  0  0  0  0  0  0  0  0
    0.8626    3.2093   -0.3910 H   0  0  0  0  0  0  0  0  0  0  0  0
   -0.0784    3.3512    0.9967 H   0  0  0  0  0  0  0  0  0  0  0  0
    0.0011    1.4017    0.0021 C   0  0  0  0  0  0  0  0  0  0  0  0
   -1.2022    0.6964    0.0015 C   0  0  0  0  0  0  0  0  0  0  0  0
   -2.0657    1.1869    0.0009 H   0  0  0  0  0  0  0  0  0  0  0  0
   -1.2094   -0.7008   -0.0000 C   0  0  0  0  0  0  0  0  0  0  0  0
   -2.0813   -1.1934   -0.0009 H   0  0  0  0  0  0  0  0  0  0  0  0
    0.0005   -1.3979    0.0020 C   0  0  0  0  0  0  0  0  0  0  0  0
    0.0013   -2.3934    0.0044 H   0  0  0  0  0  0  0  0  0  0  0  0
    1.2094   -0.6923    0.0000 C   0  0  0  0  0  0  0  0  0  0  0  0
    2.0873   -1.1937    0.0037 H   0  0  0  0  0  0  0  0  0  0  0  0
    1.2007    0.6929   -0.0056 C   0  0  0  0  0  0  0  0  0  0  0  0
    2.0674    1.1953   -0.0161 H   0  0  0  0  0  0  0  0  0  0  0  0
  1  5  1  0
  5  6  1  0
  5  7  2  0
  1  2  1  0
  1  3  1  0
  1  4  1  0
  8 12  1  0
 12 13  2  0
 13 15  1  0
 15 17  2  0
 17 19  1  0
 19 21  2  0
 21 12  1  0
  8  9  1  0
  8 10  1  0
  8 11  1  0
 13 14  1  0
 15 16  1  0
 17 18  1  0
 19 20  1  0
 21 22  1  0
M  CHG  1   6  -1
M  END
>  <PDB_ID>  (726) 
pdb2q8y

>  <RESIDUE_NAME>  (726) 
ASP   PHE

>  <FRAG_NAME>  (726) 
ACET   MBZ

>  <FRAG_ATOM_NUM>  (726) 
fragi: 7  fragj: 15

>  <atom.prop.CHAIN_ID>  (726) 
A A A A A A A Z Z Z Z Z Z Z Z Z Z Z Z Z Z Z

>  <atom.prop.IS_HEAVY_ATOM>  (726) 
1 0 0 0 1 1 1 1 0 0 0 1 1 0 1 0 1 0 1 0 1 0

>  <DIFUSE_FUNC_ATOM>  (726) 
atom 6   atom 7   

>  <FINAL_SINGLE_POINT_ENERGY>  (726) 
0

>  <NONCOV_INTER_ENERGY_QM>  (726) 
0

>  <FF_Energy>  (726) 
0.5

>  <QM_Energy>  (726) 
-5.96

>  <source>  (726) 
ACET_MBZ_00

>  <Index>  (726) 
25488

$$$$
ACET-pdb2q97-A-GLU-259:MBZ-pdb2q97-A-PHE-223
     RDKit          3D

 22 21  0  0  0  0  0  0  0  0999 V2000
   -1.2322    0.6009   -3.5841 C   0  0  0  0  0  0  0  0  0  0  0  0
   -0.7858    0.1940   -2.8077 H   0  0  0  0  0  0  0  0  0  0  0  0
   -0.7342    0.4514   -4.4193 H   0  0  0  0  0  0  0  0  0  0  0  0
   -2.2117    0.1343   -3.6888 H   0  0  0  0  0  0  0  0  0  0  0  0
   -1.2882    2.1121   -3.3457 C   0  0  0  0  0  0  0  0  0  0  0  0
   -2.3845    2.6452   -3.0458 O   0  0  0  0  0  1  0  0  0  0  0  0
   -0.2191    2.7578   -3.4483 O   0  0  0  0  0  0  0  0  0  0  0  0
    0.0049    2.9183    0.0119 C   0  0  0  0  0  0  0  0  0  0  0  0
   -0.5727    3.2266   -0.7246 H   0  0  0  0  0  0  0  0  0  0  0  0
    0.9368    3.2181   -0.1027 H   0  0  0  0  0  0  0  0  0  0  0  0
   -0.3749    3.3453    0.9401 H   0  0  0  0  0  0  0  0  0  0  0  0
    0.0017    1.4043    0.0003 C   0  0  0  0  0  0  0  0  0  0  0  0
   -1.2006    0.6960    0.0008 C   0  0  0  0  0  0  0  0  0  0  0  0
   -2.0644    1.1911    0.0002 H   0  0  0  0  0  0  0  0  0  0  0  0
   -1.2085   -0.6919    0.0000 C   0  0  0  0  0  0  0  0  0  0  0  0
   -2.0848   -1.1866    0.0101 H   0  0  0  0  0  0  0  0  0  0  0  0
   -0.0053   -1.3971   -0.0137 C   0  0  0  0  0  0  0  0  0  0  0  0
   -0.0113   -2.3919   -0.0341 H   0  0  0  0  0  0  0  0  0  0  0  0
    1.2085   -0.6996   -0.0000 C   0  0  0  0  0  0  0  0  0  0  0  0
    2.0829   -1.2039    0.0023 H   0  0  0  0  0  0  0  0  0  0  0  0
    1.2043    0.6883    0.0127 C   0  0  0  0  0  0  0  0  0  0  0  0
    2.0701    1.1887    0.0299 H   0  0  0  0  0  0  0  0  0  0  0  0
  1  5  1  0
  5  6  1  0
  5  7  2  0
  1  2  1  0
  1  3  1  0
  1  4  1  0
  8 12  1  0
 12 13  2  0
 13 15  1  0
 15 17  2  0
 17 19  1  0
 19 21  2  0
 21 12  1  0
  8  9  1  0
  8 10  1  0
  8 11  1  0
 13 14  1  0
 15 16  1  0
 17 18  1  0
 19 20  1  0
 21 22  1  0
M  CHG  1   6  -1
M  END
>  <PDB_ID>  (727) 
pdb2q97

>  <RESIDUE_NAME>  (727) 
GLU   PHE

>  <FRAG_NAME>  (727) 
ACET   MBZ

>  <FRAG_ATOM_NUM>  (727) 
fragi: 7  fragj: 15

>  <atom.prop.CHAIN_ID>  (727) 
A A A A A A A Z Z Z Z Z Z Z Z Z Z Z Z Z Z Z

>  <atom.prop.IS_HEAVY_ATOM>  (727) 
1 0 0 0 1 1 1 1 0 0 0 1 1 0 1 0 1 0 1 0 1 0

>  <DIFUSE_FUNC_ATOM>  (727) 
atom 6   atom 7   

>  <FINAL_SINGLE_POINT_ENERGY>  (727) 
0

>  <NONCOV_INTER_ENERGY_QM>  (727) 
0

>  <FF_Energy>  (727) 
-0.67

>  <QM_Energy>  (727) 
-6.35

>  <source>  (727) 
ACET_MBZ_00

>  <Index>  (727) 
25500

$$$$
ACET-pdb2qdf-A-ASP-222:MBZ-pdb2qdf-A-PHE-197
     RDKit          3D

 22 21  0  0  0  0  0  0  0  0999 V2000
   -0.9234    0.4254    3.7043 C   0  0  0  0  0  0  0  0  0  0  0  0
   -0.7087    0.1944    4.6436 H   0  0  0  0  0  0  0  0  0  0  0  0
   -0.4916   -0.2063    3.0761 H   0  0  0  0  0  0  0  0  0  0  0  0
   -2.0029    0.3489    3.5744 H   0  0  0  0  0  0  0  0  0  0  0  0
   -0.4066    1.8280    3.4175 C   0  0  0  0  0  0  0  0  0  0  0  0
    0.7783    2.1031    3.6849 O   0  0  0  0  0  1  0  0  0  0  0  0
   -1.1940    2.6510    2.9108 O   0  0  0  0  0  0  0  0  0  0  0  0
    0.0148    2.9046    0.0435 C   0  0  0  0  0  0  0  0  0  0  0  0
    0.8276    3.2188   -0.4275 H   0  0  0  0  0  0  0  0  0  0  0  0
    0.0245    3.1850    0.9937 H   0  0  0  0  0  0  0  0  0  0  0  0
   -0.8449    3.3780   -0.4308 H   0  0  0  0  0  0  0  0  0  0  0  0
    0.0013    1.4030    0.0004 C   0  0  0  0  0  0  0  0  0  0  0  0
   -1.1978    0.6939    0.0000 C   0  0  0  0  0  0  0  0  0  0  0  0
   -2.0637    1.1828   -0.0010 H   0  0  0  0  0  0  0  0  0  0  0  0
   -1.2018   -0.6998    0.0000 C   0  0  0  0  0  0  0  0  0  0  0  0
   -2.0773   -1.1930    0.0012 H   0  0  0  0  0  0  0  0  0  0  0  0
    0.0009   -1.3948    0.0003 C   0  0  0  0  0  0  0  0  0  0  0  0
   -0.0014   -2.3940    0.0001 H   0  0  0  0  0  0  0  0  0  0  0  0
    1.2018   -0.6969    0.0000 C   0  0  0  0  0  0  0  0  0  0  0  0
    2.0828   -1.1936    0.0017 H   0  0  0  0  0  0  0  0  0  0  0  0
    1.1957    0.6946   -0.0007 C   0  0  0  0  0  0  0  0  0  0  0  0
    2.0654    1.1906   -0.0029 H   0  0  0  0  0  0  0  0  0  0  0  0
  1  5  1  0
  5  6  1  0
  5  7  2  0
  1  2  1  0
  1  3  1  0
  1  4  1  0
  8 12  1  0
 12 13  2  0
 13 15  1  0
 15 17  2  0
 17 19  1  0
 19 21  2  0
 21 12  1  0
  8  9  1  0
  8 10  1  0
  8 11  1  0
 13 14  1  0
 15 16  1  0
 17 18  1  0
 19 20  1  0
 21 22  1  0
M  CHG  1   6  -1
M  END
>  <PDB_ID>  (728) 
pdb2qdf

>  <RESIDUE_NAME>  (728) 
ASP   PHE

>  <FRAG_NAME>  (728) 
ACET   MBZ

>  <FRAG_ATOM_NUM>  (728) 
fragi: 7  fragj: 15

>  <atom.prop.CHAIN_ID>  (728) 
A A A A A A A Z Z Z Z Z Z Z Z Z Z Z Z Z Z Z

>  <atom.prop.IS_HEAVY_ATOM>  (728) 
1 0 0 0 1 1 1 1 0 0 0 1 1 0 1 0 1 0 1 0 1 0

>  <DIFUSE_FUNC_ATOM>  (728) 
atom 6   atom 7   

>  <FINAL_SINGLE_POINT_ENERGY>  (728) 
0

>  <NONCOV_INTER_ENERGY_QM>  (728) 
0

>  <FF_Energy>  (728) 
1.15

>  <QM_Energy>  (728) 
-6.71

>  <source>  (728) 
ACET_MBZ_00

>  <Index>  (728) 
25662

$$$$
ACET-pdb1mhm-A-GLU-253:MBZ-pdb1mhm-A-PHE-256
     RDKit          3D

 22 21  0  0  0  0  0  0  0  0999 V2000
   -3.3327    3.0624   -2.0735 C   0  0  0  0  0  0  0  0  0  0  0  0
   -3.1663    2.7267   -1.1711 H   0  0  0  0  0  0  0  0  0  0  0  0
   -3.9454    2.5022   -2.5880 H   0  0  0  0  0  0  0  0  0  0  0  0
   -3.7491    4.0673   -2.0029 H   0  0  0  0  0  0  0  0  0  0  0  0
   -1.9957    3.0660   -2.8101 C   0  0  0  0  0  0  0  0  0  0  0  0
   -1.3596    1.9935   -2.9068 O   0  0  0  0  0  1  0  0  0  0  0  0
   -1.5808    4.1491   -3.2926 O   0  0  0  0  0  0  0  0  0  0  0  0
   -0.0016    2.9066    0.0750 C   0  0  0  0  0  0  0  0  0  0  0  0
   -0.7185    3.2419   -0.5138 H   0  0  0  0  0  0  0  0  0  0  0  0
    0.8862    3.2290   -0.2118 H   0  0  0  0  0  0  0  0  0  0  0  0
   -0.1875    3.2880    1.0791 H   0  0  0  0  0  0  0  0  0  0  0  0
    0.0006    1.4078    0.0012 C   0  0  0  0  0  0  0  0  0  0  0  0
   -1.1983    0.6965   -0.0015 C   0  0  0  0  0  0  0  0  0  0  0  0
   -2.0655    1.1850   -0.0059 H   0  0  0  0  0  0  0  0  0  0  0  0
   -1.2044   -0.7008   -0.0000 C   0  0  0  0  0  0  0  0  0  0  0  0
   -2.0802   -1.1911    0.0015 H   0  0  0  0  0  0  0  0  0  0  0  0
   -0.0004   -1.4001    0.0012 C   0  0  0  0  0  0  0  0  0  0  0  0
   -0.0041   -2.3974    0.0025 H   0  0  0  0  0  0  0  0  0  0  0  0
    1.2044   -0.7010    0.0000 C   0  0  0  0  0  0  0  0  0  0  0  0
    2.0846   -1.1951    0.0012 H   0  0  0  0  0  0  0  0  0  0  0  0
    1.1982    0.6976   -0.0009 C   0  0  0  0  0  0  0  0  0  0  0  0
    2.0670    1.1913   -0.0035 H   0  0  0  0  0  0  0  0  0  0  0  0
  1  5  1  0
  5  6  1  0
  5  7  2  0
  1  2  1  0
  1  3  1  0
  1  4  1  0
  8 12  1  0
 12 13  2  0
 13 15  1  0
 15 17  2  0
 17 19  1  0
 19 21  2  0
 21 12  1  0
  8  9  1  0
  8 10  1  0
  8 11  1  0
 13 14  1  0
 15 16  1  0
 17 18  1  0
 19 20  1  0
 21 22  1  0
M  CHG  1   6  -1
M  END
>  <PDB_ID>  (729) 
pdb1mhm

>  <RESIDUE_NAME>  (729) 
GLU   PHE

>  <FRAG_NAME>  (729) 
ACET   MBZ

>  <FRAG_ATOM_NUM>  (729) 
fragi: 7  fragj: 15

>  <atom.prop.CHAIN_ID>  (729) 
A A A A A A A Z Z Z Z Z Z Z Z Z Z Z Z Z Z Z

>  <atom.prop.IS_HEAVY_ATOM>  (729) 
1 0 0 0 1 1 1 1 0 0 0 1 1 0 1 0 1 0 1 0 1 0

>  <DIFUSE_FUNC_ATOM>  (729) 
atom 6   atom 7   

>  <FINAL_SINGLE_POINT_ENERGY>  (729) 
0

>  <NONCOV_INTER_ENERGY_QM>  (729) 
0

>  <FF_Energy>  (729) 
2.15

>  <QM_Energy>  (729) 
-3.24

>  <source>  (729) 
ACET_MBZ_00

>  <Index>  (729) 
25678

$$$$
ACET-pdb1mji-A-ASP-166:MBZ-pdb1mji-A-PHE-125
     RDKit          3D

 22 21  0  0  0  0  0  0  0  0999 V2000
    1.1138    3.1757   -3.6424 C   0  0  0  0  0  0  0  0  0  0  0  0
    0.6449    3.5150   -4.4518 H   0  0  0  0  0  0  0  0  0  0  0  0
    0.4864    2.6524   -3.0749 H   0  0  0  0  0  0  0  0  0  0  0  0
    1.9154    2.5120   -3.9666 H   0  0  0  0  0  0  0  0  0  0  0  0
    1.6279    4.3416   -2.8529 C   0  0  0  0  0  0  0  0  0  0  0  0
    2.3843    4.1219   -1.8812 O   0  0  0  0  0  1  0  0  0  0  0  0
    1.2687    5.4821   -3.2021 O   0  0  0  0  0  0  0  0  0  0  0  0
    0.0068    2.9059    0.0271 C   0  0  0  0  0  0  0  0  0  0  0  0
   -0.7964    3.2269   -0.4509 H   0  0  0  0  0  0  0  0  0  0  0  0
    0.8361    3.2173   -0.4108 H   0  0  0  0  0  0  0  0  0  0  0  0
   -0.0154    3.3260    1.0327 H   0  0  0  0  0  0  0  0  0  0  0  0
   -0.0016    1.4068   -0.0000 C   0  0  0  0  0  0  0  0  0  0  0  0
   -1.1923    0.7029    0.0002 C   0  0  0  0  0  0  0  0  0  0  0  0
   -2.0633    1.1831   -0.0007 H   0  0  0  0  0  0  0  0  0  0  0  0
   -1.1972   -0.7036    0.0000 C   0  0  0  0  0  0  0  0  0  0  0  0
   -2.0752   -1.1893    0.0017 H   0  0  0  0  0  0  0  0  0  0  0  0
    0.0044   -1.4011   -0.0003 C   0  0  0  0  0  0  0  0  0  0  0  0
   -0.0004   -2.3982   -0.0010 H   0  0  0  0  0  0  0  0  0  0  0  0
    1.1972   -0.7019    0.0000 C   0  0  0  0  0  0  0  0  0  0  0  0
    2.0841   -1.1914    0.0020 H   0  0  0  0  0  0  0  0  0  0  0  0
    1.1895    0.6968    0.0000 C   0  0  0  0  0  0  0  0  0  0  0  0
    2.0622    1.1886   -0.0011 H   0  0  0  0  0  0  0  0  0  0  0  0
  1  5  1  0
  5  6  1  0
  5  7  2  0
  1  2  1  0
  1  3  1  0
  1  4  1  0
  8 12  1  0
 12 13  2  0
 13 15  1  0
 15 17  2  0
 17 19  1  0
 19 21  2  0
 21 12  1  0
  8  9  1  0
  8 10  1  0
  8 11  1  0
 13 14  1  0
 15 16  1  0
 17 18  1  0
 19 20  1  0
 21 22  1  0
M  CHG  1   6  -1
M  END
>  <PDB_ID>  (730) 
pdb1mji

>  <RESIDUE_NAME>  (730) 
ASP   PHE

>  <FRAG_NAME>  (730) 
ACET   MBZ

>  <FRAG_ATOM_NUM>  (730) 
fragi: 7  fragj: 15

>  <atom.prop.CHAIN_ID>  (730) 
A A A A A A A Z Z Z Z Z Z Z Z Z Z Z Z Z Z Z

>  <atom.prop.IS_HEAVY_ATOM>  (730) 
1 0 0 0 1 1 1 1 0 0 0 1 1 0 1 0 1 0 1 0 1 0

>  <DIFUSE_FUNC_ATOM>  (730) 
atom 6   atom 7   

>  <FINAL_SINGLE_POINT_ENERGY>  (730) 
0

>  <NONCOV_INTER_ENERGY_QM>  (730) 
0

>  <FF_Energy>  (730) 
-1.1

>  <QM_Energy>  (730) 
-6.31

>  <source>  (730) 
ACET_MBZ_00

>  <Index>  (730) 
25763

$$$$
ACET-pdb1mji-B-ASP-166:MBZ-pdb1mji-B-PHE-125
     RDKit          3D

 22 21  0  0  0  0  0  0  0  0999 V2000
    1.3673    3.0522   -3.5327 C   0  0  0  0  0  0  0  0  0  0  0  0
    1.0930    3.4914   -4.3792 H   0  0  0  0  0  0  0  0  0  0  0  0
    0.6301    2.4955   -3.1723 H   0  0  0  0  0  0  0  0  0  0  0  0
    2.2127    2.3987   -3.7484 H   0  0  0  0  0  0  0  0  0  0  0  0
    1.6987    4.1419   -2.5065 C   0  0  0  0  0  0  0  0  0  0  0  0
    0.8086    4.9761   -2.2220 O   0  0  0  0  0  1  0  0  0  0  0  0
    2.8352    4.1647   -1.9801 O   0  0  0  0  0  0  0  0  0  0  0  0
    0.0038    2.9104    0.0273 C   0  0  0  0  0  0  0  0  0  0  0  0
   -0.7946    3.2253   -0.4599 H   0  0  0  0  0  0  0  0  0  0  0  0
    0.8367    3.2191   -0.4028 H   0  0  0  0  0  0  0  0  0  0  0  0
   -0.0294    3.3301    1.0327 H   0  0  0  0  0  0  0  0  0  0  0  0
   -0.0006    1.4013   -0.0002 C   0  0  0  0  0  0  0  0  0  0  0  0
   -1.1996    0.6913    0.0008 C   0  0  0  0  0  0  0  0  0  0  0  0
   -2.0662    1.1826    0.0008 H   0  0  0  0  0  0  0  0  0  0  0  0
   -1.2055   -0.7001   -0.0000 C   0  0  0  0  0  0  0  0  0  0  0  0
   -2.0796   -1.1945   -0.0002 H   0  0  0  0  0  0  0  0  0  0  0  0
    0.0003   -1.3931    0.0014 C   0  0  0  0  0  0  0  0  0  0  0  0
    0.0008   -2.3918    0.0032 H   0  0  0  0  0  0  0  0  0  0  0  0
    1.2055   -0.6922    0.0000 C   0  0  0  0  0  0  0  0  0  0  0  0
    2.0843   -1.1940    0.0020 H   0  0  0  0  0  0  0  0  0  0  0  0
    1.1999    0.6927   -0.0020 C   0  0  0  0  0  0  0  0  0  0  0  0
    2.0656    1.1943   -0.0056 H   0  0  0  0  0  0  0  0  0  0  0  0
  1  5  1  0
  5  6  1  0
  5  7  2  0
  1  2  1  0
  1  3  1  0
  1  4  1  0
  8 12  1  0
 12 13  2  0
 13 15  1  0
 15 17  2  0
 17 19  1  0
 19 21  2  0
 21 12  1  0
  8  9  1  0
  8 10  1  0
  8 11  1  0
 13 14  1  0
 15 16  1  0
 17 18  1  0
 19 20  1  0
 21 22  1  0
M  CHG  1   6  -1
M  END
>  <PDB_ID>  (731) 
pdb1mji

>  <RESIDUE_NAME>  (731) 
ASP   PHE

>  <FRAG_NAME>  (731) 
ACET   MBZ

>  <FRAG_ATOM_NUM>  (731) 
fragi: 7  fragj: 15

>  <atom.prop.CHAIN_ID>  (731) 
A A A A A A A Z Z Z Z Z Z Z Z Z Z Z Z Z Z Z

>  <atom.prop.IS_HEAVY_ATOM>  (731) 
1 0 0 0 1 1 1 1 0 0 0 1 1 0 1 0 1 0 1 0 1 0

>  <DIFUSE_FUNC_ATOM>  (731) 
atom 6   atom 7   

>  <FINAL_SINGLE_POINT_ENERGY>  (731) 
0

>  <NONCOV_INTER_ENERGY_QM>  (731) 
0

>  <FF_Energy>  (731) 
-0.31

>  <QM_Energy>  (731) 
-5.88

>  <source>  (731) 
ACET_MBZ_00

>  <Index>  (731) 
25765

$$$$
ACET-pdb1mjg-A-GLU-289:MBZ-pdb1mjg-A-PHE-256
     RDKit          3D

 22 21  0  0  0  0  0  0  0  0999 V2000
    0.6572    0.7248   -3.3245 C   0  0  0  0  0  0  0  0  0  0  0  0
   -0.0288    0.6403   -4.0237 H   0  0  0  0  0  0  0  0  0  0  0  0
    0.2811    0.6320   -2.4209 H   0  0  0  0  0  0  0  0  0  0  0  0
    1.3952   -0.0637   -3.4722 H   0  0  0  0  0  0  0  0  0  0  0  0
    1.2505    2.1217   -3.4313 C   0  0  0  0  0  0  0  0  0  0  0  0
    2.3622    2.3403   -2.8948 O   0  0  0  0  0  1  0  0  0  0  0  0
    0.5990    3.0096   -4.0351 O   0  0  0  0  0  0  0  0  0  0  0  0
    0.0050    2.9055    0.0397 C   0  0  0  0  0  0  0  0  0  0  0  0
   -0.9300    3.2146   -0.0086 H   0  0  0  0  0  0  0  0  0  0  0  0
    0.5373    3.2298   -0.7245 H   0  0  0  0  0  0  0  0  0  0  0  0
    0.4460    3.3084    0.9515 H   0  0  0  0  0  0  0  0  0  0  0  0
    0.0012    1.4046    0.0001 C   0  0  0  0  0  0  0  0  0  0  0  0
   -1.2015    0.6970   -0.0008 C   0  0  0  0  0  0  0  0  0  0  0  0
   -2.0654    1.1877   -0.0033 H   0  0  0  0  0  0  0  0  0  0  0  0
   -1.2091   -0.6991   -0.0000 C   0  0  0  0  0  0  0  0  0  0  0  0
   -2.0840   -1.1903    0.0008 H   0  0  0  0  0  0  0  0  0  0  0  0
   -0.0038   -1.3986    0.0017 C   0  0  0  0  0  0  0  0  0  0  0  0
   -0.0044   -2.3946    0.0037 H   0  0  0  0  0  0  0  0  0  0  0  0
    1.2091   -0.6976    0.0000 C   0  0  0  0  0  0  0  0  0  0  0  0
    2.0849   -1.1998    0.0009 H   0  0  0  0  0  0  0  0  0  0  0  0
    1.2040    0.6936   -0.0010 C   0  0  0  0  0  0  0  0  0  0  0  0
    2.0693    1.1928   -0.0037 H   0  0  0  0  0  0  0  0  0  0  0  0
  1  5  1  0
  5  6  1  0
  5  7  2  0
  1  2  1  0
  1  3  1  0
  1  4  1  0
  8 12  1  0
 12 13  2  0
 13 15  1  0
 15 17  2  0
 17 19  1  0
 19 21  2  0
 21 12  1  0
  8  9  1  0
  8 10  1  0
  8 11  1  0
 13 14  1  0
 15 16  1  0
 17 18  1  0
 19 20  1  0
 21 22  1  0
M  CHG  1   6  -1
M  END
>  <PDB_ID>  (732) 
pdb1mjg

>  <RESIDUE_NAME>  (732) 
GLU   PHE

>  <FRAG_NAME>  (732) 
ACET   MBZ

>  <FRAG_ATOM_NUM>  (732) 
fragi: 7  fragj: 15

>  <atom.prop.CHAIN_ID>  (732) 
A A A A A A A Z Z Z Z Z Z Z Z Z Z Z Z Z Z Z

>  <atom.prop.IS_HEAVY_ATOM>  (732) 
1 0 0 0 1 1 1 1 0 0 0 1 1 0 1 0 1 0 1 0 1 0

>  <DIFUSE_FUNC_ATOM>  (732) 
atom 6   atom 7   

>  <FINAL_SINGLE_POINT_ENERGY>  (732) 
0

>  <NONCOV_INTER_ENERGY_QM>  (732) 
0

>  <FF_Energy>  (732) 
0.27

>  <QM_Energy>  (732) 
-4.97

>  <source>  (732) 
ACET_MBZ_00

>  <Index>  (732) 
25778

$$$$
ACET-pdb1mjg-B-GLU-289:MBZ-pdb1mjg-B-PHE-256
     RDKit          3D

 22 21  0  0  0  0  0  0  0  0999 V2000
    0.7174    0.7245   -3.3231 C   0  0  0  0  0  0  0  0  0  0  0  0
    0.0618    0.6417   -4.0490 H   0  0  0  0  0  0  0  0  0  0  0  0
    0.3074    0.6327   -2.4356 H   0  0  0  0  0  0  0  0  0  0  0  0
    1.4631   -0.0617   -3.4416 H   0  0  0  0  0  0  0  0  0  0  0  0
    1.3163    2.1237   -3.4069 C   0  0  0  0  0  0  0  0  0  0  0  0
    2.4245    2.3297   -2.8608 O   0  0  0  0  0  1  0  0  0  0  0  0
    0.6783    3.0216   -4.0004 O   0  0  0  0  0  0  0  0  0  0  0  0
    0.0035    2.9192    0.0269 C   0  0  0  0  0  0  0  0  0  0  0  0
   -0.9305    3.2258   -0.0484 H   0  0  0  0  0  0  0  0  0  0  0  0
    0.5549    3.2342   -0.7273 H   0  0  0  0  0  0  0  0  0  0  0  0
    0.4207    3.3336    0.9447 H   0  0  0  0  0  0  0  0  0  0  0  0
    0.0002    1.4091    0.0004 C   0  0  0  0  0  0  0  0  0  0  0  0
   -1.2018    0.6981    0.0004 C   0  0  0  0  0  0  0  0  0  0  0  0
   -2.0673    1.1866   -0.0007 H   0  0  0  0  0  0  0  0  0  0  0  0
   -1.2096   -0.7034   -0.0000 C   0  0  0  0  0  0  0  0  0  0  0  0
   -2.0837   -1.1931    0.0014 H   0  0  0  0  0  0  0  0  0  0  0  0
   -0.0013   -1.4044   -0.0001 C   0  0  0  0  0  0  0  0  0  0  0  0
   -0.0013   -2.3977   -0.0007 H   0  0  0  0  0  0  0  0  0  0  0  0
    1.2096   -0.6973    0.0000 C   0  0  0  0  0  0  0  0  0  0  0  0
    2.0878   -1.1958    0.0023 H   0  0  0  0  0  0  0  0  0  0  0  0
    1.2029    0.6979   -0.0007 C   0  0  0  0  0  0  0  0  0  0  0  0
    2.0692    1.1958   -0.0027 H   0  0  0  0  0  0  0  0  0  0  0  0
  1  5  1  0
  5  6  1  0
  5  7  2  0
  1  2  1  0
  1  3  1  0
  1  4  1  0
  8 12  1  0
 12 13  2  0
 13 15  1  0
 15 17  2  0
 17 19  1  0
 19 21  2  0
 21 12  1  0
  8  9  1  0
  8 10  1  0
  8 11  1  0
 13 14  1  0
 15 16  1  0
 17 18  1  0
 19 20  1  0
 21 22  1  0
M  CHG  1   6  -1
M  END
>  <PDB_ID>  (733) 
pdb1mjg

>  <RESIDUE_NAME>  (733) 
GLU   PHE

>  <FRAG_NAME>  (733) 
ACET   MBZ

>  <FRAG_ATOM_NUM>  (733) 
fragi: 7  fragj: 15

>  <atom.prop.CHAIN_ID>  (733) 
A A A A A A A Z Z Z Z Z Z Z Z Z Z Z Z Z Z Z

>  <atom.prop.IS_HEAVY_ATOM>  (733) 
1 0 0 0 1 1 1 1 0 0 0 1 1 0 1 0 1 0 1 0 1 0

>  <DIFUSE_FUNC_ATOM>  (733) 
atom 6   atom 7   

>  <FINAL_SINGLE_POINT_ENERGY>  (733) 
0

>  <NONCOV_INTER_ENERGY_QM>  (733) 
0

>  <FF_Energy>  (733) 
0.13

>  <QM_Energy>  (733) 
-5.1

>  <source>  (733) 
ACET_MBZ_00

>  <Index>  (733) 
25787

$$$$
ACET-pdb1mjg-C-GLU-289:MBZ-pdb1mjg-C-PHE-256
     RDKit          3D

 22 21  0  0  0  0  0  0  0  0999 V2000
    0.7163    0.6788   -3.3147 C   0  0  0  0  0  0  0  0  0  0  0  0
    0.0485    0.5936   -4.0293 H   0  0  0  0  0  0  0  0  0  0  0  0
    0.3215    0.5976   -2.4190 H   0  0  0  0  0  0  0  0  0  0  0  0
    1.4527   -0.1152   -3.4385 H   0  0  0  0  0  0  0  0  0  0  0  0
    1.3254    2.0735   -3.4212 C   0  0  0  0  0  0  0  0  0  0  0  0
    2.4320    2.2814   -2.8829 O   0  0  0  0  0  1  0  0  0  0  0  0
    0.6974    2.9658   -4.0260 O   0  0  0  0  0  0  0  0  0  0  0  0
   -0.0012    2.9004    0.0314 C   0  0  0  0  0  0  0  0  0  0  0  0
   -0.9373    3.2109   -0.0121 H   0  0  0  0  0  0  0  0  0  0  0  0
    0.5256    3.2236   -0.7376 H   0  0  0  0  0  0  0  0  0  0  0  0
    0.4449    3.3079    0.9385 H   0  0  0  0  0  0  0  0  0  0  0  0
   -0.0033    1.4043   -0.0004 C   0  0  0  0  0  0  0  0  0  0  0  0
   -1.2033    0.6999   -0.0008 C   0  0  0  0  0  0  0  0  0  0  0  0
   -2.0677    1.1878   -0.0029 H   0  0  0  0  0  0  0  0  0  0  0  0
   -1.2060   -0.6951   -0.0000 C   0  0  0  0  0  0  0  0  0  0  0  0
   -2.0793   -1.1906    0.0009 H   0  0  0  0  0  0  0  0  0  0  0  0
    0.0049   -1.3973    0.0015 C   0  0  0  0  0  0  0  0  0  0  0  0
   -0.0059   -2.3953    0.0035 H   0  0  0  0  0  0  0  0  0  0  0  0
    1.2060   -0.7035   -0.0000 C   0  0  0  0  0  0  0  0  0  0  0  0
    2.0873   -1.1994    0.0005 H   0  0  0  0  0  0  0  0  0  0  0  0
    1.2018    0.6917   -0.0003 C   0  0  0  0  0  0  0  0  0  0  0  0
    2.0668    1.1891   -0.0016 H   0  0  0  0  0  0  0  0  0  0  0  0
  1  5  1  0
  5  6  1  0
  5  7  2  0
  1  2  1  0
  1  3  1  0
  1  4  1  0
  8 12  1  0
 12 13  2  0
 13 15  1  0
 15 17  2  0
 17 19  1  0
 19 21  2  0
 21 12  1  0
  8  9  1  0
  8 10  1  0
  8 11  1  0
 13 14  1  0
 15 16  1  0
 17 18  1  0
 19 20  1  0
 21 22  1  0
M  CHG  1   6  -1
M  END
>  <PDB_ID>  (734) 
pdb1mjg

>  <RESIDUE_NAME>  (734) 
GLU   PHE

>  <FRAG_NAME>  (734) 
ACET   MBZ

>  <FRAG_ATOM_NUM>  (734) 
fragi: 7  fragj: 15

>  <atom.prop.CHAIN_ID>  (734) 
A A A A A A A Z Z Z Z Z Z Z Z Z Z Z Z Z Z Z

>  <atom.prop.IS_HEAVY_ATOM>  (734) 
1 0 0 0 1 1 1 1 0 0 0 1 1 0 1 0 1 0 1 0 1 0

>  <DIFUSE_FUNC_ATOM>  (734) 
atom 6   atom 7   

>  <FINAL_SINGLE_POINT_ENERGY>  (734) 
0

>  <NONCOV_INTER_ENERGY_QM>  (734) 
0

>  <FF_Energy>  (734) 
0.28

>  <QM_Energy>  (734) 
-4.92

>  <source>  (734) 
ACET_MBZ_00

>  <Index>  (734) 
25795

$$$$
ACET-pdb1mjg-D-GLU-289:MBZ-pdb1mjg-D-PHE-256
     RDKit          3D

 22 21  0  0  0  0  0  0  0  0999 V2000
    0.7059    0.7200   -3.3204 C   0  0  0  0  0  0  0  0  0  0  0  0
    0.0330    0.6263   -4.0308 H   0  0  0  0  0  0  0  0  0  0  0  0
    0.3140    0.6374   -2.4224 H   0  0  0  0  0  0  0  0  0  0  0  0
    1.4472   -0.0691   -3.4455 H   0  0  0  0  0  0  0  0  0  0  0  0
    1.2989    2.1173   -3.4329 C   0  0  0  0  0  0  0  0  0  0  0  0
    2.4046    2.3363   -2.8977 O   0  0  0  0  0  1  0  0  0  0  0  0
    0.6556    3.0016   -4.0375 O   0  0  0  0  0  0  0  0  0  0  0  0
    0.0092    2.9072    0.0352 C   0  0  0  0  0  0  0  0  0  0  0  0
   -0.9237    3.2198   -0.0335 H   0  0  0  0  0  0  0  0  0  0  0  0
    0.5578    3.2282   -0.7199 H   0  0  0  0  0  0  0  0  0  0  0  0
    0.4323    3.3163    0.9527 H   0  0  0  0  0  0  0  0  0  0  0  0
    0.0016    1.4051    0.0011 C   0  0  0  0  0  0  0  0  0  0  0  0
   -1.2010    0.6961    0.0001 C   0  0  0  0  0  0  0  0  0  0  0  0
   -2.0650    1.1867   -0.0021 H   0  0  0  0  0  0  0  0  0  0  0  0
   -1.2069   -0.6994    0.0000 C   0  0  0  0  0  0  0  0  0  0  0  0
   -2.0810   -1.1926    0.0019 H   0  0  0  0  0  0  0  0  0  0  0  0
    0.0007   -1.3994   -0.0001 C   0  0  0  0  0  0  0  0  0  0  0  0
   -0.0031   -2.3951   -0.0010 H   0  0  0  0  0  0  0  0  0  0  0  0
    1.2069   -0.6983   -0.0000 C   0  0  0  0  0  0  0  0  0  0  0  0
    2.0859   -1.1941    0.0025 H   0  0  0  0  0  0  0  0  0  0  0  0
    1.1986    0.6959   -0.0011 C   0  0  0  0  0  0  0  0  0  0  0  0
    2.0674    1.1919   -0.0045 H   0  0  0  0  0  0  0  0  0  0  0  0
  1  5  1  0
  5  6  1  0
  5  7  2  0
  1  2  1  0
  1  3  1  0
  1  4  1  0
  8 12  1  0
 12 13  2  0
 13 15  1  0
 15 17  2  0
 17 19  1  0
 19 21  2  0
 21 12  1  0
  8  9  1  0
  8 10  1  0
  8 11  1  0
 13 14  1  0
 15 16  1  0
 17 18  1  0
 19 20  1  0
 21 22  1  0
M  CHG  1   6  -1
M  END
>  <PDB_ID>  (735) 
pdb1mjg

>  <RESIDUE_NAME>  (735) 
GLU   PHE

>  <FRAG_NAME>  (735) 
ACET   MBZ

>  <FRAG_ATOM_NUM>  (735) 
fragi: 7  fragj: 15

>  <atom.prop.CHAIN_ID>  (735) 
A A A A A A A Z Z Z Z Z Z Z Z Z Z Z Z Z Z Z

>  <atom.prop.IS_HEAVY_ATOM>  (735) 
1 0 0 0 1 1 1 1 0 0 0 1 1 0 1 0 1 0 1 0 1 0

>  <DIFUSE_FUNC_ATOM>  (735) 
atom 6   atom 7   

>  <FINAL_SINGLE_POINT_ENERGY>  (735) 
0

>  <NONCOV_INTER_ENERGY_QM>  (735) 
0

>  <FF_Energy>  (735) 
0.27

>  <QM_Energy>  (735) 
-4.88

>  <source>  (735) 
ACET_MBZ_00

>  <Index>  (735) 
25800

$$$$
ACET-pdb1mkf-B-GLU-133:MBZ-pdb1mkf-A-PHE-379
     RDKit          3D

 22 21  0  0  0  0  0  0  0  0999 V2000
    4.5558    1.2721   -0.4732 C   0  0  0  0  0  0  0  0  0  0  0  0
    3.8105    1.3721    0.1553 H   0  0  0  0  0  0  0  0  0  0  0  0
    4.5605    1.9609   -1.1692 H   0  0  0  0  0  0  0  0  0  0  0  0
    5.4888    1.3399    0.0862 H   0  0  0  0  0  0  0  0  0  0  0  0
    4.3980   -0.0747   -1.1619 C   0  0  0  0  0  0  0  0  0  0  0  0
    4.3722   -1.1060   -0.4502 O   0  0  0  0  0  1  0  0  0  0  0  0
    4.3051   -0.1063   -2.4090 O   0  0  0  0  0  0  0  0  0  0  0  0
   -0.0005    2.8953   -0.0634 C   0  0  0  0  0  0  0  0  0  0  0  0
    0.9153    3.2132    0.1255 H   0  0  0  0  0  0  0  0  0  0  0  0
   -0.6455    3.2313    0.6055 H   0  0  0  0  0  0  0  0  0  0  0  0
   -0.2949    3.2887   -1.0364 H   0  0  0  0  0  0  0  0  0  0  0  0
    0.0012    1.4003   -0.0007 C   0  0  0  0  0  0  0  0  0  0  0  0
   -1.1976    0.6910    0.0010 C   0  0  0  0  0  0  0  0  0  0  0  0
   -2.0626    1.1844    0.0018 H   0  0  0  0  0  0  0  0  0  0  0  0
   -1.2031   -0.6958    0.0000 C   0  0  0  0  0  0  0  0  0  0  0  0
   -2.0798   -1.1904    0.0024 H   0  0  0  0  0  0  0  0  0  0  0  0
   -0.0025   -1.3929   -0.0018 C   0  0  0  0  0  0  0  0  0  0  0  0
   -0.0057   -2.3914   -0.0047 H   0  0  0  0  0  0  0  0  0  0  0  0
    1.2031   -0.6971    0.0000 C   0  0  0  0  0  0  0  0  0  0  0  0
    2.0817   -1.1962    0.0017 H   0  0  0  0  0  0  0  0  0  0  0  0
    1.1989    0.6944    0.0014 C   0  0  0  0  0  0  0  0  0  0  0  0
    2.0664    1.1901    0.0030 H   0  0  0  0  0  0  0  0  0  0  0  0
  1  5  1  0
  5  6  1  0
  5  7  2  0
  1  2  1  0
  1  3  1  0
  1  4  1  0
  8 12  1  0
 12 13  2  0
 13 15  1  0
 15 17  2  0
 17 19  1  0
 19 21  2  0
 21 12  1  0
  8  9  1  0
  8 10  1  0
  8 11  1  0
 13 14  1  0
 15 16  1  0
 17 18  1  0
 19 20  1  0
 21 22  1  0
M  CHG  1   6  -1
M  END
>  <PDB_ID>  (736) 
pdb1mkf

>  <RESIDUE_NAME>  (736) 
GLU   PHE

>  <FRAG_NAME>  (736) 
ACET   MBZ

>  <FRAG_ATOM_NUM>  (736) 
fragi: 7  fragj: 15

>  <atom.prop.CHAIN_ID>  (736) 
A A A A A A A Z Z Z Z Z Z Z Z Z Z Z Z Z Z Z

>  <atom.prop.IS_HEAVY_ATOM>  (736) 
1 0 0 0 1 1 1 1 0 0 0 1 1 0 1 0 1 0 1 0 1 0

>  <DIFUSE_FUNC_ATOM>  (736) 
atom 6   atom 7   

>  <FINAL_SINGLE_POINT_ENERGY>  (736) 
0

>  <NONCOV_INTER_ENERGY_QM>  (736) 
0

>  <FF_Energy>  (736) 
3.56

>  <QM_Energy>  (736) 
-4.19

>  <source>  (736) 
ACET_MBZ_00

>  <Index>  (736) 
25830

$$$$
ACET-pdb1mki-A-GLU-55:MBZ-pdb1mki-A-PHE-289
     RDKit          3D

 22 21  0  0  0  0  0  0  0  0999 V2000
    4.4968    0.7063    0.2730 C   0  0  0  0  0  0  0  0  0  0  0  0
    3.8438    1.2055   -0.2642 H   0  0  0  0  0  0  0  0  0  0  0  0
    4.5667   -0.2344   -0.0014 H   0  0  0  0  0  0  0  0  0  0  0  0
    5.4732    1.1761    0.1549 H   0  0  0  0  0  0  0  0  0  0  0  0
    4.0146    0.7260    1.7112 C   0  0  0  0  0  0  0  0  0  0  0  0
    3.6858    1.8208    2.2179 O   0  0  0  0  0  1  0  0  0  0  0  0
    3.9722   -0.3548    2.3360 O   0  0  0  0  0  0  0  0  0  0  0  0
   -0.0037    2.9069    0.0507 C   0  0  0  0  0  0  0  0  0  0  0  0
   -0.9047    3.2194   -0.2011 H   0  0  0  0  0  0  0  0  0  0  0  0
    0.6848    3.2342   -0.5748 H   0  0  0  0  0  0  0  0  0  0  0  0
    0.2247    3.3083    1.0381 H   0  0  0  0  0  0  0  0  0  0  0  0
   -0.0007    1.4016    0.0006 C   0  0  0  0  0  0  0  0  0  0  0  0
   -1.1895    0.6859    0.0004 C   0  0  0  0  0  0  0  0  0  0  0  0
   -2.0615    1.1774   -0.0007 H   0  0  0  0  0  0  0  0  0  0  0  0
   -1.1985   -0.7014    0.0000 C   0  0  0  0  0  0  0  0  0  0  0  0
   -2.0762   -1.1924    0.0005 H   0  0  0  0  0  0  0  0  0  0  0  0
   -0.0023   -1.3930    0.0007 C   0  0  0  0  0  0  0  0  0  0  0  0
   -0.0007   -2.3916    0.0013 H   0  0  0  0  0  0  0  0  0  0  0  0
    1.1985   -0.6934    0.0000 C   0  0  0  0  0  0  0  0  0  0  0  0
    2.0804   -1.1891    0.0019 H   0  0  0  0  0  0  0  0  0  0  0  0
    1.1925    0.7002   -0.0017 C   0  0  0  0  0  0  0  0  0  0  0  0
    2.0612    1.1943   -0.0055 H   0  0  0  0  0  0  0  0  0  0  0  0
  1  5  1  0
  5  6  1  0
  5  7  2  0
  1  2  1  0
  1  3  1  0
  1  4  1  0
  8 12  1  0
 12 13  2  0
 13 15  1  0
 15 17  2  0
 17 19  1  0
 19 21  2  0
 21 12  1  0
  8  9  1  0
  8 10  1  0
  8 11  1  0
 13 14  1  0
 15 16  1  0
 17 18  1  0
 19 20  1  0
 21 22  1  0
M  CHG  1   6  -1
M  END
>  <PDB_ID>  (737) 
pdb1mki

>  <RESIDUE_NAME>  (737) 
GLU   PHE

>  <FRAG_NAME>  (737) 
ACET   MBZ

>  <FRAG_ATOM_NUM>  (737) 
fragi: 7  fragj: 15

>  <atom.prop.CHAIN_ID>  (737) 
A A A A A A A Z Z Z Z Z Z Z Z Z Z Z Z Z Z Z

>  <atom.prop.IS_HEAVY_ATOM>  (737) 
1 0 0 0 1 1 1 1 0 0 0 1 1 0 1 0 1 0 1 0 1 0

>  <DIFUSE_FUNC_ATOM>  (737) 
atom 6   atom 7   

>  <FINAL_SINGLE_POINT_ENERGY>  (737) 
0

>  <NONCOV_INTER_ENERGY_QM>  (737) 
0

>  <FF_Energy>  (737) 
3.85

>  <QM_Energy>  (737) 
-3.06

>  <source>  (737) 
ACET_MBZ_00

>  <Index>  (737) 
25856

$$$$
ACET-pdb1mki-B-GLU-55:MBZ-pdb1mki-B-PHE-289
     RDKit          3D

 22 21  0  0  0  0  0  0  0  0999 V2000
    4.4989    0.6988   -1.0910 C   0  0  0  0  0  0  0  0  0  0  0  0
    3.7144    1.1953   -1.4132 H   0  0  0  0  0  0  0  0  0  0  0  0
    4.5056   -0.2326   -1.4022 H   0  0  0  0  0  0  0  0  0  0  0  0
    5.3960    1.1940   -1.4624 H   0  0  0  0  0  0  0  0  0  0  0  0
    4.4351    0.6745    0.4222 C   0  0  0  0  0  0  0  0  0  0  0  0
    4.2732    1.7565    1.0245 O   0  0  0  0  0  1  0  0  0  0  0  0
    4.5483   -0.4261    1.0058 O   0  0  0  0  0  0  0  0  0  0  0  0
   -0.0049    2.9163    0.0347 C   0  0  0  0  0  0  0  0  0  0  0  0
   -0.9414    3.2158    0.1075 H   0  0  0  0  0  0  0  0  0  0  0  0
    0.4198    3.2395   -0.7943 H   0  0  0  0  0  0  0  0  0  0  0  0
    0.5468    3.3327    0.8775 H   0  0  0  0  0  0  0  0  0  0  0  0
   -0.0017    1.4054    0.0006 C   0  0  0  0  0  0  0  0  0  0  0  0
   -1.1905    0.6882   -0.0010 C   0  0  0  0  0  0  0  0  0  0  0  0
   -2.0633    1.1753   -0.0043 H   0  0  0  0  0  0  0  0  0  0  0  0
   -1.1981   -0.7066   -0.0000 C   0  0  0  0  0  0  0  0  0  0  0  0
   -2.0760   -1.1958    0.0015 H   0  0  0  0  0  0  0  0  0  0  0  0
   -0.0005   -1.3952    0.0009 C   0  0  0  0  0  0  0  0  0  0  0  0
    0.0030   -2.3945    0.0020 H   0  0  0  0  0  0  0  0  0  0  0  0
    1.1981   -0.6930    0.0000 C   0  0  0  0  0  0  0  0  0  0  0  0
    2.0820   -1.1876    0.0008 H   0  0  0  0  0  0  0  0  0  0  0  0
    1.1928    0.7012   -0.0005 C   0  0  0  0  0  0  0  0  0  0  0  0
    2.0613    1.1951   -0.0026 H   0  0  0  0  0  0  0  0  0  0  0  0
  1  5  1  0
  5  6  1  0
  5  7  2  0
  1  2  1  0
  1  3  1  0
  1  4  1  0
  8 12  1  0
 12 13  2  0
 13 15  1  0
 15 17  2  0
 17 19  1  0
 19 21  2  0
 21 12  1  0
  8  9  1  0
  8 10  1  0
  8 11  1  0
 13 14  1  0
 15 16  1  0
 17 18  1  0
 19 20  1  0
 21 22  1  0
M  CHG  1   6  -1
M  END
>  <PDB_ID>  (738) 
pdb1mki

>  <RESIDUE_NAME>  (738) 
GLU   PHE

>  <FRAG_NAME>  (738) 
ACET   MBZ

>  <FRAG_ATOM_NUM>  (738) 
fragi: 7  fragj: 15

>  <atom.prop.CHAIN_ID>  (738) 
A A A A A A A Z Z Z Z Z Z Z Z Z Z Z Z Z Z Z

>  <atom.prop.IS_HEAVY_ATOM>  (738) 
1 0 0 0 1 1 1 1 0 0 0 1 1 0 1 0 1 0 1 0 1 0

>  <DIFUSE_FUNC_ATOM>  (738) 
atom 6   atom 7   

>  <FINAL_SINGLE_POINT_ENERGY>  (738) 
0

>  <NONCOV_INTER_ENERGY_QM>  (738) 
0

>  <FF_Energy>  (738) 
-0.7

>  <QM_Energy>  (738) 
-6.24

>  <source>  (738) 
ACET_MBZ_00

>  <Index>  (738) 
25859

$$$$
ACET-pdb1mkm-B-GLU-66:MBZ-pdb1mkm-B-PHE-70
     RDKit          3D

 22 21  0  0  0  0  0  0  0  0999 V2000
   -4.5469   -0.4964    1.0794 C   0  0  0  0  0  0  0  0  0  0  0  0
   -3.8690    0.0872    0.6655 H   0  0  0  0  0  0  0  0  0  0  0  0
   -4.2526   -0.8312    1.9587 H   0  0  0  0  0  0  0  0  0  0  0  0
   -5.4616    0.0805    1.2163 H   0  0  0  0  0  0  0  0  0  0  0  0
   -4.7185   -1.7081    0.1692 C   0  0  0  0  0  0  0  0  0  0  0  0
   -5.8505   -1.9825   -0.2897 O   0  0  0  0  0  1  0  0  0  0  0  0
   -3.7033   -2.3849   -0.0883 O   0  0  0  0  0  0  0  0  0  0  0  0
    0.0034    2.9147   -0.0601 C   0  0  0  0  0  0  0  0  0  0  0  0
   -0.9189    3.2161   -0.2588 H   0  0  0  0  0  0  0  0  0  0  0  0
    0.6297    3.1932   -0.7748 H   0  0  0  0  0  0  0  0  0  0  0  0
    0.3182    3.4010    0.8633 H   0  0  0  0  0  0  0  0  0  0  0  0
    0.0010    1.4116   -0.0017 C   0  0  0  0  0  0  0  0  0  0  0  0
   -1.1958    0.7034    0.0021 C   0  0  0  0  0  0  0  0  0  0  0  0
   -2.0644    1.1882    0.0052 H   0  0  0  0  0  0  0  0  0  0  0  0
   -1.2050   -0.7022   -0.0000 C   0  0  0  0  0  0  0  0  0  0  0  0
   -2.0834   -1.1869    0.0008 H   0  0  0  0  0  0  0  0  0  0  0  0
   -0.0030   -1.4048   -0.0009 C   0  0  0  0  0  0  0  0  0  0  0  0
   -0.0073   -2.4001   -0.0025 H   0  0  0  0  0  0  0  0  0  0  0  0
    1.2050   -0.7060    0.0000 C   0  0  0  0  0  0  0  0  0  0  0  0
    2.0838   -1.1984    0.0015 H   0  0  0  0  0  0  0  0  0  0  0  0
    1.1978    0.6980    0.0004 C   0  0  0  0  0  0  0  0  0  0  0  0
    2.0681    1.1896    0.0012 H   0  0  0  0  0  0  0  0  0  0  0  0
  1  5  1  0
  5  6  1  0
  5  7  2  0
  1  2  1  0
  1  3  1  0
  1  4  1  0
  8 12  1  0
 12 13  2  0
 13 15  1  0
 15 17  2  0
 17 19  1  0
 19 21  2  0
 21 12  1  0
  8  9  1  0
  8 10  1  0
  8 11  1  0
 13 14  1  0
 15 16  1  0
 17 18  1  0
 19 20  1  0
 21 22  1  0
M  CHG  1   6  -1
M  END
>  <PDB_ID>  (739) 
pdb1mkm

>  <RESIDUE_NAME>  (739) 
GLU   PHE

>  <FRAG_NAME>  (739) 
ACET   MBZ

>  <FRAG_ATOM_NUM>  (739) 
fragi: 7  fragj: 15

>  <atom.prop.CHAIN_ID>  (739) 
A A A A A A A Z Z Z Z Z Z Z Z Z Z Z Z Z Z Z

>  <atom.prop.IS_HEAVY_ATOM>  (739) 
1 0 0 0 1 1 1 1 0 0 0 1 1 0 1 0 1 0 1 0 1 0

>  <DIFUSE_FUNC_ATOM>  (739) 
atom 6   atom 7   

>  <FINAL_SINGLE_POINT_ENERGY>  (739) 
0

>  <NONCOV_INTER_ENERGY_QM>  (739) 
0

>  <FF_Energy>  (739) 
4.79

>  <QM_Energy>  (739) 
-5.48

>  <source>  (739) 
ACET_MBZ_00

>  <Index>  (739) 
25869

$$$$
ACET-pdb1mkm-B-GLU-150:MBZ-pdb1mkm-B-PHE-104
     RDKit          3D

 22 21  0  0  0  0  0  0  0  0999 V2000
    2.3939   -4.9280   -0.3700 C   0  0  0  0  0  0  0  0  0  0  0  0
    2.8353   -4.0474   -0.3202 H   0  0  0  0  0  0  0  0  0  0  0  0
    3.0270   -5.6392   -0.6295 H   0  0  0  0  0  0  0  0  0  0  0  0
    2.0001   -5.1665    0.6180 H   0  0  0  0  0  0  0  0  0  0  0  0
    1.3297   -4.8488   -1.4360 C   0  0  0  0  0  0  0  0  0  0  0  0
    0.5763   -3.8514   -1.4543 O   0  0  0  0  0  1  0  0  0  0  0  0
    1.2502   -5.7872   -2.2541 O   0  0  0  0  0  0  0  0  0  0  0  0
    0.0049    2.9146   -0.0219 C   0  0  0  0  0  0  0  0  0  0  0  0
    0.1620    3.2058   -0.9537 H   0  0  0  0  0  0  0  0  0  0  0  0
    0.7262    3.2244    0.5789 H   0  0  0  0  0  0  0  0  0  0  0  0
   -0.9275    3.3665    0.3166 H   0  0  0  0  0  0  0  0  0  0  0  0
   -0.0007    1.4060   -0.0019 C   0  0  0  0  0  0  0  0  0  0  0  0
   -1.1994    0.6931   -0.0008 C   0  0  0  0  0  0  0  0  0  0  0  0
   -2.0663    1.1822   -0.0025 H   0  0  0  0  0  0  0  0  0  0  0  0
   -1.2043   -0.7009    0.0000 C   0  0  0  0  0  0  0  0  0  0  0  0
   -2.0788   -1.1949    0.0009 H   0  0  0  0  0  0  0  0  0  0  0  0
    0.0014   -1.3970    0.0019 C   0  0  0  0  0  0  0  0  0  0  0  0
   -0.0022   -2.3956    0.0045 H   0  0  0  0  0  0  0  0  0  0  0  0
    1.2043   -0.6985   -0.0000 C   0  0  0  0  0  0  0  0  0  0  0  0
    2.0856   -1.1935   -0.0004 H   0  0  0  0  0  0  0  0  0  0  0  0
    1.1987    0.6972    0.0008 C   0  0  0  0  0  0  0  0  0  0  0  0
    2.0659    1.1925    0.0022 H   0  0  0  0  0  0  0  0  0  0  0  0
  1  5  1  0
  5  6  1  0
  5  7  2  0
  1  2  1  0
  1  3  1  0
  1  4  1  0
  8 12  1  0
 12 13  2  0
 13 15  1  0
 15 17  2  0
 17 19  1  0
 19 21  2  0
 21 12  1  0
  8  9  1  0
  8 10  1  0
  8 11  1  0
 13 14  1  0
 15 16  1  0
 17 18  1  0
 19 20  1  0
 21 22  1  0
M  CHG  1   6  -1
M  END
>  <PDB_ID>  (740) 
pdb1mkm

>  <RESIDUE_NAME>  (740) 
GLU   PHE

>  <FRAG_NAME>  (740) 
ACET   MBZ

>  <FRAG_ATOM_NUM>  (740) 
fragi: 7  fragj: 15

>  <atom.prop.CHAIN_ID>  (740) 
A A A A A A A Z Z Z Z Z Z Z Z Z Z Z Z Z Z Z

>  <atom.prop.IS_HEAVY_ATOM>  (740) 
1 0 0 0 1 1 1 1 0 0 0 1 1 0 1 0 1 0 1 0 1 0

>  <DIFUSE_FUNC_ATOM>  (740) 
atom 6   atom 7   

>  <FINAL_SINGLE_POINT_ENERGY>  (740) 
0

>  <NONCOV_INTER_ENERGY_QM>  (740) 
0

>  <FF_Energy>  (740) 
1.55

>  <QM_Energy>  (740) 
-3.94

>  <source>  (740) 
ACET_MBZ_00

>  <Index>  (740) 
25870

$$$$
ACET-pdb1ml6-A-GLU-136:MBZ-pdb1ml6-A-PHE-177
     RDKit          3D

 22 21  0  0  0  0  0  0  0  0999 V2000
   -4.5063    2.7497    0.3917 C   0  0  0  0  0  0  0  0  0  0  0  0
   -4.3436    2.0765   -0.3035 H   0  0  0  0  0  0  0  0  0  0  0  0
   -5.4395    3.0550    0.4077 H   0  0  0  0  0  0  0  0  0  0  0  0
   -4.2937    2.2859    1.3549 H   0  0  0  0  0  0  0  0  0  0  0  0
   -3.6250    3.9613    0.0845 C   0  0  0  0  0  0  0  0  0  0  0  0
   -2.7467    4.2971    0.9107 O   0  0  0  0  0  1  0  0  0  0  0  0
   -3.8118    4.5763   -0.9996 O   0  0  0  0  0  0  0  0  0  0  0  0
   -0.0110    2.9022   -0.0669 C   0  0  0  0  0  0  0  0  0  0  0  0
    0.8755    3.2283    0.2201 H   0  0  0  0  0  0  0  0  0  0  0  0
   -0.7297    3.2346    0.5213 H   0  0  0  0  0  0  0  0  0  0  0  0
   -0.1979    3.2888   -1.0687 H   0  0  0  0  0  0  0  0  0  0  0  0
   -0.0039    1.4056   -0.0007 C   0  0  0  0  0  0  0  0  0  0  0  0
   -1.1947    0.6967    0.0013 C   0  0  0  0  0  0  0  0  0  0  0  0
   -2.0652    1.1823    0.0025 H   0  0  0  0  0  0  0  0  0  0  0  0
   -1.1988   -0.6991   -0.0000 C   0  0  0  0  0  0  0  0  0  0  0  0
   -2.0756   -1.1910    0.0023 H   0  0  0  0  0  0  0  0  0  0  0  0
    0.0033   -1.3981   -0.0023 C   0  0  0  0  0  0  0  0  0  0  0  0
   -0.0043   -2.3965   -0.0058 H   0  0  0  0  0  0  0  0  0  0  0  0
    1.1988   -0.7040    0.0000 C   0  0  0  0  0  0  0  0  0  0  0  0
    2.0840   -1.1937    0.0017 H   0  0  0  0  0  0  0  0  0  0  0  0
    1.1954    0.6989    0.0017 C   0  0  0  0  0  0  0  0  0  0  0  0
    2.0631    1.1895    0.0040 H   0  0  0  0  0  0  0  0  0  0  0  0
  1  5  1  0
  5  6  1  0
  5  7  2  0
  1  2  1  0
  1  3  1  0
  1  4  1  0
  8 12  1  0
 12 13  2  0
 13 15  1  0
 15 17  2  0
 17 19  1  0
 19 21  2  0
 21 12  1  0
  8  9  1  0
  8 10  1  0
  8 11  1  0
 13 14  1  0
 15 16  1  0
 17 18  1  0
 19 20  1  0
 21 22  1  0
M  CHG  1   6  -1
M  END
>  <PDB_ID>  (741) 
pdb1ml6

>  <RESIDUE_NAME>  (741) 
GLU   PHE

>  <FRAG_NAME>  (741) 
ACET   MBZ

>  <FRAG_ATOM_NUM>  (741) 
fragi: 7  fragj: 15

>  <atom.prop.CHAIN_ID>  (741) 
A A A A A A A Z Z Z Z Z Z Z Z Z Z Z Z Z Z Z

>  <atom.prop.IS_HEAVY_ATOM>  (741) 
1 0 0 0 1 1 1 1 0 0 0 1 1 0 1 0 1 0 1 0 1 0

>  <DIFUSE_FUNC_ATOM>  (741) 
atom 6   atom 7   

>  <FINAL_SINGLE_POINT_ENERGY>  (741) 
0

>  <NONCOV_INTER_ENERGY_QM>  (741) 
0

>  <FF_Energy>  (741) 
-1.49

>  <QM_Energy>  (741) 
-6.85

>  <source>  (741) 
ACET_MBZ_00

>  <Index>  (741) 
25898

$$$$
ACET-pdb2qh5-A-GLU-67:MBZ-pdb2qh5-A-PHE-28
     RDKit          3D

 22 21  0  0  0  0  0  0  0  0999 V2000
   -5.6365    3.1867    1.0297 C   0  0  0  0  0  0  0  0  0  0  0  0
   -6.1003    4.0336    0.8272 H   0  0  0  0  0  0  0  0  0  0  0  0
   -5.5199    3.0597    2.0017 H   0  0  0  0  0  0  0  0  0  0  0  0
   -6.2355    2.3629    0.6415 H   0  0  0  0  0  0  0  0  0  0  0  0
   -4.2621    3.2619    0.4132 C   0  0  0  0  0  0  0  0  0  0  0  0
   -3.3325    3.7005    1.1158 O   0  0  0  0  0  1  0  0  0  0  0  0
   -4.1060    2.8816   -0.7644 O   0  0  0  0  0  0  0  0  0  0  0  0
   -0.0043    2.8926   -0.0114 C   0  0  0  0  0  0  0  0  0  0  0  0
    0.9093    3.2047    0.1982 H   0  0  0  0  0  0  0  0  0  0  0  0
   -0.6561    3.2036    0.6626 H   0  0  0  0  0  0  0  0  0  0  0  0
   -0.2906    3.3172   -0.9735 H   0  0  0  0  0  0  0  0  0  0  0  0
    0.0002    1.3953   -0.0001 C   0  0  0  0  0  0  0  0  0  0  0  0
   -1.1986    0.6848   -0.0020 C   0  0  0  0  0  0  0  0  0  0  0  0
   -2.0641    1.1802   -0.0063 H   0  0  0  0  0  0  0  0  0  0  0  0
   -1.2043   -0.6976    0.0000 C   0  0  0  0  0  0  0  0  0  0  0  0
   -2.0777   -1.1953    0.0003 H   0  0  0  0  0  0  0  0  0  0  0  0
   -0.0004   -1.3893    0.0035 C   0  0  0  0  0  0  0  0  0  0  0  0
    0.0006   -2.3878    0.0075 H   0  0  0  0  0  0  0  0  0  0  0  0
    1.2043   -0.6891    0.0000 C   0  0  0  0  0  0  0  0  0  0  0  0
    2.0840   -1.1900    0.0002 H   0  0  0  0  0  0  0  0  0  0  0  0
    1.1988    0.6959   -0.0014 C   0  0  0  0  0  0  0  0  0  0  0  0
    2.0638    1.1964   -0.0045 H   0  0  0  0  0  0  0  0  0  0  0  0
  1  5  1  0
  5  6  1  0
  5  7  2  0
  1  2  1  0
  1  3  1  0
  1  4  1  0
  8 12  1  0
 12 13  2  0
 13 15  1  0
 15 17  2  0
 17 19  1  0
 19 21  2  0
 21 12  1  0
  8  9  1  0
  8 10  1  0
  8 11  1  0
 13 14  1  0
 15 16  1  0
 17 18  1  0
 19 20  1  0
 21 22  1  0
M  CHG  1   6  -1
M  END
>  <PDB_ID>  (742) 
pdb2qh5

>  <RESIDUE_NAME>  (742) 
GLU   PHE

>  <FRAG_NAME>  (742) 
ACET   MBZ

>  <FRAG_ATOM_NUM>  (742) 
fragi: 7  fragj: 15

>  <atom.prop.CHAIN_ID>  (742) 
A A A A A A A Z Z Z Z Z Z Z Z Z Z Z Z Z Z Z

>  <atom.prop.IS_HEAVY_ATOM>  (742) 
1 0 0 0 1 1 1 1 0 0 0 1 1 0 1 0 1 0 1 0 1 0

>  <DIFUSE_FUNC_ATOM>  (742) 
atom 6   atom 7   

>  <FINAL_SINGLE_POINT_ENERGY>  (742) 
0

>  <NONCOV_INTER_ENERGY_QM>  (742) 
0

>  <FF_Energy>  (742) 
-2.65

>  <QM_Energy>  (742) 
-8.25

>  <source>  (742) 
ACET_MBZ_00

>  <Index>  (742) 
25957

$$$$
ACET-pdb2qhd-B-ASP-42:MBZ-pdb2qhd-B-PHE-28
     RDKit          3D

 22 21  0  0  0  0  0  0  0  0999 V2000
   -5.1122    3.2994   -1.7004 C   0  0  0  0  0  0  0  0  0  0  0  0
   -6.0005    3.6838   -1.4674 H   0  0  0  0  0  0  0  0  0  0  0  0
   -5.2250    2.4670   -2.2312 H   0  0  0  0  0  0  0  0  0  0  0  0
   -4.5838    4.0246   -2.3191 H   0  0  0  0  0  0  0  0  0  0  0  0
   -4.3726    2.9712   -0.4271 C   0  0  0  0  0  0  0  0  0  0  0  0
   -3.4022    3.6834   -0.0893 O   0  0  0  0  0  1  0  0  0  0  0  0
   -4.7752    2.0021    0.2461 O   0  0  0  0  0  0  0  0  0  0  0  0
    0.0048    2.9131    0.0106 C   0  0  0  0  0  0  0  0  0  0  0  0
   -0.7297    3.2260   -0.5710 H   0  0  0  0  0  0  0  0  0  0  0  0
    0.8837    3.2200   -0.3209 H   0  0  0  0  0  0  0  0  0  0  0  0
   -0.1464    3.3458    0.9995 H   0  0  0  0  0  0  0  0  0  0  0  0
    0.0008    1.4086   -0.0007 C   0  0  0  0  0  0  0  0  0  0  0  0
   -1.1995    0.6988    0.0001 C   0  0  0  0  0  0  0  0  0  0  0  0
   -2.0659    1.1843   -0.0008 H   0  0  0  0  0  0  0  0  0  0  0  0
   -1.2033   -0.7036   -0.0000 C   0  0  0  0  0  0  0  0  0  0  0  0
   -2.0804   -1.1924    0.0019 H   0  0  0  0  0  0  0  0  0  0  0  0
   -0.0009   -1.3999   -0.0004 C   0  0  0  0  0  0  0  0  0  0  0  0
   -0.0029   -2.3976   -0.0012 H   0  0  0  0  0  0  0  0  0  0  0  0
    1.2033   -0.7007   -0.0000 C   0  0  0  0  0  0  0  0  0  0  0  0
    2.0841   -1.1967    0.0014 H   0  0  0  0  0  0  0  0  0  0  0  0
    1.1995    0.6968    0.0010 C   0  0  0  0  0  0  0  0  0  0  0  0
    2.0676    1.1901    0.0026 H   0  0  0  0  0  0  0  0  0  0  0  0
  1  5  1  0
  5  6  1  0
  5  7  2  0
  1  2  1  0
  1  3  1  0
  1  4  1  0
  8 12  1  0
 12 13  2  0
 13 15  1  0
 15 17  2  0
 17 19  1  0
 19 21  2  0
 21 12  1  0
  8  9  1  0
  8 10  1  0
  8 11  1  0
 13 14  1  0
 15 16  1  0
 17 18  1  0
 19 20  1  0
 21 22  1  0
M  CHG  1   6  -1
M  END
>  <PDB_ID>  (743) 
pdb2qhd

>  <RESIDUE_NAME>  (743) 
ASP   PHE

>  <FRAG_NAME>  (743) 
ACET   MBZ

>  <FRAG_ATOM_NUM>  (743) 
fragi: 7  fragj: 15

>  <atom.prop.CHAIN_ID>  (743) 
A A A A A A A Z Z Z Z Z Z Z Z Z Z Z Z Z Z Z

>  <atom.prop.IS_HEAVY_ATOM>  (743) 
1 0 0 0 1 1 1 1 0 0 0 1 1 0 1 0 1 0 1 0 1 0

>  <DIFUSE_FUNC_ATOM>  (743) 
atom 6   atom 7   

>  <FINAL_SINGLE_POINT_ENERGY>  (743) 
0

>  <NONCOV_INTER_ENERGY_QM>  (743) 
0

>  <FF_Energy>  (743) 
-2.92

>  <QM_Energy>  (743) 
-8.2

>  <source>  (743) 
ACET_MBZ_00

>  <Index>  (743) 
25959

$$$$
ACET-pdb1mmp-A-ASP-198:MBZ-pdb1mmp-A-PHE-174
     RDKit          3D

 22 21  0  0  0  0  0  0  0  0999 V2000
   -0.3969    0.8759    3.7024 C   0  0  0  0  0  0  0  0  0  0  0  0
   -0.8709    0.4402    2.9479 H   0  0  0  0  0  0  0  0  0  0  0  0
   -0.8469    0.6763    4.5622 H   0  0  0  0  0  0  0  0  0  0  0  0
    0.6082    0.4570    3.7490 H   0  0  0  0  0  0  0  0  0  0  0  0
   -0.4066    2.3892    3.4807 C   0  0  0  0  0  0  0  0  0  0  0  0
    0.5891    3.0791    3.6719 O   0  0  0  0  0  1  0  0  0  0  0  0
   -1.4419    2.9142    3.0720 O   0  0  0  0  0  0  0  0  0  0  0  0
   -0.0204    2.9181    0.0208 C   0  0  0  0  0  0  0  0  0  0  0  0
    0.8744    3.2359   -0.1561 H   0  0  0  0  0  0  0  0  0  0  0  0
   -0.4077    3.2087    0.8556 H   0  0  0  0  0  0  0  0  0  0  0  0
   -0.6671    3.2562   -0.7888 H   0  0  0  0  0  0  0  0  0  0  0  0
   -0.0056    1.4193   -0.0001 C   0  0  0  0  0  0  0  0  0  0  0  0
   -1.2262    0.6786    0.0003 C   0  0  0  0  0  0  0  0  0  0  0  0
   -2.0859    1.1681   -0.0007 H   0  0  0  0  0  0  0  0  0  0  0  0
   -1.2212   -0.7232   -0.0000 C   0  0  0  0  0  0  0  0  0  0  0  0
   -2.0779   -1.2282    0.0028 H   0  0  0  0  0  0  0  0  0  0  0  0
    0.0146   -1.4062   -0.0022 C   0  0  0  0  0  0  0  0  0  0  0  0
    0.0203   -2.4038   -0.0056 H   0  0  0  0  0  0  0  0  0  0  0  0
    1.2212   -0.6925    0.0000 C   0  0  0  0  0  0  0  0  0  0  0  0
    2.1048   -1.1804    0.0014 H   0  0  0  0  0  0  0  0  0  0  0  0
    1.2173    0.7240    0.0020 C   0  0  0  0  0  0  0  0  0  0  0  0
    2.0715    1.2172    0.0041 H   0  0  0  0  0  0  0  0  0  0  0  0
  1  5  1  0
  5  6  1  0
  5  7  2  0
  1  2  1  0
  1  3  1  0
  1  4  1  0
  8 12  1  0
 12 13  2  0
 13 15  1  0
 15 17  2  0
 17 19  1  0
 19 21  2  0
 21 12  1  0
  8  9  1  0
  8 10  1  0
  8 11  1  0
 13 14  1  0
 15 16  1  0
 17 18  1  0
 19 20  1  0
 21 22  1  0
M  CHG  1   6  -1
M  END
>  <PDB_ID>  (744) 
pdb1mmp

>  <RESIDUE_NAME>  (744) 
ASP   PHE

>  <FRAG_NAME>  (744) 
ACET   MBZ

>  <FRAG_ATOM_NUM>  (744) 
fragi: 7  fragj: 15

>  <atom.prop.CHAIN_ID>  (744) 
A A A A A A A Z Z Z Z Z Z Z Z Z Z Z Z Z Z Z

>  <atom.prop.IS_HEAVY_ATOM>  (744) 
1 0 0 0 1 1 1 1 0 0 0 1 1 0 1 0 1 0 1 0 1 0

>  <DIFUSE_FUNC_ATOM>  (744) 
atom 6   atom 7   

>  <FINAL_SINGLE_POINT_ENERGY>  (744) 
0

>  <NONCOV_INTER_ENERGY_QM>  (744) 
0

>  <FF_Energy>  (744) 
-0.27

>  <QM_Energy>  (744) 
-6.85

>  <source>  (744) 
ACET_MBZ_00

>  <Index>  (744) 
25962

$$$$
ACET-pdb1mmp-B-ASP-198:MBZ-pdb1mmp-B-PHE-174
     RDKit          3D

 22 21  0  0  0  0  0  0  0  0999 V2000
   -0.3720    0.8610    3.7105 C   0  0  0  0  0  0  0  0  0  0  0  0
   -0.8571    0.4179    2.9655 H   0  0  0  0  0  0  0  0  0  0  0  0
   -0.8100    0.6637    4.5788 H   0  0  0  0  0  0  0  0  0  0  0  0
    0.6340    0.4426    3.7441 H   0  0  0  0  0  0  0  0  0  0  0  0
   -0.3980    2.3761    3.4807 C   0  0  0  0  0  0  0  0  0  0  0  0
    0.5967    3.0679    3.6667 O   0  0  0  0  0  1  0  0  0  0  0  0
   -1.4513    2.8875    3.0838 O   0  0  0  0  0  0  0  0  0  0  0  0
   -0.0039    2.9112    0.0374 C   0  0  0  0  0  0  0  0  0  0  0  0
    0.8798    3.2305   -0.1688 H   0  0  0  0  0  0  0  0  0  0  0  0
   -0.3759    3.2022    0.8757 H   0  0  0  0  0  0  0  0  0  0  0  0
   -0.6711    3.2497   -0.7553 H   0  0  0  0  0  0  0  0  0  0  0  0
   -0.0010    1.4202    0.0000 C   0  0  0  0  0  0  0  0  0  0  0  0
   -1.2321    0.6824   -0.0001 C   0  0  0  0  0  0  0  0  0  0  0  0
   -2.0859    1.1729   -0.0011 H   0  0  0  0  0  0  0  0  0  0  0  0
   -1.2246   -0.7239   -0.0000 C   0  0  0  0  0  0  0  0  0  0  0  0
   -2.0835   -1.2276    0.0011 H   0  0  0  0  0  0  0  0  0  0  0  0
    0.0103   -1.4075    0.0002 C   0  0  0  0  0  0  0  0  0  0  0  0
    0.0184   -2.4042    0.0001 H   0  0  0  0  0  0  0  0  0  0  0  0
    1.2246   -0.6936    0.0000 C   0  0  0  0  0  0  0  0  0  0  0  0
    2.1042   -1.1853    0.0015 H   0  0  0  0  0  0  0  0  0  0  0  0
    1.2228    0.7224   -0.0001 C   0  0  0  0  0  0  0  0  0  0  0  0
    2.0759    1.2147   -0.0015 H   0  0  0  0  0  0  0  0  0  0  0  0
  1  5  1  0
  5  6  1  0
  5  7  2  0
  1  2  1  0
  1  3  1  0
  1  4  1  0
  8 12  1  0
 12 13  2  0
 13 15  1  0
 15 17  2  0
 17 19  1  0
 19 21  2  0
 21 12  1  0
  8  9  1  0
  8 10  1  0
  8 11  1  0
 13 14  1  0
 15 16  1  0
 17 18  1  0
 19 20  1  0
 21 22  1  0
M  CHG  1   6  -1
M  END
>  <PDB_ID>  (745) 
pdb1mmp

>  <RESIDUE_NAME>  (745) 
ASP   PHE

>  <FRAG_NAME>  (745) 
ACET   MBZ

>  <FRAG_ATOM_NUM>  (745) 
fragi: 7  fragj: 15

>  <atom.prop.CHAIN_ID>  (745) 
A A A A A A A Z Z Z Z Z Z Z Z Z Z Z Z Z Z Z

>  <atom.prop.IS_HEAVY_ATOM>  (745) 
1 0 0 0 1 1 1 1 0 0 0 1 1 0 1 0 1 0 1 0 1 0

>  <DIFUSE_FUNC_ATOM>  (745) 
atom 6   atom 7   

>  <FINAL_SINGLE_POINT_ENERGY>  (745) 
0

>  <NONCOV_INTER_ENERGY_QM>  (745) 
0

>  <FF_Energy>  (745) 
-0.24

>  <QM_Energy>  (745) 
-6.85

>  <source>  (745) 
ACET_MBZ_00

>  <Index>  (745) 
25966

$$$$
ACET-pdb1mn6-A-ASP-207:MBZ-pdb1mn6-A-PHE-12
     RDKit          3D

 22 21  0  0  0  0  0  0  0  0999 V2000
   -3.2643    3.3030   -2.1436 C   0  0  0  0  0  0  0  0  0  0  0  0
   -4.2320    3.2681   -2.3565 H   0  0  0  0  0  0  0  0  0  0  0  0
   -2.8712    2.3933   -2.1388 H   0  0  0  0  0  0  0  0  0  0  0  0
   -2.7666    3.8846   -2.9195 H   0  0  0  0  0  0  0  0  0  0  0  0
   -3.0955    3.9122   -0.7492 C   0  0  0  0  0  0  0  0  0  0  0  0
   -3.5342    3.2837    0.2342 O   0  0  0  0  0  1  0  0  0  0  0  0
   -2.5212    5.0155   -0.6249 O   0  0  0  0  0  0  0  0  0  0  0  0
   -0.0019    2.9065    0.0003 C   0  0  0  0  0  0  0  0  0  0  0  0
   -0.8731    3.2132   -0.3504 H   0  0  0  0  0  0  0  0  0  0  0  0
    0.7447    3.2132   -0.5697 H   0  0  0  0  0  0  0  0  0  0  0  0
    0.1328    3.3433    0.9898 H   0  0  0  0  0  0  0  0  0  0  0  0
   -0.0026    1.4037   -0.0013 C   0  0  0  0  0  0  0  0  0  0  0  0
   -1.2006    0.6928    0.0004 C   0  0  0  0  0  0  0  0  0  0  0  0
   -2.0675    1.1828    0.0008 H   0  0  0  0  0  0  0  0  0  0  0  0
   -1.2041   -0.6985   -0.0000 C   0  0  0  0  0  0  0  0  0  0  0  0
   -2.0778   -1.1952    0.0013 H   0  0  0  0  0  0  0  0  0  0  0  0
    0.0043   -1.3966   -0.0002 C   0  0  0  0  0  0  0  0  0  0  0  0
   -0.0000   -2.3931   -0.0015 H   0  0  0  0  0  0  0  0  0  0  0  0
    1.2041   -0.6961    0.0000 C   0  0  0  0  0  0  0  0  0  0  0  0
    2.0865   -1.1930    0.0007 H   0  0  0  0  0  0  0  0  0  0  0  0
    1.1990    0.6947    0.0011 C   0  0  0  0  0  0  0  0  0  0  0  0
    2.0641    1.1931    0.0024 H   0  0  0  0  0  0  0  0  0  0  0  0
  1  5  1  0
  5  6  1  0
  5  7  2  0
  1  2  1  0
  1  3  1  0
  1  4  1  0
  8 12  1  0
 12 13  2  0
 13 15  1  0
 15 17  2  0
 17 19  1  0
 19 21  2  0
 21 12  1  0
  8  9  1  0
  8 10  1  0
  8 11  1  0
 13 14  1  0
 15 16  1  0
 17 18  1  0
 19 20  1  0
 21 22  1  0
M  CHG  1   6  -1
M  END
>  <PDB_ID>  (746) 
pdb1mn6

>  <RESIDUE_NAME>  (746) 
ASP   PHE

>  <FRAG_NAME>  (746) 
ACET   MBZ

>  <FRAG_ATOM_NUM>  (746) 
fragi: 7  fragj: 15

>  <atom.prop.CHAIN_ID>  (746) 
A A A A A A A Z Z Z Z Z Z Z Z Z Z Z Z Z Z Z

>  <atom.prop.IS_HEAVY_ATOM>  (746) 
1 0 0 0 1 1 1 1 0 0 0 1 1 0 1 0 1 0 1 0 1 0

>  <DIFUSE_FUNC_ATOM>  (746) 
atom 6   atom 7   

>  <FINAL_SINGLE_POINT_ENERGY>  (746) 
0

>  <NONCOV_INTER_ENERGY_QM>  (746) 
0

>  <FF_Energy>  (746) 
-0.5

>  <QM_Energy>  (746) 
-7.65

>  <source>  (746) 
ACET_MBZ_00

>  <Index>  (746) 
25983

$$$$
ACET-pdb1mpx-A-ASP-243:MBZ-pdb1mpx-A-PHE-459
     RDKit          3D

 22 21  0  0  0  0  0  0  0  0999 V2000
    2.3325    0.7370   -4.1872 C   0  0  0  0  0  0  0  0  0  0  0  0
    1.3550    0.7898   -4.3568 H   0  0  0  0  0  0  0  0  0  0  0  0
    2.5571   -0.1002   -3.7023 H   0  0  0  0  0  0  0  0  0  0  0  0
    2.8459    0.7229   -5.1486 H   0  0  0  0  0  0  0  0  0  0  0  0
    2.7398    1.9186   -3.3302 C   0  0  0  0  0  0  0  0  0  0  0  0
    3.7634    2.5731   -3.6430 O   0  0  0  0  0  1  0  0  0  0  0  0
    2.1067    2.2668   -2.3379 O   0  0  0  0  0  0  0  0  0  0  0  0
    0.0249    2.9878    0.0013 C   0  0  0  0  0  0  0  0  0  0  0  0
    0.8336    3.2618   -0.4804 H   0  0  0  0  0  0  0  0  0  0  0  0
    0.0302    3.2680    0.9412 H   0  0  0  0  0  0  0  0  0  0  0  0
   -0.8319    3.4542   -0.4850 H   0  0  0  0  0  0  0  0  0  0  0  0
    0.0016    1.4147   -0.0043 C   0  0  0  0  0  0  0  0  0  0  0  0
   -1.2036    0.6958    0.0009 C   0  0  0  0  0  0  0  0  0  0  0  0
   -2.0671    1.1793    0.0035 H   0  0  0  0  0  0  0  0  0  0  0  0
   -1.1963   -0.7041   -0.0000 C   0  0  0  0  0  0  0  0  0  0  0  0
   -2.0744   -1.1978    0.0004 H   0  0  0  0  0  0  0  0  0  0  0  0
    0.0034   -1.3954    0.0004 C   0  0  0  0  0  0  0  0  0  0  0  0
   -0.0025   -2.3976    0.0001 H   0  0  0  0  0  0  0  0  0  0  0  0
    1.1963   -0.7046    0.0000 C   0  0  0  0  0  0  0  0  0  0  0  0
    2.0820   -1.1985   -0.0014 H   0  0  0  0  0  0  0  0  0  0  0  0
    1.1986    0.6936    0.0030 C   0  0  0  0  0  0  0  0  0  0  0  0
    2.0688    1.1836    0.0097 H   0  0  0  0  0  0  0  0  0  0  0  0
  1  5  1  0
  5  6  1  0
  5  7  2  0
  1  2  1  0
  1  3  1  0
  1  4  1  0
  8 12  1  0
 12 13  2  0
 13 15  1  0
 15 17  2  0
 17 19  1  0
 19 21  2  0
 21 12  1  0
  8  9  1  0
  8 10  1  0
  8 11  1  0
 13 14  1  0
 15 16  1  0
 17 18  1  0
 19 20  1  0
 21 22  1  0
M  CHG  1   6  -1
M  END
>  <PDB_ID>  (747) 
pdb1mpx

>  <RESIDUE_NAME>  (747) 
ASP   PHE

>  <FRAG_NAME>  (747) 
ACET   MBZ

>  <FRAG_ATOM_NUM>  (747) 
fragi: 7  fragj: 15

>  <atom.prop.CHAIN_ID>  (747) 
A A A A A A A Z Z Z Z Z Z Z Z Z Z Z Z Z Z Z

>  <atom.prop.IS_HEAVY_ATOM>  (747) 
1 0 0 0 1 1 1 1 0 0 0 1 1 0 1 0 1 0 1 0 1 0

>  <DIFUSE_FUNC_ATOM>  (747) 
atom 6   atom 7   

>  <FINAL_SINGLE_POINT_ENERGY>  (747) 
0

>  <NONCOV_INTER_ENERGY_QM>  (747) 
0

>  <FF_Energy>  (747) 
1.12

>  <QM_Energy>  (747) 
-5.11

>  <source>  (747) 
ACET_MBZ_00

>  <Index>  (747) 
26074

$$$$
ACET-pdb2qjx-A-GLU-28:MBZ-pdb2qjx-A-PHE-92
     RDKit          3D

 22 21  0  0  0  0  0  0  0  0999 V2000
   -3.6381    4.8072   -0.0270 C   0  0  0  0  0  0  0  0  0  0  0  0
   -3.4316    5.6376   -0.5149 H   0  0  0  0  0  0  0  0  0  0  0  0
   -2.9715    4.6157    0.6723 H   0  0  0  0  0  0  0  0  0  0  0  0
   -4.6102    4.9263    0.4515 H   0  0  0  0  0  0  0  0  0  0  0  0
   -3.5919    3.6648   -1.0281 C   0  0  0  0  0  0  0  0  0  0  0  0
   -4.0755    2.5577   -0.7104 O   0  0  0  0  0  1  0  0  0  0  0  0
   -3.0548    3.8744   -2.1391 O   0  0  0  0  0  0  0  0  0  0  0  0
    0.0017    2.9063    0.0493 C   0  0  0  0  0  0  0  0  0  0  0  0
   -0.7137    3.2337   -0.5465 H   0  0  0  0  0  0  0  0  0  0  0  0
    0.8902    3.2203   -0.2435 H   0  0  0  0  0  0  0  0  0  0  0  0
   -0.1829    3.3119    1.0440 H   0  0  0  0  0  0  0  0  0  0  0  0
   -0.0012    1.4025    0.0010 C   0  0  0  0  0  0  0  0  0  0  0  0
   -1.1963    0.6950   -0.0004 C   0  0  0  0  0  0  0  0  0  0  0  0
   -2.0634    1.1862   -0.0028 H   0  0  0  0  0  0  0  0  0  0  0  0
   -1.2030   -0.6953    0.0000 C   0  0  0  0  0  0  0  0  0  0  0  0
   -2.0791   -1.1897    0.0017 H   0  0  0  0  0  0  0  0  0  0  0  0
    0.0009   -1.3964    0.0006 C   0  0  0  0  0  0  0  0  0  0  0  0
   -0.0056   -2.3934    0.0005 H   0  0  0  0  0  0  0  0  0  0  0  0
    1.2030   -0.6985   -0.0000 C   0  0  0  0  0  0  0  0  0  0  0  0
    2.0839   -1.1958    0.0023 H   0  0  0  0  0  0  0  0  0  0  0  0
    1.1965    0.6927   -0.0012 C   0  0  0  0  0  0  0  0  0  0  0  0
    2.0645    1.1907   -0.0046 H   0  0  0  0  0  0  0  0  0  0  0  0
  1  5  1  0
  5  6  1  0
  5  7  2  0
  1  2  1  0
  1  3  1  0
  1  4  1  0
  8 12  1  0
 12 13  2  0
 13 15  1  0
 15 17  2  0
 17 19  1  0
 19 21  2  0
 21 12  1  0
  8  9  1  0
  8 10  1  0
  8 11  1  0
 13 14  1  0
 15 16  1  0
 17 18  1  0
 19 20  1  0
 21 22  1  0
M  CHG  1   6  -1
M  END
>  <PDB_ID>  (748) 
pdb2qjx

>  <RESIDUE_NAME>  (748) 
GLU   PHE

>  <FRAG_NAME>  (748) 
ACET   MBZ

>  <FRAG_ATOM_NUM>  (748) 
fragi: 7  fragj: 15

>  <atom.prop.CHAIN_ID>  (748) 
A A A A A A A Z Z Z Z Z Z Z Z Z Z Z Z Z Z Z

>  <atom.prop.IS_HEAVY_ATOM>  (748) 
1 0 0 0 1 1 1 1 0 0 0 1 1 0 1 0 1 0 1 0 1 0

>  <DIFUSE_FUNC_ATOM>  (748) 
atom 6   atom 7   

>  <FINAL_SINGLE_POINT_ENERGY>  (748) 
0

>  <NONCOV_INTER_ENERGY_QM>  (748) 
0

>  <FF_Energy>  (748) 
-2.57

>  <QM_Energy>  (748) 
-7.62

>  <source>  (748) 
ACET_MBZ_00

>  <Index>  (748) 
26136

$$$$
ACET-pdb1msp-B-GLU-82:MBZ-pdb1msp-B-PHE-77
     RDKit          3D

 22 21  0  0  0  0  0  0  0  0999 V2000
   -4.4018    1.0648   -2.0311 C   0  0  0  0  0  0  0  0  0  0  0  0
   -4.8784    0.7844   -1.2250 H   0  0  0  0  0  0  0  0  0  0  0  0
   -3.6805    0.4551   -2.2828 H   0  0  0  0  0  0  0  0  0  0  0  0
   -5.1170    1.1070   -2.8526 H   0  0  0  0  0  0  0  0  0  0  0  0
   -3.8019    2.4144   -1.7729 C   0  0  0  0  0  0  0  0  0  0  0  0
   -4.4511    3.4191   -1.5744 O   0  0  0  0  0  1  0  0  0  0  0  0
   -2.4948    2.3988   -1.7942 O   0  0  0  0  0  0  0  0  0  0  0  0
   -0.0169    2.9303    0.0297 C   0  0  0  0  0  0  0  0  0  0  0  0
   -0.8283    3.2363   -0.4245 H   0  0  0  0  0  0  0  0  0  0  0  0
    0.8039    3.2462   -0.4012 H   0  0  0  0  0  0  0  0  0  0  0  0
   -0.0338    3.3202    1.0474 H   0  0  0  0  0  0  0  0  0  0  0  0
   -0.0074    1.4174    0.0042 C   0  0  0  0  0  0  0  0  0  0  0  0
   -1.1940    0.6822    0.0080 C   0  0  0  0  0  0  0  0  0  0  0  0
   -2.0718    1.1678    0.0150 H   0  0  0  0  0  0  0  0  0  0  0  0
   -1.2039   -0.7163    0.0000 C   0  0  0  0  0  0  0  0  0  0  0  0
   -2.0738   -1.2078    0.0126 H   0  0  0  0  0  0  0  0  0  0  0  0
    0.0075   -1.4066   -0.0242 C   0  0  0  0  0  0  0  0  0  0  0  0
    0.0157   -2.3990   -0.0589 H   0  0  0  0  0  0  0  0  0  0  0  0
    1.2039   -0.6870    0.0000 C   0  0  0  0  0  0  0  0  0  0  0  0
    2.0921   -1.1780    0.0110 H   0  0  0  0  0  0  0  0  0  0  0  0
    1.1939    0.7104    0.0120 C   0  0  0  0  0  0  0  0  0  0  0  0
    2.0599    1.2080    0.0257 H   0  0  0  0  0  0  0  0  0  0  0  0
  1  5  1  0
  5  6  1  0
  5  7  2  0
  1  2  1  0
  1  3  1  0
  1  4  1  0
  8 12  1  0
 12 13  2  0
 13 15  1  0
 15 17  2  0
 17 19  1  0
 19 21  2  0
 21 12  1  0
  8  9  1  0
  8 10  1  0
  8 11  1  0
 13 14  1  0
 15 16  1  0
 17 18  1  0
 19 20  1  0
 21 22  1  0
M  CHG  1   6  -1
M  END
>  <PDB_ID>  (749) 
pdb1msp

>  <RESIDUE_NAME>  (749) 
GLU   PHE

>  <FRAG_NAME>  (749) 
ACET   MBZ

>  <FRAG_ATOM_NUM>  (749) 
fragi: 7  fragj: 15

>  <atom.prop.CHAIN_ID>  (749) 
A A A A A A A Z Z Z Z Z Z Z Z Z Z Z Z Z Z Z

>  <atom.prop.IS_HEAVY_ATOM>  (749) 
1 0 0 0 1 1 1 1 0 0 0 1 1 0 1 0 1 0 1 0 1 0

>  <DIFUSE_FUNC_ATOM>  (749) 
atom 6   atom 7   

>  <FINAL_SINGLE_POINT_ENERGY>  (749) 
0

>  <NONCOV_INTER_ENERGY_QM>  (749) 
0

>  <FF_Energy>  (749) 
3.37

>  <QM_Energy>  (749) 
-5.9

>  <source>  (749) 
ACET_MBZ_00

>  <Index>  (749) 
26141

$$$$
ACET-pdb2qk8-A-ASP-10:MBZ-pdb2qk8-A-PHE-121
     RDKit          3D

 22 21  0  0  0  0  0  0  0  0999 V2000
   -6.1685    1.9861    0.5730 C   0  0  0  0  0  0  0  0  0  0  0  0
   -6.6323    2.5366   -0.1127 H   0  0  0  0  0  0  0  0  0  0  0  0
   -6.5535    2.1548    1.4724 H   0  0  0  0  0  0  0  0  0  0  0  0
   -6.3645    0.9415    0.3312 H   0  0  0  0  0  0  0  0  0  0  0  0
   -4.7187    2.2977    0.5757 C   0  0  0  0  0  0  0  0  0  0  0  0
   -3.9827    1.3697    0.2436 O   0  0  0  0  0  1  0  0  0  0  0  0
   -4.1969    3.3829    0.8920 O   0  0  0  0  0  0  0  0  0  0  0  0
   -0.0149    2.9587   -0.0080 C   0  0  0  0  0  0  0  0  0  0  0  0
   -0.7808    3.2405   -0.5651 H   0  0  0  0  0  0  0  0  0  0  0  0
    0.8432    3.2529   -0.4012 H   0  0  0  0  0  0  0  0  0  0  0  0
   -0.1170    3.4369    0.9662 H   0  0  0  0  0  0  0  0  0  0  0  0
   -0.0054    1.4186    0.0139 C   0  0  0  0  0  0  0  0  0  0  0  0
   -1.1878    0.6932   -0.0019 C   0  0  0  0  0  0  0  0  0  0  0  0
   -2.0670    1.1661   -0.0160 H   0  0  0  0  0  0  0  0  0  0  0  0
   -1.1920   -0.7232    0.0000 C   0  0  0  0  0  0  0  0  0  0  0  0
   -2.0708   -1.2023    0.0051 H   0  0  0  0  0  0  0  0  0  0  0  0
    0.0038   -1.4037   -0.0032 C   0  0  0  0  0  0  0  0  0  0  0  0
    0.0142   -2.4036   -0.0086 H   0  0  0  0  0  0  0  0  0  0  0  0
    1.1920   -0.6945   -0.0000 C   0  0  0  0  0  0  0  0  0  0  0  0
    2.0838   -1.1819    0.0107 H   0  0  0  0  0  0  0  0  0  0  0  0
    1.1894    0.7096   -0.0088 C   0  0  0  0  0  0  0  0  0  0  0  0
    2.0597    1.1980   -0.0328 H   0  0  0  0  0  0  0  0  0  0  0  0
  1  5  1  0
  5  6  1  0
  5  7  2  0
  1  2  1  0
  1  3  1  0
  1  4  1  0
  8 12  1  0
 12 13  2  0
 13 15  1  0
 15 17  2  0
 17 19  1  0
 19 21  2  0
 21 12  1  0
  8  9  1  0
  8 10  1  0
  8 11  1  0
 13 14  1  0
 15 16  1  0
 17 18  1  0
 19 20  1  0
 21 22  1  0
M  CHG  1   6  -1
M  END
>  <PDB_ID>  (750) 
pdb2qk8

>  <RESIDUE_NAME>  (750) 
ASP   PHE

>  <FRAG_NAME>  (750) 
ACET   MBZ

>  <FRAG_ATOM_NUM>  (750) 
fragi: 7  fragj: 15

>  <atom.prop.CHAIN_ID>  (750) 
A A A A A A A Z Z Z Z Z Z Z Z Z Z Z Z Z Z Z

>  <atom.prop.IS_HEAVY_ATOM>  (750) 
1 0 0 0 1 1 1 1 0 0 0 1 1 0 1 0 1 0 1 0 1 0

>  <DIFUSE_FUNC_ATOM>  (750) 
atom 6   atom 7   

>  <FINAL_SINGLE_POINT_ENERGY>  (750) 
0

>  <NONCOV_INTER_ENERGY_QM>  (750) 
0

>  <FF_Energy>  (750) 
8.92

>  <QM_Energy>  (750) 
-7.28

>  <source>  (750) 
ACET_MBZ_00

>  <Index>  (750) 
26180

$$$$
ACET-pdb2qkf-C-ASP-268:MBZ-pdb2qkf-C-PHE-16
     RDKit          3D

 22 21  0  0  0  0  0  0  0  0999 V2000
    3.6671    2.0212   -2.4197 C   0  0  0  0  0  0  0  0  0  0  0  0
    2.8762    1.6801   -2.9148 H   0  0  0  0  0  0  0  0  0  0  0  0
    4.0472    1.3111   -1.8394 H   0  0  0  0  0  0  0  0  0  0  0  0
    4.4261    2.2819   -3.1574 H   0  0  0  0  0  0  0  0  0  0  0  0
    3.2727    3.1889   -1.5909 C   0  0  0  0  0  0  0  0  0  0  0  0
    2.6537    4.1089   -2.1491 O   0  0  0  0  0  1  0  0  0  0  0  0
    3.6181    3.2014   -0.3907 O   0  0  0  0  0  0  0  0  0  0  0  0
    0.0053    2.8797   -0.0034 C   0  0  0  0  0  0  0  0  0  0  0  0
   -0.8743    3.1874   -0.3484 H   0  0  0  0  0  0  0  0  0  0  0  0
    0.7385    3.1816   -0.6024 H   0  0  0  0  0  0  0  0  0  0  0  0
    0.1604    3.3437    0.9706 H   0  0  0  0  0  0  0  0  0  0  0  0
    0.0015    1.3854    0.0096 C   0  0  0  0  0  0  0  0  0  0  0  0
   -1.1940    0.6798   -0.0101 C   0  0  0  0  0  0  0  0  0  0  0  0
   -2.0580    1.1858   -0.0328 H   0  0  0  0  0  0  0  0  0  0  0  0
   -1.2015   -0.6812    0.0000 C   0  0  0  0  0  0  0  0  0  0  0  0
   -2.0752   -1.1891    0.0115 H   0  0  0  0  0  0  0  0  0  0  0  0
    0.0016   -1.3835   -0.0041 C   0  0  0  0  0  0  0  0  0  0  0  0
   -0.0041   -2.3792   -0.0104 H   0  0  0  0  0  0  0  0  0  0  0  0
    1.2015   -0.6842   -0.0000 C   0  0  0  0  0  0  0  0  0  0  0  0
    2.0815   -1.1895    0.0007 H   0  0  0  0  0  0  0  0  0  0  0  0
    1.1909    0.6838    0.0045 C   0  0  0  0  0  0  0  0  0  0  0  0
    2.0600    1.1911    0.0032 H   0  0  0  0  0  0  0  0  0  0  0  0
  1  5  1  0
  5  6  1  0
  5  7  2  0
  1  2  1  0
  1  3  1  0
  1  4  1  0
  8 12  1  0
 12 13  2  0
 13 15  1  0
 15 17  2  0
 17 19  1  0
 19 21  2  0
 21 12  1  0
  8  9  1  0
  8 10  1  0
  8 11  1  0
 13 14  1  0
 15 16  1  0
 17 18  1  0
 19 20  1  0
 21 22  1  0
M  CHG  1   6  -1
M  END
>  <PDB_ID>  (751) 
pdb2qkf

>  <RESIDUE_NAME>  (751) 
ASP   PHE

>  <FRAG_NAME>  (751) 
ACET   MBZ

>  <FRAG_ATOM_NUM>  (751) 
fragi: 7  fragj: 15

>  <atom.prop.CHAIN_ID>  (751) 
A A A A A A A Z Z Z Z Z Z Z Z Z Z Z Z Z Z Z

>  <atom.prop.IS_HEAVY_ATOM>  (751) 
1 0 0 0 1 1 1 1 0 0 0 1 1 0 1 0 1 0 1 0 1 0

>  <DIFUSE_FUNC_ATOM>  (751) 
atom 6   atom 7   

>  <FINAL_SINGLE_POINT_ENERGY>  (751) 
0

>  <NONCOV_INTER_ENERGY_QM>  (751) 
0

>  <FF_Energy>  (751) 
-2.58

>  <QM_Energy>  (751) 
-8.42

>  <source>  (751) 
ACET_MBZ_00

>  <Index>  (751) 
26194

$$$$
ACET-pdb2qkf-B-ASP-196:MBZ-pdb2qkf-B-PHE-234
     RDKit          3D

 22 21  0  0  0  0  0  0  0  0999 V2000
    2.6103    1.9500   -2.9491 C   0  0  0  0  0  0  0  0  0  0  0  0
    1.6820    1.6066   -2.9387 H   0  0  0  0  0  0  0  0  0  0  0  0
    2.9728    1.9687   -3.8697 H   0  0  0  0  0  0  0  0  0  0  0  0
    2.5963    2.9719   -2.5702 H   0  0  0  0  0  0  0  0  0  0  0  0
    3.4860    1.0077   -2.1007 C   0  0  0  0  0  0  0  0  0  0  0  0
    4.2938    1.4807   -1.2495 O   0  0  0  0  0  1  0  0  0  0  0  0
    3.3853   -0.2222   -2.3093 O   0  0  0  0  0  0  0  0  0  0  0  0
   -0.0041    2.8629   -0.0825 C   0  0  0  0  0  0  0  0  0  0  0  0
   -0.9076    3.1599   -0.3887 H   0  0  0  0  0  0  0  0  0  0  0  0
    0.6845    3.1391   -0.7518 H   0  0  0  0  0  0  0  0  0  0  0  0
    0.2138    3.3967    0.8425 H   0  0  0  0  0  0  0  0  0  0  0  0
   -0.0011    1.3926    0.0153 C   0  0  0  0  0  0  0  0  0  0  0  0
   -1.1945    0.6876   -0.0299 C   0  0  0  0  0  0  0  0  0  0  0  0
   -2.0596    1.1915   -0.0872 H   0  0  0  0  0  0  0  0  0  0  0  0
   -1.2139   -0.6849    0.0000 C   0  0  0  0  0  0  0  0  0  0  0  0
   -2.0839   -1.1850    0.0155 H   0  0  0  0  0  0  0  0  0  0  0  0
    0.0001   -1.3953    0.0109 C   0  0  0  0  0  0  0  0  0  0  0  0
   -0.0095   -2.3874    0.0261 H   0  0  0  0  0  0  0  0  0  0  0  0
    1.2139   -0.6950    0.0000 C   0  0  0  0  0  0  0  0  0  0  0  0
    2.0877   -1.1917   -0.0093 H   0  0  0  0  0  0  0  0  0  0  0  0
    1.1956    0.6950    0.0037 C   0  0  0  0  0  0  0  0  0  0  0  0
    2.0626    1.1979   -0.0027 H   0  0  0  0  0  0  0  0  0  0  0  0
  1  5  1  0
  5  6  1  0
  5  7  2  0
  1  2  1  0
  1  3  1  0
  1  4  1  0
  8 12  1  0
 12 13  2  0
 13 15  1  0
 15 17  2  0
 17 19  1  0
 19 21  2  0
 21 12  1  0
  8  9  1  0
  8 10  1  0
  8 11  1  0
 13 14  1  0
 15 16  1  0
 17 18  1  0
 19 20  1  0
 21 22  1  0
M  CHG  1   6  -1
M  END
>  <PDB_ID>  (752) 
pdb2qkf

>  <RESIDUE_NAME>  (752) 
ASP   PHE

>  <FRAG_NAME>  (752) 
ACET   MBZ

>  <FRAG_ATOM_NUM>  (752) 
fragi: 7  fragj: 15

>  <atom.prop.CHAIN_ID>  (752) 
A A A A A A A Z Z Z Z Z Z Z Z Z Z Z Z Z Z Z

>  <atom.prop.IS_HEAVY_ATOM>  (752) 
1 0 0 0 1 1 1 1 0 0 0 1 1 0 1 0 1 0 1 0 1 0

>  <DIFUSE_FUNC_ATOM>  (752) 
atom 6   atom 7   

>  <FINAL_SINGLE_POINT_ENERGY>  (752) 
0

>  <NONCOV_INTER_ENERGY_QM>  (752) 
0

>  <FF_Energy>  (752) 
-0.73

>  <QM_Energy>  (752) 
-6.47

>  <source>  (752) 
ACET_MBZ_00

>  <Index>  (752) 
26204

$$$$
ACET-pdb2ql3-F-GLU-126:MBZ-pdb2ql3-F-PHE-300
     RDKit          3D

 22 21  0  0  0  0  0  0  0  0999 V2000
   -2.8244   -2.2267   -2.1685 C   0  0  0  0  0  0  0  0  0  0  0  0
   -2.3949   -3.0707   -1.8682 H   0  0  0  0  0  0  0  0  0  0  0  0
   -2.5563   -1.4717   -1.5811 H   0  0  0  0  0  0  0  0  0  0  0  0
   -2.5333   -2.0135   -3.1970 H   0  0  0  0  0  0  0  0  0  0  0  0
   -4.3314   -2.4157   -1.9617 C   0  0  0  0  0  0  0  0  0  0  0  0
   -5.1184   -1.4527   -2.0273 O   0  0  0  0  0  1  0  0  0  0  0  0
   -4.7181   -3.5545   -1.6912 O   0  0  0  0  0  0  0  0  0  0  0  0
    0.0294    2.9129    0.0212 C   0  0  0  0  0  0  0  0  0  0  0  0
   -0.7195    3.2414   -0.5304 H   0  0  0  0  0  0  0  0  0  0  0  0
    0.9015    3.2145   -0.3279 H   0  0  0  0  0  0  0  0  0  0  0  0
   -0.0880    3.3399    1.0172 H   0  0  0  0  0  0  0  0  0  0  0  0
    0.0074    1.4064   -0.0016 C   0  0  0  0  0  0  0  0  0  0  0  0
   -1.1963    0.7088    0.0188 C   0  0  0  0  0  0  0  0  0  0  0  0
   -2.0574    1.1858    0.0447 H   0  0  0  0  0  0  0  0  0  0  0  0
   -1.1904   -0.7035    0.0000 C   0  0  0  0  0  0  0  0  0  0  0  0
   -2.0736   -1.1886   -0.0022 H   0  0  0  0  0  0  0  0  0  0  0  0
    0.0031   -1.3988   -0.0133 C   0  0  0  0  0  0  0  0  0  0  0  0
   -0.0025   -2.3986   -0.0327 H   0  0  0  0  0  0  0  0  0  0  0  0
    1.1904   -0.7042    0.0000 C   0  0  0  0  0  0  0  0  0  0  0  0
    2.0791   -1.1944    0.0147 H   0  0  0  0  0  0  0  0  0  0  0  0
    1.1858    0.6913   -0.0039 C   0  0  0  0  0  0  0  0  0  0  0  0
    2.0659    1.1788   -0.0099 H   0  0  0  0  0  0  0  0  0  0  0  0
  1  5  1  0
  5  6  1  0
  5  7  2  0
  1  2  1  0
  1  3  1  0
  1  4  1  0
  8 12  1  0
 12 13  2  0
 13 15  1  0
 15 17  2  0
 17 19  1  0
 19 21  2  0
 21 12  1  0
  8  9  1  0
  8 10  1  0
  8 11  1  0
 13 14  1  0
 15 16  1  0
 17 18  1  0
 19 20  1  0
 21 22  1  0
M  CHG  1   6  -1
M  END
>  <PDB_ID>  (753) 
pdb2ql3

>  <RESIDUE_NAME>  (753) 
GLU   PHE

>  <FRAG_NAME>  (753) 
ACET   MBZ

>  <FRAG_ATOM_NUM>  (753) 
fragi: 7  fragj: 15

>  <atom.prop.CHAIN_ID>  (753) 
A A A A A A A Z Z Z Z Z Z Z Z Z Z Z Z Z Z Z

>  <atom.prop.IS_HEAVY_ATOM>  (753) 
1 0 0 0 1 1 1 1 0 0 0 1 1 0 1 0 1 0 1 0 1 0

>  <DIFUSE_FUNC_ATOM>  (753) 
atom 6   atom 7   

>  <FINAL_SINGLE_POINT_ENERGY>  (753) 
0

>  <NONCOV_INTER_ENERGY_QM>  (753) 
0

>  <FF_Energy>  (753) 
11.78

>  <QM_Energy>  (753) 
2.22

>  <source>  (753) 
ACET_MBZ_00

>  <Index>  (753) 
26238

$$$$
ACET-pdb1muc-A-GLU-62:MBZ-pdb1muc-A-PHE-103
     RDKit          3D

 22 21  0  0  0  0  0  0  0  0999 V2000
   -2.9181    2.8452   -3.6590 C   0  0  0  0  0  0  0  0  0  0  0  0
   -3.1833    3.5716   -4.2626 H   0  0  0  0  0  0  0  0  0  0  0  0
   -3.5465    2.0924   -3.6744 H   0  0  0  0  0  0  0  0  0  0  0  0
   -1.9432    2.4789   -3.9806 H   0  0  0  0  0  0  0  0  0  0  0  0
   -2.8946    3.4000   -2.2470 C   0  0  0  0  0  0  0  0  0  0  0  0
   -2.4168    4.5311   -2.0481 O   0  0  0  0  0  1  0  0  0  0  0  0
   -3.3426    2.6989   -1.3244 O   0  0  0  0  0  0  0  0  0  0  0  0
   -0.0026    2.9148   -0.0133 C   0  0  0  0  0  0  0  0  0  0  0  0
   -0.5562    3.2119   -0.7778 H   0  0  0  0  0  0  0  0  0  0  0  0
    0.9346    3.2178   -0.1119 H   0  0  0  0  0  0  0  0  0  0  0  0
   -0.4076    3.3726    0.8892 H   0  0  0  0  0  0  0  0  0  0  0  0
   -0.0025    1.4040    0.0005 C   0  0  0  0  0  0  0  0  0  0  0  0
   -1.1973    0.6880   -0.0005 C   0  0  0  0  0  0  0  0  0  0  0  0
   -2.0654    1.1756   -0.0029 H   0  0  0  0  0  0  0  0  0  0  0  0
   -1.1956   -0.7011    0.0000 C   0  0  0  0  0  0  0  0  0  0  0  0
   -2.0702   -1.1990    0.0008 H   0  0  0  0  0  0  0  0  0  0  0  0
    0.0083   -1.3916    0.0015 C   0  0  0  0  0  0  0  0  0  0  0  0
    0.0025   -2.3933    0.0027 H   0  0  0  0  0  0  0  0  0  0  0  0
    1.1956   -0.6981    0.0000 C   0  0  0  0  0  0  0  0  0  0  0  0
    2.0844   -1.1880    0.0017 H   0  0  0  0  0  0  0  0  0  0  0  0
    1.1915    0.6988   -0.0015 C   0  0  0  0  0  0  0  0  0  0  0  0
    2.0608    1.1905   -0.0049 H   0  0  0  0  0  0  0  0  0  0  0  0
  1  5  1  0
  5  6  1  0
  5  7  2  0
  1  2  1  0
  1  3  1  0
  1  4  1  0
  8 12  1  0
 12 13  2  0
 13 15  1  0
 15 17  2  0
 17 19  1  0
 19 21  2  0
 21 12  1  0
  8  9  1  0
  8 10  1  0
  8 11  1  0
 13 14  1  0
 15 16  1  0
 17 18  1  0
 19 20  1  0
 21 22  1  0
M  CHG  1   6  -1
M  END
>  <PDB_ID>  (754) 
pdb1muc

>  <RESIDUE_NAME>  (754) 
GLU   PHE

>  <FRAG_NAME>  (754) 
ACET   MBZ

>  <FRAG_ATOM_NUM>  (754) 
fragi: 7  fragj: 15

>  <atom.prop.CHAIN_ID>  (754) 
A A A A A A A Z Z Z Z Z Z Z Z Z Z Z Z Z Z Z

>  <atom.prop.IS_HEAVY_ATOM>  (754) 
1 0 0 0 1 1 1 1 0 0 0 1 1 0 1 0 1 0 1 0 1 0

>  <DIFUSE_FUNC_ATOM>  (754) 
atom 6   atom 7   

>  <FINAL_SINGLE_POINT_ENERGY>  (754) 
0

>  <NONCOV_INTER_ENERGY_QM>  (754) 
0

>  <FF_Energy>  (754) 
-1.95

>  <QM_Energy>  (754) 
-8.47

>  <source>  (754) 
ACET_MBZ_00

>  <Index>  (754) 
26269

$$$$
ACET-pdb1muc-B-GLU-62:MBZ-pdb1muc-B-PHE-103
     RDKit          3D

 22 21  0  0  0  0  0  0  0  0999 V2000
   -2.7418    3.0577   -3.6723 C   0  0  0  0  0  0  0  0  0  0  0  0
   -2.9710    3.8213   -4.2466 H   0  0  0  0  0  0  0  0  0  0  0  0
   -3.4072    2.3367   -3.7254 H   0  0  0  0  0  0  0  0  0  0  0  0
   -1.7740    2.6653   -3.9844 H   0  0  0  0  0  0  0  0  0  0  0  0
   -2.7242    3.5537   -2.2416 C   0  0  0  0  0  0  0  0  0  0  0  0
   -2.2703    4.6967   -2.0121 O   0  0  0  0  0  1  0  0  0  0  0  0
   -3.1674    2.7998   -1.3474 O   0  0  0  0  0  0  0  0  0  0  0  0
    0.0132    2.9028   -0.0002 C   0  0  0  0  0  0  0  0  0  0  0  0
   -0.5336    3.2132   -0.7634 H   0  0  0  0  0  0  0  0  0  0  0  0
    0.9516    3.2058   -0.0839 H   0  0  0  0  0  0  0  0  0  0  0  0
   -0.3984    3.3497    0.9048 H   0  0  0  0  0  0  0  0  0  0  0  0
    0.0050    1.4004   -0.0006 C   0  0  0  0  0  0  0  0  0  0  0  0
   -1.1950    0.6952    0.0003 C   0  0  0  0  0  0  0  0  0  0  0  0
   -2.0588    1.1931   -0.0006 H   0  0  0  0  0  0  0  0  0  0  0  0
   -1.2063   -0.6878   -0.0000 C   0  0  0  0  0  0  0  0  0  0  0  0
   -2.0866   -1.1805    0.0009 H   0  0  0  0  0  0  0  0  0  0  0  0
   -0.0104   -1.3930    0.0004 C   0  0  0  0  0  0  0  0  0  0  0  0
   -0.0181   -2.3906    0.0008 H   0  0  0  0  0  0  0  0  0  0  0  0
    1.2063   -0.7036   -0.0000 C   0  0  0  0  0  0  0  0  0  0  0  0
    2.0774   -1.2054    0.0010 H   0  0  0  0  0  0  0  0  0  0  0  0
    1.2004    0.6887   -0.0002 C   0  0  0  0  0  0  0  0  0  0  0  0
    2.0699    1.1845   -0.0010 H   0  0  0  0  0  0  0  0  0  0  0  0
  1  5  1  0
  5  6  1  0
  5  7  2  0
  1  2  1  0
  1  3  1  0
  1  4  1  0
  8 12  1  0
 12 13  2  0
 13 15  1  0
 15 17  2  0
 17 19  1  0
 19 21  2  0
 21 12  1  0
  8  9  1  0
  8 10  1  0
  8 11  1  0
 13 14  1  0
 15 16  1  0
 17 18  1  0
 19 20  1  0
 21 22  1  0
M  CHG  1   6  -1
M  END
>  <PDB_ID>  (755) 
pdb1muc

>  <RESIDUE_NAME>  (755) 
GLU   PHE

>  <FRAG_NAME>  (755) 
ACET   MBZ

>  <FRAG_ATOM_NUM>  (755) 
fragi: 7  fragj: 15

>  <atom.prop.CHAIN_ID>  (755) 
A A A A A A A Z Z Z Z Z Z Z Z Z Z Z Z Z Z Z

>  <atom.prop.IS_HEAVY_ATOM>  (755) 
1 0 0 0 1 1 1 1 0 0 0 1 1 0 1 0 1 0 1 0 1 0

>  <DIFUSE_FUNC_ATOM>  (755) 
atom 6   atom 7   

>  <FINAL_SINGLE_POINT_ENERGY>  (755) 
0

>  <NONCOV_INTER_ENERGY_QM>  (755) 
0

>  <FF_Energy>  (755) 
-1.53

>  <QM_Energy>  (755) 
-8.43

>  <source>  (755) 
ACET_MBZ_00

>  <Index>  (755) 
26272

$$$$
ACET-pdb2qlr-A-GLU-229:MBZ-pdb2qlr-A-PHE-246
     RDKit          3D

 22 21  0  0  0  0  0  0  0  0999 V2000
   -4.4191    2.9961    0.0169 C   0  0  0  0  0  0  0  0  0  0  0  0
   -5.2528    3.4235    0.3390 H   0  0  0  0  0  0  0  0  0  0  0  0
   -4.4930    2.0088    0.0417 H   0  0  0  0  0  0  0  0  0  0  0  0
   -4.2647    3.2978   -1.0191 H   0  0  0  0  0  0  0  0  0  0  0  0
   -3.3076    3.3959    0.9514 C   0  0  0  0  0  0  0  0  0  0  0  0
   -2.9911    2.5361    1.7856 O   0  0  0  0  0  1  0  0  0  0  0  0
   -2.7309    4.5082    0.8567 O   0  0  0  0  0  0  0  0  0  0  0  0
   -0.0016    2.9020    0.0096 C   0  0  0  0  0  0  0  0  0  0  0  0
   -0.9222    3.2242   -0.1233 H   0  0  0  0  0  0  0  0  0  0  0  0
    0.6099    3.2336   -0.6881 H   0  0  0  0  0  0  0  0  0  0  0  0
    0.3460    3.3051    0.9609 H   0  0  0  0  0  0  0  0  0  0  0  0
   -0.0051    1.4121   -0.0245 C   0  0  0  0  0  0  0  0  0  0  0  0
   -1.2327    0.6994   -0.0267 C   0  0  0  0  0  0  0  0  0  0  0  0
   -2.0852    1.2007   -0.0488 H   0  0  0  0  0  0  0  0  0  0  0  0
   -1.2496   -0.7025   -0.0000 C   0  0  0  0  0  0  0  0  0  0  0  0
   -2.0924   -1.2097    0.0113 H   0  0  0  0  0  0  0  0  0  0  0  0
    0.0194   -1.4126    0.0122 C   0  0  0  0  0  0  0  0  0  0  0  0
    0.0105   -2.3997    0.0287 H   0  0  0  0  0  0  0  0  0  0  0  0
    1.2496   -0.6955    0.0000 C   0  0  0  0  0  0  0  0  0  0  0  0
    2.1164   -1.1893   -0.0349 H   0  0  0  0  0  0  0  0  0  0  0  0
    1.2184    0.6992    0.0391 C   0  0  0  0  0  0  0  0  0  0  0  0
    2.0711    1.2140    0.1123 H   0  0  0  0  0  0  0  0  0  0  0  0
  1  5  1  0
  5  6  1  0
  5  7  2  0
  1  2  1  0
  1  3  1  0
  1  4  1  0
  8 12  1  0
 12 13  2  0
 13 15  1  0
 15 17  2  0
 17 19  1  0
 19 21  2  0
 21 12  1  0
  8  9  1  0
  8 10  1  0
  8 11  1  0
 13 14  1  0
 15 16  1  0
 17 18  1  0
 19 20  1  0
 21 22  1  0
M  CHG  1   6  -1
M  END
>  <PDB_ID>  (756) 
pdb2qlr

>  <RESIDUE_NAME>  (756) 
GLU   PHE

>  <FRAG_NAME>  (756) 
ACET   MBZ

>  <FRAG_ATOM_NUM>  (756) 
fragi: 7  fragj: 15

>  <atom.prop.CHAIN_ID>  (756) 
A A A A A A A Z Z Z Z Z Z Z Z Z Z Z Z Z Z Z

>  <atom.prop.IS_HEAVY_ATOM>  (756) 
1 0 0 0 1 1 1 1 0 0 0 1 1 0 1 0 1 0 1 0 1 0

>  <DIFUSE_FUNC_ATOM>  (756) 
atom 6   atom 7   

>  <FINAL_SINGLE_POINT_ENERGY>  (756) 
0

>  <NONCOV_INTER_ENERGY_QM>  (756) 
0

>  <FF_Energy>  (756) 
-0.07

>  <QM_Energy>  (756) 
-6.83

>  <source>  (756) 
ACET_MBZ_00

>  <Index>  (756) 
26290

$$$$
ACET-pdb2qlr-B-GLU-229:MBZ-pdb2qlr-B-PHE-246
     RDKit          3D

 22 21  0  0  0  0  0  0  0  0999 V2000
   -4.6073    2.6941    0.5316 C   0  0  0  0  0  0  0  0  0  0  0  0
   -5.4023    3.1840    0.8309 H   0  0  0  0  0  0  0  0  0  0  0  0
   -4.6850    1.7263    0.6708 H   0  0  0  0  0  0  0  0  0  0  0  0
   -4.4659    2.8821   -0.5327 H   0  0  0  0  0  0  0  0  0  0  0  0
   -3.4349    3.1810    1.3425 C   0  0  0  0  0  0  0  0  0  0  0  0
   -2.9550    4.3107    1.1629 O   0  0  0  0  0  1  0  0  0  0  0  0
   -2.9642    2.4074    2.1733 O   0  0  0  0  0  0  0  0  0  0  0  0
   -0.0452    2.8660    0.0102 C   0  0  0  0  0  0  0  0  0  0  0  0
   -0.9871    3.1657   -0.0073 H   0  0  0  0  0  0  0  0  0  0  0  0
    0.4509    3.1935   -0.7799 H   0  0  0  0  0  0  0  0  0  0  0  0
    0.4227    3.2957    0.8958 H   0  0  0  0  0  0  0  0  0  0  0  0
   -0.0210    1.3868    0.0012 C   0  0  0  0  0  0  0  0  0  0  0  0
   -1.2168    0.6645    0.0058 C   0  0  0  0  0  0  0  0  0  0  0  0
   -2.0836    1.1771    0.0127 H   0  0  0  0  0  0  0  0  0  0  0  0
   -1.2296   -0.6878   -0.0000 C   0  0  0  0  0  0  0  0  0  0  0  0
   -2.0692   -1.2188    0.0026 H   0  0  0  0  0  0  0  0  0  0  0  0
    0.0327   -1.3849   -0.0093 C   0  0  0  0  0  0  0  0  0  0  0  0
    0.0151   -2.3820   -0.0228 H   0  0  0  0  0  0  0  0  0  0  0  0
    1.2296   -0.6847    0.0000 C   0  0  0  0  0  0  0  0  0  0  0  0
    2.1121   -1.1713    0.0065 H   0  0  0  0  0  0  0  0  0  0  0  0
    1.2051    0.7061    0.0023 C   0  0  0  0  0  0  0  0  0  0  0  0
    2.0535    1.2215    0.0036 H   0  0  0  0  0  0  0  0  0  0  0  0
  1  5  1  0
  5  6  1  0
  5  7  2  0
  1  2  1  0
  1  3  1  0
  1  4  1  0
  8 12  1  0
 12 13  2  0
 13 15  1  0
 15 17  2  0
 17 19  1  0
 19 21  2  0
 21 12  1  0
  8  9  1  0
  8 10  1  0
  8 11  1  0
 13 14  1  0
 15 16  1  0
 17 18  1  0
 19 20  1  0
 21 22  1  0
M  CHG  1   6  -1
M  END
>  <PDB_ID>  (757) 
pdb2qlr

>  <RESIDUE_NAME>  (757) 
GLU   PHE

>  <FRAG_NAME>  (757) 
ACET   MBZ

>  <FRAG_ATOM_NUM>  (757) 
fragi: 7  fragj: 15

>  <atom.prop.CHAIN_ID>  (757) 
A A A A A A A Z Z Z Z Z Z Z Z Z Z Z Z Z Z Z

>  <atom.prop.IS_HEAVY_ATOM>  (757) 
1 0 0 0 1 1 1 1 0 0 0 1 1 0 1 0 1 0 1 0 1 0

>  <DIFUSE_FUNC_ATOM>  (757) 
atom 6   atom 7   

>  <FINAL_SINGLE_POINT_ENERGY>  (757) 
0

>  <NONCOV_INTER_ENERGY_QM>  (757) 
0

>  <FF_Energy>  (757) 
-1.15

>  <QM_Energy>  (757) 
-6.62

>  <source>  (757) 
ACET_MBZ_00

>  <Index>  (757) 
26291

$$$$
ACET-pdb2qlr-C-GLU-229:MBZ-pdb2qlr-C-PHE-246
     RDKit          3D

 22 21  0  0  0  0  0  0  0  0999 V2000
   -4.5509    3.1962    0.4961 C   0  0  0  0  0  0  0  0  0  0  0  0
   -5.0030    4.0660    0.5387 H   0  0  0  0  0  0  0  0  0  0  0  0
   -5.0403    2.4950    0.9787 H   0  0  0  0  0  0  0  0  0  0  0  0
   -4.3463    2.9040   -0.5338 H   0  0  0  0  0  0  0  0  0  0  0  0
   -3.2392    3.3715    1.2334 C   0  0  0  0  0  0  0  0  0  0  0  0
   -2.8339    2.3628    1.8183 O   0  0  0  0  0  1  0  0  0  0  0  0
   -2.6574    4.4545    1.1418 O   0  0  0  0  0  0  0  0  0  0  0  0
   -0.0291    2.9097   -0.0100 C   0  0  0  0  0  0  0  0  0  0  0  0
   -0.9792    3.1995   -0.0132 H   0  0  0  0  0  0  0  0  0  0  0  0
    0.4283    3.2062   -0.8407 H   0  0  0  0  0  0  0  0  0  0  0  0
    0.4652    3.3913    0.8337 H   0  0  0  0  0  0  0  0  0  0  0  0
   -0.0011    1.4173    0.0265 C   0  0  0  0  0  0  0  0  0  0  0  0
   -1.2028    0.6935   -0.0000 C   0  0  0  0  0  0  0  0  0  0  0  0
   -2.0720    1.1768   -0.0212 H   0  0  0  0  0  0  0  0  0  0  0  0
   -1.2176   -0.7257   -0.0000 C   0  0  0  0  0  0  0  0  0  0  0  0
   -2.0833   -1.2088    0.0201 H   0  0  0  0  0  0  0  0  0  0  0  0
    0.0051   -1.4173   -0.0263 C   0  0  0  0  0  0  0  0  0  0  0  0
    0.0114   -2.4103   -0.0639 H   0  0  0  0  0  0  0  0  0  0  0  0
    1.2176   -0.7019   -0.0000 C   0  0  0  0  0  0  0  0  0  0  0  0
    2.0982   -1.1754    0.0205 H   0  0  0  0  0  0  0  0  0  0  0  0
    1.1988    0.7341   -0.0002 C   0  0  0  0  0  0  0  0  0  0  0  0
    2.0656    1.2158   -0.0204 H   0  0  0  0  0  0  0  0  0  0  0  0
  1  5  1  0
  5  6  1  0
  5  7  2  0
  1  2  1  0
  1  3  1  0
  1  4  1  0
  8 12  1  0
 12 13  2  0
 13 15  1  0
 15 17  2  0
 17 19  1  0
 19 21  2  0
 21 12  1  0
  8  9  1  0
  8 10  1  0
  8 11  1  0
 13 14  1  0
 15 16  1  0
 17 18  1  0
 19 20  1  0
 21 22  1  0
M  CHG  1   6  -1
M  END
>  <PDB_ID>  (758) 
pdb2qlr

>  <RESIDUE_NAME>  (758) 
GLU   PHE

>  <FRAG_NAME>  (758) 
ACET   MBZ

>  <FRAG_ATOM_NUM>  (758) 
fragi: 7  fragj: 15

>  <atom.prop.CHAIN_ID>  (758) 
A A A A A A A Z Z Z Z Z Z Z Z Z Z Z Z Z Z Z

>  <atom.prop.IS_HEAVY_ATOM>  (758) 
1 0 0 0 1 1 1 1 0 0 0 1 1 0 1 0 1 0 1 0 1 0

>  <DIFUSE_FUNC_ATOM>  (758) 
atom 6   atom 7   

>  <FINAL_SINGLE_POINT_ENERGY>  (758) 
0

>  <NONCOV_INTER_ENERGY_QM>  (758) 
0

>  <FF_Energy>  (758) 
1.32

>  <QM_Energy>  (758) 
-6.18

>  <source>  (758) 
ACET_MBZ_00

>  <Index>  (758) 
26293

$$$$
ACET-pdb2qog-B-ASP-99:MBZ-pdb2qog-B-PHE-5
     RDKit          3D

 22 21  0  0  0  0  0  0  0  0999 V2000
   -2.5404    1.6602   -2.9434 C   0  0  0  0  0  0  0  0  0  0  0  0
   -3.2200    2.1824   -3.4411 H   0  0  0  0  0  0  0  0  0  0  0  0
   -2.6231    1.8122   -1.9682 H   0  0  0  0  0  0  0  0  0  0  0  0
   -2.7191    0.6025   -3.1371 H   0  0  0  0  0  0  0  0  0  0  0  0
   -1.1545    2.1119   -3.3921 C   0  0  0  0  0  0  0  0  0  0  0  0
   -0.3299    1.2484   -3.7520 O   0  0  0  0  0  1  0  0  0  0  0  0
   -0.8872    3.3333   -3.3830 O   0  0  0  0  0  0  0  0  0  0  0  0
    0.0116    2.8990   -0.0274 C   0  0  0  0  0  0  0  0  0  0  0  0
   -0.0056    3.1905   -0.9738 H   0  0  0  0  0  0  0  0  0  0  0  0
    0.8366    3.2087    0.4252 H   0  0  0  0  0  0  0  0  0  0  0  0
   -0.8381    3.3581    0.4779 H   0  0  0  0  0  0  0  0  0  0  0  0
    0.0009    1.4028   -0.0007 C   0  0  0  0  0  0  0  0  0  0  0  0
   -1.1949    0.7008    0.0011 C   0  0  0  0  0  0  0  0  0  0  0  0
   -2.0605    1.1915    0.0022 H   0  0  0  0  0  0  0  0  0  0  0  0
   -1.2001   -0.6877    0.0000 C   0  0  0  0  0  0  0  0  0  0  0  0
   -2.0800   -1.1806    0.0007 H   0  0  0  0  0  0  0  0  0  0  0  0
   -0.0017   -1.3941   -0.0003 C   0  0  0  0  0  0  0  0  0  0  0  0
   -0.0180   -2.3937   -0.0009 H   0  0  0  0  0  0  0  0  0  0  0  0
    1.2001   -0.7110   -0.0000 C   0  0  0  0  0  0  0  0  0  0  0  0
    2.0793   -1.2040    0.0020 H   0  0  0  0  0  0  0  0  0  0  0  0
    1.1956    0.6893   -0.0002 C   0  0  0  0  0  0  0  0  0  0  0  0
    2.0664    1.1802   -0.0013 H   0  0  0  0  0  0  0  0  0  0  0  0
  1  5  1  0
  5  6  1  0
  5  7  2  0
  1  2  1  0
  1  3  1  0
  1  4  1  0
  8 12  1  0
 12 13  2  0
 13 15  1  0
 15 17  2  0
 17 19  1  0
 19 21  2  0
 21 12  1  0
  8  9  1  0
  8 10  1  0
  8 11  1  0
 13 14  1  0
 15 16  1  0
 17 18  1  0
 19 20  1  0
 21 22  1  0
M  CHG  1   6  -1
M  END
>  <PDB_ID>  (759) 
pdb2qog

>  <RESIDUE_NAME>  (759) 
ASP   PHE

>  <FRAG_NAME>  (759) 
ACET   MBZ

>  <FRAG_ATOM_NUM>  (759) 
fragi: 7  fragj: 15

>  <atom.prop.CHAIN_ID>  (759) 
A A A A A A A Z Z Z Z Z Z Z Z Z Z Z Z Z Z Z

>  <atom.prop.IS_HEAVY_ATOM>  (759) 
1 0 0 0 1 1 1 1 0 0 0 1 1 0 1 0 1 0 1 0 1 0

>  <DIFUSE_FUNC_ATOM>  (759) 
atom 6   atom 7   

>  <FINAL_SINGLE_POINT_ENERGY>  (759) 
0

>  <NONCOV_INTER_ENERGY_QM>  (759) 
0

>  <FF_Energy>  (759) 
1.61

>  <QM_Energy>  (759) 
-3.42

>  <source>  (759) 
ACET_MBZ_00

>  <Index>  (759) 
26531

$$$$
ACET-pdb2qpy-A-GLU-837:MBZ-pdb2qpy-A-PHE-673
     RDKit          3D

 22 21  0  0  0  0  0  0  0  0999 V2000
    0.4815    0.0947   -3.3159 C   0  0  0  0  0  0  0  0  0  0  0  0
   -0.0894   -0.1236   -4.0800 H   0  0  0  0  0  0  0  0  0  0  0  0
    0.0734   -0.1275   -2.4557 H   0  0  0  0  0  0  0  0  0  0  0  0
    1.4112   -0.4662   -3.4111 H   0  0  0  0  0  0  0  0  0  0  0  0
    0.7217    1.5984   -3.3358 C   0  0  0  0  0  0  0  0  0  0  0  0
    1.6588    2.0652   -2.6363 O   0  0  0  0  0  1  0  0  0  0  0  0
   -0.0276    2.3101   -4.0340 O   0  0  0  0  0  0  0  0  0  0  0  0
    0.0033    2.9053    0.0159 C   0  0  0  0  0  0  0  0  0  0  0  0
   -0.6643    3.2214   -0.6409 H   0  0  0  0  0  0  0  0  0  0  0  0
    0.9128    3.2120   -0.2201 H   0  0  0  0  0  0  0  0  0  0  0  0
   -0.2527    3.3344    0.9847 H   0  0  0  0  0  0  0  0  0  0  0  0
   -0.0005    1.4043   -0.0009 C   0  0  0  0  0  0  0  0  0  0  0  0
   -1.1974    0.6950    0.0011 C   0  0  0  0  0  0  0  0  0  0  0  0
   -2.0640    1.1868    0.0027 H   0  0  0  0  0  0  0  0  0  0  0  0
   -1.2027   -0.6936   -0.0000 C   0  0  0  0  0  0  0  0  0  0  0  0
   -2.0804   -1.1881   -0.0003 H   0  0  0  0  0  0  0  0  0  0  0  0
   -0.0011   -1.3977    0.0007 C   0  0  0  0  0  0  0  0  0  0  0  0
   -0.0102   -2.3948    0.0006 H   0  0  0  0  0  0  0  0  0  0  0  0
    1.2027   -0.7036   -0.0000 C   0  0  0  0  0  0  0  0  0  0  0  0
    2.0823   -1.1983    0.0019 H   0  0  0  0  0  0  0  0  0  0  0  0
    1.1989    0.6956   -0.0009 C   0  0  0  0  0  0  0  0  0  0  0  0
    2.0663    1.1882   -0.0025 H   0  0  0  0  0  0  0  0  0  0  0  0
  1  5  1  0
  5  6  1  0
  5  7  2  0
  1  2  1  0
  1  3  1  0
  1  4  1  0
  8 12  1  0
 12 13  2  0
 13 15  1  0
 15 17  2  0
 17 19  1  0
 19 21  2  0
 21 12  1  0
  8  9  1  0
  8 10  1  0
  8 11  1  0
 13 14  1  0
 15 16  1  0
 17 18  1  0
 19 20  1  0
 21 22  1  0
M  CHG  1   6  -1
M  END
>  <PDB_ID>  (760) 
pdb2qpy

>  <RESIDUE_NAME>  (760) 
GLU   PHE

>  <FRAG_NAME>  (760) 
ACET   MBZ

>  <FRAG_ATOM_NUM>  (760) 
fragi: 7  fragj: 15

>  <atom.prop.CHAIN_ID>  (760) 
A A A A A A A Z Z Z Z Z Z Z Z Z Z Z Z Z Z Z

>  <atom.prop.IS_HEAVY_ATOM>  (760) 
1 0 0 0 1 1 1 1 0 0 0 1 1 0 1 0 1 0 1 0 1 0

>  <DIFUSE_FUNC_ATOM>  (760) 
atom 6   atom 7   

>  <FINAL_SINGLE_POINT_ENERGY>  (760) 
0

>  <NONCOV_INTER_ENERGY_QM>  (760) 
0

>  <FF_Energy>  (760) 
2.21

>  <QM_Energy>  (760) 
-5.15

>  <source>  (760) 
ACET_MBZ_00

>  <Index>  (760) 
26593

$$$$
ACET-pdb2qqq-C-GLU-85:MBZ-pdb2qqq-A-PHE-39
     RDKit          3D

 22 21  0  0  0  0  0  0  0  0999 V2000
   -5.6511   -2.3826   -2.4098 C   0  0  0  0  0  0  0  0  0  0  0  0
   -6.4205   -2.9095   -2.1016 H   0  0  0  0  0  0  0  0  0  0  0  0
   -4.8764   -2.9450   -2.6316 H   0  0  0  0  0  0  0  0  0  0  0  0
   -5.9474   -1.8369   -3.3056 H   0  0  0  0  0  0  0  0  0  0  0  0
   -5.2401   -1.4632   -1.2760 C   0  0  0  0  0  0  0  0  0  0  0  0
   -6.0824   -0.6589   -0.8266 O   0  0  0  0  0  1  0  0  0  0  0  0
   -4.0746   -1.5443   -0.8356 O   0  0  0  0  0  0  0  0  0  0  0  0
    0.0091    2.9311   -0.0154 C   0  0  0  0  0  0  0  0  0  0  0  0
   -0.7997    3.2338   -0.4846 H   0  0  0  0  0  0  0  0  0  0  0  0
    0.8331    3.2204   -0.4651 H   0  0  0  0  0  0  0  0  0  0  0  0
    0.0014    3.3627    0.9855 H   0  0  0  0  0  0  0  0  0  0  0  0
   -0.0037    1.4024   -0.0133 C   0  0  0  0  0  0  0  0  0  0  0  0
   -1.2077    0.6910    0.0210 C   0  0  0  0  0  0  0  0  0  0  0  0
   -2.0698    1.1714    0.0591 H   0  0  0  0  0  0  0  0  0  0  0  0
   -1.2005   -0.7129   -0.0000 C   0  0  0  0  0  0  0  0  0  0  0  0
   -2.0622   -1.2139   -0.0148 H   0  0  0  0  0  0  0  0  0  0  0  0
    0.0253   -1.3888    0.0024 C   0  0  0  0  0  0  0  0  0  0  0  0
    0.0261   -2.3904    0.0056 H   0  0  0  0  0  0  0  0  0  0  0  0
    1.2005   -0.6824    0.0000 C   0  0  0  0  0  0  0  0  0  0  0  0
    2.0953   -1.1750    0.0068 H   0  0  0  0  0  0  0  0  0  0  0  0
    1.1861    0.6907   -0.0101 C   0  0  0  0  0  0  0  0  0  0  0  0
    2.0576    1.1983   -0.0161 H   0  0  0  0  0  0  0  0  0  0  0  0
  1  5  1  0
  5  6  1  0
  5  7  2  0
  1  2  1  0
  1  3  1  0
  1  4  1  0
  8 12  1  0
 12 13  2  0
 13 15  1  0
 15 17  2  0
 17 19  1  0
 19 21  2  0
 21 12  1  0
  8  9  1  0
  8 10  1  0
  8 11  1  0
 13 14  1  0
 15 16  1  0
 17 18  1  0
 19 20  1  0
 21 22  1  0
M  CHG  1   6  -1
M  END
>  <PDB_ID>  (761) 
pdb2qqq

>  <RESIDUE_NAME>  (761) 
GLU   PHE

>  <FRAG_NAME>  (761) 
ACET   MBZ

>  <FRAG_ATOM_NUM>  (761) 
fragi: 7  fragj: 15

>  <atom.prop.CHAIN_ID>  (761) 
A A A A A A A Z Z Z Z Z Z Z Z Z Z Z Z Z Z Z

>  <atom.prop.IS_HEAVY_ATOM>  (761) 
1 0 0 0 1 1 1 1 0 0 0 1 1 0 1 0 1 0 1 0 1 0

>  <DIFUSE_FUNC_ATOM>  (761) 
atom 6   atom 7   

>  <FINAL_SINGLE_POINT_ENERGY>  (761) 
0

>  <NONCOV_INTER_ENERGY_QM>  (761) 
0

>  <FF_Energy>  (761) 
-0.62

>  <QM_Energy>  (761) 
-6.33

>  <source>  (761) 
ACET_MBZ_00

>  <Index>  (761) 
26614

$$$$
ACET-pdb2qry-D-GLU-309:MBZ-pdb2qry-D-PHE-305
     RDKit          3D

 22 21  0  0  0  0  0  0  0  0999 V2000
    2.0313    2.4916   -3.8237 C   0  0  0  0  0  0  0  0  0  0  0  0
    1.1018    2.3589   -3.5331 H   0  0  0  0  0  0  0  0  0  0  0  0
    2.2259    2.0345   -4.6715 H   0  0  0  0  0  0  0  0  0  0  0  0
    2.2145    3.5591   -3.9459 H   0  0  0  0  0  0  0  0  0  0  0  0
    2.9261    1.8792   -2.7671 C   0  0  0  0  0  0  0  0  0  0  0  0
    3.2110    2.5568   -1.7464 O   0  0  0  0  0  1  0  0  0  0  0  0
    3.3278    0.7128   -2.9652 O   0  0  0  0  0  0  0  0  0  0  0  0
   -0.0045    2.9015   -0.0839 C   0  0  0  0  0  0  0  0  0  0  0  0
   -0.9483    3.2032   -0.1002 H   0  0  0  0  0  0  0  0  0  0  0  0
    0.4668    3.1646   -0.9149 H   0  0  0  0  0  0  0  0  0  0  0  0
    0.4899    3.3997    0.7500 H   0  0  0  0  0  0  0  0  0  0  0  0
    0.0012    1.4002   -0.0014 C   0  0  0  0  0  0  0  0  0  0  0  0
   -1.1997    0.6890    0.0028 C   0  0  0  0  0  0  0  0  0  0  0  0
   -2.0641    1.1856    0.0068 H   0  0  0  0  0  0  0  0  0  0  0  0
   -1.2062   -0.6931   -0.0000 C   0  0  0  0  0  0  0  0  0  0  0  0
   -2.0803   -1.1920    0.0012 H   0  0  0  0  0  0  0  0  0  0  0  0
   -0.0005   -1.3915   -0.0021 C   0  0  0  0  0  0  0  0  0  0  0  0
   -0.0067   -2.3907   -0.0055 H   0  0  0  0  0  0  0  0  0  0  0  0
    1.2062   -0.6977    0.0000 C   0  0  0  0  0  0  0  0  0  0  0  0
    2.0836   -1.1961    0.0023 H   0  0  0  0  0  0  0  0  0  0  0  0
    1.1990    0.6930    0.0007 C   0  0  0  0  0  0  0  0  0  0  0  0
    2.0660    1.1912    0.0017 H   0  0  0  0  0  0  0  0  0  0  0  0
  1  5  1  0
  5  6  1  0
  5  7  2  0
  1  2  1  0
  1  3  1  0
  1  4  1  0
  8 12  1  0
 12 13  2  0
 13 15  1  0
 15 17  2  0
 17 19  1  0
 19 21  2  0
 21 12  1  0
  8  9  1  0
  8 10  1  0
  8 11  1  0
 13 14  1  0
 15 16  1  0
 17 18  1  0
 19 20  1  0
 21 22  1  0
M  CHG  1   6  -1
M  END
>  <PDB_ID>  (762) 
pdb2qry

>  <RESIDUE_NAME>  (762) 
GLU   PHE

>  <FRAG_NAME>  (762) 
ACET   MBZ

>  <FRAG_ATOM_NUM>  (762) 
fragi: 7  fragj: 15

>  <atom.prop.CHAIN_ID>  (762) 
A A A A A A A Z Z Z Z Z Z Z Z Z Z Z Z Z Z Z

>  <atom.prop.IS_HEAVY_ATOM>  (762) 
1 0 0 0 1 1 1 1 0 0 0 1 1 0 1 0 1 0 1 0 1 0

>  <DIFUSE_FUNC_ATOM>  (762) 
atom 6   atom 7   

>  <FINAL_SINGLE_POINT_ENERGY>  (762) 
0

>  <NONCOV_INTER_ENERGY_QM>  (762) 
0

>  <FF_Energy>  (762) 
-1.63

>  <QM_Energy>  (762) 
-7.0

>  <source>  (762) 
ACET_MBZ_00

>  <Index>  (762) 
26668

$$$$
ACET-pdb1n4m-A-ASP-479:MBZ-pdb1n4m-C-PHE-426
     RDKit          3D

 22 21  0  0  0  0  0  0  0  0999 V2000
    3.5282    4.2921   -2.9282 C   0  0  0  0  0  0  0  0  0  0  0  0
    3.2583    5.2172   -2.6942 H   0  0  0  0  0  0  0  0  0  0  0  0
    2.7809    3.8069   -3.3620 H   0  0  0  0  0  0  0  0  0  0  0  0
    4.3509    4.3516   -3.6407 H   0  0  0  0  0  0  0  0  0  0  0  0
    3.9157    3.5597   -1.6567 C   0  0  0  0  0  0  0  0  0  0  0  0
    3.1579    3.6431   -0.6707 O   0  0  0  0  0  1  0  0  0  0  0  0
    4.9800    2.9001   -1.6486 O   0  0  0  0  0  0  0  0  0  0  0  0
    0.0020    2.9110    0.0060 C   0  0  0  0  0  0  0  0  0  0  0  0
   -0.7737    3.2186   -0.5211 H   0  0  0  0  0  0  0  0  0  0  0  0
    0.8542    3.2142   -0.3894 H   0  0  0  0  0  0  0  0  0  0  0  0
   -0.0779    3.3446    1.0029 H   0  0  0  0  0  0  0  0  0  0  0  0
   -0.0011    1.4012   -0.0005 C   0  0  0  0  0  0  0  0  0  0  0  0
   -1.1988    0.6935    0.0031 C   0  0  0  0  0  0  0  0  0  0  0  0
   -2.0645    1.1911    0.0066 H   0  0  0  0  0  0  0  0  0  0  0  0
   -1.2074   -0.6876    0.0000 C   0  0  0  0  0  0  0  0  0  0  0  0
   -2.0827   -1.1862    0.0008 H   0  0  0  0  0  0  0  0  0  0  0  0
   -0.0011   -1.3972   -0.0025 C   0  0  0  0  0  0  0  0  0  0  0  0
   -0.0109   -2.3910   -0.0068 H   0  0  0  0  0  0  0  0  0  0  0  0
    1.2074   -0.7002   -0.0000 C   0  0  0  0  0  0  0  0  0  0  0  0
    2.0848   -1.1999    0.0029 H   0  0  0  0  0  0  0  0  0  0  0  0
    1.2010    0.6903   -0.0002 C   0  0  0  0  0  0  0  0  0  0  0  0
    2.0664    1.1895   -0.0006 H   0  0  0  0  0  0  0  0  0  0  0  0
  1  5  1  0
  5  6  1  0
  5  7  2  0
  1  2  1  0
  1  3  1  0
  1  4  1  0
  8 12  1  0
 12 13  2  0
 13 15  1  0
 15 17  2  0
 17 19  1  0
 19 21  2  0
 21 12  1  0
  8  9  1  0
  8 10  1  0
  8 11  1  0
 13 14  1  0
 15 16  1  0
 17 18  1  0
 19 20  1  0
 21 22  1  0
M  CHG  1   6  -1
M  END
>  <PDB_ID>  (763) 
pdb1n4m

>  <RESIDUE_NAME>  (763) 
ASP   PHE

>  <FRAG_NAME>  (763) 
ACET   MBZ

>  <FRAG_ATOM_NUM>  (763) 
fragi: 7  fragj: 15

>  <atom.prop.CHAIN_ID>  (763) 
A A A A A A A Z Z Z Z Z Z Z Z Z Z Z Z Z Z Z

>  <atom.prop.IS_HEAVY_ATOM>  (763) 
1 0 0 0 1 1 1 1 0 0 0 1 1 0 1 0 1 0 1 0 1 0

>  <DIFUSE_FUNC_ATOM>  (763) 
atom 6   atom 7   

>  <FINAL_SINGLE_POINT_ENERGY>  (763) 
0

>  <NONCOV_INTER_ENERGY_QM>  (763) 
0

>  <FF_Energy>  (763) 
-2.0

>  <QM_Energy>  (763) 
-7.79

>  <source>  (763) 
ACET_MBZ_00

>  <Index>  (763) 
26750

$$$$
ACET-pdb2qts-A-ASP-312:MBZ-pdb2qts-A-PHE-300
     RDKit          3D

 22 21  0  0  0  0  0  0  0  0999 V2000
    5.2196    1.8476    0.3520 C   0  0  0  0  0  0  0  0  0  0  0  0
    4.5363    2.5681    0.3642 H   0  0  0  0  0  0  0  0  0  0  0  0
    6.1340    2.2351    0.3423 H   0  0  0  0  0  0  0  0  0  0  0  0
    5.1104    1.2672    1.2682 H   0  0  0  0  0  0  0  0  0  0  0  0
    5.0275    1.0121   -0.8972 C   0  0  0  0  0  0  0  0  0  0  0  0
    3.9751    0.3529   -1.0188 O   0  0  0  0  0  1  0  0  0  0  0  0
    5.9286    1.0204   -1.7642 O   0  0  0  0  0  0  0  0  0  0  0  0
    0.0040    2.9068    0.0408 C   0  0  0  0  0  0  0  0  0  0  0  0
    0.9203    3.2173   -0.1674 H   0  0  0  0  0  0  0  0  0  0  0  0
   -0.2723    3.1901    0.9482 H   0  0  0  0  0  0  0  0  0  0  0  0
   -0.6743    3.3735   -0.6734 H   0  0  0  0  0  0  0  0  0  0  0  0
    0.0004    1.4044    0.0002 C   0  0  0  0  0  0  0  0  0  0  0  0
   -1.1984    0.6951    0.0002 C   0  0  0  0  0  0  0  0  0  0  0  0
   -2.0643    1.1850   -0.0009 H   0  0  0  0  0  0  0  0  0  0  0  0
   -1.2036   -0.6982    0.0000 C   0  0  0  0  0  0  0  0  0  0  0  0
   -2.0793   -1.1911    0.0005 H   0  0  0  0  0  0  0  0  0  0  0  0
    0.0002   -1.3974    0.0007 C   0  0  0  0  0  0  0  0  0  0  0  0
   -0.0042   -2.3942    0.0014 H   0  0  0  0  0  0  0  0  0  0  0  0
    1.2036   -0.6992   -0.0000 C   0  0  0  0  0  0  0  0  0  0  0  0
    2.0843   -1.1960    0.0014 H   0  0  0  0  0  0  0  0  0  0  0  0
    1.1978    0.6953   -0.0012 C   0  0  0  0  0  0  0  0  0  0  0  0
    2.0660    1.1911   -0.0040 H   0  0  0  0  0  0  0  0  0  0  0  0
  1  5  1  0
  5  6  1  0
  5  7  2  0
  1  2  1  0
  1  3  1  0
  1  4  1  0
  8 12  1  0
 12 13  2  0
 13 15  1  0
 15 17  2  0
 17 19  1  0
 19 21  2  0
 21 12  1  0
  8  9  1  0
  8 10  1  0
  8 11  1  0
 13 14  1  0
 15 16  1  0
 17 18  1  0
 19 20  1  0
 21 22  1  0
M  CHG  1   6  -1
M  END
>  <PDB_ID>  (764) 
pdb2qts

>  <RESIDUE_NAME>  (764) 
ASP   PHE

>  <FRAG_NAME>  (764) 
ACET   MBZ

>  <FRAG_ATOM_NUM>  (764) 
fragi: 7  fragj: 15

>  <atom.prop.CHAIN_ID>  (764) 
A A A A A A A Z Z Z Z Z Z Z Z Z Z Z Z Z Z Z

>  <atom.prop.IS_HEAVY_ATOM>  (764) 
1 0 0 0 1 1 1 1 0 0 0 1 1 0 1 0 1 0 1 0 1 0

>  <DIFUSE_FUNC_ATOM>  (764) 
atom 6   atom 7   

>  <FINAL_SINGLE_POINT_ENERGY>  (764) 
0

>  <NONCOV_INTER_ENERGY_QM>  (764) 
0

>  <FF_Energy>  (764) 
-0.74

>  <QM_Energy>  (764) 
-5.78

>  <source>  (764) 
ACET_MBZ_00

>  <Index>  (764) 
26892

$$$$
ACET-pdb2qts-B-ASP-312:MBZ-pdb2qts-B-PHE-300
     RDKit          3D

 22 21  0  0  0  0  0  0  0  0999 V2000
    5.2313    2.0179    1.1292 C   0  0  0  0  0  0  0  0  0  0  0  0
    5.6043    2.9098    1.3604 H   0  0  0  0  0  0  0  0  0  0  0  0
    5.8825    1.4987    0.5881 H   0  0  0  0  0  0  0  0  0  0  0  0
    5.0572    1.4753    2.0584 H   0  0  0  0  0  0  0  0  0  0  0  0
    3.9668    2.2133    0.3178 C   0  0  0  0  0  0  0  0  0  0  0  0
    3.0604    2.9457    0.7761 O   0  0  0  0  0  1  0  0  0  0  0  0
    3.8822    1.6278   -0.7858 O   0  0  0  0  0  0  0  0  0  0  0  0
   -0.0011    2.9087    0.0249 C   0  0  0  0  0  0  0  0  0  0  0  0
    0.9344    3.2172   -0.0602 H   0  0  0  0  0  0  0  0  0  0  0  0
   -0.3996    3.2004    0.8818 H   0  0  0  0  0  0  0  0  0  0  0  0
   -0.5761    3.3639   -0.7816 H   0  0  0  0  0  0  0  0  0  0  0  0
    0.0000    1.4042   -0.0001 C   0  0  0  0  0  0  0  0  0  0  0  0
   -1.1969    0.6943   -0.0000 C   0  0  0  0  0  0  0  0  0  0  0  0
   -2.0639    1.1837   -0.0015 H   0  0  0  0  0  0  0  0  0  0  0  0
   -1.2023   -0.6993    0.0000 C   0  0  0  0  0  0  0  0  0  0  0  0
   -2.0783   -1.1918    0.0008 H   0  0  0  0  0  0  0  0  0  0  0  0
    0.0006   -1.3967    0.0011 C   0  0  0  0  0  0  0  0  0  0  0  0
   -0.0025   -2.3942    0.0021 H   0  0  0  0  0  0  0  0  0  0  0  0
    1.2023   -0.6974    0.0000 C   0  0  0  0  0  0  0  0  0  0  0  0
    2.0838   -1.1940    0.0008 H   0  0  0  0  0  0  0  0  0  0  0  0
    1.1962    0.6949   -0.0010 C   0  0  0  0  0  0  0  0  0  0  0  0
    2.0648    1.1909   -0.0029 H   0  0  0  0  0  0  0  0  0  0  0  0
  1  5  1  0
  5  6  1  0
  5  7  2  0
  1  2  1  0
  1  3  1  0
  1  4  1  0
  8 12  1  0
 12 13  2  0
 13 15  1  0
 15 17  2  0
 17 19  1  0
 19 21  2  0
 21 12  1  0
  8  9  1  0
  8 10  1  0
  8 11  1  0
 13 14  1  0
 15 16  1  0
 17 18  1  0
 19 20  1  0
 21 22  1  0
M  CHG  1   6  -1
M  END
>  <PDB_ID>  (765) 
pdb2qts

>  <RESIDUE_NAME>  (765) 
ASP   PHE

>  <FRAG_NAME>  (765) 
ACET   MBZ

>  <FRAG_ATOM_NUM>  (765) 
fragi: 7  fragj: 15

>  <atom.prop.CHAIN_ID>  (765) 
A A A A A A A Z Z Z Z Z Z Z Z Z Z Z Z Z Z Z

>  <atom.prop.IS_HEAVY_ATOM>  (765) 
1 0 0 0 1 1 1 1 0 0 0 1 1 0 1 0 1 0 1 0 1 0

>  <DIFUSE_FUNC_ATOM>  (765) 
atom 6   atom 7   

>  <FINAL_SINGLE_POINT_ENERGY>  (765) 
0

>  <NONCOV_INTER_ENERGY_QM>  (765) 
0

>  <FF_Energy>  (765) 
15.33

>  <QM_Energy>  (765) 
-6.96

>  <source>  (765) 
ACET_MBZ_00

>  <Index>  (765) 
26893

$$$$
ACET-pdb2qwt-A-GLU-177:MBZ-pdb2qwt-A-PHE-87
     RDKit          3D

 22 21  0  0  0  0  0  0  0  0999 V2000
   -3.9310    0.7180    2.5064 C   0  0  0  0  0  0  0  0  0  0  0  0
   -3.8227    0.7528    1.5406 H   0  0  0  0  0  0  0  0  0  0  0  0
   -4.8538    0.7947    2.8046 H   0  0  0  0  0  0  0  0  0  0  0  0
   -3.5223   -0.2252    2.8691 H   0  0  0  0  0  0  0  0  0  0  0  0
   -3.1633    1.9257    3.0936 C   0  0  0  0  0  0  0  0  0  0  0  0
   -3.5994    2.4694    4.1418 O   0  0  0  0  0  1  0  0  0  0  0  0
   -2.0966    2.2679    2.5526 O   0  0  0  0  0  0  0  0  0  0  0  0
   -0.0209    2.8876   -0.0423 C   0  0  0  0  0  0  0  0  0  0  0  0
    0.9092    3.2106   -0.0284 H   0  0  0  0  0  0  0  0  0  0  0  0
   -0.5383    3.2178    0.7272 H   0  0  0  0  0  0  0  0  0  0  0  0
   -0.4913    3.2741   -0.9465 H   0  0  0  0  0  0  0  0  0  0  0  0
   -0.0012    1.3902    0.0099 C   0  0  0  0  0  0  0  0  0  0  0  0
   -1.2019    0.6703    0.0138 C   0  0  0  0  0  0  0  0  0  0  0  0
   -2.0664    1.1733    0.0252 H   0  0  0  0  0  0  0  0  0  0  0  0
   -1.2078   -0.6989    0.0000 C   0  0  0  0  0  0  0  0  0  0  0  0
   -2.0768   -1.2048   -0.0080 H   0  0  0  0  0  0  0  0  0  0  0  0
    0.0008   -1.3869   -0.0004 C   0  0  0  0  0  0  0  0  0  0  0  0
    0.0092   -2.3833   -0.0014 H   0  0  0  0  0  0  0  0  0  0  0  0
    1.2078   -0.6759    0.0000 C   0  0  0  0  0  0  0  0  0  0  0  0
    2.0872   -1.1822    0.0188 H   0  0  0  0  0  0  0  0  0  0  0  0
    1.2023    0.7012   -0.0232 C   0  0  0  0  0  0  0  0  0  0  0  0
    2.0606    1.2060   -0.0644 H   0  0  0  0  0  0  0  0  0  0  0  0
  1  5  1  0
  5  6  1  0
  5  7  2  0
  1  2  1  0
  1  3  1  0
  1  4  1  0
  8 12  1  0
 12 13  2  0
 13 15  1  0
 15 17  2  0
 17 19  1  0
 19 21  2  0
 21 12  1  0
  8  9  1  0
  8 10  1  0
  8 11  1  0
 13 14  1  0
 15 16  1  0
 17 18  1  0
 19 20  1  0
 21 22  1  0
M  CHG  1   6  -1
M  END
>  <PDB_ID>  (766) 
pdb2qwt

>  <RESIDUE_NAME>  (766) 
GLU   PHE

>  <FRAG_NAME>  (766) 
ACET   MBZ

>  <FRAG_ATOM_NUM>  (766) 
fragi: 7  fragj: 15

>  <atom.prop.CHAIN_ID>  (766) 
A A A A A A A Z Z Z Z Z Z Z Z Z Z Z Z Z Z Z

>  <atom.prop.IS_HEAVY_ATOM>  (766) 
1 0 0 0 1 1 1 1 0 0 0 1 1 0 1 0 1 0 1 0 1 0

>  <DIFUSE_FUNC_ATOM>  (766) 
atom 6   atom 7   

>  <FINAL_SINGLE_POINT_ENERGY>  (766) 
0

>  <NONCOV_INTER_ENERGY_QM>  (766) 
0

>  <FF_Energy>  (766) 
0.46

>  <QM_Energy>  (766) 
-5.08

>  <source>  (766) 
ACET_MBZ_00

>  <Index>  (766) 
27023

$$$$
ACET-pdb1nb2-A-GLU-127:MBZ-pdb1nb2-A-PHE-6
     RDKit          3D

 22 21  0  0  0  0  0  0  0  0999 V2000
    3.3477    2.3457   -3.0345 C   0  0  0  0  0  0  0  0  0  0  0  0
    3.3993    1.4246   -3.3646 H   0  0  0  0  0  0  0  0  0  0  0  0
    3.7491    2.9935   -3.6502 H   0  0  0  0  0  0  0  0  0  0  0  0
    2.2957    2.6017   -2.9082 H   0  0  0  0  0  0  0  0  0  0  0  0
    4.1455    2.4084   -1.7200 C   0  0  0  0  0  0  0  0  0  0  0  0
    3.7181    1.7938   -0.7129 O   0  0  0  0  0  1  0  0  0  0  0  0
    5.2051    3.0777   -1.6944 O   0  0  0  0  0  0  0  0  0  0  0  0
   -0.0054    2.8961    0.0829 C   0  0  0  0  0  0  0  0  0  0  0  0
   -0.7570    3.2310   -0.4605 H   0  0  0  0  0  0  0  0  0  0  0  0
    0.8624    3.2239   -0.2530 H   0  0  0  0  0  0  0  0  0  0  0  0
   -0.1339    3.2690    1.0990 H   0  0  0  0  0  0  0  0  0  0  0  0
   -0.0018    1.3987    0.0015 C   0  0  0  0  0  0  0  0  0  0  0  0
   -1.1991    0.6894   -0.0002 C   0  0  0  0  0  0  0  0  0  0  0  0
   -2.0644    1.1877   -0.0028 H   0  0  0  0  0  0  0  0  0  0  0  0
   -1.2081   -0.6898    0.0000 C   0  0  0  0  0  0  0  0  0  0  0  0
   -2.0791   -1.1906    0.0006 H   0  0  0  0  0  0  0  0  0  0  0  0
    0.0029   -1.3928    0.0015 C   0  0  0  0  0  0  0  0  0  0  0  0
   -0.0071   -2.3895    0.0031 H   0  0  0  0  0  0  0  0  0  0  0  0
    1.2081   -0.6986    0.0000 C   0  0  0  0  0  0  0  0  0  0  0  0
    2.0868   -1.1946    0.0028 H   0  0  0  0  0  0  0  0  0  0  0  0
    1.1980    0.6931   -0.0028 C   0  0  0  0  0  0  0  0  0  0  0  0
    2.0641    1.1925   -0.0089 H   0  0  0  0  0  0  0  0  0  0  0  0
  1  5  1  0
  5  6  1  0
  5  7  2  0
  1  2  1  0
  1  3  1  0
  1  4  1  0
  8 12  1  0
 12 13  2  0
 13 15  1  0
 15 17  2  0
 17 19  1  0
 19 21  2  0
 21 12  1  0
  8  9  1  0
  8 10  1  0
  8 11  1  0
 13 14  1  0
 15 16  1  0
 17 18  1  0
 19 20  1  0
 21 22  1  0
M  CHG  1   6  -1
M  END
>  <PDB_ID>  (767) 
pdb1nb2

>  <RESIDUE_NAME>  (767) 
GLU   PHE

>  <FRAG_NAME>  (767) 
ACET   MBZ

>  <FRAG_ATOM_NUM>  (767) 
fragi: 7  fragj: 15

>  <atom.prop.CHAIN_ID>  (767) 
A A A A A A A Z Z Z Z Z Z Z Z Z Z Z Z Z Z Z

>  <atom.prop.IS_HEAVY_ATOM>  (767) 
1 0 0 0 1 1 1 1 0 0 0 1 1 0 1 0 1 0 1 0 1 0

>  <DIFUSE_FUNC_ATOM>  (767) 
atom 6   atom 7   

>  <FINAL_SINGLE_POINT_ENERGY>  (767) 
0

>  <NONCOV_INTER_ENERGY_QM>  (767) 
0

>  <FF_Energy>  (767) 
13.52

>  <QM_Energy>  (767) 
-5.77

>  <source>  (767) 
ACET_MBZ_00

>  <Index>  (767) 
27099

$$$$
ACET-pdb1nb8-A-GLU-435:MBZ-pdb1nb8-A-PHE-361
     RDKit          3D

 22 21  0  0  0  0  0  0  0  0999 V2000
    5.4832   -2.5388   -1.8771 C   0  0  0  0  0  0  0  0  0  0  0  0
    5.8492   -1.6335   -1.8960 H   0  0  0  0  0  0  0  0  0  0  0  0
    4.8649   -2.7218   -2.6112 H   0  0  0  0  0  0  0  0  0  0  0  0
    6.3084   -3.2490   -1.9293 H   0  0  0  0  0  0  0  0  0  0  0  0
    4.6988   -2.6856   -0.5749 C   0  0  0  0  0  0  0  0  0  0  0  0
    3.5518   -2.1905   -0.4940 O   0  0  0  0  0  1  0  0  0  0  0  0
    5.2462   -3.2920    0.3738 O   0  0  0  0  0  0  0  0  0  0  0  0
   -0.0015    2.9115   -0.0347 C   0  0  0  0  0  0  0  0  0  0  0  0
    0.8473    3.2282    0.3621 H   0  0  0  0  0  0  0  0  0  0  0  0
   -0.7818    3.2280    0.4832 H   0  0  0  0  0  0  0  0  0  0  0  0
   -0.0761    3.3336   -1.0368 H   0  0  0  0  0  0  0  0  0  0  0  0
    0.0005    1.4054   -0.0010 C   0  0  0  0  0  0  0  0  0  0  0  0
   -1.2015    0.6908    0.0001 C   0  0  0  0  0  0  0  0  0  0  0  0
   -2.0672    1.1828   -0.0006 H   0  0  0  0  0  0  0  0  0  0  0  0
   -1.2095   -0.7047   -0.0000 C   0  0  0  0  0  0  0  0  0  0  0  0
   -2.0815   -1.1972    0.0024 H   0  0  0  0  0  0  0  0  0  0  0  0
   -0.0004   -1.3988   -0.0012 C   0  0  0  0  0  0  0  0  0  0  0  0
    0.0021   -2.3945   -0.0033 H   0  0  0  0  0  0  0  0  0  0  0  0
    1.2095   -0.6927   -0.0000 C   0  0  0  0  0  0  0  0  0  0  0  0
    2.0878   -1.1911    0.0004 H   0  0  0  0  0  0  0  0  0  0  0  0
    1.2015    0.7000    0.0021 C   0  0  0  0  0  0  0  0  0  0  0  0
    2.0675    1.1981    0.0046 H   0  0  0  0  0  0  0  0  0  0  0  0
  1  5  1  0
  5  6  1  0
  5  7  2  0
  1  2  1  0
  1  3  1  0
  1  4  1  0
  8 12  1  0
 12 13  2  0
 13 15  1  0
 15 17  2  0
 17 19  1  0
 19 21  2  0
 21 12  1  0
  8  9  1  0
  8 10  1  0
  8 11  1  0
 13 14  1  0
 15 16  1  0
 17 18  1  0
 19 20  1  0
 21 22  1  0
M  CHG  1   6  -1
M  END
>  <PDB_ID>  (768) 
pdb1nb8

>  <RESIDUE_NAME>  (768) 
GLU   PHE

>  <FRAG_NAME>  (768) 
ACET   MBZ

>  <FRAG_ATOM_NUM>  (768) 
fragi: 7  fragj: 15

>  <atom.prop.CHAIN_ID>  (768) 
A A A A A A A Z Z Z Z Z Z Z Z Z Z Z Z Z Z Z

>  <atom.prop.IS_HEAVY_ATOM>  (768) 
1 0 0 0 1 1 1 1 0 0 0 1 1 0 1 0 1 0 1 0 1 0

>  <DIFUSE_FUNC_ATOM>  (768) 
atom 6   atom 7   

>  <FINAL_SINGLE_POINT_ENERGY>  (768) 
0

>  <NONCOV_INTER_ENERGY_QM>  (768) 
0

>  <FF_Energy>  (768) 
21.04

>  <QM_Energy>  (768) 
-4.93

>  <source>  (768) 
ACET_MBZ_00

>  <Index>  (768) 
27134

$$$$
ACET-pdb1nd7-A-ASP-675:MBZ-pdb1nd7-A-PHE-617
     RDKit          3D

 22 21  0  0  0  0  0  0  0  0999 V2000
   -5.7719   -0.1760    1.3647 C   0  0  0  0  0  0  0  0  0  0  0  0
   -4.9882    0.1772    1.8625 H   0  0  0  0  0  0  0  0  0  0  0  0
   -6.1891   -0.9288    1.8597 H   0  0  0  0  0  0  0  0  0  0  0  0
   -6.5081    0.6237    1.2843 H   0  0  0  0  0  0  0  0  0  0  0  0
   -5.3006   -0.6834    0.0108 C   0  0  0  0  0  0  0  0  0  0  0  0
   -6.1626   -1.0080   -0.8348 O   0  0  0  0  0  1  0  0  0  0  0  0
   -4.0725   -0.7718   -0.2058 O   0  0  0  0  0  0  0  0  0  0  0  0
    0.0087    2.9082    0.0043 C   0  0  0  0  0  0  0  0  0  0  0  0
   -0.4223    3.2173   -0.8297 H   0  0  0  0  0  0  0  0  0  0  0  0
    0.9492    3.2101    0.0571 H   0  0  0  0  0  0  0  0  0  0  0  0
   -0.5302    3.3531    0.8408 H   0  0  0  0  0  0  0  0  0  0  0  0
    0.0013    1.4037    0.0040 C   0  0  0  0  0  0  0  0  0  0  0  0
   -1.1969    0.6986   -0.0008 C   0  0  0  0  0  0  0  0  0  0  0  0
   -2.0620    1.1876   -0.0061 H   0  0  0  0  0  0  0  0  0  0  0  0
   -1.2025   -0.6965   -0.0000 C   0  0  0  0  0  0  0  0  0  0  0  0
   -2.0802   -1.1876    0.0040 H   0  0  0  0  0  0  0  0  0  0  0  0
   -0.0019   -1.3972   -0.0027 C   0  0  0  0  0  0  0  0  0  0  0  0
   -0.0077   -2.3950   -0.0075 H   0  0  0  0  0  0  0  0  0  0  0  0
    1.2025   -0.7014    0.0000 C   0  0  0  0  0  0  0  0  0  0  0  0
    2.0819   -1.1985    0.0043 H   0  0  0  0  0  0  0  0  0  0  0  0
    1.1975    0.6930   -0.0005 C   0  0  0  0  0  0  0  0  0  0  0  0
    2.0666    1.1881   -0.0044 H   0  0  0  0  0  0  0  0  0  0  0  0
  1  5  1  0
  5  6  1  0
  5  7  2  0
  1  2  1  0
  1  3  1  0
  1  4  1  0
  8 12  1  0
 12 13  2  0
 13 15  1  0
 15 17  2  0
 17 19  1  0
 19 21  2  0
 21 12  1  0
  8  9  1  0
  8 10  1  0
  8 11  1  0
 13 14  1  0
 15 16  1  0
 17 18  1  0
 19 20  1  0
 21 22  1  0
M  CHG  1   6  -1
M  END
>  <PDB_ID>  (769) 
pdb1nd7

>  <RESIDUE_NAME>  (769) 
ASP   PHE

>  <FRAG_NAME>  (769) 
ACET   MBZ

>  <FRAG_ATOM_NUM>  (769) 
fragi: 7  fragj: 15

>  <atom.prop.CHAIN_ID>  (769) 
A A A A A A A Z Z Z Z Z Z Z Z Z Z Z Z Z Z Z

>  <atom.prop.IS_HEAVY_ATOM>  (769) 
1 0 0 0 1 1 1 1 0 0 0 1 1 0 1 0 1 0 1 0 1 0

>  <DIFUSE_FUNC_ATOM>  (769) 
atom 6   atom 7   

>  <FINAL_SINGLE_POINT_ENERGY>  (769) 
0

>  <NONCOV_INTER_ENERGY_QM>  (769) 
0

>  <FF_Energy>  (769) 
3.6

>  <QM_Energy>  (769) 
-6.05

>  <source>  (769) 
ACET_MBZ_00

>  <Index>  (769) 
27182

$$$$
ACET-pdb1ne2-B-ASP-125:MBZ-pdb1ne2-B-PHE-117
     RDKit          3D

 22 21  0  0  0  0  0  0  0  0999 V2000
    1.3449    0.6439   -3.5524 C   0  0  0  0  0  0  0  0  0  0  0  0
    0.9191    0.6330   -4.4493 H   0  0  0  0  0  0  0  0  0  0  0  0
    0.8278    0.0901   -2.9121 H   0  0  0  0  0  0  0  0  0  0  0  0
    2.3402    0.2097   -3.6464 H   0  0  0  0  0  0  0  0  0  0  0  0
    1.3792    2.0748   -3.0460 C   0  0  0  0  0  0  0  0  0  0  0  0
    2.1733    2.3637   -2.1265 O   0  0  0  0  0  1  0  0  0  0  0  0
    0.6067    2.9092   -3.5583 O   0  0  0  0  0  0  0  0  0  0  0  0
    0.0037    2.9095   -0.0142 C   0  0  0  0  0  0  0  0  0  0  0  0
   -0.6847    3.2117   -0.6566 H   0  0  0  0  0  0  0  0  0  0  0  0
    0.9057    3.2110   -0.2875 H   0  0  0  0  0  0  0  0  0  0  0  0
   -0.2196    3.3650    0.9506 H   0  0  0  0  0  0  0  0  0  0  0  0
   -0.0005    1.4035   -0.0006 C   0  0  0  0  0  0  0  0  0  0  0  0
   -1.1971    0.6952    0.0002 C   0  0  0  0  0  0  0  0  0  0  0  0
   -2.0635    1.1844   -0.0004 H   0  0  0  0  0  0  0  0  0  0  0  0
   -1.2023   -0.6978   -0.0000 C   0  0  0  0  0  0  0  0  0  0  0  0
   -2.0783   -1.1906    0.0016 H   0  0  0  0  0  0  0  0  0  0  0  0
    0.0009   -1.3957   -0.0000 C   0  0  0  0  0  0  0  0  0  0  0  0
   -0.0040   -2.3933   -0.0002 H   0  0  0  0  0  0  0  0  0  0  0  0
    1.2023   -0.6986    0.0000 C   0  0  0  0  0  0  0  0  0  0  0  0
    2.0839   -1.1952    0.0015 H   0  0  0  0  0  0  0  0  0  0  0  0
    1.1968    0.6936    0.0004 C   0  0  0  0  0  0  0  0  0  0  0  0
    2.0647    1.1899    0.0005 H   0  0  0  0  0  0  0  0  0  0  0  0
  1  5  1  0
  5  6  1  0
  5  7  2  0
  1  2  1  0
  1  3  1  0
  1  4  1  0
  8 12  1  0
 12 13  2  0
 13 15  1  0
 15 17  2  0
 17 19  1  0
 19 21  2  0
 21 12  1  0
  8  9  1  0
  8 10  1  0
  8 11  1  0
 13 14  1  0
 15 16  1  0
 17 18  1  0
 19 20  1  0
 21 22  1  0
M  CHG  1   6  -1
M  END
>  <PDB_ID>  (770) 
pdb1ne2

>  <RESIDUE_NAME>  (770) 
ASP   PHE

>  <FRAG_NAME>  (770) 
ACET   MBZ

>  <FRAG_ATOM_NUM>  (770) 
fragi: 7  fragj: 15

>  <atom.prop.CHAIN_ID>  (770) 
A A A A A A A Z Z Z Z Z Z Z Z Z Z Z Z Z Z Z

>  <atom.prop.IS_HEAVY_ATOM>  (770) 
1 0 0 0 1 1 1 1 0 0 0 1 1 0 1 0 1 0 1 0 1 0

>  <DIFUSE_FUNC_ATOM>  (770) 
atom 6   atom 7   

>  <FINAL_SINGLE_POINT_ENERGY>  (770) 
0

>  <NONCOV_INTER_ENERGY_QM>  (770) 
0

>  <FF_Energy>  (770) 
2.12

>  <QM_Energy>  (770) 
-6.76

>  <source>  (770) 
ACET_MBZ_00

>  <Index>  (770) 
27249

$$$$
ACET-pdb1ne7-A-GLU-83:MBZ-pdb1ne7-A-PHE-173
     RDKit          3D

 22 21  0  0  0  0  0  0  0  0999 V2000
   -1.3594    5.2963    3.3281 C   0  0  0  0  0  0  0  0  0  0  0  0
   -2.0025    5.9770    3.6271 H   0  0  0  0  0  0  0  0  0  0  0  0
   -0.9313    5.5375    2.4762 H   0  0  0  0  0  0  0  0  0  0  0  0
   -0.5825    5.2056    4.0873 H   0  0  0  0  0  0  0  0  0  0  0  0
   -2.1299    4.0039    3.1041 C   0  0  0  0  0  0  0  0  0  0  0  0
   -1.4963    2.9449    2.9113 O   0  0  0  0  0  1  0  0  0  0  0  0
   -3.3797    4.0515    3.1112 O   0  0  0  0  0  0  0  0  0  0  0  0
    0.0853    2.8559    0.1584 C   0  0  0  0  0  0  0  0  0  0  0  0
    1.0418    3.1079    0.2545 H   0  0  0  0  0  0  0  0  0  0  0  0
   -0.4235    3.1080    0.9747 H   0  0  0  0  0  0  0  0  0  0  0  0
   -0.3262    3.4195   -0.6789 H   0  0  0  0  0  0  0  0  0  0  0  0
    0.0052    1.3876   -0.0045 C   0  0  0  0  0  0  0  0  0  0  0  0
   -1.2042    0.6889   -0.0052 C   0  0  0  0  0  0  0  0  0  0  0  0
   -2.0625    1.1758   -0.0110 H   0  0  0  0  0  0  0  0  0  0  0  0
   -1.2040   -0.7124    0.0000 C   0  0  0  0  0  0  0  0  0  0  0  0
   -2.0648   -1.2109   -0.0046 H   0  0  0  0  0  0  0  0  0  0  0  0
    0.0184   -1.3782    0.0134 C   0  0  0  0  0  0  0  0  0  0  0  0
    0.0285   -2.3831    0.0326 H   0  0  0  0  0  0  0  0  0  0  0  0
    1.2040   -0.6719   -0.0000 C   0  0  0  0  0  0  0  0  0  0  0  0
    2.0910   -1.1708   -0.0054 H   0  0  0  0  0  0  0  0  0  0  0  0
    1.1806    0.6860   -0.0037 C   0  0  0  0  0  0  0  0  0  0  0  0
    2.0577    1.1991   -0.0070 H   0  0  0  0  0  0  0  0  0  0  0  0
  1  5  1  0
  5  6  1  0
  5  7  2  0
  1  2  1  0
  1  3  1  0
  1  4  1  0
  8 12  1  0
 12 13  2  0
 13 15  1  0
 15 17  2  0
 17 19  1  0
 19 21  2  0
 21 12  1  0
  8  9  1  0
  8 10  1  0
  8 11  1  0
 13 14  1  0
 15 16  1  0
 17 18  1  0
 19 20  1  0
 21 22  1  0
M  CHG  1   6  -1
M  END
>  <PDB_ID>  (771) 
pdb1ne7

>  <RESIDUE_NAME>  (771) 
GLU   PHE

>  <FRAG_NAME>  (771) 
ACET   MBZ

>  <FRAG_ATOM_NUM>  (771) 
fragi: 7  fragj: 15

>  <atom.prop.CHAIN_ID>  (771) 
A A A A A A A Z Z Z Z Z Z Z Z Z Z Z Z Z Z Z

>  <atom.prop.IS_HEAVY_ATOM>  (771) 
1 0 0 0 1 1 1 1 0 0 0 1 1 0 1 0 1 0 1 0 1 0

>  <DIFUSE_FUNC_ATOM>  (771) 
atom 6   atom 7   

>  <FINAL_SINGLE_POINT_ENERGY>  (771) 
0

>  <NONCOV_INTER_ENERGY_QM>  (771) 
0

>  <FF_Energy>  (771) 
1.54

>  <QM_Energy>  (771) 
-5.31

>  <source>  (771) 
ACET_MBZ_00

>  <Index>  (771) 
27261

$$$$
ACET-pdb1ne7-B-GLU-83:MBZ-pdb1ne7-B-PHE-173
     RDKit          3D

 22 21  0  0  0  0  0  0  0  0999 V2000
   -2.2125    5.4262    2.6072 C   0  0  0  0  0  0  0  0  0  0  0  0
   -2.9660    6.0470    2.7112 H   0  0  0  0  0  0  0  0  0  0  0  0
   -1.6689    5.6269    1.8142 H   0  0  0  0  0  0  0  0  0  0  0  0
   -1.5772    5.5094    3.4890 H   0  0  0  0  0  0  0  0  0  0  0  0
   -2.7887    4.0315    2.4266 C   0  0  0  0  0  0  0  0  0  0  0  0
   -2.0269    3.0486    2.5319 O   0  0  0  0  0  1  0  0  0  0  0  0
   -4.0058    3.9182    2.1695 O   0  0  0  0  0  0  0  0  0  0  0  0
   -0.0047    2.9022   -0.0270 C   0  0  0  0  0  0  0  0  0  0  0  0
    0.9311    3.2127    0.0447 H   0  0  0  0  0  0  0  0  0  0  0  0
   -0.5508    3.2217    0.7327 H   0  0  0  0  0  0  0  0  0  0  0  0
   -0.4259    3.3223   -0.9403 H   0  0  0  0  0  0  0  0  0  0  0  0
   -0.0012    1.4016    0.0004 C   0  0  0  0  0  0  0  0  0  0  0  0
   -1.1972    0.6927    0.0008 C   0  0  0  0  0  0  0  0  0  0  0  0
   -2.0643    1.1828    0.0000 H   0  0  0  0  0  0  0  0  0  0  0  0
   -1.2031   -0.6988    0.0000 C   0  0  0  0  0  0  0  0  0  0  0  0
   -2.0781   -1.1931    0.0026 H   0  0  0  0  0  0  0  0  0  0  0  0
    0.0015   -1.3946   -0.0024 C   0  0  0  0  0  0  0  0  0  0  0  0
   -0.0017   -2.3929   -0.0066 H   0  0  0  0  0  0  0  0  0  0  0  0
    1.2031   -0.6969   -0.0000 C   0  0  0  0  0  0  0  0  0  0  0  0
    2.0841   -1.1929    0.0025 H   0  0  0  0  0  0  0  0  0  0  0  0
    1.1969    0.6960    0.0011 C   0  0  0  0  0  0  0  0  0  0  0  0
    2.0640    1.1926    0.0020 H   0  0  0  0  0  0  0  0  0  0  0  0
  1  5  1  0
  5  6  1  0
  5  7  2  0
  1  2  1  0
  1  3  1  0
  1  4  1  0
  8 12  1  0
 12 13  2  0
 13 15  1  0
 15 17  2  0
 17 19  1  0
 19 21  2  0
 21 12  1  0
  8  9  1  0
  8 10  1  0
  8 11  1  0
 13 14  1  0
 15 16  1  0
 17 18  1  0
 19 20  1  0
 21 22  1  0
M  CHG  1   6  -1
M  END
>  <PDB_ID>  (772) 
pdb1ne7

>  <RESIDUE_NAME>  (772) 
GLU   PHE

>  <FRAG_NAME>  (772) 
ACET   MBZ

>  <FRAG_ATOM_NUM>  (772) 
fragi: 7  fragj: 15

>  <atom.prop.CHAIN_ID>  (772) 
A A A A A A A Z Z Z Z Z Z Z Z Z Z Z Z Z Z Z

>  <atom.prop.IS_HEAVY_ATOM>  (772) 
1 0 0 0 1 1 1 1 0 0 0 1 1 0 1 0 1 0 1 0 1 0

>  <DIFUSE_FUNC_ATOM>  (772) 
atom 6   atom 7   

>  <FINAL_SINGLE_POINT_ENERGY>  (772) 
0

>  <NONCOV_INTER_ENERGY_QM>  (772) 
0

>  <FF_Energy>  (772) 
0.03

>  <QM_Energy>  (772) 
-6.03

>  <source>  (772) 
ACET_MBZ_00

>  <Index>  (772) 
27266

$$$$
ACET-pdb1nf5-C-GLU-70:MBZ-pdb1nf5-C-PHE-59
     RDKit          3D

 22 21  0  0  0  0  0  0  0  0999 V2000
   -5.2749    3.8709    1.6462 C   0  0  0  0  0  0  0  0  0  0  0  0
   -5.2264    3.8039    2.6247 H   0  0  0  0  0  0  0  0  0  0  0  0
   -6.1970    3.9759    1.3237 H   0  0  0  0  0  0  0  0  0  0  0  0
   -4.7102    4.7524    1.3428 H   0  0  0  0  0  0  0  0  0  0  0  0
   -4.7256    2.5723    1.0646 C   0  0  0  0  0  0  0  0  0  0  0  0
   -4.0108    2.5919    0.0245 O   0  0  0  0  0  1  0  0  0  0  0  0
   -5.0183    1.5122    1.6568 O   0  0  0  0  0  0  0  0  0  0  0  0
    0.0263    2.9172    0.1218 C   0  0  0  0  0  0  0  0  0  0  0  0
    0.9685    3.1963    0.2637 H   0  0  0  0  0  0  0  0  0  0  0  0
   -0.5354    3.1700    0.9011 H   0  0  0  0  0  0  0  0  0  0  0  0
   -0.3505    3.4587   -0.7459 H   0  0  0  0  0  0  0  0  0  0  0  0
    0.0010    1.4120    0.0017 C   0  0  0  0  0  0  0  0  0  0  0  0
   -1.2051    0.7108   -0.0028 C   0  0  0  0  0  0  0  0  0  0  0  0
   -2.0659    1.2000   -0.0093 H   0  0  0  0  0  0  0  0  0  0  0  0
   -1.2078   -0.6867   -0.0000 C   0  0  0  0  0  0  0  0  0  0  0  0
   -2.0814   -1.1829    0.0002 H   0  0  0  0  0  0  0  0  0  0  0  0
    0.0074   -1.4054    0.0048 C   0  0  0  0  0  0  0  0  0  0  0  0
   -0.0206   -2.4011    0.0108 H   0  0  0  0  0  0  0  0  0  0  0  0
    1.2078   -0.7238   -0.0000 C   0  0  0  0  0  0  0  0  0  0  0  0
    2.0881   -1.2051    0.0002 H   0  0  0  0  0  0  0  0  0  0  0  0
    1.1967    0.6931   -0.0038 C   0  0  0  0  0  0  0  0  0  0  0  0
    2.0696    1.1798   -0.0115 H   0  0  0  0  0  0  0  0  0  0  0  0
  1  5  1  0
  5  6  1  0
  5  7  2  0
  1  2  1  0
  1  3  1  0
  1  4  1  0
  8 12  1  0
 12 13  2  0
 13 15  1  0
 15 17  2  0
 17 19  1  0
 19 21  2  0
 21 12  1  0
  8  9  1  0
  8 10  1  0
  8 11  1  0
 13 14  1  0
 15 16  1  0
 17 18  1  0
 19 20  1  0
 21 22  1  0
M  CHG  1   6  -1
M  END
>  <PDB_ID>  (773) 
pdb1nf5

>  <RESIDUE_NAME>  (773) 
GLU   PHE

>  <FRAG_NAME>  (773) 
ACET   MBZ

>  <FRAG_ATOM_NUM>  (773) 
fragi: 7  fragj: 15

>  <atom.prop.CHAIN_ID>  (773) 
A A A A A A A Z Z Z Z Z Z Z Z Z Z Z Z Z Z Z

>  <atom.prop.IS_HEAVY_ATOM>  (773) 
1 0 0 0 1 1 1 1 0 0 0 1 1 0 1 0 1 0 1 0 1 0

>  <DIFUSE_FUNC_ATOM>  (773) 
atom 6   atom 7   

>  <FINAL_SINGLE_POINT_ENERGY>  (773) 
0

>  <NONCOV_INTER_ENERGY_QM>  (773) 
0

>  <FF_Energy>  (773) 
-2.14

>  <QM_Energy>  (773) 
-7.4

>  <source>  (773) 
ACET_MBZ_00

>  <Index>  (773) 
27322

$$$$
ACET-pdb1ng5-A-ASP-162:MBZ-pdb1ng5-A-PHE-157
     RDKit          3D

 22 21  0  0  0  0  0  0  0  0999 V2000
    3.3285    4.8517   -0.7569 C   0  0  0  0  0  0  0  0  0  0  0  0
    3.8085    5.6795   -0.4878 H   0  0  0  0  0  0  0  0  0  0  0  0
    2.3647    5.0431   -0.9055 H   0  0  0  0  0  0  0  0  0  0  0  0
    3.7532    4.5098   -1.7007 H   0  0  0  0  0  0  0  0  0  0  0  0
    3.4533    3.8284    0.3696 C   0  0  0  0  0  0  0  0  0  0  0  0
    4.3749    2.9857    0.3395 O   0  0  0  0  0  1  0  0  0  0  0  0
    2.6307    3.8839    1.3048 O   0  0  0  0  0  0  0  0  0  0  0  0
   -0.0067    2.9060    0.1185 C   0  0  0  0  0  0  0  0  0  0  0  0
   -0.6519    3.2609   -0.5344 H   0  0  0  0  0  0  0  0  0  0  0  0
    0.9073    3.2305   -0.0506 H   0  0  0  0  0  0  0  0  0  0  0  0
   -0.3067    3.2529    1.1073 H   0  0  0  0  0  0  0  0  0  0  0  0
    0.0001    1.4056    0.0017 C   0  0  0  0  0  0  0  0  0  0  0  0
   -1.1990    0.6886   -0.0026 C   0  0  0  0  0  0  0  0  0  0  0  0
   -2.0663    1.1768   -0.0084 H   0  0  0  0  0  0  0  0  0  0  0  0
   -1.2042   -0.7088   -0.0000 C   0  0  0  0  0  0  0  0  0  0  0  0
   -2.0780   -1.1998    0.0002 H   0  0  0  0  0  0  0  0  0  0  0  0
    0.0000   -1.3975    0.0045 C   0  0  0  0  0  0  0  0  0  0  0  0
    0.0065   -2.3951    0.0106 H   0  0  0  0  0  0  0  0  0  0  0  0
    1.2042   -0.6896    0.0000 C   0  0  0  0  0  0  0  0  0  0  0  0
    2.0855   -1.1877    0.0004 H   0  0  0  0  0  0  0  0  0  0  0  0
    1.1989    0.7017   -0.0036 C   0  0  0  0  0  0  0  0  0  0  0  0
    2.0647    1.1989   -0.0109 H   0  0  0  0  0  0  0  0  0  0  0  0
  1  5  1  0
  5  6  1  0
  5  7  2  0
  1  2  1  0
  1  3  1  0
  1  4  1  0
  8 12  1  0
 12 13  2  0
 13 15  1  0
 15 17  2  0
 17 19  1  0
 19 21  2  0
 21 12  1  0
  8  9  1  0
  8 10  1  0
  8 11  1  0
 13 14  1  0
 15 16  1  0
 17 18  1  0
 19 20  1  0
 21 22  1  0
M  CHG  1   6  -1
M  END
>  <PDB_ID>  (774) 
pdb1ng5

>  <RESIDUE_NAME>  (774) 
ASP   PHE

>  <FRAG_NAME>  (774) 
ACET   MBZ

>  <FRAG_ATOM_NUM>  (774) 
fragi: 7  fragj: 15

>  <atom.prop.CHAIN_ID>  (774) 
A A A A A A A Z Z Z Z Z Z Z Z Z Z Z Z Z Z Z

>  <atom.prop.IS_HEAVY_ATOM>  (774) 
1 0 0 0 1 1 1 1 0 0 0 1 1 0 1 0 1 0 1 0 1 0

>  <DIFUSE_FUNC_ATOM>  (774) 
atom 6   atom 7   

>  <FINAL_SINGLE_POINT_ENERGY>  (774) 
0

>  <NONCOV_INTER_ENERGY_QM>  (774) 
0

>  <FF_Energy>  (774) 
-0.86

>  <QM_Energy>  (774) 
-6.65

>  <source>  (774) 
ACET_MBZ_00

>  <Index>  (774) 
27353

$$$$
ACET-pdb1nc5-A-ASP-266:MBZ-pdb1nc5-A-PHE-210
     RDKit          3D

 22 21  0  0  0  0  0  0  0  0999 V2000
    5.2268    1.8045    1.0659 C   0  0  0  0  0  0  0  0  0  0  0  0
    5.9723    1.1578    1.1656 H   0  0  0  0  0  0  0  0  0  0  0  0
    4.5345    1.6512    1.7591 H   0  0  0  0  0  0  0  0  0  0  0  0
    5.6292    2.8079    1.2049 H   0  0  0  0  0  0  0  0  0  0  0  0
    4.5946    1.6115   -0.3066 C   0  0  0  0  0  0  0  0  0  0  0  0
    4.1055    2.6053   -0.8901 O   0  0  0  0  0  1  0  0  0  0  0  0
    4.5758    0.4606   -0.7970 O   0  0  0  0  0  0  0  0  0  0  0  0
   -0.0026    2.9104   -0.0002 C   0  0  0  0  0  0  0  0  0  0  0  0
    0.9271    3.2195   -0.1275 H   0  0  0  0  0  0  0  0  0  0  0  0
   -0.3695    3.2172    0.8646 H   0  0  0  0  0  0  0  0  0  0  0  0
   -0.6088    3.3504   -0.7920 H   0  0  0  0  0  0  0  0  0  0  0  0
   -0.0002    1.4067   -0.0003 C   0  0  0  0  0  0  0  0  0  0  0  0
   -1.1992    0.6949   -0.0001 C   0  0  0  0  0  0  0  0  0  0  0  0
   -2.0659    1.1829   -0.0014 H   0  0  0  0  0  0  0  0  0  0  0  0
   -1.2054   -0.7033    0.0000 C   0  0  0  0  0  0  0  0  0  0  0  0
   -2.0804   -1.1942    0.0011 H   0  0  0  0  0  0  0  0  0  0  0  0
    0.0006   -1.4006    0.0002 C   0  0  0  0  0  0  0  0  0  0  0  0
    0.0001   -2.3964    0.0002 H   0  0  0  0  0  0  0  0  0  0  0  0
    1.2054   -0.6971    0.0000 C   0  0  0  0  0  0  0  0  0  0  0  0
    2.0866   -1.1926    0.0010 H   0  0  0  0  0  0  0  0  0  0  0  0
    1.1988    0.6994    0.0001 C   0  0  0  0  0  0  0  0  0  0  0  0
    2.0668    1.1951   -0.0003 H   0  0  0  0  0  0  0  0  0  0  0  0
  1  5  1  0
  5  6  1  0
  5  7  2  0
  1  2  1  0
  1  3  1  0
  1  4  1  0
  8 12  1  0
 12 13  2  0
 13 15  1  0
 15 17  2  0
 17 19  1  0
 19 21  2  0
 21 12  1  0
  8  9  1  0
  8 10  1  0
  8 11  1  0
 13 14  1  0
 15 16  1  0
 17 18  1  0
 19 20  1  0
 21 22  1  0
M  CHG  1   6  -1
M  END
>  <PDB_ID>  (775) 
pdb1nc5

>  <RESIDUE_NAME>  (775) 
ASP   PHE

>  <FRAG_NAME>  (775) 
ACET   MBZ

>  <FRAG_ATOM_NUM>  (775) 
fragi: 7  fragj: 15

>  <atom.prop.CHAIN_ID>  (775) 
A A A A A A A Z Z Z Z Z Z Z Z Z Z Z Z Z Z Z

>  <atom.prop.IS_HEAVY_ATOM>  (775) 
1 0 0 0 1 1 1 1 0 0 0 1 1 0 1 0 1 0 1 0 1 0

>  <DIFUSE_FUNC_ATOM>  (775) 
atom 6   atom 7   

>  <FINAL_SINGLE_POINT_ENERGY>  (775) 
0

>  <NONCOV_INTER_ENERGY_QM>  (775) 
0

>  <FF_Energy>  (775) 
-2.45

>  <QM_Energy>  (775) 
-7.55

>  <source>  (775) 
ACET_MBZ_00

>  <Index>  (775) 
27361

$$$$
ACET-pdb2r1b-B-ASP-111:MBZ-pdb2r1b-B-PHE-237
     RDKit          3D

 22 21  0  0  0  0  0  0  0  0999 V2000
    6.1730    2.7419    0.1623 C   0  0  0  0  0  0  0  0  0  0  0  0
    6.3266    2.8043   -0.8079 H   0  0  0  0  0  0  0  0  0  0  0  0
    6.4194    1.8585    0.5182 H   0  0  0  0  0  0  0  0  0  0  0  0
    6.8103    3.4824    0.6458 H   0  0  0  0  0  0  0  0  0  0  0  0
    4.6867    2.9959    0.4471 C   0  0  0  0  0  0  0  0  0  0  0  0
    4.3198    3.3012    1.6509 O   0  0  0  0  0  1  0  0  0  0  0  0
    3.8331    2.9769   -0.4947 O   0  0  0  0  0  0  0  0  0  0  0  0
    0.0421    2.9419   -0.0207 C   0  0  0  0  0  0  0  0  0  0  0  0
    0.5644    3.2289   -0.8127 H   0  0  0  0  0  0  0  0  0  0  0  0
    0.4768    3.2418    0.8182 H   0  0  0  0  0  0  0  0  0  0  0  0
   -0.9240    3.4435   -0.0767 H   0  0  0  0  0  0  0  0  0  0  0  0
   -0.0040    1.4229   -0.0109 C   0  0  0  0  0  0  0  0  0  0  0  0
   -1.2149    0.7151    0.0157 C   0  0  0  0  0  0  0  0  0  0  0  0
   -2.0786    1.1852    0.0441 H   0  0  0  0  0  0  0  0  0  0  0  0
   -1.2223   -0.7295   -0.0000 C   0  0  0  0  0  0  0  0  0  0  0  0
   -2.0918   -1.2000   -0.0182 H   0  0  0  0  0  0  0  0  0  0  0  0
   -0.0064   -1.4078    0.0124 C   0  0  0  0  0  0  0  0  0  0  0  0
    0.0074   -2.4088    0.0296 H   0  0  0  0  0  0  0  0  0  0  0  0
    1.2223   -0.7014   -0.0000 C   0  0  0  0  0  0  0  0  0  0  0  0
    2.0920   -1.2069    0.0050 H   0  0  0  0  0  0  0  0  0  0  0  0
    1.2253    0.7007   -0.0172 C   0  0  0  0  0  0  0  0  0  0  0  0
    2.0787    1.2006   -0.0345 H   0  0  0  0  0  0  0  0  0  0  0  0
  1  5  1  0
  5  6  1  0
  5  7  2  0
  1  2  1  0
  1  3  1  0
  1  4  1  0
  8 12  1  0
 12 13  2  0
 13 15  1  0
 15 17  2  0
 17 19  1  0
 19 21  2  0
 21 12  1  0
  8  9  1  0
  8 10  1  0
  8 11  1  0
 13 14  1  0
 15 16  1  0
 17 18  1  0
 19 20  1  0
 21 22  1  0
M  CHG  1   6  -1
M  END
>  <PDB_ID>  (776) 
pdb2r1b

>  <RESIDUE_NAME>  (776) 
ASP   PHE

>  <FRAG_NAME>  (776) 
ACET   MBZ

>  <FRAG_ATOM_NUM>  (776) 
fragi: 7  fragj: 15

>  <atom.prop.CHAIN_ID>  (776) 
A A A A A A A Z Z Z Z Z Z Z Z Z Z Z Z Z Z Z

>  <atom.prop.IS_HEAVY_ATOM>  (776) 
1 0 0 0 1 1 1 1 0 0 0 1 1 0 1 0 1 0 1 0 1 0

>  <DIFUSE_FUNC_ATOM>  (776) 
atom 6   atom 7   

>  <FINAL_SINGLE_POINT_ENERGY>  (776) 
0

>  <NONCOV_INTER_ENERGY_QM>  (776) 
0

>  <FF_Energy>  (776) 
-2.17

>  <QM_Energy>  (776) 
-7.59

>  <source>  (776) 
ACET_MBZ_00

>  <Index>  (776) 
27392

$$$$
ACET-pdb1ngk-J-GLU-111:MBZ-pdb1ngk-J-PHE-5
     RDKit          3D

 22 21  0  0  0  0  0  0  0  0999 V2000
   -4.4529   -1.9289   -2.1556 C   0  0  0  0  0  0  0  0  0  0  0  0
   -3.8652   -1.9379   -2.9456 H   0  0  0  0  0  0  0  0  0  0  0  0
   -5.3988   -2.0552   -2.3984 H   0  0  0  0  0  0  0  0  0  0  0  0
   -4.1558   -2.7489   -1.5018 H   0  0  0  0  0  0  0  0  0  0  0  0
   -4.3246   -0.5660   -1.5036 C   0  0  0  0  0  0  0  0  0  0  0  0
   -4.2300    0.4317   -2.2476 O   0  0  0  0  0  1  0  0  0  0  0  0
   -4.3196   -0.4870   -0.2516 O   0  0  0  0  0  0  0  0  0  0  0  0
    0.0026    2.9046    0.0002 C   0  0  0  0  0  0  0  0  0  0  0  0
   -0.9251    3.2136   -0.1406 H   0  0  0  0  0  0  0  0  0  0  0  0
    0.5999    3.2126   -0.7248 H   0  0  0  0  0  0  0  0  0  0  0  0
    0.3607    3.3403    0.9330 H   0  0  0  0  0  0  0  0  0  0  0  0
    0.0003    1.4046   -0.0027 C   0  0  0  0  0  0  0  0  0  0  0  0
   -1.1996    0.6986    0.0015 C   0  0  0  0  0  0  0  0  0  0  0  0
   -2.0643    1.1869    0.0048 H   0  0  0  0  0  0  0  0  0  0  0  0
   -1.2049   -0.6982    0.0000 C   0  0  0  0  0  0  0  0  0  0  0  0
   -2.0810   -1.1891   -0.0027 H   0  0  0  0  0  0  0  0  0  0  0  0
   -0.0016   -1.3962    0.0048 C   0  0  0  0  0  0  0  0  0  0  0  0
   -0.0060   -2.3948    0.0113 H   0  0  0  0  0  0  0  0  0  0  0  0
    1.2049   -0.7007   -0.0000 C   0  0  0  0  0  0  0  0  0  0  0  0
    2.0832   -1.1996    0.0009 H   0  0  0  0  0  0  0  0  0  0  0  0
    1.2009    0.6919   -0.0036 C   0  0  0  0  0  0  0  0  0  0  0  0
    2.0674    1.1886   -0.0073 H   0  0  0  0  0  0  0  0  0  0  0  0
  1  5  1  0
  5  6  1  0
  5  7  2  0
  1  2  1  0
  1  3  1  0
  1  4  1  0
  8 12  1  0
 12 13  2  0
 13 15  1  0
 15 17  2  0
 17 19  1  0
 19 21  2  0
 21 12  1  0
  8  9  1  0
  8 10  1  0
  8 11  1  0
 13 14  1  0
 15 16  1  0
 17 18  1  0
 19 20  1  0
 21 22  1  0
M  CHG  1   6  -1
M  END
>  <PDB_ID>  (777) 
pdb1ngk

>  <RESIDUE_NAME>  (777) 
GLU   PHE

>  <FRAG_NAME>  (777) 
ACET   MBZ

>  <FRAG_ATOM_NUM>  (777) 
fragi: 7  fragj: 15

>  <atom.prop.CHAIN_ID>  (777) 
A A A A A A A Z Z Z Z Z Z Z Z Z Z Z Z Z Z Z

>  <atom.prop.IS_HEAVY_ATOM>  (777) 
1 0 0 0 1 1 1 1 0 0 0 1 1 0 1 0 1 0 1 0 1 0

>  <DIFUSE_FUNC_ATOM>  (777) 
atom 6   atom 7   

>  <FINAL_SINGLE_POINT_ENERGY>  (777) 
0

>  <NONCOV_INTER_ENERGY_QM>  (777) 
0

>  <FF_Energy>  (777) 
-1.78

>  <QM_Energy>  (777) 
-7.07

>  <source>  (777) 
ACET_MBZ_00

>  <Index>  (777) 
27420

$$$$
ACET-pdb1nh1-A-ASP-151:MBZ-pdb1nh1-A-PHE-154
     RDKit          3D

 22 21  0  0  0  0  0  0  0  0999 V2000
   -3.7037    4.0218   -1.9650 C   0  0  0  0  0  0  0  0  0  0  0  0
   -3.5599    3.9144   -2.9419 H   0  0  0  0  0  0  0  0  0  0  0  0
   -2.8976    4.4083   -1.5340 H   0  0  0  0  0  0  0  0  0  0  0  0
   -4.5317    4.7156   -1.8196 H   0  0  0  0  0  0  0  0  0  0  0  0
   -3.9828    2.6715   -1.3604 C   0  0  0  0  0  0  0  0  0  0  0  0
   -4.6838    1.8547   -1.9981 O   0  0  0  0  0  1  0  0  0  0  0  0
   -3.5172    2.4357   -0.2325 O   0  0  0  0  0  0  0  0  0  0  0  0
    0.0038    2.9011   -0.0375 C   0  0  0  0  0  0  0  0  0  0  0  0
   -0.5338    3.1897   -0.8180 H   0  0  0  0  0  0  0  0  0  0  0  0
    0.9435    3.2027   -0.1207 H   0  0  0  0  0  0  0  0  0  0  0  0
   -0.4197    3.3683    0.8516 H   0  0  0  0  0  0  0  0  0  0  0  0
   -0.0003    1.4018   -0.0003 C   0  0  0  0  0  0  0  0  0  0  0  0
   -1.1960    0.6931    0.0012 C   0  0  0  0  0  0  0  0  0  0  0  0
   -2.0633    1.1867    0.0017 H   0  0  0  0  0  0  0  0  0  0  0  0
   -1.2044   -0.6942   -0.0000 C   0  0  0  0  0  0  0  0  0  0  0  0
   -2.0801   -1.1884    0.0023 H   0  0  0  0  0  0  0  0  0  0  0  0
   -0.0010   -1.3940   -0.0022 C   0  0  0  0  0  0  0  0  0  0  0  0
   -0.0070   -2.3916   -0.0061 H   0  0  0  0  0  0  0  0  0  0  0  0
    1.2044   -0.6986    0.0000 C   0  0  0  0  0  0  0  0  0  0  0  0
    2.0830   -1.1965    0.0022 H   0  0  0  0  0  0  0  0  0  0  0  0
    1.1973    0.6920    0.0013 C   0  0  0  0  0  0  0  0  0  0  0  0
    2.0655    1.1906    0.0026 H   0  0  0  0  0  0  0  0  0  0  0  0
  1  5  1  0
  5  6  1  0
  5  7  2  0
  1  2  1  0
  1  3  1  0
  1  4  1  0
  8 12  1  0
 12 13  2  0
 13 15  1  0
 15 17  2  0
 17 19  1  0
 19 21  2  0
 21 12  1  0
  8  9  1  0
  8 10  1  0
  8 11  1  0
 13 14  1  0
 15 16  1  0
 17 18  1  0
 19 20  1  0
 21 22  1  0
M  CHG  1   6  -1
M  END
>  <PDB_ID>  (778) 
pdb1nh1

>  <RESIDUE_NAME>  (778) 
ASP   PHE

>  <FRAG_NAME>  (778) 
ACET   MBZ

>  <FRAG_ATOM_NUM>  (778) 
fragi: 7  fragj: 15

>  <atom.prop.CHAIN_ID>  (778) 
A A A A A A A Z Z Z Z Z Z Z Z Z Z Z Z Z Z Z

>  <atom.prop.IS_HEAVY_ATOM>  (778) 
1 0 0 0 1 1 1 1 0 0 0 1 1 0 1 0 1 0 1 0 1 0

>  <DIFUSE_FUNC_ATOM>  (778) 
atom 6   atom 7   

>  <FINAL_SINGLE_POINT_ENERGY>  (778) 
0

>  <NONCOV_INTER_ENERGY_QM>  (778) 
0

>  <FF_Energy>  (778) 
10.06

>  <QM_Energy>  (778) 
-6.78

>  <source>  (778) 
ACET_MBZ_00

>  <Index>  (778) 
27427

$$$$
ACET-pdb2r77-A-ASP-45:MBZ-pdb2r77-A-PHE-16
     RDKit          3D

 22 21  0  0  0  0  0  0  0  0999 V2000
   -2.8409    2.1271    3.0962 C   0  0  0  0  0  0  0  0  0  0  0  0
   -2.4901    2.5555    3.9213 H   0  0  0  0  0  0  0  0  0  0  0  0
   -2.1336    1.5815    2.6617 H   0  0  0  0  0  0  0  0  0  0  0  0
   -3.6558    1.4613    3.3802 H   0  0  0  0  0  0  0  0  0  0  0  0
   -3.2736    3.2214    2.1284 C   0  0  0  0  0  0  0  0  0  0  0  0
   -4.4439    3.2564    1.6713 O   0  0  0  0  0  1  0  0  0  0  0  0
   -2.4338    4.0738    1.7988 O   0  0  0  0  0  0  0  0  0  0  0  0
   -0.0169    2.9162   -0.0262 C   0  0  0  0  0  0  0  0  0  0  0  0
    0.9027    3.2315    0.1290 H   0  0  0  0  0  0  0  0  0  0  0  0
   -0.6374    3.2253    0.6732 H   0  0  0  0  0  0  0  0  0  0  0  0
   -0.3557    3.3190   -0.9807 H   0  0  0  0  0  0  0  0  0  0  0  0
   -0.0006    1.4050    0.0031 C   0  0  0  0  0  0  0  0  0  0  0  0
   -1.2007    0.6874   -0.0036 C   0  0  0  0  0  0  0  0  0  0  0  0
   -2.0662    1.1845   -0.0124 H   0  0  0  0  0  0  0  0  0  0  0  0
   -1.2046   -0.6916    0.0000 C   0  0  0  0  0  0  0  0  0  0  0  0
   -2.0797   -1.1926    0.0015 H   0  0  0  0  0  0  0  0  0  0  0  0
    0.0012   -1.3978    0.0035 C   0  0  0  0  0  0  0  0  0  0  0  0
   -0.0087   -2.3940    0.0083 H   0  0  0  0  0  0  0  0  0  0  0  0
    1.2046   -0.7021   -0.0000 C   0  0  0  0  0  0  0  0  0  0  0  0
    2.0855   -1.1960    0.0010 H   0  0  0  0  0  0  0  0  0  0  0  0
    1.2001    0.6992   -0.0030 C   0  0  0  0  0  0  0  0  0  0  0  0
    2.0663    1.1919   -0.0101 H   0  0  0  0  0  0  0  0  0  0  0  0
  1  5  1  0
  5  6  1  0
  5  7  2  0
  1  2  1  0
  1  3  1  0
  1  4  1  0
  8 12  1  0
 12 13  2  0
 13 15  1  0
 15 17  2  0
 17 19  1  0
 19 21  2  0
 21 12  1  0
  8  9  1  0
  8 10  1  0
  8 11  1  0
 13 14  1  0
 15 16  1  0
 17 18  1  0
 19 20  1  0
 21 22  1  0
M  CHG  1   6  -1
M  END
>  <PDB_ID>  (779) 
pdb2r77

>  <RESIDUE_NAME>  (779) 
ASP   PHE

>  <FRAG_NAME>  (779) 
ACET   MBZ

>  <FRAG_ATOM_NUM>  (779) 
fragi: 7  fragj: 15

>  <atom.prop.CHAIN_ID>  (779) 
A A A A A A A Z Z Z Z Z Z Z Z Z Z Z Z Z Z Z

>  <atom.prop.IS_HEAVY_ATOM>  (779) 
1 0 0 0 1 1 1 1 0 0 0 1 1 0 1 0 1 0 1 0 1 0

>  <DIFUSE_FUNC_ATOM>  (779) 
atom 6   atom 7   

>  <FINAL_SINGLE_POINT_ENERGY>  (779) 
0

>  <NONCOV_INTER_ENERGY_QM>  (779) 
0

>  <FF_Energy>  (779) 
-1.55

>  <QM_Energy>  (779) 
-7.06

>  <source>  (779) 
ACET_MBZ_00

>  <Index>  (779) 
27672

$$$$
ACET-pdb2r9q-C-ASP-121:MBZ-pdb2r9q-C-PHE-261
     RDKit          3D

 22 21  0  0  0  0  0  0  0  0999 V2000
    0.2268    0.0297   -3.6133 C   0  0  0  0  0  0  0  0  0  0  0  0
    0.6567   -0.0556   -2.7184 H   0  0  0  0  0  0  0  0  0  0  0  0
    0.8596    0.4507   -4.2567 H   0  0  0  0  0  0  0  0  0  0  0  0
   -0.0037   -0.9730   -3.9732 H   0  0  0  0  0  0  0  0  0  0  0  0
   -1.0002    0.9482   -3.4730 C   0  0  0  0  0  0  0  0  0  0  0  0
   -2.1616    0.5006   -3.4932 O   0  0  0  0  0  1  0  0  0  0  0  0
   -0.7955    2.1758   -3.3240 O   0  0  0  0  0  0  0  0  0  0  0  0
    0.0104    2.8405    0.0343 C   0  0  0  0  0  0  0  0  0  0  0  0
   -0.4221    3.1861   -0.7902 H   0  0  0  0  0  0  0  0  0  0  0  0
    0.9496    3.1572    0.0960 H   0  0  0  0  0  0  0  0  0  0  0  0
   -0.5283    3.2643    0.8819 H   0  0  0  0  0  0  0  0  0  0  0  0
    0.0010    1.3787    0.0009 C   0  0  0  0  0  0  0  0  0  0  0  0
   -1.1843    0.6824    0.0149 C   0  0  0  0  0  0  0  0  0  0  0  0
   -2.0536    1.1705    0.0349 H   0  0  0  0  0  0  0  0  0  0  0  0
   -1.1828   -0.6978   -0.0000 C   0  0  0  0  0  0  0  0  0  0  0  0
   -2.0662   -1.1909   -0.0021 H   0  0  0  0  0  0  0  0  0  0  0  0
   -0.0029   -1.3690   -0.0093 C   0  0  0  0  0  0  0  0  0  0  0  0
    0.0057   -2.3779   -0.0234 H   0  0  0  0  0  0  0  0  0  0  0  0
    1.1828   -0.6778    0.0000 C   0  0  0  0  0  0  0  0  0  0  0  0
    2.0692   -1.1877    0.0129 H   0  0  0  0  0  0  0  0  0  0  0  0
    1.1862    0.6835   -0.0064 C   0  0  0  0  0  0  0  0  0  0  0  0
    2.0548    1.1866   -0.0168 H   0  0  0  0  0  0  0  0  0  0  0  0
  1  5  1  0
  5  6  1  0
  5  7  2  0
  1  2  1  0
  1  3  1  0
  1  4  1  0
  8 12  1  0
 12 13  2  0
 13 15  1  0
 15 17  2  0
 17 19  1  0
 19 21  2  0
 21 12  1  0
  8  9  1  0
  8 10  1  0
  8 11  1  0
 13 14  1  0
 15 16  1  0
 17 18  1  0
 19 20  1  0
 21 22  1  0
M  CHG  1   6  -1
M  END
>  <PDB_ID>  (780) 
pdb2r9q

>  <RESIDUE_NAME>  (780) 
ASP   PHE

>  <FRAG_NAME>  (780) 
ACET   MBZ

>  <FRAG_ATOM_NUM>  (780) 
fragi: 7  fragj: 15

>  <atom.prop.CHAIN_ID>  (780) 
A A A A A A A Z Z Z Z Z Z Z Z Z Z Z Z Z Z Z

>  <atom.prop.IS_HEAVY_ATOM>  (780) 
1 0 0 0 1 1 1 1 0 0 0 1 1 0 1 0 1 0 1 0 1 0

>  <DIFUSE_FUNC_ATOM>  (780) 
atom 6   atom 7   

>  <FINAL_SINGLE_POINT_ENERGY>  (780) 
0

>  <NONCOV_INTER_ENERGY_QM>  (780) 
0

>  <FF_Energy>  (780) 
0.49

>  <QM_Energy>  (780) 
-5.1

>  <source>  (780) 
ACET_MBZ_00

>  <Index>  (780) 
27766

$$$$
ACET-pdb1noy-A-ASP-102:MBZ-pdb1noy-A-PHE-105
     RDKit          3D

 22 21  0  0  0  0  0  0  0  0999 V2000
    4.4331    0.5360   -0.5822 C   0  0  0  0  0  0  0  0  0  0  0  0
    4.8428    0.1087    0.2132 H   0  0  0  0  0  0  0  0  0  0  0  0
    3.5496    0.9250   -0.3593 H   0  0  0  0  0  0  0  0  0  0  0  0
    5.0895    1.3380   -0.9200 H   0  0  0  0  0  0  0  0  0  0  0  0
    4.2252   -0.5449   -1.6538 C   0  0  0  0  0  0  0  0  0  0  0  0
    4.3030   -0.2601   -2.8764 O   0  0  0  0  0  1  0  0  0  0  0  0
    3.9949   -1.7070   -1.2649 O   0  0  0  0  0  0  0  0  0  0  0  0
   -0.0044    2.8791   -0.0971 C   0  0  0  0  0  0  0  0  0  0  0  0
    0.8749    3.2118    0.2055 H   0  0  0  0  0  0  0  0  0  0  0  0
   -0.7371    3.2255    0.4672 H   0  0  0  0  0  0  0  0  0  0  0  0
   -0.1667    3.2405   -1.1125 H   0  0  0  0  0  0  0  0  0  0  0  0
   -0.0016    1.3931   -0.0010 C   0  0  0  0  0  0  0  0  0  0  0  0
   -1.1979    0.6900    0.0022 C   0  0  0  0  0  0  0  0  0  0  0  0
   -2.0631    1.1842    0.0049 H   0  0  0  0  0  0  0  0  0  0  0  0
   -1.2041   -0.6926    0.0000 C   0  0  0  0  0  0  0  0  0  0  0  0
   -2.0758   -1.1923    0.0035 H   0  0  0  0  0  0  0  0  0  0  0  0
    0.0055   -1.3910   -0.0047 C   0  0  0  0  0  0  0  0  0  0  0  0
   -0.0007   -2.3885   -0.0120 H   0  0  0  0  0  0  0  0  0  0  0  0
    1.2041   -0.6927    0.0000 C   0  0  0  0  0  0  0  0  0  0  0  0
    2.0863   -1.1897    0.0019 H   0  0  0  0  0  0  0  0  0  0  0  0
    1.1941    0.6932    0.0036 C   0  0  0  0  0  0  0  0  0  0  0  0
    2.0608    1.1943    0.0089 H   0  0  0  0  0  0  0  0  0  0  0  0
  1  5  1  0
  5  6  1  0
  5  7  2  0
  1  2  1  0
  1  3  1  0
  1  4  1  0
  8 12  1  0
 12 13  2  0
 13 15  1  0
 15 17  2  0
 17 19  1  0
 19 21  2  0
 21 12  1  0
  8  9  1  0
  8 10  1  0
  8 11  1  0
 13 14  1  0
 15 16  1  0
 17 18  1  0
 19 20  1  0
 21 22  1  0
M  CHG  1   6  -1
M  END
>  <PDB_ID>  (781) 
pdb1noy

>  <RESIDUE_NAME>  (781) 
ASP   PHE

>  <FRAG_NAME>  (781) 
ACET   MBZ

>  <FRAG_ATOM_NUM>  (781) 
fragi: 7  fragj: 15

>  <atom.prop.CHAIN_ID>  (781) 
A A A A A A A Z Z Z Z Z Z Z Z Z Z Z Z Z Z Z

>  <atom.prop.IS_HEAVY_ATOM>  (781) 
1 0 0 0 1 1 1 1 0 0 0 1 1 0 1 0 1 0 1 0 1 0

>  <DIFUSE_FUNC_ATOM>  (781) 
atom 6   atom 7   

>  <FINAL_SINGLE_POINT_ENERGY>  (781) 
0

>  <NONCOV_INTER_ENERGY_QM>  (781) 
0

>  <FF_Energy>  (781) 
20.12

>  <QM_Energy>  (781) 
-0.84

>  <source>  (781) 
ACET_MBZ_00

>  <Index>  (781) 
27795

$$$$
ACET-pdb1npc-A-GLU-161:MBZ-pdb1npc-A-PHE-282
     RDKit          3D

 22 21  0  0  0  0  0  0  0  0999 V2000
   -0.3048    0.1360   -4.1135 C   0  0  0  0  0  0  0  0  0  0  0  0
    0.1461   -0.4645   -3.4516 H   0  0  0  0  0  0  0  0  0  0  0  0
   -0.1945   -0.2446   -5.0331 H   0  0  0  0  0  0  0  0  0  0  0  0
   -1.3705    0.1195   -3.8854 H   0  0  0  0  0  0  0  0  0  0  0  0
    0.4104    1.4765   -4.0817 C   0  0  0  0  0  0  0  0  0  0  0  0
   -0.0835    2.3832   -3.2821 O   0  0  0  0  0  1  0  0  0  0  0  0
    1.3941    1.7320   -4.7213 O   0  0  0  0  0  0  0  0  0  0  0  0
   -0.0256    2.8917   -0.0405 C   0  0  0  0  0  0  0  0  0  0  0  0
    0.4874    3.1816   -0.8413 H   0  0  0  0  0  0  0  0  0  0  0  0
    0.4049    3.2339    0.7885 H   0  0  0  0  0  0  0  0  0  0  0  0
   -1.0114    3.3521   -0.1051 H   0  0  0  0  0  0  0  0  0  0  0  0
   -0.0164    1.3949    0.0081 C   0  0  0  0  0  0  0  0  0  0  0  0
   -1.2071    0.6706   -0.0099 C   0  0  0  0  0  0  0  0  0  0  0  0
   -2.0803    1.1599   -0.0315 H   0  0  0  0  0  0  0  0  0  0  0  0
   -1.2200   -0.7258    0.0000 C   0  0  0  0  0  0  0  0  0  0  0  0
   -2.0696   -1.2255    0.0146 H   0  0  0  0  0  0  0  0  0  0  0  0
    0.0167   -1.3819   -0.0100 C   0  0  0  0  0  0  0  0  0  0  0  0
    0.0316   -2.3908   -0.0250 H   0  0  0  0  0  0  0  0  0  0  0  0
    1.2200   -0.6770   -0.0000 C   0  0  0  0  0  0  0  0  0  0  0  0
    2.1017   -1.1691    0.0007 H   0  0  0  0  0  0  0  0  0  0  0  0
    1.2068    0.7192    0.0118 C   0  0  0  0  0  0  0  0  0  0  0  0
    2.0560    1.2260    0.0223 H   0  0  0  0  0  0  0  0  0  0  0  0
  1  5  1  0
  5  6  1  0
  5  7  2  0
  1  2  1  0
  1  3  1  0
  1  4  1  0
  8 12  1  0
 12 13  2  0
 13 15  1  0
 15 17  2  0
 17 19  1  0
 19 21  2  0
 21 12  1  0
  8  9  1  0
  8 10  1  0
  8 11  1  0
 13 14  1  0
 15 16  1  0
 17 18  1  0
 19 20  1  0
 21 22  1  0
M  CHG  1   6  -1
M  END
>  <PDB_ID>  (782) 
pdb1npc

>  <RESIDUE_NAME>  (782) 
GLU   PHE

>  <FRAG_NAME>  (782) 
ACET   MBZ

>  <FRAG_ATOM_NUM>  (782) 
fragi: 7  fragj: 15

>  <atom.prop.CHAIN_ID>  (782) 
A A A A A A A Z Z Z Z Z Z Z Z Z Z Z Z Z Z Z

>  <atom.prop.IS_HEAVY_ATOM>  (782) 
1 0 0 0 1 1 1 1 0 0 0 1 1 0 1 0 1 0 1 0 1 0

>  <DIFUSE_FUNC_ATOM>  (782) 
atom 6   atom 7   

>  <FINAL_SINGLE_POINT_ENERGY>  (782) 
0

>  <NONCOV_INTER_ENERGY_QM>  (782) 
0

>  <FF_Energy>  (782) 
0.88

>  <QM_Energy>  (782) 
-4.45

>  <source>  (782) 
ACET_MBZ_00

>  <Index>  (782) 
27870

$$$$
ACET-pdb2rc5-A-GLU-113:MBZ-pdb2rc5-A-PHE-105
     RDKit          3D

 22 21  0  0  0  0  0  0  0  0999 V2000
    6.3427    0.2359    0.1944 C   0  0  0  0  0  0  0  0  0  0  0  0
    7.0099    0.4127    0.9034 H   0  0  0  0  0  0  0  0  0  0  0  0
    6.3529    0.9490   -0.4914 H   0  0  0  0  0  0  0  0  0  0  0  0
    6.6002   -0.7065   -0.2888 H   0  0  0  0  0  0  0  0  0  0  0  0
    4.9822    0.2382    0.8351 C   0  0  0  0  0  0  0  0  0  0  0  0
    4.6453   -0.7509    1.5075 O   0  0  0  0  0  1  0  0  0  0  0  0
    4.2545    1.2452    0.6857 O   0  0  0  0  0  0  0  0  0  0  0  0
    0.0045    2.9085   -0.0059 C   0  0  0  0  0  0  0  0  0  0  0  0
    0.8969    3.2151    0.2819 H   0  0  0  0  0  0  0  0  0  0  0  0
   -0.7029    3.2146    0.6101 H   0  0  0  0  0  0  0  0  0  0  0  0
   -0.1968    3.3416   -0.9857 H   0  0  0  0  0  0  0  0  0  0  0  0
    0.0056    1.3989   -0.0008 C   0  0  0  0  0  0  0  0  0  0  0  0
   -1.1882    0.6834   -0.0027 C   0  0  0  0  0  0  0  0  0  0  0  0
   -2.0569    1.1708   -0.0074 H   0  0  0  0  0  0  0  0  0  0  0  0
   -1.1852   -0.7035   -0.0000 C   0  0  0  0  0  0  0  0  0  0  0  0
   -2.0720   -1.1928    0.0010 H   0  0  0  0  0  0  0  0  0  0  0  0
   -0.0089   -1.3798    0.0035 C   0  0  0  0  0  0  0  0  0  0  0  0
   -0.0020   -2.3873    0.0085 H   0  0  0  0  0  0  0  0  0  0  0  0
    1.1852   -0.6906    0.0000 C   0  0  0  0  0  0  0  0  0  0  0  0
    2.0694   -1.1951   -0.0012 H   0  0  0  0  0  0  0  0  0  0  0  0
    1.1914    0.6916    0.0000 C   0  0  0  0  0  0  0  0  0  0  0  0
    2.0636    1.1830    0.0003 H   0  0  0  0  0  0  0  0  0  0  0  0
  1  5  1  0
  5  6  1  0
  5  7  2  0
  1  2  1  0
  1  3  1  0
  1  4  1  0
  8 12  1  0
 12 13  2  0
 13 15  1  0
 15 17  2  0
 17 19  1  0
 19 21  2  0
 21 12  1  0
  8  9  1  0
  8 10  1  0
  8 11  1  0
 13 14  1  0
 15 16  1  0
 17 18  1  0
 19 20  1  0
 21 22  1  0
M  CHG  1   6  -1
M  END
>  <PDB_ID>  (783) 
pdb2rc5

>  <RESIDUE_NAME>  (783) 
GLU   PHE

>  <FRAG_NAME>  (783) 
ACET   MBZ

>  <FRAG_ATOM_NUM>  (783) 
fragi: 7  fragj: 15

>  <atom.prop.CHAIN_ID>  (783) 
A A A A A A A Z Z Z Z Z Z Z Z Z Z Z Z Z Z Z

>  <atom.prop.IS_HEAVY_ATOM>  (783) 
1 0 0 0 1 1 1 1 0 0 0 1 1 0 1 0 1 0 1 0 1 0

>  <DIFUSE_FUNC_ATOM>  (783) 
atom 6   atom 7   

>  <FINAL_SINGLE_POINT_ENERGY>  (783) 
0

>  <NONCOV_INTER_ENERGY_QM>  (783) 
0

>  <FF_Energy>  (783) 
-2.06

>  <QM_Energy>  (783) 
-7.29

>  <source>  (783) 
ACET_MBZ_00

>  <Index>  (783) 
27952

$$$$
ACET-pdb2rc5-C-GLU-113:MBZ-pdb2rc5-C-PHE-105
     RDKit          3D

 22 21  0  0  0  0  0  0  0  0999 V2000
    6.1366   -0.1891   -0.8624 C   0  0  0  0  0  0  0  0  0  0  0  0
    6.9232    0.1732   -0.3898 H   0  0  0  0  0  0  0  0  0  0  0  0
    5.8570    0.3955   -1.6058 H   0  0  0  0  0  0  0  0  0  0  0  0
    6.3956   -1.1672   -1.2677 H   0  0  0  0  0  0  0  0  0  0  0  0
    4.9930   -0.2358    0.1307 C   0  0  0  0  0  0  0  0  0  0  0  0
    4.7605   -1.3104    0.7302 O   0  0  0  0  0  1  0  0  0  0  0  0
    4.3232    0.8078    0.3244 O   0  0  0  0  0  0  0  0  0  0  0  0
    0.0083    2.9165    0.0030 C   0  0  0  0  0  0  0  0  0  0  0  0
    0.9125    3.2151    0.2695 H   0  0  0  0  0  0  0  0  0  0  0  0
   -0.6769    3.2218    0.6480 H   0  0  0  0  0  0  0  0  0  0  0  0
   -0.2194    3.3690   -0.9621 H   0  0  0  0  0  0  0  0  0  0  0  0
   -0.0002    1.4098   -0.0076 C   0  0  0  0  0  0  0  0  0  0  0  0
   -1.1911    0.7055    0.0016 C   0  0  0  0  0  0  0  0  0  0  0  0
   -2.0622    1.1848    0.0088 H   0  0  0  0  0  0  0  0  0  0  0  0
   -1.1976   -0.7042    0.0000 C   0  0  0  0  0  0  0  0  0  0  0  0
   -2.0778   -1.1862   -0.0001 H   0  0  0  0  0  0  0  0  0  0  0  0
   -0.0004   -1.4003    0.0011 C   0  0  0  0  0  0  0  0  0  0  0  0
   -0.0042   -2.3996    0.0021 H   0  0  0  0  0  0  0  0  0  0  0  0
    1.1976   -0.7042   -0.0000 C   0  0  0  0  0  0  0  0  0  0  0  0
    2.0809   -1.1966   -0.0026 H   0  0  0  0  0  0  0  0  0  0  0  0
    1.1917    0.6934    0.0049 C   0  0  0  0  0  0  0  0  0  0  0  0
    2.0642    1.1852    0.0165 H   0  0  0  0  0  0  0  0  0  0  0  0
  1  5  1  0
  5  6  1  0
  5  7  2  0
  1  2  1  0
  1  3  1  0
  1  4  1  0
  8 12  1  0
 12 13  2  0
 13 15  1  0
 15 17  2  0
 17 19  1  0
 19 21  2  0
 21 12  1  0
  8  9  1  0
  8 10  1  0
  8 11  1  0
 13 14  1  0
 15 16  1  0
 17 18  1  0
 19 20  1  0
 21 22  1  0
M  CHG  1   6  -1
M  END
>  <PDB_ID>  (784) 
pdb2rc5

>  <RESIDUE_NAME>  (784) 
GLU   PHE

>  <FRAG_NAME>  (784) 
ACET   MBZ

>  <FRAG_ATOM_NUM>  (784) 
fragi: 7  fragj: 15

>  <atom.prop.CHAIN_ID>  (784) 
A A A A A A A Z Z Z Z Z Z Z Z Z Z Z Z Z Z Z

>  <atom.prop.IS_HEAVY_ATOM>  (784) 
1 0 0 0 1 1 1 1 0 0 0 1 1 0 1 0 1 0 1 0 1 0

>  <DIFUSE_FUNC_ATOM>  (784) 
atom 6   atom 7   

>  <FINAL_SINGLE_POINT_ENERGY>  (784) 
0

>  <NONCOV_INTER_ENERGY_QM>  (784) 
0

>  <FF_Energy>  (784) 
-2.58

>  <QM_Energy>  (784) 
-8.06

>  <source>  (784) 
ACET_MBZ_00

>  <Index>  (784) 
27954

$$$$
ACET-pdb2rca-B-GLU-86:MBZ-pdb2rca-B-PHE-50
     RDKit          3D

 22 21  0  0  0  0  0  0  0  0999 V2000
   -1.7212   -0.7367    3.4283 C   0  0  0  0  0  0  0  0  0  0  0  0
   -1.8098   -0.9925    4.3744 H   0  0  0  0  0  0  0  0  0  0  0  0
   -1.0662   -1.2979    2.9532 H   0  0  0  0  0  0  0  0  0  0  0  0
   -2.6916   -0.8685    2.9499 H   0  0  0  0  0  0  0  0  0  0  0  0
   -1.2195    0.6937    3.3836 C   0  0  0  0  0  0  0  0  0  0  0  0
   -1.9863    1.5842    2.9530 O   0  0  0  0  0  1  0  0  0  0  0  0
   -0.0542    0.9332    3.7998 O   0  0  0  0  0  0  0  0  0  0  0  0
   -0.0012    2.8951    0.0217 C   0  0  0  0  0  0  0  0  0  0  0  0
    0.9189    3.1991    0.2255 H   0  0  0  0  0  0  0  0  0  0  0  0
   -0.6394    3.1988    0.7155 H   0  0  0  0  0  0  0  0  0  0  0  0
   -0.2978    3.3519   -0.9225 H   0  0  0  0  0  0  0  0  0  0  0  0
   -0.0065    1.3979    0.0047 C   0  0  0  0  0  0  0  0  0  0  0  0
   -1.2013    0.6917    0.0031 C   0  0  0  0  0  0  0  0  0  0  0  0
   -2.0685    1.1785    0.0024 H   0  0  0  0  0  0  0  0  0  0  0  0
   -1.2018   -0.6999    0.0000 C   0  0  0  0  0  0  0  0  0  0  0  0
   -2.0699   -1.2003    0.0036 H   0  0  0  0  0  0  0  0  0  0  0  0
    0.0140   -1.3891   -0.0063 C   0  0  0  0  0  0  0  0  0  0  0  0
    0.0137   -2.3865   -0.0162 H   0  0  0  0  0  0  0  0  0  0  0  0
    1.2018   -0.6810   -0.0000 C   0  0  0  0  0  0  0  0  0  0  0  0
    2.0897   -1.1863    0.0077 H   0  0  0  0  0  0  0  0  0  0  0  0
    1.1938    0.6804   -0.0015 C   0  0  0  0  0  0  0  0  0  0  0  0
    2.0594    1.1939   -0.0081 H   0  0  0  0  0  0  0  0  0  0  0  0
  1  5  1  0
  5  6  1  0
  5  7  2  0
  1  2  1  0
  1  3  1  0
  1  4  1  0
  8 12  1  0
 12 13  2  0
 13 15  1  0
 15 17  2  0
 17 19  1  0
 19 21  2  0
 21 12  1  0
  8  9  1  0
  8 10  1  0
  8 11  1  0
 13 14  1  0
 15 16  1  0
 17 18  1  0
 19 20  1  0
 21 22  1  0
M  CHG  1   6  -1
M  END
>  <PDB_ID>  (785) 
pdb2rca

>  <RESIDUE_NAME>  (785) 
GLU   PHE

>  <FRAG_NAME>  (785) 
ACET   MBZ

>  <FRAG_ATOM_NUM>  (785) 
fragi: 7  fragj: 15

>  <atom.prop.CHAIN_ID>  (785) 
A A A A A A A Z Z Z Z Z Z Z Z Z Z Z Z Z Z Z

>  <atom.prop.IS_HEAVY_ATOM>  (785) 
1 0 0 0 1 1 1 1 0 0 0 1 1 0 1 0 1 0 1 0 1 0

>  <DIFUSE_FUNC_ATOM>  (785) 
atom 6   atom 7   

>  <FINAL_SINGLE_POINT_ENERGY>  (785) 
0

>  <NONCOV_INTER_ENERGY_QM>  (785) 
0

>  <FF_Energy>  (785) 
1.64

>  <QM_Energy>  (785) 
-4.0

>  <source>  (785) 
ACET_MBZ_00

>  <Index>  (785) 
27958

$$$$
ACET-pdb1nsa-A-GLU-10:MBZ-pdb1nsa-A-PHE-7
     RDKit          3D

 22 21  0  0  0  0  0  0  0  0999 V2000
   -4.0747    4.2150   -0.0420 C   0  0  0  0  0  0  0  0  0  0  0  0
   -4.9012    4.4856   -0.4124 H   0  0  0  0  0  0  0  0  0  0  0  0
   -3.2731    4.4185   -0.5001 H   0  0  0  0  0  0  0  0  0  0  0  0
   -4.0045    4.6177    0.9684 H   0  0  0  0  0  0  0  0  0  0  0  0
   -4.1247    2.7120    0.1787 C   0  0  0  0  0  0  0  0  0  0  0  0
   -3.8351    2.2714    1.3283 O   0  0  0  0  0  1  0  0  0  0  0  0
   -4.4502    1.9817   -0.7786 O   0  0  0  0  0  0  0  0  0  0  0  0
    0.0068    2.9581   -0.0647 C   0  0  0  0  0  0  0  0  0  0  0  0
    0.9387    3.2483    0.0064 H   0  0  0  0  0  0  0  0  0  0  0  0
   -0.5540    3.2843    0.6688 H   0  0  0  0  0  0  0  0  0  0  0  0
   -0.3960    3.3622   -0.9934 H   0  0  0  0  0  0  0  0  0  0  0  0
    0.0001    1.3989    0.0030 C   0  0  0  0  0  0  0  0  0  0  0  0
   -1.1896    0.6900    0.0107 C   0  0  0  0  0  0  0  0  0  0  0  0
   -2.0599    1.1778    0.0230 H   0  0  0  0  0  0  0  0  0  0  0  0
   -1.1955   -0.7016   -0.0000 C   0  0  0  0  0  0  0  0  0  0  0  0
   -2.0753   -1.1914    0.0022 H   0  0  0  0  0  0  0  0  0  0  0  0
   -0.0024   -1.3924   -0.0112 C   0  0  0  0  0  0  0  0  0  0  0  0
    0.0006   -2.3914   -0.0276 H   0  0  0  0  0  0  0  0  0  0  0  0
    1.1955   -0.6924    0.0000 C   0  0  0  0  0  0  0  0  0  0  0  0
    2.0788   -1.1902    0.0117 H   0  0  0  0  0  0  0  0  0  0  0  0
    1.1919    0.6976   -0.0025 C   0  0  0  0  0  0  0  0  0  0  0  0
    2.0613    1.1919   -0.0091 H   0  0  0  0  0  0  0  0  0  0  0  0
  1  5  1  0
  5  6  1  0
  5  7  2  0
  1  2  1  0
  1  3  1  0
  1  4  1  0
  8 12  1  0
 12 13  2  0
 13 15  1  0
 15 17  2  0
 17 19  1  0
 19 21  2  0
 21 12  1  0
  8  9  1  0
  8 10  1  0
  8 11  1  0
 13 14  1  0
 15 16  1  0
 17 18  1  0
 19 20  1  0
 21 22  1  0
M  CHG  1   6  -1
M  END
>  <PDB_ID>  (786) 
pdb1nsa

>  <RESIDUE_NAME>  (786) 
GLU   PHE

>  <FRAG_NAME>  (786) 
ACET   MBZ

>  <FRAG_ATOM_NUM>  (786) 
fragi: 7  fragj: 15

>  <atom.prop.CHAIN_ID>  (786) 
A A A A A A A Z Z Z Z Z Z Z Z Z Z Z Z Z Z Z

>  <atom.prop.IS_HEAVY_ATOM>  (786) 
1 0 0 0 1 1 1 1 0 0 0 1 1 0 1 0 1 0 1 0 1 0

>  <DIFUSE_FUNC_ATOM>  (786) 
atom 6   atom 7   

>  <FINAL_SINGLE_POINT_ENERGY>  (786) 
0

>  <NONCOV_INTER_ENERGY_QM>  (786) 
0

>  <FF_Energy>  (786) 
-1.95

>  <QM_Energy>  (786) 
-7.39

>  <source>  (786) 
ACET_MBZ_00

>  <Index>  (786) 
28005

$$$$
ACET-pdb2rcv-B-GLU-96:MBZ-pdb2rcv-B-PHE-112
     RDKit          3D

 22 21  0  0  0  0  0  0  0  0999 V2000
    2.0812    1.1295   -3.0492 C   0  0  0  0  0  0  0  0  0  0  0  0
    1.4539    1.4862   -3.7149 H   0  0  0  0  0  0  0  0  0  0  0  0
    1.6253    0.8059   -2.2413 H   0  0  0  0  0  0  0  0  0  0  0  0
    2.6267    0.2991   -3.4974 H   0  0  0  0  0  0  0  0  0  0  0  0
    2.9943    2.2766   -2.6253 C   0  0  0  0  0  0  0  0  0  0  0  0
    4.0220    2.0068   -1.9668 O   0  0  0  0  0  1  0  0  0  0  0  0
    2.6749    3.4439   -2.9365 O   0  0  0  0  0  0  0  0  0  0  0  0
    0.0050    2.9102    0.0063 C   0  0  0  0  0  0  0  0  0  0  0  0
   -0.2964    3.2196   -0.8824 H   0  0  0  0  0  0  0  0  0  0  0  0
    0.9259    3.2126    0.2006 H   0  0  0  0  0  0  0  0  0  0  0  0
   -0.6551    3.3491    0.7544 H   0  0  0  0  0  0  0  0  0  0  0  0
    0.0012    1.4042    0.0005 C   0  0  0  0  0  0  0  0  0  0  0  0
   -1.1968    0.6983   -0.0004 C   0  0  0  0  0  0  0  0  0  0  0  0
   -2.0632    1.1880   -0.0028 H   0  0  0  0  0  0  0  0  0  0  0  0
   -1.2032   -0.6968    0.0000 C   0  0  0  0  0  0  0  0  0  0  0  0
   -2.0800   -1.1878    0.0008 H   0  0  0  0  0  0  0  0  0  0  0  0
   -0.0001   -1.3966    0.0004 C   0  0  0  0  0  0  0  0  0  0  0  0
   -0.0064   -2.3949    0.0003 H   0  0  0  0  0  0  0  0  0  0  0  0
    1.2032   -0.7024    0.0000 C   0  0  0  0  0  0  0  0  0  0  0  0
    2.0830   -1.1968    0.0014 H   0  0  0  0  0  0  0  0  0  0  0  0
    1.1956    0.6933   -0.0005 C   0  0  0  0  0  0  0  0  0  0  0  0
    2.0662    1.1878   -0.0020 H   0  0  0  0  0  0  0  0  0  0  0  0
  1  5  1  0
  5  6  1  0
  5  7  2  0
  1  2  1  0
  1  3  1  0
  1  4  1  0
  8 12  1  0
 12 13  2  0
 13 15  1  0
 15 17  2  0
 17 19  1  0
 19 21  2  0
 21 12  1  0
  8  9  1  0
  8 10  1  0
  8 11  1  0
 13 14  1  0
 15 16  1  0
 17 18  1  0
 19 20  1  0
 21 22  1  0
M  CHG  1   6  -1
M  END
>  <PDB_ID>  (787) 
pdb2rcv

>  <RESIDUE_NAME>  (787) 
GLU   PHE

>  <FRAG_NAME>  (787) 
ACET   MBZ

>  <FRAG_ATOM_NUM>  (787) 
fragi: 7  fragj: 15

>  <atom.prop.CHAIN_ID>  (787) 
A A A A A A A Z Z Z Z Z Z Z Z Z Z Z Z Z Z Z

>  <atom.prop.IS_HEAVY_ATOM>  (787) 
1 0 0 0 1 1 1 1 0 0 0 1 1 0 1 0 1 0 1 0 1 0

>  <DIFUSE_FUNC_ATOM>  (787) 
atom 6   atom 7   

>  <FINAL_SINGLE_POINT_ENERGY>  (787) 
0

>  <NONCOV_INTER_ENERGY_QM>  (787) 
0

>  <FF_Energy>  (787) 
1.56

>  <QM_Energy>  (787) 
-3.94

>  <source>  (787) 
ACET_MBZ_00

>  <Index>  (787) 
28009

$$$$
ACET-pdb2rdy-B-GLU-657:MBZ-pdb2rdy-B-PHE-13
     RDKit          3D

 22 21  0  0  0  0  0  0  0  0999 V2000
   -1.4326    2.7956    4.4078 C   0  0  0  0  0  0  0  0  0  0  0  0
   -1.9748    3.1369    5.1552 H   0  0  0  0  0  0  0  0  0  0  0  0
   -0.5506    3.2299    4.3631 H   0  0  0  0  0  0  0  0  0  0  0  0
   -1.2787    1.7274    4.5605 H   0  0  0  0  0  0  0  0  0  0  0  0
   -2.1660    3.1102    3.1249 C   0  0  0  0  0  0  0  0  0  0  0  0
   -3.1473    2.4041    2.8114 O   0  0  0  0  0  1  0  0  0  0  0  0
   -1.7709    4.0726    2.4363 O   0  0  0  0  0  0  0  0  0  0  0  0
   -0.0003    2.8968   -0.0530 C   0  0  0  0  0  0  0  0  0  0  0  0
    0.9231    3.2119    0.1058 H   0  0  0  0  0  0  0  0  0  0  0  0
   -0.6188    3.2289    0.6425 H   0  0  0  0  0  0  0  0  0  0  0  0
   -0.3296    3.2994   -1.0110 H   0  0  0  0  0  0  0  0  0  0  0  0
    0.0015    1.4014   -0.0006 C   0  0  0  0  0  0  0  0  0  0  0  0
   -1.1980    0.6956    0.0007 C   0  0  0  0  0  0  0  0  0  0  0  0
   -2.0636    1.1873    0.0007 H   0  0  0  0  0  0  0  0  0  0  0  0
   -1.2055   -0.6970   -0.0000 C   0  0  0  0  0  0  0  0  0  0  0  0
   -2.0821   -1.1897    0.0021 H   0  0  0  0  0  0  0  0  0  0  0  0
   -0.0026   -1.3978   -0.0018 C   0  0  0  0  0  0  0  0  0  0  0  0
   -0.0057   -2.3939   -0.0044 H   0  0  0  0  0  0  0  0  0  0  0  0
    1.2055   -0.6983    0.0000 C   0  0  0  0  0  0  0  0  0  0  0  0
    2.0840   -1.1958    0.0020 H   0  0  0  0  0  0  0  0  0  0  0  0
    1.1991    0.6961    0.0016 C   0  0  0  0  0  0  0  0  0  0  0  0
    2.0670    1.1914    0.0037 H   0  0  0  0  0  0  0  0  0  0  0  0
  1  5  1  0
  5  6  1  0
  5  7  2  0
  1  2  1  0
  1  3  1  0
  1  4  1  0
  8 12  1  0
 12 13  2  0
 13 15  1  0
 15 17  2  0
 17 19  1  0
 19 21  2  0
 21 12  1  0
  8  9  1  0
  8 10  1  0
  8 11  1  0
 13 14  1  0
 15 16  1  0
 17 18  1  0
 19 20  1  0
 21 22  1  0
M  CHG  1   6  -1
M  END
>  <PDB_ID>  (788) 
pdb2rdy

>  <RESIDUE_NAME>  (788) 
GLU   PHE

>  <FRAG_NAME>  (788) 
ACET   MBZ

>  <FRAG_ATOM_NUM>  (788) 
fragi: 7  fragj: 15

>  <atom.prop.CHAIN_ID>  (788) 
A A A A A A A Z Z Z Z Z Z Z Z Z Z Z Z Z Z Z

>  <atom.prop.IS_HEAVY_ATOM>  (788) 
1 0 0 0 1 1 1 1 0 0 0 1 1 0 1 0 1 0 1 0 1 0

>  <DIFUSE_FUNC_ATOM>  (788) 
atom 6   atom 7   

>  <FINAL_SINGLE_POINT_ENERGY>  (788) 
0

>  <NONCOV_INTER_ENERGY_QM>  (788) 
0

>  <FF_Energy>  (788) 
-0.58

>  <QM_Energy>  (788) 
-6.5

>  <source>  (788) 
ACET_MBZ_00

>  <Index>  (788) 
28167

$$$$
ACET-pdb2rcc-B-ASP-181:MBZ-pdb2rcc-B-PHE-226
     RDKit          3D

 22 21  0  0  0  0  0  0  0  0999 V2000
   -0.7290    0.2745    4.0767 C   0  0  0  0  0  0  0  0  0  0  0  0
   -1.2332   -0.5818    4.0465 H   0  0  0  0  0  0  0  0  0  0  0  0
   -1.2744    1.0102    3.6920 H   0  0  0  0  0  0  0  0  0  0  0  0
   -0.5354    0.5124    5.1227 H   0  0  0  0  0  0  0  0  0  0  0  0
    0.5285    0.1363    3.3107 C   0  0  0  0  0  0  0  0  0  0  0  0
    1.1346    1.1959    2.9467 O   0  0  0  0  0  1  0  0  0  0  0  0
    0.9209   -1.0272    3.1333 O   0  0  0  0  0  0  0  0  0  0  0  0
   -0.0531    2.9120    0.0328 C   0  0  0  0  0  0  0  0  0  0  0  0
    0.8465    3.2317    0.2629 H   0  0  0  0  0  0  0  0  0  0  0  0
   -0.7268    3.1744    0.6970 H   0  0  0  0  0  0  0  0  0  0  0  0
   -0.3334    3.3479   -0.9261 H   0  0  0  0  0  0  0  0  0  0  0  0
   -0.0065    1.3843    0.0035 C   0  0  0  0  0  0  0  0  0  0  0  0
   -1.1958    0.6653    0.0160 C   0  0  0  0  0  0  0  0  0  0  0  0
   -2.0655    1.1670    0.0356 H   0  0  0  0  0  0  0  0  0  0  0  0
   -1.2004   -0.6964    0.0000 C   0  0  0  0  0  0  0  0  0  0  0  0
   -2.0658   -1.2075   -0.0032 H   0  0  0  0  0  0  0  0  0  0  0  0
    0.0106   -1.3735   -0.0104 C   0  0  0  0  0  0  0  0  0  0  0  0
    0.0095   -2.3806   -0.0267 H   0  0  0  0  0  0  0  0  0  0  0  0
    1.2004   -0.6821    0.0000 C   0  0  0  0  0  0  0  0  0  0  0  0
    2.0861   -1.1767    0.0154 H   0  0  0  0  0  0  0  0  0  0  0  0
    1.1916    0.7023   -0.0090 C   0  0  0  0  0  0  0  0  0  0  0  0
    2.0541    1.2035   -0.0252 H   0  0  0  0  0  0  0  0  0  0  0  0
  1  5  1  0
  5  6  1  0
  5  7  2  0
  1  2  1  0
  1  3  1  0
  1  4  1  0
  8 12  1  0
 12 13  2  0
 13 15  1  0
 15 17  2  0
 17 19  1  0
 19 21  2  0
 21 12  1  0
  8  9  1  0
  8 10  1  0
  8 11  1  0
 13 14  1  0
 15 16  1  0
 17 18  1  0
 19 20  1  0
 21 22  1  0
M  CHG  1   6  -1
M  END
>  <PDB_ID>  (789) 
pdb2rcc

>  <RESIDUE_NAME>  (789) 
ASP   PHE

>  <FRAG_NAME>  (789) 
ACET   MBZ

>  <FRAG_ATOM_NUM>  (789) 
fragi: 7  fragj: 15

>  <atom.prop.CHAIN_ID>  (789) 
A A A A A A A Z Z Z Z Z Z Z Z Z Z Z Z Z Z Z

>  <atom.prop.IS_HEAVY_ATOM>  (789) 
1 0 0 0 1 1 1 1 0 0 0 1 1 0 1 0 1 0 1 0 1 0

>  <DIFUSE_FUNC_ATOM>  (789) 
atom 6   atom 7   

>  <FINAL_SINGLE_POINT_ENERGY>  (789) 
0

>  <NONCOV_INTER_ENERGY_QM>  (789) 
0

>  <FF_Energy>  (789) 
4.69

>  <QM_Energy>  (789) 
-1.36

>  <source>  (789) 
ACET_MBZ_00

>  <Index>  (789) 
28201

$$$$
ACET-pdb1nwc-A-GLU-175:MBZ-pdb1nwc-A-PHE-219
     RDKit          3D

 22 21  0  0  0  0  0  0  0  0999 V2000
   -4.9828    1.1219    1.6420 C   0  0  0  0  0  0  0  0  0  0  0  0
   -4.6872    0.9309    0.7236 H   0  0  0  0  0  0  0  0  0  0  0  0
   -5.8989    1.4789    1.6706 H   0  0  0  0  0  0  0  0  0  0  0  0
   -4.9581    0.1918    2.2099 H   0  0  0  0  0  0  0  0  0  0  0  0
   -4.0601    2.1825    2.2093 C   0  0  0  0  0  0  0  0  0  0  0  0
   -4.2653    2.5675    3.3825 O   0  0  0  0  0  1  0  0  0  0  0  0
   -3.1418    2.6317    1.4854 O   0  0  0  0  0  0  0  0  0  0  0  0
    0.0056    2.9028    0.0205 C   0  0  0  0  0  0  0  0  0  0  0  0
   -0.9217    3.2148   -0.1156 H   0  0  0  0  0  0  0  0  0  0  0  0
    0.6027    3.2179   -0.7004 H   0  0  0  0  0  0  0  0  0  0  0  0
    0.3646    3.3278    0.9578 H   0  0  0  0  0  0  0  0  0  0  0  0
    0.0007    1.3990    0.0000 C   0  0  0  0  0  0  0  0  0  0  0  0
   -1.1966    0.6949    0.0005 C   0  0  0  0  0  0  0  0  0  0  0  0
   -2.0622    1.1880   -0.0001 H   0  0  0  0  0  0  0  0  0  0  0  0
   -1.2046   -0.6939   -0.0000 C   0  0  0  0  0  0  0  0  0  0  0  0
   -2.0810   -1.1874    0.0014 H   0  0  0  0  0  0  0  0  0  0  0  0
   -0.0028   -1.3926   -0.0004 C   0  0  0  0  0  0  0  0  0  0  0  0
   -0.0068   -2.3901   -0.0015 H   0  0  0  0  0  0  0  0  0  0  0  0
    1.2046   -0.6964    0.0000 C   0  0  0  0  0  0  0  0  0  0  0  0
    2.0815   -1.1986    0.0020 H   0  0  0  0  0  0  0  0  0  0  0  0
    1.1988    0.6890   -0.0001 C   0  0  0  0  0  0  0  0  0  0  0  0
    2.0656    1.1889   -0.0009 H   0  0  0  0  0  0  0  0  0  0  0  0
  1  5  1  0
  5  6  1  0
  5  7  2  0
  1  2  1  0
  1  3  1  0
  1  4  1  0
  8 12  1  0
 12 13  2  0
 13 15  1  0
 15 17  2  0
 17 19  1  0
 19 21  2  0
 21 12  1  0
  8  9  1  0
  8 10  1  0
  8 11  1  0
 13 14  1  0
 15 16  1  0
 17 18  1  0
 19 20  1  0
 21 22  1  0
M  CHG  1   6  -1
M  END
>  <PDB_ID>  (790) 
pdb1nwc

>  <RESIDUE_NAME>  (790) 
GLU   PHE

>  <FRAG_NAME>  (790) 
ACET   MBZ

>  <FRAG_ATOM_NUM>  (790) 
fragi: 7  fragj: 15

>  <atom.prop.CHAIN_ID>  (790) 
A A A A A A A Z Z Z Z Z Z Z Z Z Z Z Z Z Z Z

>  <atom.prop.IS_HEAVY_ATOM>  (790) 
1 0 0 0 1 1 1 1 0 0 0 1 1 0 1 0 1 0 1 0 1 0

>  <DIFUSE_FUNC_ATOM>  (790) 
atom 6   atom 7   

>  <FINAL_SINGLE_POINT_ENERGY>  (790) 
0

>  <NONCOV_INTER_ENERGY_QM>  (790) 
0

>  <FF_Energy>  (790) 
-0.78

>  <QM_Energy>  (790) 
-6.38

>  <source>  (790) 
ACET_MBZ_00

>  <Index>  (790) 
28256

$$$$
ACET-pdb2rfb-A-GLU-292:MBZ-pdb2rfb-A-PHE-279
     RDKit          3D

 22 21  0  0  0  0  0  0  0  0999 V2000
    4.5231    3.0401    1.4201 C   0  0  0  0  0  0  0  0  0  0  0  0
    5.1750    3.4202    2.0450 H   0  0  0  0  0  0  0  0  0  0  0  0
    3.5965    3.2399    1.6701 H   0  0  0  0  0  0  0  0  0  0  0  0
    4.7073    3.4797    0.4398 H   0  0  0  0  0  0  0  0  0  0  0  0
    4.6891    1.5005    1.4571 C   0  0  0  0  0  0  0  0  0  0  0  0
    4.2402    0.8330    0.4769 O   0  0  0  0  0  1  0  0  0  0  0  0
    5.2661    0.9676    2.4583 O   0  0  0  0  0  0  0  0  0  0  0  0
   -0.0104    2.8614    0.0353 C   0  0  0  0  0  0  0  0  0  0  0  0
   -0.7332    3.1945   -0.5499 H   0  0  0  0  0  0  0  0  0  0  0  0
    0.8730    3.1982   -0.2502 H   0  0  0  0  0  0  0  0  0  0  0  0
   -0.1976    3.2558    1.0341 H   0  0  0  0  0  0  0  0  0  0  0  0
    0.0007    1.3913   -0.0044 C   0  0  0  0  0  0  0  0  0  0  0  0
   -1.2081    0.6836   -0.0082 C   0  0  0  0  0  0  0  0  0  0  0  0
   -2.0690    1.1784   -0.0183 H   0  0  0  0  0  0  0  0  0  0  0  0
   -1.2199   -0.7122   -0.0000 C   0  0  0  0  0  0  0  0  0  0  0  0
   -2.0840   -1.2079    0.0000 H   0  0  0  0  0  0  0  0  0  0  0  0
    0.0032   -1.4023    0.0103 C   0  0  0  0  0  0  0  0  0  0  0  0
    0.0232   -2.3891    0.0243 H   0  0  0  0  0  0  0  0  0  0  0  0
    1.2199   -0.6652    0.0000 C   0  0  0  0  0  0  0  0  0  0  0  0
    2.0973   -1.1737   -0.0074 H   0  0  0  0  0  0  0  0  0  0  0  0
    1.2042    0.7049    0.0023 C   0  0  0  0  0  0  0  0  0  0  0  0
    2.0633    1.2182    0.0079 H   0  0  0  0  0  0  0  0  0  0  0  0
  1  5  1  0
  5  6  1  0
  5  7  2  0
  1  2  1  0
  1  3  1  0
  1  4  1  0
  8 12  1  0
 12 13  2  0
 13 15  1  0
 15 17  2  0
 17 19  1  0
 19 21  2  0
 21 12  1  0
  8  9  1  0
  8 10  1  0
  8 11  1  0
 13 14  1  0
 15 16  1  0
 17 18  1  0
 19 20  1  0
 21 22  1  0
M  CHG  1   6  -1
M  END
>  <PDB_ID>  (791) 
pdb2rfb

>  <RESIDUE_NAME>  (791) 
GLU   PHE

>  <FRAG_NAME>  (791) 
ACET   MBZ

>  <FRAG_ATOM_NUM>  (791) 
fragi: 7  fragj: 15

>  <atom.prop.CHAIN_ID>  (791) 
A A A A A A A Z Z Z Z Z Z Z Z Z Z Z Z Z Z Z

>  <atom.prop.IS_HEAVY_ATOM>  (791) 
1 0 0 0 1 1 1 1 0 0 0 1 1 0 1 0 1 0 1 0 1 0

>  <DIFUSE_FUNC_ATOM>  (791) 
atom 6   atom 7   

>  <FINAL_SINGLE_POINT_ENERGY>  (791) 
0

>  <NONCOV_INTER_ENERGY_QM>  (791) 
0

>  <FF_Energy>  (791) 
-1.26

>  <QM_Energy>  (791) 
-6.53

>  <source>  (791) 
ACET_MBZ_00

>  <Index>  (791) 
28279

$$$$
ACET-pdb2rfw-B-ASP-338:MBZ-pdb2rfw-B-PHE-333
     RDKit          3D

 22 21  0  0  0  0  0  0  0  0999 V2000
    4.4832   -0.6071    0.7900 C   0  0  0  0  0  0  0  0  0  0  0  0
    3.5020   -0.6938    0.5594 H   0  0  0  0  0  0  0  0  0  0  0  0
    4.9595   -1.4123    0.4083 H   0  0  0  0  0  0  0  0  0  0  0  0
    4.8666    0.2774    0.2812 H   0  0  0  0  0  0  0  0  0  0  0  0
    4.6243   -0.6366    2.2945 C   0  0  0  0  0  0  0  0  0  0  0  0
    5.5465    0.0054    2.8361 O   0  0  0  0  0  1  0  0  0  0  0  0
    3.7974   -1.3146    2.9526 O   0  0  0  0  0  0  0  0  0  0  0  0
   -0.0006    2.9197    0.0085 C   0  0  0  0  0  0  0  0  0  0  0  0
   -0.8183    3.2171   -0.4335 H   0  0  0  0  0  0  0  0  0  0  0  0
    0.8147    3.2174   -0.4380 H   0  0  0  0  0  0  0  0  0  0  0  0
    0.0022    3.3083    1.0269 H   0  0  0  0  0  0  0  0  0  0  0  0
   -0.0008    1.3945   -0.0001 C   0  0  0  0  0  0  0  0  0  0  0  0
   -1.1882    0.6875   -0.0000 C   0  0  0  0  0  0  0  0  0  0  0  0
   -2.0591    1.1796   -0.0013 H   0  0  0  0  0  0  0  0  0  0  0  0
   -1.1953   -0.6956    0.0000 C   0  0  0  0  0  0  0  0  0  0  0  0
   -2.0734   -1.1896   -0.0023 H   0  0  0  0  0  0  0  0  0  0  0  0
    0.0006   -1.3882    0.0050 C   0  0  0  0  0  0  0  0  0  0  0  0
    0.0000   -2.3879    0.0112 H   0  0  0  0  0  0  0  0  0  0  0  0
    1.1953   -0.6899    0.0000 C   0  0  0  0  0  0  0  0  0  0  0  0
    2.0789   -1.1883    0.0014 H   0  0  0  0  0  0  0  0  0  0  0  0
    1.1884    0.6917   -0.0049 C   0  0  0  0  0  0  0  0  0  0  0  0
    2.0595    1.1908   -0.0126 H   0  0  0  0  0  0  0  0  0  0  0  0
  1  5  1  0
  5  6  1  0
  5  7  2  0
  1  2  1  0
  1  3  1  0
  1  4  1  0
  8 12  1  0
 12 13  2  0
 13 15  1  0
 15 17  2  0
 17 19  1  0
 19 21  2  0
 21 12  1  0
  8  9  1  0
  8 10  1  0
  8 11  1  0
 13 14  1  0
 15 16  1  0
 17 18  1  0
 19 20  1  0
 21 22  1  0
M  CHG  1   6  -1
M  END
>  <PDB_ID>  (792) 
pdb2rfw

>  <RESIDUE_NAME>  (792) 
ASP   PHE

>  <FRAG_NAME>  (792) 
ACET   MBZ

>  <FRAG_ATOM_NUM>  (792) 
fragi: 7  fragj: 15

>  <atom.prop.CHAIN_ID>  (792) 
A A A A A A A Z Z Z Z Z Z Z Z Z Z Z Z Z Z Z

>  <atom.prop.IS_HEAVY_ATOM>  (792) 
1 0 0 0 1 1 1 1 0 0 0 1 1 0 1 0 1 0 1 0 1 0

>  <DIFUSE_FUNC_ATOM>  (792) 
atom 6   atom 7   

>  <FINAL_SINGLE_POINT_ENERGY>  (792) 
0

>  <NONCOV_INTER_ENERGY_QM>  (792) 
0

>  <FF_Energy>  (792) 
14.29

>  <QM_Energy>  (792) 
1.33

>  <source>  (792) 
ACET_MBZ_00

>  <Index>  (792) 
28349

$$$$
ACET-pdb1nye-E-GLU-861:MBZ-pdb1nye-E-PHE-856
     RDKit          3D

 22 21  0  0  0  0  0  0  0  0999 V2000
   -5.5574   -0.9793   -2.3481 C   0  0  0  0  0  0  0  0  0  0  0  0
   -6.1545   -0.5006   -1.7284 H   0  0  0  0  0  0  0  0  0  0  0  0
   -5.9561   -1.8195   -2.6699 H   0  0  0  0  0  0  0  0  0  0  0  0
   -5.3871   -0.3361   -3.2114 H   0  0  0  0  0  0  0  0  0  0  0  0
   -4.2862   -1.3342   -1.5842 C   0  0  0  0  0  0  0  0  0  0  0  0
   -3.4202   -2.0398   -2.1415 O   0  0  0  0  0  1  0  0  0  0  0  0
   -4.1541   -0.9079   -0.4175 O   0  0  0  0  0  0  0  0  0  0  0  0
    0.0080    2.9244   -0.0077 C   0  0  0  0  0  0  0  0  0  0  0  0
    0.8846    3.2246    0.3335 H   0  0  0  0  0  0  0  0  0  0  0  0
   -0.7304    3.2335    0.5707 H   0  0  0  0  0  0  0  0  0  0  0  0
   -0.1349    3.3644   -0.9947 H   0  0  0  0  0  0  0  0  0  0  0  0
    0.0011    1.4094    0.0002 C   0  0  0  0  0  0  0  0  0  0  0  0
   -1.1981    0.6967    0.0001 C   0  0  0  0  0  0  0  0  0  0  0  0
   -2.0646    1.1845   -0.0006 H   0  0  0  0  0  0  0  0  0  0  0  0
   -1.2026   -0.7013   -0.0000 C   0  0  0  0  0  0  0  0  0  0  0  0
   -2.0805   -1.1919    0.0020 H   0  0  0  0  0  0  0  0  0  0  0  0
   -0.0008   -1.3999   -0.0008 C   0  0  0  0  0  0  0  0  0  0  0  0
   -0.0042   -2.3978   -0.0027 H   0  0  0  0  0  0  0  0  0  0  0  0
    1.2026   -0.7016    0.0000 C   0  0  0  0  0  0  0  0  0  0  0  0
    2.0839   -1.1965    0.0014 H   0  0  0  0  0  0  0  0  0  0  0  0
    1.1978    0.6968    0.0005 C   0  0  0  0  0  0  0  0  0  0  0  0
    2.0681    1.1897    0.0004 H   0  0  0  0  0  0  0  0  0  0  0  0
  1  5  1  0
  5  6  1  0
  5  7  2  0
  1  2  1  0
  1  3  1  0
  1  4  1  0
  8 12  1  0
 12 13  2  0
 13 15  1  0
 15 17  2  0
 17 19  1  0
 19 21  2  0
 21 12  1  0
  8  9  1  0
  8 10  1  0
  8 11  1  0
 13 14  1  0
 15 16  1  0
 17 18  1  0
 19 20  1  0
 21 22  1  0
M  CHG  1   6  -1
M  END
>  <PDB_ID>  (793) 
pdb1nye

>  <RESIDUE_NAME>  (793) 
GLU   PHE

>  <FRAG_NAME>  (793) 
ACET   MBZ

>  <FRAG_ATOM_NUM>  (793) 
fragi: 7  fragj: 15

>  <atom.prop.CHAIN_ID>  (793) 
A A A A A A A Z Z Z Z Z Z Z Z Z Z Z Z Z Z Z

>  <atom.prop.IS_HEAVY_ATOM>  (793) 
1 0 0 0 1 1 1 1 0 0 0 1 1 0 1 0 1 0 1 0 1 0

>  <DIFUSE_FUNC_ATOM>  (793) 
atom 6   atom 7   

>  <FINAL_SINGLE_POINT_ENERGY>  (793) 
0

>  <NONCOV_INTER_ENERGY_QM>  (793) 
0

>  <FF_Energy>  (793) 
0.98

>  <QM_Energy>  (793) 
-6.82

>  <source>  (793) 
ACET_MBZ_00

>  <Index>  (793) 
28359

$$$$
ACET-pdb1nwc-B-GLU-175:MBZ-pdb1nwc-B-PHE-219
     RDKit          3D

 22 21  0  0  0  0  0  0  0  0999 V2000
   -5.2081    1.0117    1.1613 C   0  0  0  0  0  0  0  0  0  0  0  0
   -4.8386    0.8916    0.2595 H   0  0  0  0  0  0  0  0  0  0  0  0
   -6.1437    1.3100    1.1451 H   0  0  0  0  0  0  0  0  0  0  0  0
   -5.1595    0.0558    1.6830 H   0  0  0  0  0  0  0  0  0  0  0  0
   -4.3968    2.0845    1.8506 C   0  0  0  0  0  0  0  0  0  0  0  0
   -4.8112    2.5191    2.9462 O   0  0  0  0  0  1  0  0  0  0  0  0
   -3.3456    2.4886    1.3013 O   0  0  0  0  0  0  0  0  0  0  0  0
    0.0054    2.9055    0.0195 C   0  0  0  0  0  0  0  0  0  0  0  0
   -0.8985    3.2188   -0.2303 H   0  0  0  0  0  0  0  0  0  0  0  0
    0.6864    3.2201   -0.6244 H   0  0  0  0  0  0  0  0  0  0  0  0
    0.2472    3.3342    0.9920 H   0  0  0  0  0  0  0  0  0  0  0  0
    0.0019    1.4038    0.0004 C   0  0  0  0  0  0  0  0  0  0  0  0
   -1.1995    0.6959   -0.0001 C   0  0  0  0  0  0  0  0  0  0  0  0
   -2.0642    1.1881   -0.0021 H   0  0  0  0  0  0  0  0  0  0  0  0
   -1.2068   -0.6961    0.0000 C   0  0  0  0  0  0  0  0  0  0  0  0
   -2.0837   -1.1885    0.0015 H   0  0  0  0  0  0  0  0  0  0  0  0
   -0.0040   -1.3978    0.0003 C   0  0  0  0  0  0  0  0  0  0  0  0
   -0.0084   -2.3940   -0.0001 H   0  0  0  0  0  0  0  0  0  0  0  0
    1.2068   -0.7002    0.0000 C   0  0  0  0  0  0  0  0  0  0  0  0
    2.0830   -1.1997    0.0015 H   0  0  0  0  0  0  0  0  0  0  0  0
    1.2016    0.6943   -0.0006 C   0  0  0  0  0  0  0  0  0  0  0  0
    2.0689    1.1903   -0.0030 H   0  0  0  0  0  0  0  0  0  0  0  0
  1  5  1  0
  5  6  1  0
  5  7  2  0
  1  2  1  0
  1  3  1  0
  1  4  1  0
  8 12  1  0
 12 13  2  0
 13 15  1  0
 15 17  2  0
 17 19  1  0
 19 21  2  0
 21 12  1  0
  8  9  1  0
  8 10  1  0
  8 11  1  0
 13 14  1  0
 15 16  1  0
 17 18  1  0
 19 20  1  0
 21 22  1  0
M  CHG  1   6  -1
M  END
>  <PDB_ID>  (794) 
pdb1nwc

>  <RESIDUE_NAME>  (794) 
GLU   PHE

>  <FRAG_NAME>  (794) 
ACET   MBZ

>  <FRAG_ATOM_NUM>  (794) 
fragi: 7  fragj: 15

>  <atom.prop.CHAIN_ID>  (794) 
A A A A A A A Z Z Z Z Z Z Z Z Z Z Z Z Z Z Z

>  <atom.prop.IS_HEAVY_ATOM>  (794) 
1 0 0 0 1 1 1 1 0 0 0 1 1 0 1 0 1 0 1 0 1 0

>  <DIFUSE_FUNC_ATOM>  (794) 
atom 6   atom 7   

>  <FINAL_SINGLE_POINT_ENERGY>  (794) 
0

>  <NONCOV_INTER_ENERGY_QM>  (794) 
0

>  <FF_Energy>  (794) 
-0.34

>  <QM_Energy>  (794) 
-6.45

>  <source>  (794) 
ACET_MBZ_00

>  <Index>  (794) 
28385

$$$$
ACET-pdb2rgk-B-GLU-338:MBZ-pdb2rgk-B-PHE-4
     RDKit          3D

 22 21  0  0  0  0  0  0  0  0999 V2000
    2.7343    0.6402   -3.1160 C   0  0  0  0  0  0  0  0  0  0  0  0
    2.9449    0.4763   -4.0636 H   0  0  0  0  0  0  0  0  0  0  0  0
    1.8440    0.2989   -2.8707 H   0  0  0  0  0  0  0  0  0  0  0  0
    3.4770    0.1217   -2.5096 H   0  0  0  0  0  0  0  0  0  0  0  0
    2.7317    2.1335   -2.8952 C   0  0  0  0  0  0  0  0  0  0  0  0
    3.8242    2.7373   -2.9377 O   0  0  0  0  0  1  0  0  0  0  0  0
    1.6374    2.7064   -2.6883 O   0  0  0  0  0  0  0  0  0  0  0  0
    0.0004    2.9052    0.0882 C   0  0  0  0  0  0  0  0  0  0  0  0
    0.8540    3.2355   -0.2869 H   0  0  0  0  0  0  0  0  0  0  0  0
   -0.0937    3.1579    1.0402 H   0  0  0  0  0  0  0  0  0  0  0  0
   -0.8100    3.3827   -0.4626 H   0  0  0  0  0  0  0  0  0  0  0  0
    0.0016    1.4064    0.0008 C   0  0  0  0  0  0  0  0  0  0  0  0
   -1.2006    0.6911   -0.0016 C   0  0  0  0  0  0  0  0  0  0  0  0
   -2.0659    1.1834   -0.0056 H   0  0  0  0  0  0  0  0  0  0  0  0
   -1.2084   -0.7023    0.0000 C   0  0  0  0  0  0  0  0  0  0  0  0
   -2.0841   -1.1940    0.0007 H   0  0  0  0  0  0  0  0  0  0  0  0
   -0.0049   -1.3996    0.0032 C   0  0  0  0  0  0  0  0  0  0  0  0
   -0.0035   -2.3960    0.0078 H   0  0  0  0  0  0  0  0  0  0  0  0
    1.2084   -0.6971   -0.0000 C   0  0  0  0  0  0  0  0  0  0  0  0
    2.0848   -1.1962    0.0007 H   0  0  0  0  0  0  0  0  0  0  0  0
    1.2039    0.7015   -0.0024 C   0  0  0  0  0  0  0  0  0  0  0  0
    2.0687    1.1960   -0.0077 H   0  0  0  0  0  0  0  0  0  0  0  0
  1  5  1  0
  5  6  1  0
  5  7  2  0
  1  2  1  0
  1  3  1  0
  1  4  1  0
  8 12  1  0
 12 13  2  0
 13 15  1  0
 15 17  2  0
 17 19  1  0
 19 21  2  0
 21 12  1  0
  8  9  1  0
  8 10  1  0
  8 11  1  0
 13 14  1  0
 15 16  1  0
 17 18  1  0
 19 20  1  0
 21 22  1  0
M  CHG  1   6  -1
M  END
>  <PDB_ID>  (795) 
pdb2rgk

>  <RESIDUE_NAME>  (795) 
GLU   PHE

>  <FRAG_NAME>  (795) 
ACET   MBZ

>  <FRAG_ATOM_NUM>  (795) 
fragi: 7  fragj: 15

>  <atom.prop.CHAIN_ID>  (795) 
A A A A A A A Z Z Z Z Z Z Z Z Z Z Z Z Z Z Z

>  <atom.prop.IS_HEAVY_ATOM>  (795) 
1 0 0 0 1 1 1 1 0 0 0 1 1 0 1 0 1 0 1 0 1 0

>  <DIFUSE_FUNC_ATOM>  (795) 
atom 6   atom 7   

>  <FINAL_SINGLE_POINT_ENERGY>  (795) 
0

>  <NONCOV_INTER_ENERGY_QM>  (795) 
0

>  <FF_Energy>  (795) 
-0.12

>  <QM_Energy>  (795) 
-5.47

>  <source>  (795) 
ACET_MBZ_00

>  <Index>  (795) 
28398

$$$$
ACET-pdb2rjo-A-GLU-159:MBZ-pdb2rjo-A-PHE-325
     RDKit          3D

 22 21  0  0  0  0  0  0  0  0999 V2000
   -2.1515    0.0933   -4.3761 C   0  0  0  0  0  0  0  0  0  0  0  0
   -1.4994   -0.5120   -4.7951 H   0  0  0  0  0  0  0  0  0  0  0  0
   -2.7043    0.5619   -5.0411 H   0  0  0  0  0  0  0  0  0  0  0  0
   -2.8070   -0.4971   -3.7358 H   0  0  0  0  0  0  0  0  0  0  0  0
   -1.3692    1.1471   -3.6095 C   0  0  0  0  0  0  0  0  0  0  0  0
   -1.9847    1.9941   -2.9351 O   0  0  0  0  0  1  0  0  0  0  0  0
   -0.1247    1.1355   -3.6889 O   0  0  0  0  0  0  0  0  0  0  0  0
   -0.0068    2.8985   -0.0223 C   0  0  0  0  0  0  0  0  0  0  0  0
   -0.5843    3.1960   -0.7686 H   0  0  0  0  0  0  0  0  0  0  0  0
    0.9253    3.2072   -0.1469 H   0  0  0  0  0  0  0  0  0  0  0  0
   -0.3882    3.3431    0.8970 H   0  0  0  0  0  0  0  0  0  0  0  0
   -0.0021    1.4035   -0.0081 C   0  0  0  0  0  0  0  0  0  0  0  0
   -1.1977    0.6910    0.0019 C   0  0  0  0  0  0  0  0  0  0  0  0
   -2.0664    1.1748    0.0099 H   0  0  0  0  0  0  0  0  0  0  0  0
   -1.2005   -0.7098    0.0000 C   0  0  0  0  0  0  0  0  0  0  0  0
   -2.0731   -1.2018   -0.0048 H   0  0  0  0  0  0  0  0  0  0  0  0
    0.0067   -1.3945    0.0062 C   0  0  0  0  0  0  0  0  0  0  0  0
    0.0101   -2.3949    0.0152 H   0  0  0  0  0  0  0  0  0  0  0  0
    1.2005   -0.6911   -0.0000 C   0  0  0  0  0  0  0  0  0  0  0  0
    2.0865   -1.1844   -0.0036 H   0  0  0  0  0  0  0  0  0  0  0  0
    1.1931    0.7010    0.0001 C   0  0  0  0  0  0  0  0  0  0  0  0
    2.0612    1.1974    0.0055 H   0  0  0  0  0  0  0  0  0  0  0  0
  1  5  1  0
  5  6  1  0
  5  7  2  0
  1  2  1  0
  1  3  1  0
  1  4  1  0
  8 12  1  0
 12 13  2  0
 13 15  1  0
 15 17  2  0
 17 19  1  0
 19 21  2  0
 21 12  1  0
  8  9  1  0
  8 10  1  0
  8 11  1  0
 13 14  1  0
 15 16  1  0
 17 18  1  0
 19 20  1  0
 21 22  1  0
M  CHG  1   6  -1
M  END
>  <PDB_ID>  (796) 
pdb2rjo

>  <RESIDUE_NAME>  (796) 
GLU   PHE

>  <FRAG_NAME>  (796) 
ACET   MBZ

>  <FRAG_ATOM_NUM>  (796) 
fragi: 7  fragj: 15

>  <atom.prop.CHAIN_ID>  (796) 
A A A A A A A Z Z Z Z Z Z Z Z Z Z Z Z Z Z Z

>  <atom.prop.IS_HEAVY_ATOM>  (796) 
1 0 0 0 1 1 1 1 0 0 0 1 1 0 1 0 1 0 1 0 1 0

>  <DIFUSE_FUNC_ATOM>  (796) 
atom 6   atom 7   

>  <FINAL_SINGLE_POINT_ENERGY>  (796) 
0

>  <NONCOV_INTER_ENERGY_QM>  (796) 
0

>  <FF_Energy>  (796) 
1.88

>  <QM_Energy>  (796) 
-4.14

>  <source>  (796) 
ACET_MBZ_00

>  <Index>  (796) 
28597

$$$$
ACET-pdb1o5i-D-GLU-158:MBZ-pdb1o5i-A-PHE-84
     RDKit          3D

 22 21  0  0  0  0  0  0  0  0999 V2000
   -3.5152    2.7803    3.5746 C   0  0  0  0  0  0  0  0  0  0  0  0
   -3.4651    3.3035    4.4092 H   0  0  0  0  0  0  0  0  0  0  0  0
   -3.0105    1.9356    3.6430 H   0  0  0  0  0  0  0  0  0  0  0  0
   -4.5611    2.5411    3.3821 H   0  0  0  0  0  0  0  0  0  0  0  0
   -2.8385    3.6224    2.4730 C   0  0  0  0  0  0  0  0  0  0  0  0
   -3.0923    3.4257    1.2233 O   0  0  0  0  0  1  0  0  0  0  0  0
   -2.0225    4.4918    2.8861 O   0  0  0  0  0  0  0  0  0  0  0  0
   -0.0142    2.8987   -0.0355 C   0  0  0  0  0  0  0  0  0  0  0  0
    0.9007    3.2118    0.1351 H   0  0  0  0  0  0  0  0  0  0  0  0
   -0.6517    3.2107    0.6436 H   0  0  0  0  0  0  0  0  0  0  0  0
   -0.3322    3.2789   -1.0062 H   0  0  0  0  0  0  0  0  0  0  0  0
    0.0002    1.3889    0.0053 C   0  0  0  0  0  0  0  0  0  0  0  0
   -1.1897    0.6746   -0.0065 C   0  0  0  0  0  0  0  0  0  0  0  0
   -2.0578    1.1642   -0.0214 H   0  0  0  0  0  0  0  0  0  0  0  0
   -1.1777   -0.6971   -0.0000 C   0  0  0  0  0  0  0  0  0  0  0  0
   -2.0604   -1.1997    0.0033 H   0  0  0  0  0  0  0  0  0  0  0  0
    0.0020   -1.3637    0.0042 C   0  0  0  0  0  0  0  0  0  0  0  0
    0.0030   -2.3790    0.0105 H   0  0  0  0  0  0  0  0  0  0  0  0
    1.1777   -0.6873    0.0000 C   0  0  0  0  0  0  0  0  0  0  0  0
    2.0687   -1.1915    0.0007 H   0  0  0  0  0  0  0  0  0  0  0  0
    1.1875    0.6847   -0.0030 C   0  0  0  0  0  0  0  0  0  0  0  0
    2.0570    1.1803   -0.0128 H   0  0  0  0  0  0  0  0  0  0  0  0
  1  5  1  0
  5  6  1  0
  5  7  2  0
  1  2  1  0
  1  3  1  0
  1  4  1  0
  8 12  1  0
 12 13  2  0
 13 15  1  0
 15 17  2  0
 17 19  1  0
 19 21  2  0
 21 12  1  0
  8  9  1  0
  8 10  1  0
  8 11  1  0
 13 14  1  0
 15 16  1  0
 17 18  1  0
 19 20  1  0
 21 22  1  0
M  CHG  1   6  -1
M  END
>  <PDB_ID>  (797) 
pdb1o5i

>  <RESIDUE_NAME>  (797) 
GLU   PHE

>  <FRAG_NAME>  (797) 
ACET   MBZ

>  <FRAG_ATOM_NUM>  (797) 
fragi: 7  fragj: 15

>  <atom.prop.CHAIN_ID>  (797) 
A A A A A A A Z Z Z Z Z Z Z Z Z Z Z Z Z Z Z

>  <atom.prop.IS_HEAVY_ATOM>  (797) 
1 0 0 0 1 1 1 1 0 0 0 1 1 0 1 0 1 0 1 0 1 0

>  <DIFUSE_FUNC_ATOM>  (797) 
atom 6   atom 7   

>  <FINAL_SINGLE_POINT_ENERGY>  (797) 
0

>  <NONCOV_INTER_ENERGY_QM>  (797) 
0

>  <FF_Energy>  (797) 
-1.85

>  <QM_Energy>  (797) 
-7.86

>  <source>  (797) 
ACET_MBZ_00

>  <Index>  (797) 
28616

$$$$
ACET-pdb1o5i-C-GLU-158:MBZ-pdb1o5i-B-PHE-84
     RDKit          3D

 22 21  0  0  0  0  0  0  0  0999 V2000
   -3.9992    2.2919    3.6849 C   0  0  0  0  0  0  0  0  0  0  0  0
   -4.5333    2.9753    4.1513 H   0  0  0  0  0  0  0  0  0  0  0  0
   -3.3409    1.8672    4.2818 H   0  0  0  0  0  0  0  0  0  0  0  0
   -4.6712    1.5248    3.3002 H   0  0  0  0  0  0  0  0  0  0  0  0
   -3.2145    3.0063    2.5877 C   0  0  0  0  0  0  0  0  0  0  0  0
   -3.4848    2.7708    1.3674 O   0  0  0  0  0  1  0  0  0  0  0  0
   -2.3147    3.8255    2.9719 O   0  0  0  0  0  0  0  0  0  0  0  0
   -0.0208    2.9170   -0.0152 C   0  0  0  0  0  0  0  0  0  0  0  0
    0.9064    3.2291    0.0911 H   0  0  0  0  0  0  0  0  0  0  0  0
   -0.6011    3.2180    0.7200 H   0  0  0  0  0  0  0  0  0  0  0  0
   -0.4123    3.3245   -0.9473 H   0  0  0  0  0  0  0  0  0  0  0  0
   -0.0030    1.4025    0.0012 C   0  0  0  0  0  0  0  0  0  0  0  0
   -1.1912    0.6845   -0.0159 C   0  0  0  0  0  0  0  0  0  0  0  0
   -2.0624    1.1714   -0.0415 H   0  0  0  0  0  0  0  0  0  0  0  0
   -1.1887   -0.6993   -0.0000 C   0  0  0  0  0  0  0  0  0  0  0  0
   -2.0666   -1.1979   -0.0033 H   0  0  0  0  0  0  0  0  0  0  0  0
    0.0072   -1.3850    0.0225 C   0  0  0  0  0  0  0  0  0  0  0  0
   -0.0013   -2.3902    0.0552 H   0  0  0  0  0  0  0  0  0  0  0  0
    1.1887   -0.7007   -0.0000 C   0  0  0  0  0  0  0  0  0  0  0  0
    2.0790   -1.1883   -0.0095 H   0  0  0  0  0  0  0  0  0  0  0  0
    1.1870    0.6979   -0.0078 C   0  0  0  0  0  0  0  0  0  0  0  0
    2.0585    1.1869   -0.0207 H   0  0  0  0  0  0  0  0  0  0  0  0
  1  5  1  0
  5  6  1  0
  5  7  2  0
  1  2  1  0
  1  3  1  0
  1  4  1  0
  8 12  1  0
 12 13  2  0
 13 15  1  0
 15 17  2  0
 17 19  1  0
 19 21  2  0
 21 12  1  0
  8  9  1  0
  8 10  1  0
  8 11  1  0
 13 14  1  0
 15 16  1  0
 17 18  1  0
 19 20  1  0
 21 22  1  0
M  CHG  1   6  -1
M  END
>  <PDB_ID>  (798) 
pdb1o5i

>  <RESIDUE_NAME>  (798) 
GLU   PHE

>  <FRAG_NAME>  (798) 
ACET   MBZ

>  <FRAG_ATOM_NUM>  (798) 
fragi: 7  fragj: 15

>  <atom.prop.CHAIN_ID>  (798) 
A A A A A A A Z Z Z Z Z Z Z Z Z Z Z Z Z Z Z

>  <atom.prop.IS_HEAVY_ATOM>  (798) 
1 0 0 0 1 1 1 1 0 0 0 1 1 0 1 0 1 0 1 0 1 0

>  <DIFUSE_FUNC_ATOM>  (798) 
atom 6   atom 7   

>  <FINAL_SINGLE_POINT_ENERGY>  (798) 
0

>  <NONCOV_INTER_ENERGY_QM>  (798) 
0

>  <FF_Energy>  (798) 
-1.97

>  <QM_Energy>  (798) 
-7.91

>  <source>  (798) 
ACET_MBZ_00

>  <Index>  (798) 
28620

$$$$
ACET-pdb1o60-A-ASP-271:MBZ-pdb1o60-A-PHE-19
     RDKit          3D

 22 21  0  0  0  0  0  0  0  0999 V2000
   -3.6399    1.9780    2.3673 C   0  0  0  0  0  0  0  0  0  0  0  0
   -2.7996    1.6476    2.7713 H   0  0  0  0  0  0  0  0  0  0  0  0
   -4.0592    1.2857    1.7996 H   0  0  0  0  0  0  0  0  0  0  0  0
   -4.3305    2.1933    3.1827 H   0  0  0  0  0  0  0  0  0  0  0  0
   -3.3576    3.1981    1.5475 C   0  0  0  0  0  0  0  0  0  0  0  0
   -2.7494    4.1688    2.0813 O   0  0  0  0  0  1  0  0  0  0  0  0
   -3.7578    3.2721    0.3578 O   0  0  0  0  0  0  0  0  0  0  0  0
    0.0465    2.9077   -0.0789 C   0  0  0  0  0  0  0  0  0  0  0  0
    0.9674    3.1888    0.1377 H   0  0  0  0  0  0  0  0  0  0  0  0
   -0.6041    3.2480    0.5806 H   0  0  0  0  0  0  0  0  0  0  0  0
   -0.2113    3.3331   -1.0488 H   0  0  0  0  0  0  0  0  0  0  0  0
   -0.0006    1.3968   -0.0440 C   0  0  0  0  0  0  0  0  0  0  0  0
   -1.1872    0.7090    0.0321 C   0  0  0  0  0  0  0  0  0  0  0  0
   -2.0523    1.1939    0.1091 H   0  0  0  0  0  0  0  0  0  0  0  0
   -1.1970   -0.6881    0.0000 C   0  0  0  0  0  0  0  0  0  0  0  0
   -2.0842   -1.1685   -0.0293 H   0  0  0  0  0  0  0  0  0  0  0  0
   -0.0148   -1.3872    0.0104 C   0  0  0  0  0  0  0  0  0  0  0  0
   -0.0212   -2.3897    0.0255 H   0  0  0  0  0  0  0  0  0  0  0  0
    1.1970   -0.7061   -0.0000 C   0  0  0  0  0  0  0  0  0  0  0  0
    2.0689   -1.2170   -0.0067 H   0  0  0  0  0  0  0  0  0  0  0  0
    1.2026    0.6756    0.0015 C   0  0  0  0  0  0  0  0  0  0  0  0
    2.0669    1.1744    0.0344 H   0  0  0  0  0  0  0  0  0  0  0  0
  1  5  1  0
  5  6  1  0
  5  7  2  0
  1  2  1  0
  1  3  1  0
  1  4  1  0
  8 12  1  0
 12 13  2  0
 13 15  1  0
 15 17  2  0
 17 19  1  0
 19 21  2  0
 21 12  1  0
  8  9  1  0
  8 10  1  0
  8 11  1  0
 13 14  1  0
 15 16  1  0
 17 18  1  0
 19 20  1  0
 21 22  1  0
M  CHG  1   6  -1
M  END
>  <PDB_ID>  (799) 
pdb1o60

>  <RESIDUE_NAME>  (799) 
ASP   PHE

>  <FRAG_NAME>  (799) 
ACET   MBZ

>  <FRAG_ATOM_NUM>  (799) 
fragi: 7  fragj: 15

>  <atom.prop.CHAIN_ID>  (799) 
A A A A A A A Z Z Z Z Z Z Z Z Z Z Z Z Z Z Z

>  <atom.prop.IS_HEAVY_ATOM>  (799) 
1 0 0 0 1 1 1 1 0 0 0 1 1 0 1 0 1 0 1 0 1 0

>  <DIFUSE_FUNC_ATOM>  (799) 
atom 6   atom 7   

>  <FINAL_SINGLE_POINT_ENERGY>  (799) 
0

>  <NONCOV_INTER_ENERGY_QM>  (799) 
0

>  <FF_Energy>  (799) 
-2.58

>  <QM_Energy>  (799) 
-7.92

>  <source>  (799) 
ACET_MBZ_00

>  <Index>  (799) 
28652

$$$$
ACET-pdb1o60-B-ASP-271:MBZ-pdb1o60-B-PHE-19
     RDKit          3D

 22 21  0  0  0  0  0  0  0  0999 V2000
   -3.7794    1.9400    2.2463 C   0  0  0  0  0  0  0  0  0  0  0  0
   -2.9562    1.5818    2.6400 H   0  0  0  0  0  0  0  0  0  0  0  0
   -4.1988    1.3211    1.6135 H   0  0  0  0  0  0  0  0  0  0  0  0
   -4.4863    2.1341    3.0529 H   0  0  0  0  0  0  0  0  0  0  0  0
   -3.4527    3.2422    1.5204 C   0  0  0  0  0  0  0  0  0  0  0  0
   -2.8061    4.1234    2.1424 O   0  0  0  0  0  1  0  0  0  0  0  0
   -3.8106    3.4065    0.3424 O   0  0  0  0  0  0  0  0  0  0  0  0
   -0.0129    2.9020    0.0569 C   0  0  0  0  0  0  0  0  0  0  0  0
    0.8743    3.2253    0.4060 H   0  0  0  0  0  0  0  0  0  0  0  0
   -0.7317    3.1887    0.7009 H   0  0  0  0  0  0  0  0  0  0  0  0
   -0.1983    3.4099   -0.8895 H   0  0  0  0  0  0  0  0  0  0  0  0
    0.0204    1.4017    0.0532 C   0  0  0  0  0  0  0  0  0  0  0  0
   -1.1927    0.6974   -0.0423 C   0  0  0  0  0  0  0  0  0  0  0  0
   -2.0409    1.2003   -0.1419 H   0  0  0  0  0  0  0  0  0  0  0  0
   -1.2036   -0.6820    0.0000 C   0  0  0  0  0  0  0  0  0  0  0  0
   -2.0912   -1.1697    0.0612 H   0  0  0  0  0  0  0  0  0  0  0  0
   -0.0221   -1.3987   -0.0386 C   0  0  0  0  0  0  0  0  0  0  0  0
   -0.0239   -2.3870   -0.0933 H   0  0  0  0  0  0  0  0  0  0  0  0
    1.2036   -0.6972   -0.0000 C   0  0  0  0  0  0  0  0  0  0  0  0
    2.0705   -1.2090    0.0089 H   0  0  0  0  0  0  0  0  0  0  0  0
    1.1944    0.6788    0.0277 C   0  0  0  0  0  0  0  0  0  0  0  0
    2.0758    1.1763    0.0287 H   0  0  0  0  0  0  0  0  0  0  0  0
  1  5  1  0
  5  6  1  0
  5  7  2  0
  1  2  1  0
  1  3  1  0
  1  4  1  0
  8 12  1  0
 12 13  2  0
 13 15  1  0
 15 17  2  0
 17 19  1  0
 19 21  2  0
 21 12  1  0
  8  9  1  0
  8 10  1  0
  8 11  1  0
 13 14  1  0
 15 16  1  0
 17 18  1  0
 19 20  1  0
 21 22  1  0
M  CHG  1   6  -1
M  END
>  <PDB_ID>  (800) 
pdb1o60

>  <RESIDUE_NAME>  (800) 
ASP   PHE

>  <FRAG_NAME>  (800) 
ACET   MBZ

>  <FRAG_ATOM_NUM>  (800) 
fragi: 7  fragj: 15

>  <atom.prop.CHAIN_ID>  (800) 
A A A A A A A Z Z Z Z Z Z Z Z Z Z Z Z Z Z Z

>  <atom.prop.IS_HEAVY_ATOM>  (800) 
1 0 0 0 1 1 1 1 0 0 0 1 1 0 1 0 1 0 1 0 1 0

>  <DIFUSE_FUNC_ATOM>  (800) 
atom 6   atom 7   

>  <FINAL_SINGLE_POINT_ENERGY>  (800) 
0

>  <NONCOV_INTER_ENERGY_QM>  (800) 
0

>  <FF_Energy>  (800) 
-2.79

>  <QM_Energy>  (800) 
-7.8

>  <source>  (800) 
ACET_MBZ_00

>  <Index>  (800) 
28655

$$$$
ACET-pdb1o60-D-ASP-271:MBZ-pdb1o60-D-PHE-19
     RDKit          3D

 22 21  0  0  0  0  0  0  0  0999 V2000
   -3.6558    2.0405    2.2749 C   0  0  0  0  0  0  0  0  0  0  0  0
   -2.8419    1.6434    2.6641 H   0  0  0  0  0  0  0  0  0  0  0  0
   -4.1240    1.4102    1.6809 H   0  0  0  0  0  0  0  0  0  0  0  0
   -4.3295    2.2797    3.0976 H   0  0  0  0  0  0  0  0  0  0  0  0
   -3.2882    3.2820    1.5013 C   0  0  0  0  0  0  0  0  0  0  0  0
   -2.6606    4.2297    2.0502 O   0  0  0  0  0  1  0  0  0  0  0  0
   -3.7091    3.3984    0.3337 O   0  0  0  0  0  0  0  0  0  0  0  0
    0.0355    2.9007   -0.0354 C   0  0  0  0  0  0  0  0  0  0  0  0
    0.9396    3.1968    0.2600 H   0  0  0  0  0  0  0  0  0  0  0  0
   -0.6584    3.2350    0.5969 H   0  0  0  0  0  0  0  0  0  0  0  0
   -0.1586    3.3572   -1.0060 H   0  0  0  0  0  0  0  0  0  0  0  0
    0.0055    1.4039   -0.0093 C   0  0  0  0  0  0  0  0  0  0  0  0
   -1.1887    0.6947   -0.0182 C   0  0  0  0  0  0  0  0  0  0  0  0
   -2.0558    1.1904   -0.0393 H   0  0  0  0  0  0  0  0  0  0  0  0
   -1.1922   -0.6813   -0.0000 C   0  0  0  0  0  0  0  0  0  0  0  0
   -2.0784   -1.1772    0.0008 H   0  0  0  0  0  0  0  0  0  0  0  0
   -0.0061   -1.3918    0.0184 C   0  0  0  0  0  0  0  0  0  0  0  0
   -0.0189   -2.3875    0.0438 H   0  0  0  0  0  0  0  0  0  0  0  0
    1.1922   -0.7018    0.0000 C   0  0  0  0  0  0  0  0  0  0  0  0
    2.0725   -1.2048   -0.0182 H   0  0  0  0  0  0  0  0  0  0  0  0
    1.1893    0.6763    0.0091 C   0  0  0  0  0  0  0  0  0  0  0  0
    2.0660    1.1741    0.0282 H   0  0  0  0  0  0  0  0  0  0  0  0
  1  5  1  0
  5  6  1  0
  5  7  2  0
  1  2  1  0
  1  3  1  0
  1  4  1  0
  8 12  1  0
 12 13  2  0
 13 15  1  0
 15 17  2  0
 17 19  1  0
 19 21  2  0
 21 12  1  0
  8  9  1  0
  8 10  1  0
  8 11  1  0
 13 14  1  0
 15 16  1  0
 17 18  1  0
 19 20  1  0
 21 22  1  0
M  CHG  1   6  -1
M  END
>  <PDB_ID>  (801) 
pdb1o60

>  <RESIDUE_NAME>  (801) 
ASP   PHE

>  <FRAG_NAME>  (801) 
ACET   MBZ

>  <FRAG_ATOM_NUM>  (801) 
fragi: 7  fragj: 15

>  <atom.prop.CHAIN_ID>  (801) 
A A A A A A A Z Z Z Z Z Z Z Z Z Z Z Z Z Z Z

>  <atom.prop.IS_HEAVY_ATOM>  (801) 
1 0 0 0 1 1 1 1 0 0 0 1 1 0 1 0 1 0 1 0 1 0

>  <DIFUSE_FUNC_ATOM>  (801) 
atom 6   atom 7   

>  <FINAL_SINGLE_POINT_ENERGY>  (801) 
0

>  <NONCOV_INTER_ENERGY_QM>  (801) 
0

>  <FF_Energy>  (801) 
-2.59

>  <QM_Energy>  (801) 
-7.92

>  <source>  (801) 
ACET_MBZ_00

>  <Index>  (801) 
28660

$$$$
ACET-pdb1o6y-A-ASP-49:MBZ-pdb1o6y-A-PHE-52
     RDKit          3D

 22 21  0  0  0  0  0  0  0  0999 V2000
   -4.3020    2.1131    0.3004 C   0  0  0  0  0  0  0  0  0  0  0  0
   -4.7202    1.6239   -0.4515 H   0  0  0  0  0  0  0  0  0  0  0  0
   -3.3970    2.4326    0.0589 H   0  0  0  0  0  0  0  0  0  0  0  0
   -4.9171    2.9895    0.5046 H   0  0  0  0  0  0  0  0  0  0  0  0
   -4.1928    1.1752    1.5011 C   0  0  0  0  0  0  0  0  0  0  0  0
   -4.7073    0.0019    1.3978 O   0  0  0  0  0  1  0  0  0  0  0  0
   -3.6563    1.5168    2.5970 O   0  0  0  0  0  0  0  0  0  0  0  0
   -0.0124    2.9290   -0.0224 C   0  0  0  0  0  0  0  0  0  0  0  0
   -0.9172    3.2212   -0.2965 H   0  0  0  0  0  0  0  0  0  0  0  0
    0.6701    3.2210   -0.6769 H   0  0  0  0  0  0  0  0  0  0  0  0
    0.2160    3.4045    0.9314 H   0  0  0  0  0  0  0  0  0  0  0  0
   -0.0043    1.4148    0.0104 C   0  0  0  0  0  0  0  0  0  0  0  0
   -1.1937    0.7100   -0.0065 C   0  0  0  0  0  0  0  0  0  0  0  0
   -2.0661    1.1887   -0.0248 H   0  0  0  0  0  0  0  0  0  0  0  0
   -1.2066   -0.7067   -0.0000 C   0  0  0  0  0  0  0  0  0  0  0  0
   -2.0857   -1.1849    0.0051 H   0  0  0  0  0  0  0  0  0  0  0  0
   -0.0037   -1.4100    0.0011 C   0  0  0  0  0  0  0  0  0  0  0  0
   -0.0064   -2.4050    0.0022 H   0  0  0  0  0  0  0  0  0  0  0  0
    1.2066   -0.7085   -0.0000 C   0  0  0  0  0  0  0  0  0  0  0  0
    2.0853   -1.2009    0.0043 H   0  0  0  0  0  0  0  0  0  0  0  0
    1.2017    0.7004   -0.0050 C   0  0  0  0  0  0  0  0  0  0  0  0
    2.0671    1.1916   -0.0207 H   0  0  0  0  0  0  0  0  0  0  0  0
  1  5  1  0
  5  6  1  0
  5  7  2  0
  1  2  1  0
  1  3  1  0
  1  4  1  0
  8 12  1  0
 12 13  2  0
 13 15  1  0
 15 17  2  0
 17 19  1  0
 19 21  2  0
 21 12  1  0
  8  9  1  0
  8 10  1  0
  8 11  1  0
 13 14  1  0
 15 16  1  0
 17 18  1  0
 19 20  1  0
 21 22  1  0
M  CHG  1   6  -1
M  END
>  <PDB_ID>  (802) 
pdb1o6y

>  <RESIDUE_NAME>  (802) 
ASP   PHE

>  <FRAG_NAME>  (802) 
ACET   MBZ

>  <FRAG_ATOM_NUM>  (802) 
fragi: 7  fragj: 15

>  <atom.prop.CHAIN_ID>  (802) 
A A A A A A A Z Z Z Z Z Z Z Z Z Z Z Z Z Z Z

>  <atom.prop.IS_HEAVY_ATOM>  (802) 
1 0 0 0 1 1 1 1 0 0 0 1 1 0 1 0 1 0 1 0 1 0

>  <DIFUSE_FUNC_ATOM>  (802) 
atom 6   atom 7   

>  <FINAL_SINGLE_POINT_ENERGY>  (802) 
0

>  <NONCOV_INTER_ENERGY_QM>  (802) 
0

>  <FF_Energy>  (802) 
3.32

>  <QM_Energy>  (802) 
-2.95

>  <source>  (802) 
ACET_MBZ_00

>  <Index>  (802) 
28723

$$$$
ACET-pdb2rus-A-ASP-125:MBZ-pdb2rus-A-PHE-306
     RDKit          3D

 22 21  0  0  0  0  0  0  0  0999 V2000
    5.0261   -0.9389   -2.3095 C   0  0  0  0  0  0  0  0  0  0  0  0
    4.4598   -0.2779   -2.8286 H   0  0  0  0  0  0  0  0  0  0  0  0
    5.7662   -1.2509   -2.9258 H   0  0  0  0  0  0  0  0  0  0  0  0
    5.4912   -0.3963   -1.4865 H   0  0  0  0  0  0  0  0  0  0  0  0
    4.1693   -2.1251   -1.9495 C   0  0  0  0  0  0  0  0  0  0  0  0
    3.7524   -2.3643   -0.8178 O   0  0  0  0  0  1  0  0  0  0  0  0
    3.8647   -2.9285   -2.8564 O   0  0  0  0  0  0  0  0  0  0  0  0
   -0.0526    2.8893   -0.0353 C   0  0  0  0  0  0  0  0  0  0  0  0
   -0.8251    3.1614   -0.5923 H   0  0  0  0  0  0  0  0  0  0  0  0
    0.7981    3.2148   -0.4236 H   0  0  0  0  0  0  0  0  0  0  0  0
   -0.1694    3.3415    0.9496 H   0  0  0  0  0  0  0  0  0  0  0  0
   -0.0064    1.3931   -0.0104 C   0  0  0  0  0  0  0  0  0  0  0  0
   -1.1999    0.6771    0.0084 C   0  0  0  0  0  0  0  0  0  0  0  0
   -2.0720    1.1798    0.0276 H   0  0  0  0  0  0  0  0  0  0  0  0
   -1.2369   -0.7145   -0.0000 C   0  0  0  0  0  0  0  0  0  0  0  0
   -2.0806   -1.2095   -0.0071 H   0  0  0  0  0  0  0  0  0  0  0  0
    0.0100   -1.3782    0.0037 C   0  0  0  0  0  0  0  0  0  0  0  0
    0.0190   -2.3873    0.0092 H   0  0  0  0  0  0  0  0  0  0  0  0
    1.2369   -0.6826    0.0000 C   0  0  0  0  0  0  0  0  0  0  0  0
    2.1013   -1.1748   -0.0001 H   0  0  0  0  0  0  0  0  0  0  0  0
    1.1964    0.7051   -0.0017 C   0  0  0  0  0  0  0  0  0  0  0  0
    2.0596    1.2217    0.0023 H   0  0  0  0  0  0  0  0  0  0  0  0
  1  5  1  0
  5  6  1  0
  5  7  2  0
  1  2  1  0
  1  3  1  0
  1  4  1  0
  8 12  1  0
 12 13  2  0
 13 15  1  0
 15 17  2  0
 17 19  1  0
 19 21  2  0
 21 12  1  0
  8  9  1  0
  8 10  1  0
  8 11  1  0
 13 14  1  0
 15 16  1  0
 17 18  1  0
 19 20  1  0
 21 22  1  0
M  CHG  1   6  -1
M  END
>  <PDB_ID>  (803) 
pdb2rus

>  <RESIDUE_NAME>  (803) 
ASP   PHE

>  <FRAG_NAME>  (803) 
ACET   MBZ

>  <FRAG_ATOM_NUM>  (803) 
fragi: 7  fragj: 15

>  <atom.prop.CHAIN_ID>  (803) 
A A A A A A A Z Z Z Z Z Z Z Z Z Z Z Z Z Z Z

>  <atom.prop.IS_HEAVY_ATOM>  (803) 
1 0 0 0 1 1 1 1 0 0 0 1 1 0 1 0 1 0 1 0 1 0

>  <DIFUSE_FUNC_ATOM>  (803) 
atom 6   atom 7   

>  <FINAL_SINGLE_POINT_ENERGY>  (803) 
0

>  <NONCOV_INTER_ENERGY_QM>  (803) 
0

>  <FF_Energy>  (803) 
-0.54

>  <QM_Energy>  (803) 
-5.8

>  <source>  (803) 
ACET_MBZ_00

>  <Index>  (803) 
28733

$$$$
ACET-pdb1o94-E-GLU-18:MBZ-pdb1o94-E-PHE-30
     RDKit          3D

 22 21  0  0  0  0  0  0  0  0999 V2000
   -2.9050   -1.8945   -2.1246 C   0  0  0  0  0  0  0  0  0  0  0  0
   -1.9399   -1.7213   -1.9345 H   0  0  0  0  0  0  0  0  0  0  0  0
   -3.4648   -1.1988   -1.6788 H   0  0  0  0  0  0  0  0  0  0  0  0
   -3.0561   -1.8112   -3.2009 H   0  0  0  0  0  0  0  0  0  0  0  0
   -3.2571   -3.2162   -1.5205 C   0  0  0  0  0  0  0  0  0  0  0  0
   -3.6872   -4.1721   -2.1452 O   0  0  0  0  0  1  0  0  0  0  0  0
   -3.0689   -3.2323   -0.2804 O   0  0  0  0  0  0  0  0  0  0  0  0
    0.0233    2.9263    0.0537 C   0  0  0  0  0  0  0  0  0  0  0  0
   -0.8452    3.2565   -0.2643 H   0  0  0  0  0  0  0  0  0  0  0  0
    0.7722    3.2510   -0.4927 H   0  0  0  0  0  0  0  0  0  0  0  0
    0.1675    3.3027    1.0665 H   0  0  0  0  0  0  0  0  0  0  0  0
    0.0093    1.4215   -0.0090 C   0  0  0  0  0  0  0  0  0  0  0  0
   -1.2095    0.7152    0.0012 C   0  0  0  0  0  0  0  0  0  0  0  0
   -2.0659    1.2026    0.0084 H   0  0  0  0  0  0  0  0  0  0  0  0
   -1.2159   -0.6987    0.0000 C   0  0  0  0  0  0  0  0  0  0  0  0
   -2.0971   -1.1804    0.0010 H   0  0  0  0  0  0  0  0  0  0  0  0
   -0.0139   -1.4141   -0.0010 C   0  0  0  0  0  0  0  0  0  0  0  0
   -0.0233   -2.4074   -0.0028 H   0  0  0  0  0  0  0  0  0  0  0  0
    1.2159   -0.7204   -0.0000 C   0  0  0  0  0  0  0  0  0  0  0  0
    2.0838   -1.2169   -0.0038 H   0  0  0  0  0  0  0  0  0  0  0  0
    1.2141    0.6967    0.0088 C   0  0  0  0  0  0  0  0  0  0  0  0
    2.0821    1.1819    0.0270 H   0  0  0  0  0  0  0  0  0  0  0  0
  1  5  1  0
  5  6  1  0
  5  7  2  0
  1  2  1  0
  1  3  1  0
  1  4  1  0
  8 12  1  0
 12 13  2  0
 13 15  1  0
 15 17  2  0
 17 19  1  0
 19 21  2  0
 21 12  1  0
  8  9  1  0
  8 10  1  0
  8 11  1  0
 13 14  1  0
 15 16  1  0
 17 18  1  0
 19 20  1  0
 21 22  1  0
M  CHG  1   6  -1
M  END
>  <PDB_ID>  (804) 
pdb1o94

>  <RESIDUE_NAME>  (804) 
GLU   PHE

>  <FRAG_NAME>  (804) 
ACET   MBZ

>  <FRAG_ATOM_NUM>  (804) 
fragi: 7  fragj: 15

>  <atom.prop.CHAIN_ID>  (804) 
A A A A A A A Z Z Z Z Z Z Z Z Z Z Z Z Z Z Z

>  <atom.prop.IS_HEAVY_ATOM>  (804) 
1 0 0 0 1 1 1 1 0 0 0 1 1 0 1 0 1 0 1 0 1 0

>  <DIFUSE_FUNC_ATOM>  (804) 
atom 6   atom 7   

>  <FINAL_SINGLE_POINT_ENERGY>  (804) 
0

>  <NONCOV_INTER_ENERGY_QM>  (804) 
0

>  <FF_Energy>  (804) 
6.26

>  <QM_Energy>  (804) 
-2.36

>  <source>  (804) 
ACET_MBZ_00

>  <Index>  (804) 
28792

$$$$
ACET-pdb1o94-F-ASP-98:MBZ-pdb1o94-F-PHE-70
     RDKit          3D

 22 21  0  0  0  0  0  0  0  0999 V2000
   -0.5858    1.3697   -3.7185 C   0  0  0  0  0  0  0  0  0  0  0  0
   -1.1151    1.5661   -4.5360 H   0  0  0  0  0  0  0  0  0  0  0  0
   -1.1851    1.0997   -2.9737 H   0  0  0  0  0  0  0  0  0  0  0  0
    0.0778    0.5335   -3.9388 H   0  0  0  0  0  0  0  0  0  0  0  0
    0.1646    2.6228   -3.3110 C   0  0  0  0  0  0  0  0  0  0  0  0
    1.4188    2.5812   -3.1166 O   0  0  0  0  0  1  0  0  0  0  0  0
   -0.4551    3.6986   -3.1434 O   0  0  0  0  0  0  0  0  0  0  0  0
    0.0237    2.9348    0.0311 C   0  0  0  0  0  0  0  0  0  0  0  0
   -0.7037    3.2778   -0.5252 H   0  0  0  0  0  0  0  0  0  0  0  0
    0.9052    3.2540   -0.2486 H   0  0  0  0  0  0  0  0  0  0  0  0
   -0.1432    3.3260    1.0348 H   0  0  0  0  0  0  0  0  0  0  0  0
    0.0098    1.4281   -0.0181 C   0  0  0  0  0  0  0  0  0  0  0  0
   -1.2092    0.7267    0.0048 C   0  0  0  0  0  0  0  0  0  0  0  0
   -2.0665    1.2093    0.0234 H   0  0  0  0  0  0  0  0  0  0  0  0
   -1.2221   -0.7030    0.0000 C   0  0  0  0  0  0  0  0  0  0  0  0
   -2.1034   -1.1746   -0.0123 H   0  0  0  0  0  0  0  0  0  0  0  0
   -0.0185   -1.4191    0.0144 C   0  0  0  0  0  0  0  0  0  0  0  0
   -0.0273   -2.4125    0.0349 H   0  0  0  0  0  0  0  0  0  0  0  0
    1.2221   -0.7280   -0.0000 C   0  0  0  0  0  0  0  0  0  0  0  0
    2.0834   -1.2239   -0.0075 H   0  0  0  0  0  0  0  0  0  0  0  0
    1.2180    0.6953   -0.0011 C   0  0  0  0  0  0  0  0  0  0  0  0
    2.0868    1.1803    0.0091 H   0  0  0  0  0  0  0  0  0  0  0  0
  1  5  1  0
  5  6  1  0
  5  7  2  0
  1  2  1  0
  1  3  1  0
  1  4  1  0
  8 12  1  0
 12 13  2  0
 13 15  1  0
 15 17  2  0
 17 19  1  0
 19 21  2  0
 21 12  1  0
  8  9  1  0
  8 10  1  0
  8 11  1  0
 13 14  1  0
 15 16  1  0
 17 18  1  0
 19 20  1  0
 21 22  1  0
M  CHG  1   6  -1
M  END
>  <PDB_ID>  (805) 
pdb1o94

>  <RESIDUE_NAME>  (805) 
ASP   PHE

>  <FRAG_NAME>  (805) 
ACET   MBZ

>  <FRAG_ATOM_NUM>  (805) 
fragi: 7  fragj: 15

>  <atom.prop.CHAIN_ID>  (805) 
A A A A A A A Z Z Z Z Z Z Z Z Z Z Z Z Z Z Z

>  <atom.prop.IS_HEAVY_ATOM>  (805) 
1 0 0 0 1 1 1 1 0 0 0 1 1 0 1 0 1 0 1 0 1 0

>  <DIFUSE_FUNC_ATOM>  (805) 
atom 6   atom 7   

>  <FINAL_SINGLE_POINT_ENERGY>  (805) 
0

>  <NONCOV_INTER_ENERGY_QM>  (805) 
0

>  <FF_Energy>  (805) 
0.05

>  <QM_Energy>  (805) 
-5.94

>  <source>  (805) 
ACET_MBZ_00

>  <Index>  (805) 
28793

$$$$
ACET-pdb2uyj-A-GLU-55:MBZ-pdb2uyj-A-PHE-94
     RDKit          3D

 22 21  0  0  0  0  0  0  0  0999 V2000
   -5.1389   -2.0702   -2.5753 C   0  0  0  0  0  0  0  0  0  0  0  0
   -4.6901   -1.2488   -2.8337 H   0  0  0  0  0  0  0  0  0  0  0  0
   -6.0946   -2.0752   -2.7431 H   0  0  0  0  0  0  0  0  0  0  0  0
   -4.6916   -2.8909   -3.1360 H   0  0  0  0  0  0  0  0  0  0  0  0
   -4.9310   -2.2582   -1.0629 C   0  0  0  0  0  0  0  0  0  0  0  0
   -5.5412   -3.2106   -0.4878 O   0  0  0  0  0  1  0  0  0  0  0  0
   -4.1261   -1.5019   -0.4615 O   0  0  0  0  0  0  0  0  0  0  0  0
    0.0250    2.9106   -0.0276 C   0  0  0  0  0  0  0  0  0  0  0  0
   -0.6410    3.2161   -0.6949 H   0  0  0  0  0  0  0  0  0  0  0  0
    0.9361    3.2139   -0.2728 H   0  0  0  0  0  0  0  0  0  0  0  0
   -0.2279    3.3859    0.9201 H   0  0  0  0  0  0  0  0  0  0  0  0
    0.0142    1.4204    0.0052 C   0  0  0  0  0  0  0  0  0  0  0  0
   -1.1968    0.7036   -0.0089 C   0  0  0  0  0  0  0  0  0  0  0  0
   -2.0605    1.1820   -0.0268 H   0  0  0  0  0  0  0  0  0  0  0  0
   -1.2042   -0.7246   -0.0000 C   0  0  0  0  0  0  0  0  0  0  0  0
   -2.0963   -1.1897    0.0008 H   0  0  0  0  0  0  0  0  0  0  0  0
   -0.0287   -1.4118    0.0084 C   0  0  0  0  0  0  0  0  0  0  0  0
   -0.0026   -2.4064    0.0197 H   0  0  0  0  0  0  0  0  0  0  0  0
    1.2042   -0.6951    0.0000 C   0  0  0  0  0  0  0  0  0  0  0  0
    2.0741   -1.2037   -0.0009 H   0  0  0  0  0  0  0  0  0  0  0  0
    1.2113    0.7075   -0.0047 C   0  0  0  0  0  0  0  0  0  0  0  0
    2.0803    1.1930   -0.0161 H   0  0  0  0  0  0  0  0  0  0  0  0
  1  5  1  0
  5  6  1  0
  5  7  2  0
  1  2  1  0
  1  3  1  0
  1  4  1  0
  8 12  1  0
 12 13  2  0
 13 15  1  0
 15 17  2  0
 17 19  1  0
 19 21  2  0
 21 12  1  0
  8  9  1  0
  8 10  1  0
  8 11  1  0
 13 14  1  0
 15 16  1  0
 17 18  1  0
 19 20  1  0
 21 22  1  0
M  CHG  1   6  -1
M  END
>  <PDB_ID>  (806) 
pdb2uyj

>  <RESIDUE_NAME>  (806) 
GLU   PHE

>  <FRAG_NAME>  (806) 
ACET   MBZ

>  <FRAG_ATOM_NUM>  (806) 
fragi: 7  fragj: 15

>  <atom.prop.CHAIN_ID>  (806) 
A A A A A A A Z Z Z Z Z Z Z Z Z Z Z Z Z Z Z

>  <atom.prop.IS_HEAVY_ATOM>  (806) 
1 0 0 0 1 1 1 1 0 0 0 1 1 0 1 0 1 0 1 0 1 0

>  <DIFUSE_FUNC_ATOM>  (806) 
atom 6   atom 7   

>  <FINAL_SINGLE_POINT_ENERGY>  (806) 
0

>  <NONCOV_INTER_ENERGY_QM>  (806) 
0

>  <FF_Energy>  (806) 
0.92

>  <QM_Energy>  (806) 
-6.2

>  <source>  (806) 
ACET_MBZ_00

>  <Index>  (806) 
28976

$$$$
ACET-pdb1ocr-B-GLU-212:MBZ-pdb1ocr-I-PHE-69
     RDKit          3D

 22 21  0  0  0  0  0  0  0  0999 V2000
   -4.1764    1.6663    1.5082 C   0  0  0  0  0  0  0  0  0  0  0  0
   -3.8552    1.3279    2.3761 H   0  0  0  0  0  0  0  0  0  0  0  0
   -3.9068    1.0809    0.7625 H   0  0  0  0  0  0  0  0  0  0  0  0
   -5.2657    1.6887    1.5406 H   0  0  0  0  0  0  0  0  0  0  0  0
   -3.5639    3.0193    1.2808 C   0  0  0  0  0  0  0  0  0  0  0  0
   -3.9374    3.6762    0.3056 O   0  0  0  0  0  1  0  0  0  0  0  0
   -2.6983    3.4261    2.0734 O   0  0  0  0  0  0  0  0  0  0  0  0
   -0.0008    2.8543    0.0063 C   0  0  0  0  0  0  0  0  0  0  0  0
    0.9394    3.1727    0.0468 H   0  0  0  0  0  0  0  0  0  0  0  0
   -0.5084    3.1695    0.8007 H   0  0  0  0  0  0  0  0  0  0  0  0
   -0.4617    3.2979   -0.8762 H   0  0  0  0  0  0  0  0  0  0  0  0
   -0.0002    1.3874    0.0004 C   0  0  0  0  0  0  0  0  0  0  0  0
   -1.1947    0.6869   -0.0014 C   0  0  0  0  0  0  0  0  0  0  0  0
   -2.0595    1.1843   -0.0050 H   0  0  0  0  0  0  0  0  0  0  0  0
   -1.2001   -0.6881    0.0000 C   0  0  0  0  0  0  0  0  0  0  0  0
   -2.0745   -1.1899    0.0017 H   0  0  0  0  0  0  0  0  0  0  0  0
    0.0026   -1.3848    0.0011 C   0  0  0  0  0  0  0  0  0  0  0  0
   -0.0041   -2.3843    0.0020 H   0  0  0  0  0  0  0  0  0  0  0  0
    1.2001   -0.6906   -0.0000 C   0  0  0  0  0  0  0  0  0  0  0  0
    2.0814   -1.1905    0.0012 H   0  0  0  0  0  0  0  0  0  0  0  0
    1.1924    0.6891   -0.0001 C   0  0  0  0  0  0  0  0  0  0  0  0
    2.0603    1.1903   -0.0015 H   0  0  0  0  0  0  0  0  0  0  0  0
  1  5  1  0
  5  6  1  0
  5  7  2  0
  1  2  1  0
  1  3  1  0
  1  4  1  0
  8 12  1  0
 12 13  2  0
 13 15  1  0
 15 17  2  0
 17 19  1  0
 19 21  2  0
 21 12  1  0
  8  9  1  0
  8 10  1  0
  8 11  1  0
 13 14  1  0
 15 16  1  0
 17 18  1  0
 19 20  1  0
 21 22  1  0
M  CHG  1   6  -1
M  END
>  <PDB_ID>  (807) 
pdb1ocr

>  <RESIDUE_NAME>  (807) 
GLU   PHE

>  <FRAG_NAME>  (807) 
ACET   MBZ

>  <FRAG_ATOM_NUM>  (807) 
fragi: 7  fragj: 15

>  <atom.prop.CHAIN_ID>  (807) 
A A A A A A A Z Z Z Z Z Z Z Z Z Z Z Z Z Z Z

>  <atom.prop.IS_HEAVY_ATOM>  (807) 
1 0 0 0 1 1 1 1 0 0 0 1 1 0 1 0 1 0 1 0 1 0

>  <DIFUSE_FUNC_ATOM>  (807) 
atom 6   atom 7   

>  <FINAL_SINGLE_POINT_ENERGY>  (807) 
0

>  <NONCOV_INTER_ENERGY_QM>  (807) 
0

>  <FF_Energy>  (807) 
-0.56

>  <QM_Energy>  (807) 
-6.75

>  <source>  (807) 
ACET_MBZ_00

>  <Index>  (807) 
28983

$$$$
ACET-pdb1ocr-O-GLU-212:MBZ-pdb1ocr-V-PHE-69
     RDKit          3D

 22 21  0  0  0  0  0  0  0  0999 V2000
   -4.1978    1.6724    1.6673 C   0  0  0  0  0  0  0  0  0  0  0  0
   -3.8335    1.3235    2.5124 H   0  0  0  0  0  0  0  0  0  0  0  0
   -3.9647    1.1011    0.9000 H   0  0  0  0  0  0  0  0  0  0  0  0
   -5.2841    1.6990    1.7536 H   0  0  0  0  0  0  0  0  0  0  0  0
   -3.6202    3.0238    1.4329 C   0  0  0  0  0  0  0  0  0  0  0  0
   -4.0772    3.6990    0.4775 O   0  0  0  0  0  1  0  0  0  0  0  0
   -2.7172    3.4053    2.2097 O   0  0  0  0  0  0  0  0  0  0  0  0
    0.0007    2.8972    0.0084 C   0  0  0  0  0  0  0  0  0  0  0  0
    0.9401    3.2040   -0.0222 H   0  0  0  0  0  0  0  0  0  0  0  0
   -0.4480    3.1987    0.8370 H   0  0  0  0  0  0  0  0  0  0  0  0
   -0.5240    3.3435   -0.8364 H   0  0  0  0  0  0  0  0  0  0  0  0
    0.0011    1.3953   -0.0004 C   0  0  0  0  0  0  0  0  0  0  0  0
   -1.2002    0.6819   -0.0004 C   0  0  0  0  0  0  0  0  0  0  0  0
   -2.0643    1.1784   -0.0018 H   0  0  0  0  0  0  0  0  0  0  0  0
   -1.2026   -0.6970   -0.0000 C   0  0  0  0  0  0  0  0  0  0  0  0
   -2.0758   -1.1980    0.0009 H   0  0  0  0  0  0  0  0  0  0  0  0
    0.0008   -1.3870    0.0009 C   0  0  0  0  0  0  0  0  0  0  0  0
    0.0021   -2.3861    0.0017 H   0  0  0  0  0  0  0  0  0  0  0  0
    1.2026   -0.6863    0.0000 C   0  0  0  0  0  0  0  0  0  0  0  0
    2.0827   -1.1904    0.0011 H   0  0  0  0  0  0  0  0  0  0  0  0
    1.1983    0.6931   -0.0001 C   0  0  0  0  0  0  0  0  0  0  0  0
    2.0635    1.1950   -0.0011 H   0  0  0  0  0  0  0  0  0  0  0  0
  1  5  1  0
  5  6  1  0
  5  7  2  0
  1  2  1  0
  1  3  1  0
  1  4  1  0
  8 12  1  0
 12 13  2  0
 13 15  1  0
 15 17  2  0
 17 19  1  0
 19 21  2  0
 21 12  1  0
  8  9  1  0
  8 10  1  0
  8 11  1  0
 13 14  1  0
 15 16  1  0
 17 18  1  0
 19 20  1  0
 21 22  1  0
M  CHG  1   6  -1
M  END
>  <PDB_ID>  (808) 
pdb1ocr

>  <RESIDUE_NAME>  (808) 
GLU   PHE

>  <FRAG_NAME>  (808) 
ACET   MBZ

>  <FRAG_ATOM_NUM>  (808) 
fragi: 7  fragj: 15

>  <atom.prop.CHAIN_ID>  (808) 
A A A A A A A Z Z Z Z Z Z Z Z Z Z Z Z Z Z Z

>  <atom.prop.IS_HEAVY_ATOM>  (808) 
1 0 0 0 1 1 1 1 0 0 0 1 1 0 1 0 1 0 1 0 1 0

>  <DIFUSE_FUNC_ATOM>  (808) 
atom 6   atom 7   

>  <FINAL_SINGLE_POINT_ENERGY>  (808) 
0

>  <NONCOV_INTER_ENERGY_QM>  (808) 
0

>  <FF_Energy>  (808) 
-1.38

>  <QM_Energy>  (808) 
-6.52

>  <source>  (808) 
ACET_MBZ_00

>  <Index>  (808) 
28993

$$$$
ACET-pdb1oe7-B-ASP-174:MBZ-pdb1oe7-B-PHE-177
     RDKit          3D

 22 21  0  0  0  0  0  0  0  0999 V2000
   -3.1561    4.3648   -1.9125 C   0  0  0  0  0  0  0  0  0  0  0  0
   -3.9263    3.9339   -2.4189 H   0  0  0  0  0  0  0  0  0  0  0  0
   -2.3385    3.7805   -2.0719 H   0  0  0  0  0  0  0  0  0  0  0  0
   -2.9663    5.3462   -2.3471 H   0  0  0  0  0  0  0  0  0  0  0  0
   -3.4908    4.2882   -0.4177 C   0  0  0  0  0  0  0  0  0  0  0  0
   -3.6789    5.3375    0.2139 O   0  0  0  0  0  1  0  0  0  0  0  0
   -3.5338    3.1684    0.1532 O   0  0  0  0  0  0  0  0  0  0  0  0
    0.0109    2.8942    0.0838 C   0  0  0  0  0  0  0  0  0  0  0  0
   -0.7915    3.2288   -0.3619 H   0  0  0  0  0  0  0  0  0  0  0  0
    0.8414    3.2270   -0.3106 H   0  0  0  0  0  0  0  0  0  0  0  0
   -0.0212    3.2346    1.1187 H   0  0  0  0  0  0  0  0  0  0  0  0
    0.0114    1.4005    0.0096 C   0  0  0  0  0  0  0  0  0  0  0  0
   -1.1960    0.6977    0.0306 C   0  0  0  0  0  0  0  0  0  0  0  0
   -2.0525    1.1893    0.0663 H   0  0  0  0  0  0  0  0  0  0  0  0
   -1.1841   -0.6813    0.0000 C   0  0  0  0  0  0  0  0  0  0  0  0
   -2.0691   -1.1858    0.0171 H   0  0  0  0  0  0  0  0  0  0  0  0
    0.0077   -1.4011   -0.0517 C   0  0  0  0  0  0  0  0  0  0  0  0
   -0.0084   -2.3857   -0.1237 H   0  0  0  0  0  0  0  0  0  0  0  0
    1.1841   -0.6975   -0.0000 C   0  0  0  0  0  0  0  0  0  0  0  0
    2.0775   -1.1907    0.0318 H   0  0  0  0  0  0  0  0  0  0  0  0
    1.1769    0.6818    0.0115 C   0  0  0  0  0  0  0  0  0  0  0  0
    2.0634    1.1739    0.0211 H   0  0  0  0  0  0  0  0  0  0  0  0
  1  5  1  0
  5  6  1  0
  5  7  2  0
  1  2  1  0
  1  3  1  0
  1  4  1  0
  8 12  1  0
 12 13  2  0
 13 15  1  0
 15 17  2  0
 17 19  1  0
 19 21  2  0
 21 12  1  0
  8  9  1  0
  8 10  1  0
  8 11  1  0
 13 14  1  0
 15 16  1  0
 17 18  1  0
 19 20  1  0
 21 22  1  0
M  CHG  1   6  -1
M  END
>  <PDB_ID>  (809) 
pdb1oe7

>  <RESIDUE_NAME>  (809) 
ASP   PHE

>  <FRAG_NAME>  (809) 
ACET   MBZ

>  <FRAG_ATOM_NUM>  (809) 
fragi: 7  fragj: 15

>  <atom.prop.CHAIN_ID>  (809) 
A A A A A A A Z Z Z Z Z Z Z Z Z Z Z Z Z Z Z

>  <atom.prop.IS_HEAVY_ATOM>  (809) 
1 0 0 0 1 1 1 1 0 0 0 1 1 0 1 0 1 0 1 0 1 0

>  <DIFUSE_FUNC_ATOM>  (809) 
atom 6   atom 7   

>  <FINAL_SINGLE_POINT_ENERGY>  (809) 
0

>  <NONCOV_INTER_ENERGY_QM>  (809) 
0

>  <FF_Energy>  (809) 
-2.55

>  <QM_Energy>  (809) 
-7.84

>  <source>  (809) 
ACET_MBZ_00

>  <Index>  (809) 
29057

$$$$
ACET-pdb2v0p-B-GLU-225:MBZ-pdb2v0p-A-PHE-232
     RDKit          3D

 22 21  0  0  0  0  0  0  0  0999 V2000
   -0.1664   -4.5022   -1.0174 C   0  0  0  0  0  0  0  0  0  0  0  0
    0.2613   -3.6189   -1.0697 H   0  0  0  0  0  0  0  0  0  0  0  0
    0.4832   -5.2359   -1.0931 H   0  0  0  0  0  0  0  0  0  0  0  0
   -0.7020   -4.5881   -0.0719 H   0  0  0  0  0  0  0  0  0  0  0  0
   -1.1031   -4.6142   -2.1951 C   0  0  0  0  0  0  0  0  0  0  0  0
   -2.2321   -4.0786   -2.1108 O   0  0  0  0  0  1  0  0  0  0  0  0
   -0.7114   -5.2344   -3.2049 O   0  0  0  0  0  0  0  0  0  0  0  0
   -0.0188    2.8804   -0.0255 C   0  0  0  0  0  0  0  0  0  0  0  0
    0.9075    3.2030    0.0821 H   0  0  0  0  0  0  0  0  0  0  0  0
   -0.6020    3.1983    0.7046 H   0  0  0  0  0  0  0  0  0  0  0  0
   -0.4060    3.2811   -0.9623 H   0  0  0  0  0  0  0  0  0  0  0  0
   -0.0023    1.3913    0.0035 C   0  0  0  0  0  0  0  0  0  0  0  0
   -1.1973    0.6771   -0.0079 C   0  0  0  0  0  0  0  0  0  0  0  0
   -2.0645    1.1672   -0.0231 H   0  0  0  0  0  0  0  0  0  0  0  0
   -1.1943   -0.7051   -0.0000 C   0  0  0  0  0  0  0  0  0  0  0  0
   -2.0637   -1.2073   -0.0022 H   0  0  0  0  0  0  0  0  0  0  0  0
    0.0104   -1.3758    0.0132 C   0  0  0  0  0  0  0  0  0  0  0  0
    0.0151   -2.3837    0.0319 H   0  0  0  0  0  0  0  0  0  0  0  0
    1.1943   -0.6817    0.0000 C   0  0  0  0  0  0  0  0  0  0  0  0
    2.0833   -1.1798   -0.0018 H   0  0  0  0  0  0  0  0  0  0  0  0
    1.1892    0.6942   -0.0088 C   0  0  0  0  0  0  0  0  0  0  0  0
    2.0566    1.1961   -0.0245 H   0  0  0  0  0  0  0  0  0  0  0  0
  1  5  1  0
  5  6  1  0
  5  7  2  0
  1  2  1  0
  1  3  1  0
  1  4  1  0
  8 12  1  0
 12 13  2  0
 13 15  1  0
 15 17  2  0
 17 19  1  0
 19 21  2  0
 21 12  1  0
  8  9  1  0
  8 10  1  0
  8 11  1  0
 13 14  1  0
 15 16  1  0
 17 18  1  0
 19 20  1  0
 21 22  1  0
M  CHG  1   6  -1
M  END
>  <PDB_ID>  (810) 
pdb2v0p

>  <RESIDUE_NAME>  (810) 
GLU   PHE

>  <FRAG_NAME>  (810) 
ACET   MBZ

>  <FRAG_ATOM_NUM>  (810) 
fragi: 7  fragj: 15

>  <atom.prop.CHAIN_ID>  (810) 
A A A A A A A Z Z Z Z Z Z Z Z Z Z Z Z Z Z Z

>  <atom.prop.IS_HEAVY_ATOM>  (810) 
1 0 0 0 1 1 1 1 0 0 0 1 1 0 1 0 1 0 1 0 1 0

>  <DIFUSE_FUNC_ATOM>  (810) 
atom 6   atom 7   

>  <FINAL_SINGLE_POINT_ENERGY>  (810) 
0

>  <NONCOV_INTER_ENERGY_QM>  (810) 
0

>  <FF_Energy>  (810) 
9.69

>  <QM_Energy>  (810) 
0.54

>  <source>  (810) 
ACET_MBZ_00

>  <Index>  (810) 
29078

$$$$
ACET-pdb2v0v-B-GLU-404:MBZ-pdb2v0v-B-PHE-463
     RDKit          3D

 22 21  0  0  0  0  0  0  0  0999 V2000
    0.7061    3.6798    3.1187 C   0  0  0  0  0  0  0  0  0  0  0  0
    1.6556    3.9128    3.2536 H   0  0  0  0  0  0  0  0  0  0  0  0
    0.5086    3.5040    2.1677 H   0  0  0  0  0  0  0  0  0  0  0  0
    0.4965    2.7715    3.6835 H   0  0  0  0  0  0  0  0  0  0  0  0
   -0.1237    4.8755    3.5451 C   0  0  0  0  0  0  0  0  0  0  0  0
    0.2655    5.5256    4.5444 O   0  0  0  0  0  1  0  0  0  0  0  0
   -1.1531    5.1724    2.8942 O   0  0  0  0  0  0  0  0  0  0  0  0
   -0.0156    2.9089   -0.0129 C   0  0  0  0  0  0  0  0  0  0  0  0
    0.8198    3.2173    0.3853 H   0  0  0  0  0  0  0  0  0  0  0  0
   -0.8113    3.2095    0.4636 H   0  0  0  0  0  0  0  0  0  0  0  0
   -0.0668    3.2943   -1.0311 H   0  0  0  0  0  0  0  0  0  0  0  0
   -0.0076    1.3866    0.0026 C   0  0  0  0  0  0  0  0  0  0  0  0
   -1.1893    0.6828    0.0040 C   0  0  0  0  0  0  0  0  0  0  0  0
   -2.0624    1.1728    0.0062 H   0  0  0  0  0  0  0  0  0  0  0  0
   -1.1975   -0.7001    0.0000 C   0  0  0  0  0  0  0  0  0  0  0  0
   -2.0702   -1.1963    0.0044 H   0  0  0  0  0  0  0  0  0  0  0  0
    0.0048   -1.3825   -0.0085 C   0  0  0  0  0  0  0  0  0  0  0  0
    0.0080   -2.3855   -0.0213 H   0  0  0  0  0  0  0  0  0  0  0  0
    1.1975   -0.6840   -0.0000 C   0  0  0  0  0  0  0  0  0  0  0  0
    2.0825   -1.1824    0.0060 H   0  0  0  0  0  0  0  0  0  0  0  0
    1.1921    0.6972    0.0019 C   0  0  0  0  0  0  0  0  0  0  0  0
    2.0545    1.1998    0.0022 H   0  0  0  0  0  0  0  0  0  0  0  0
  1  5  1  0
  5  6  1  0
  5  7  2  0
  1  2  1  0
  1  3  1  0
  1  4  1  0
  8 12  1  0
 12 13  2  0
 13 15  1  0
 15 17  2  0
 17 19  1  0
 19 21  2  0
 21 12  1  0
  8  9  1  0
  8 10  1  0
  8 11  1  0
 13 14  1  0
 15 16  1  0
 17 18  1  0
 19 20  1  0
 21 22  1  0
M  CHG  1   6  -1
M  END
>  <PDB_ID>  (811) 
pdb2v0v

>  <RESIDUE_NAME>  (811) 
GLU   PHE

>  <FRAG_NAME>  (811) 
ACET   MBZ

>  <FRAG_ATOM_NUM>  (811) 
fragi: 7  fragj: 15

>  <atom.prop.CHAIN_ID>  (811) 
A A A A A A A Z Z Z Z Z Z Z Z Z Z Z Z Z Z Z

>  <atom.prop.IS_HEAVY_ATOM>  (811) 
1 0 0 0 1 1 1 1 0 0 0 1 1 0 1 0 1 0 1 0 1 0

>  <DIFUSE_FUNC_ATOM>  (811) 
atom 6   atom 7   

>  <FINAL_SINGLE_POINT_ENERGY>  (811) 
0

>  <NONCOV_INTER_ENERGY_QM>  (811) 
0

>  <FF_Energy>  (811) 
4.63

>  <QM_Energy>  (811) 
-0.83

>  <source>  (811) 
ACET_MBZ_00

>  <Index>  (811) 
29086

$$$$
ACET-pdb1ogl-A-ASP-185:MBZ-pdb1ogl-A-PHE-148
     RDKit          3D

 22 21  0  0  0  0  0  0  0  0999 V2000
   -2.4512    0.6470    3.3379 C   0  0  0  0  0  0  0  0  0  0  0  0
   -1.6197    0.2329    2.9890 H   0  0  0  0  0  0  0  0  0  0  0  0
   -3.2499    0.1525    3.0175 H   0  0  0  0  0  0  0  0  0  0  0  0
   -2.4286    0.5826    4.4258 H   0  0  0  0  0  0  0  0  0  0  0  0
   -2.5287    2.0656    2.8677 C   0  0  0  0  0  0  0  0  0  0  0  0
   -3.6480    2.5485    2.5641 O   0  0  0  0  0  1  0  0  0  0  0  0
   -1.5016    2.7832    2.8275 O   0  0  0  0  0  0  0  0  0  0  0  0
   -0.0155    2.9252   -0.0278 C   0  0  0  0  0  0  0  0  0  0  0  0
    0.9210    3.2305   -0.0744 H   0  0  0  0  0  0  0  0  0  0  0  0
   -0.4597    3.2312    0.7976 H   0  0  0  0  0  0  0  0  0  0  0  0
   -0.5540    3.3388   -0.8805 H   0  0  0  0  0  0  0  0  0  0  0  0
   -0.0023    1.4099   -0.0062 C   0  0  0  0  0  0  0  0  0  0  0  0
   -1.1852    0.6932   -0.0159 C   0  0  0  0  0  0  0  0  0  0  0  0
   -2.0629    1.1668   -0.0358 H   0  0  0  0  0  0  0  0  0  0  0  0
   -1.1916   -0.7224    0.0000 C   0  0  0  0  0  0  0  0  0  0  0  0
   -2.0745   -1.1976   -0.0084 H   0  0  0  0  0  0  0  0  0  0  0  0
   -0.0052   -1.3989    0.0275 C   0  0  0  0  0  0  0  0  0  0  0  0
    0.0138   -2.3977    0.0666 H   0  0  0  0  0  0  0  0  0  0  0  0
    1.1916   -0.6864   -0.0000 C   0  0  0  0  0  0  0  0  0  0  0  0
    2.0778   -1.1854   -0.0151 H   0  0  0  0  0  0  0  0  0  0  0  0
    1.1927    0.7046   -0.0055 C   0  0  0  0  0  0  0  0  0  0  0  0
    2.0608    1.1974   -0.0102 H   0  0  0  0  0  0  0  0  0  0  0  0
  1  5  1  0
  5  6  1  0
  5  7  2  0
  1  2  1  0
  1  3  1  0
  1  4  1  0
  8 12  1  0
 12 13  2  0
 13 15  1  0
 15 17  2  0
 17 19  1  0
 19 21  2  0
 21 12  1  0
  8  9  1  0
  8 10  1  0
  8 11  1  0
 13 14  1  0
 15 16  1  0
 17 18  1  0
 19 20  1  0
 21 22  1  0
M  CHG  1   6  -1
M  END
>  <PDB_ID>  (812) 
pdb1ogl

>  <RESIDUE_NAME>  (812) 
ASP   PHE

>  <FRAG_NAME>  (812) 
ACET   MBZ

>  <FRAG_ATOM_NUM>  (812) 
fragi: 7  fragj: 15

>  <atom.prop.CHAIN_ID>  (812) 
A A A A A A A Z Z Z Z Z Z Z Z Z Z Z Z Z Z Z

>  <atom.prop.IS_HEAVY_ATOM>  (812) 
1 0 0 0 1 1 1 1 0 0 0 1 1 0 1 0 1 0 1 0 1 0

>  <DIFUSE_FUNC_ATOM>  (812) 
atom 6   atom 7   

>  <FINAL_SINGLE_POINT_ENERGY>  (812) 
0

>  <NONCOV_INTER_ENERGY_QM>  (812) 
0

>  <FF_Energy>  (812) 
-0.23

>  <QM_Energy>  (812) 
-7.01

>  <source>  (812) 
ACET_MBZ_00

>  <Index>  (812) 
29125

$$$$
ACET-pdb2v4m-B-ASP-687:MBZ-pdb2v4m-B-PHE-342
     RDKit          3D

 22 21  0  0  0  0  0  0  0  0999 V2000
    4.9349    3.6352   -0.4993 C   0  0  0  0  0  0  0  0  0  0  0  0
    5.5229    3.2193   -1.1823 H   0  0  0  0  0  0  0  0  0  0  0  0
    4.8181    3.0310    0.2786 H   0  0  0  0  0  0  0  0  0  0  0  0
    5.4191    4.5468   -0.1491 H   0  0  0  0  0  0  0  0  0  0  0  0
    3.5638    3.8901   -1.1284 C   0  0  0  0  0  0  0  0  0  0  0  0
    3.0529    5.0301   -1.0414 O   0  0  0  0  0  1  0  0  0  0  0  0
    2.9957    2.9429   -1.7174 O   0  0  0  0  0  0  0  0  0  0  0  0
   -0.0036    2.9132    0.0134 C   0  0  0  0  0  0  0  0  0  0  0  0
    0.9358    3.2188    0.0592 H   0  0  0  0  0  0  0  0  0  0  0  0
   -0.5173    3.2069    0.8056 H   0  0  0  0  0  0  0  0  0  0  0  0
   -0.4595    3.3676   -0.8662 H   0  0  0  0  0  0  0  0  0  0  0  0
   -0.0004    1.4043   -0.0051 C   0  0  0  0  0  0  0  0  0  0  0  0
   -1.1965    0.6949    0.0057 C   0  0  0  0  0  0  0  0  0  0  0  0
   -2.0637    1.1846    0.0164 H   0  0  0  0  0  0  0  0  0  0  0  0
   -1.2029   -0.6977    0.0000 C   0  0  0  0  0  0  0  0  0  0  0  0
   -2.0795   -1.1905   -0.0019 H   0  0  0  0  0  0  0  0  0  0  0  0
   -0.0004   -1.3967   -0.0014 C   0  0  0  0  0  0  0  0  0  0  0  0
   -0.0045   -2.3943   -0.0042 H   0  0  0  0  0  0  0  0  0  0  0  0
    1.2029   -0.6992   -0.0000 C   0  0  0  0  0  0  0  0  0  0  0  0
    2.0828   -1.1959    0.0014 H   0  0  0  0  0  0  0  0  0  0  0  0
    1.1974    0.6944    0.0008 C   0  0  0  0  0  0  0  0  0  0  0  0
    2.0650    1.1903    0.0042 H   0  0  0  0  0  0  0  0  0  0  0  0
  1  5  1  0
  5  6  1  0
  5  7  2  0
  1  2  1  0
  1  3  1  0
  1  4  1  0
  8 12  1  0
 12 13  2  0
 13 15  1  0
 15 17  2  0
 17 19  1  0
 19 21  2  0
 21 12  1  0
  8  9  1  0
  8 10  1  0
  8 11  1  0
 13 14  1  0
 15 16  1  0
 17 18  1  0
 19 20  1  0
 21 22  1  0
M  CHG  1   6  -1
M  END
>  <PDB_ID>  (813) 
pdb2v4m

>  <RESIDUE_NAME>  (813) 
ASP   PHE

>  <FRAG_NAME>  (813) 
ACET   MBZ

>  <FRAG_ATOM_NUM>  (813) 
fragi: 7  fragj: 15

>  <atom.prop.CHAIN_ID>  (813) 
A A A A A A A Z Z Z Z Z Z Z Z Z Z Z Z Z Z Z

>  <atom.prop.IS_HEAVY_ATOM>  (813) 
1 0 0 0 1 1 1 1 0 0 0 1 1 0 1 0 1 0 1 0 1 0

>  <DIFUSE_FUNC_ATOM>  (813) 
atom 6   atom 7   

>  <FINAL_SINGLE_POINT_ENERGY>  (813) 
0

>  <NONCOV_INTER_ENERGY_QM>  (813) 
0

>  <FF_Energy>  (813) 
-1.72

>  <QM_Energy>  (813) 
-6.98

>  <source>  (813) 
ACET_MBZ_00

>  <Index>  (813) 
29299

$$$$
ACET-pdb2v54-B-GLU-10:MBZ-pdb2v54-B-PHE-96
     RDKit          3D

 22 21  0  0  0  0  0  0  0  0999 V2000
    3.5059    3.6545    1.3418 C   0  0  0  0  0  0  0  0  0  0  0  0
    4.2302    3.0064    1.1903 H   0  0  0  0  0  0  0  0  0  0  0  0
    2.6616    3.2133    1.5891 H   0  0  0  0  0  0  0  0  0  0  0  0
    3.8013    4.3170    2.1553 H   0  0  0  0  0  0  0  0  0  0  0  0
    3.2668    4.3852    0.0229 C   0  0  0  0  0  0  0  0  0  0  0  0
    3.1762    5.6276    0.0121 O   0  0  0  0  0  1  0  0  0  0  0  0
    3.1484    3.7011   -1.0102 O   0  0  0  0  0  0  0  0  0  0  0  0
    0.0003    2.9022   -0.1302 C   0  0  0  0  0  0  0  0  0  0  0  0
    0.9328    3.2100   -0.1430 H   0  0  0  0  0  0  0  0  0  0  0  0
   -0.5070    3.2732    0.6250 H   0  0  0  0  0  0  0  0  0  0  0  0
   -0.4755    3.2428   -1.0499 H   0  0  0  0  0  0  0  0  0  0  0  0
    0.0030    1.4003   -0.0018 C   0  0  0  0  0  0  0  0  0  0  0  0
   -1.1928    0.6892    0.0035 C   0  0  0  0  0  0  0  0  0  0  0  0
   -2.0597    1.1777    0.0087 H   0  0  0  0  0  0  0  0  0  0  0  0
   -1.1938   -0.7012    0.0000 C   0  0  0  0  0  0  0  0  0  0  0  0
   -2.0715   -1.1947    0.0020 H   0  0  0  0  0  0  0  0  0  0  0  0
    0.0019   -1.3889   -0.0042 C   0  0  0  0  0  0  0  0  0  0  0  0
    0.0022   -2.3899   -0.0105 H   0  0  0  0  0  0  0  0  0  0  0  0
    1.1938   -0.6919    0.0000 C   0  0  0  0  0  0  0  0  0  0  0  0
    2.0797   -1.1883    0.0027 H   0  0  0  0  0  0  0  0  0  0  0  0
    1.1878    0.6925    0.0025 C   0  0  0  0  0  0  0  0  0  0  0  0
    2.0618    1.1888    0.0068 H   0  0  0  0  0  0  0  0  0  0  0  0
  1  5  1  0
  5  6  1  0
  5  7  2  0
  1  2  1  0
  1  3  1  0
  1  4  1  0
  8 12  1  0
 12 13  2  0
 13 15  1  0
 15 17  2  0
 17 19  1  0
 19 21  2  0
 21 12  1  0
  8  9  1  0
  8 10  1  0
  8 11  1  0
 13 14  1  0
 15 16  1  0
 17 18  1  0
 19 20  1  0
 21 22  1  0
M  CHG  1   6  -1
M  END
>  <PDB_ID>  (814) 
pdb2v54

>  <RESIDUE_NAME>  (814) 
GLU   PHE

>  <FRAG_NAME>  (814) 
ACET   MBZ

>  <FRAG_ATOM_NUM>  (814) 
fragi: 7  fragj: 15

>  <atom.prop.CHAIN_ID>  (814) 
A A A A A A A Z Z Z Z Z Z Z Z Z Z Z Z Z Z Z

>  <atom.prop.IS_HEAVY_ATOM>  (814) 
1 0 0 0 1 1 1 1 0 0 0 1 1 0 1 0 1 0 1 0 1 0

>  <DIFUSE_FUNC_ATOM>  (814) 
atom 6   atom 7   

>  <FINAL_SINGLE_POINT_ENERGY>  (814) 
0

>  <NONCOV_INTER_ENERGY_QM>  (814) 
0

>  <FF_Energy>  (814) 
-1.8

>  <QM_Energy>  (814) 
-6.92

>  <source>  (814) 
ACET_MBZ_00

>  <Index>  (814) 
29329

$$$$
ACET-pdb2v51-B-GLU-259:MBZ-pdb2v51-B-PHE-223
     RDKit          3D

 22 21  0  0  0  0  0  0  0  0999 V2000
   -1.3153    0.5961   -3.5141 C   0  0  0  0  0  0  0  0  0  0  0  0
   -0.8903    0.1917   -2.7272 H   0  0  0  0  0  0  0  0  0  0  0  0
   -0.8080    0.4348   -4.3392 H   0  0  0  0  0  0  0  0  0  0  0  0
   -2.3055    0.1554   -3.6299 H   0  0  0  0  0  0  0  0  0  0  0  0
   -1.3489    2.1127   -3.2875 C   0  0  0  0  0  0  0  0  0  0  0  0
   -2.4075    2.6635   -2.8645 O   0  0  0  0  0  1  0  0  0  0  0  0
   -0.3047    2.7629   -3.5449 O   0  0  0  0  0  0  0  0  0  0  0  0
    0.0071    2.9289    0.0656 C   0  0  0  0  0  0  0  0  0  0  0  0
   -0.5740    3.2667   -0.6562 H   0  0  0  0  0  0  0  0  0  0  0  0
    0.9363    3.2434   -0.0365 H   0  0  0  0  0  0  0  0  0  0  0  0
   -0.3722    3.3310    1.0050 H   0  0  0  0  0  0  0  0  0  0  0  0
    0.0049    1.4344    0.0148 C   0  0  0  0  0  0  0  0  0  0  0  0
   -1.2058    0.7184   -0.0107 C   0  0  0  0  0  0  0  0  0  0  0  0
   -2.0704    1.1910   -0.0374 H   0  0  0  0  0  0  0  0  0  0  0  0
   -1.2129   -0.7206    0.0000 C   0  0  0  0  0  0  0  0  0  0  0  0
   -2.0915   -1.1923    0.0219 H   0  0  0  0  0  0  0  0  0  0  0  0
   -0.0036   -1.4336   -0.0183 C   0  0  0  0  0  0  0  0  0  0  0  0
   -0.0056   -2.4207   -0.0438 H   0  0  0  0  0  0  0  0  0  0  0  0
    1.2129   -0.7200   -0.0000 C   0  0  0  0  0  0  0  0  0  0  0  0
    2.0930   -1.1971    0.0052 H   0  0  0  0  0  0  0  0  0  0  0  0
    1.2045    0.7214    0.0141 C   0  0  0  0  0  0  0  0  0  0  0  0
    2.0769    1.1956    0.0225 H   0  0  0  0  0  0  0  0  0  0  0  0
  1  5  1  0
  5  6  1  0
  5  7  2  0
  1  2  1  0
  1  3  1  0
  1  4  1  0
  8 12  1  0
 12 13  2  0
 13 15  1  0
 15 17  2  0
 17 19  1  0
 19 21  2  0
 21 12  1  0
  8  9  1  0
  8 10  1  0
  8 11  1  0
 13 14  1  0
 15 16  1  0
 17 18  1  0
 19 20  1  0
 21 22  1  0
M  CHG  1   6  -1
M  END
>  <PDB_ID>  (815) 
pdb2v51

>  <RESIDUE_NAME>  (815) 
GLU   PHE

>  <FRAG_NAME>  (815) 
ACET   MBZ

>  <FRAG_ATOM_NUM>  (815) 
fragi: 7  fragj: 15

>  <atom.prop.CHAIN_ID>  (815) 
A A A A A A A Z Z Z Z Z Z Z Z Z Z Z Z Z Z Z

>  <atom.prop.IS_HEAVY_ATOM>  (815) 
1 0 0 0 1 1 1 1 0 0 0 1 1 0 1 0 1 0 1 0 1 0

>  <DIFUSE_FUNC_ATOM>  (815) 
atom 6   atom 7   

>  <FINAL_SINGLE_POINT_ENERGY>  (815) 
0

>  <NONCOV_INTER_ENERGY_QM>  (815) 
0

>  <FF_Energy>  (815) 
-0.71

>  <QM_Energy>  (815) 
-6.44

>  <source>  (815) 
ACET_MBZ_00

>  <Index>  (815) 
29334

$$$$
ACET-pdb1okt-A-ASP-162:MBZ-pdb1okt-A-PHE-153
     RDKit          3D

 22 21  0  0  0  0  0  0  0  0999 V2000
   -5.5768    2.7004   -0.7450 C   0  0  0  0  0  0  0  0  0  0  0  0
   -6.1725    3.3831   -1.1488 H   0  0  0  0  0  0  0  0  0  0  0  0
   -6.1010    2.0517   -0.2075 H   0  0  0  0  0  0  0  0  0  0  0  0
   -5.0982    2.1528   -1.5568 H   0  0  0  0  0  0  0  0  0  0  0  0
   -4.5772    3.3969    0.1634 C   0  0  0  0  0  0  0  0  0  0  0  0
   -3.7137    2.7026    0.7353 O   0  0  0  0  0  1  0  0  0  0  0  0
   -4.6450    4.6362    0.3035 O   0  0  0  0  0  0  0  0  0  0  0  0
    0.0044    2.9037    0.0217 C   0  0  0  0  0  0  0  0  0  0  0  0
   -0.8318    3.2230   -0.3979 H   0  0  0  0  0  0  0  0  0  0  0  0
    0.7996    3.2160   -0.4751 H   0  0  0  0  0  0  0  0  0  0  0  0
    0.0542    3.3290    1.0241 H   0  0  0  0  0  0  0  0  0  0  0  0
   -0.0031    1.4040   -0.0007 C   0  0  0  0  0  0  0  0  0  0  0  0
   -1.1992    0.6972    0.0001 C   0  0  0  0  0  0  0  0  0  0  0  0
   -2.0662    1.1848   -0.0009 H   0  0  0  0  0  0  0  0  0  0  0  0
   -1.2046   -0.6988   -0.0000 C   0  0  0  0  0  0  0  0  0  0  0  0
   -2.0761   -1.1932    0.0000 H   0  0  0  0  0  0  0  0  0  0  0  0
    0.0073   -1.3994    0.0017 C   0  0  0  0  0  0  0  0  0  0  0  0
    0.0002   -2.3951    0.0030 H   0  0  0  0  0  0  0  0  0  0  0  0
    1.2046   -0.6984    0.0000 C   0  0  0  0  0  0  0  0  0  0  0  0
    2.0881   -1.1909    0.0011 H   0  0  0  0  0  0  0  0  0  0  0  0
    1.1950    0.6954   -0.0012 C   0  0  0  0  0  0  0  0  0  0  0  0
    2.0632    1.1933   -0.0030 H   0  0  0  0  0  0  0  0  0  0  0  0
  1  5  1  0
  5  6  1  0
  5  7  2  0
  1  2  1  0
  1  3  1  0
  1  4  1  0
  8 12  1  0
 12 13  2  0
 13 15  1  0
 15 17  2  0
 17 19  1  0
 19 21  2  0
 21 12  1  0
  8  9  1  0
  8 10  1  0
  8 11  1  0
 13 14  1  0
 15 16  1  0
 17 18  1  0
 19 20  1  0
 21 22  1  0
M  CHG  1   6  -1
M  END
>  <PDB_ID>  (816) 
pdb1okt

>  <RESIDUE_NAME>  (816) 
ASP   PHE

>  <FRAG_NAME>  (816) 
ACET   MBZ

>  <FRAG_ATOM_NUM>  (816) 
fragi: 7  fragj: 15

>  <atom.prop.CHAIN_ID>  (816) 
A A A A A A A Z Z Z Z Z Z Z Z Z Z Z Z Z Z Z

>  <atom.prop.IS_HEAVY_ATOM>  (816) 
1 0 0 0 1 1 1 1 0 0 0 1 1 0 1 0 1 0 1 0 1 0

>  <DIFUSE_FUNC_ATOM>  (816) 
atom 6   atom 7   

>  <FINAL_SINGLE_POINT_ENERGY>  (816) 
0

>  <NONCOV_INTER_ENERGY_QM>  (816) 
0

>  <FF_Energy>  (816) 
-1.79

>  <QM_Energy>  (816) 
-7.28

>  <source>  (816) 
ACET_MBZ_00

>  <Index>  (816) 
29336

$$$$
ACET-pdb2v51-D-GLU-259:MBZ-pdb2v51-D-PHE-223
     RDKit          3D

 22 21  0  0  0  0  0  0  0  0999 V2000
   -1.5015    0.4913   -3.4165 C   0  0  0  0  0  0  0  0  0  0  0  0
   -1.0386    0.0806   -2.6605 H   0  0  0  0  0  0  0  0  0  0  0  0
   -1.0741    0.3103   -4.2761 H   0  0  0  0  0  0  0  0  0  0  0  0
   -2.5108    0.0812   -3.4517 H   0  0  0  0  0  0  0  0  0  0  0  0
   -1.4894    2.0103   -3.2009 C   0  0  0  0  0  0  0  0  0  0  0  0
   -2.5531    2.5950   -2.8185 O   0  0  0  0  0  1  0  0  0  0  0  0
   -0.3996    2.6285   -3.3927 O   0  0  0  0  0  0  0  0  0  0  0  0
    0.0114    2.9171    0.0325 C   0  0  0  0  0  0  0  0  0  0  0  0
   -0.5892    3.2520   -0.6726 H   0  0  0  0  0  0  0  0  0  0  0  0
    0.9361    3.2312   -0.0911 H   0  0  0  0  0  0  0  0  0  0  0  0
   -0.3439    3.3215    0.9803 H   0  0  0  0  0  0  0  0  0  0  0  0
    0.0034    1.4290    0.0003 C   0  0  0  0  0  0  0  0  0  0  0  0
   -1.2101    0.7287   -0.0006 C   0  0  0  0  0  0  0  0  0  0  0  0
   -2.0706    1.1988   -0.0029 H   0  0  0  0  0  0  0  0  0  0  0  0
   -1.2134   -0.7145    0.0000 C   0  0  0  0  0  0  0  0  0  0  0  0
   -2.0882   -1.1899   -0.0032 H   0  0  0  0  0  0  0  0  0  0  0  0
    0.0048   -1.4275    0.0067 C   0  0  0  0  0  0  0  0  0  0  0  0
   -0.0038   -2.4163    0.0159 H   0  0  0  0  0  0  0  0  0  0  0  0
    1.2134   -0.7186    0.0000 C   0  0  0  0  0  0  0  0  0  0  0  0
    2.0951   -1.2007    0.0019 H   0  0  0  0  0  0  0  0  0  0  0  0
    1.2018    0.7029   -0.0064 C   0  0  0  0  0  0  0  0  0  0  0  0
    2.0750    1.1887   -0.0168 H   0  0  0  0  0  0  0  0  0  0  0  0
  1  5  1  0
  5  6  1  0
  5  7  2  0
  1  2  1  0
  1  3  1  0
  1  4  1  0
  8 12  1  0
 12 13  2  0
 13 15  1  0
 15 17  2  0
 17 19  1  0
 19 21  2  0
 21 12  1  0
  8  9  1  0
  8 10  1  0
  8 11  1  0
 13 14  1  0
 15 16  1  0
 17 18  1  0
 19 20  1  0
 21 22  1  0
M  CHG  1   6  -1
M  END
>  <PDB_ID>  (817) 
pdb2v51

>  <RESIDUE_NAME>  (817) 
GLU   PHE

>  <FRAG_NAME>  (817) 
ACET   MBZ

>  <FRAG_ATOM_NUM>  (817) 
fragi: 7  fragj: 15

>  <atom.prop.CHAIN_ID>  (817) 
A A A A A A A Z Z Z Z Z Z Z Z Z Z Z Z Z Z Z

>  <atom.prop.IS_HEAVY_ATOM>  (817) 
1 0 0 0 1 1 1 1 0 0 0 1 1 0 1 0 1 0 1 0 1 0

>  <DIFUSE_FUNC_ATOM>  (817) 
atom 6   atom 7   

>  <FINAL_SINGLE_POINT_ENERGY>  (817) 
0

>  <NONCOV_INTER_ENERGY_QM>  (817) 
0

>  <FF_Energy>  (817) 
-0.21

>  <QM_Energy>  (817) 
-6.53

>  <source>  (817) 
ACET_MBZ_00

>  <Index>  (817) 
29340

$$$$
ACET-pdb1omo-B-ASP-100:MBZ-pdb1omo-A-PHE-320
     RDKit          3D

 22 21  0  0  0  0  0  0  0  0999 V2000
    5.0958    0.0459    2.4751 C   0  0  0  0  0  0  0  0  0  0  0  0
    4.2130    0.1938    2.8970 H   0  0  0  0  0  0  0  0  0  0  0  0
    5.8124    0.5082    2.9759 H   0  0  0  0  0  0  0  0  0  0  0  0
    5.3051   -1.0237    2.4928 H   0  0  0  0  0  0  0  0  0  0  0  0
    5.0605    0.5752    1.0659 C   0  0  0  0  0  0  0  0  0  0  0  0
    4.1606    0.1826    0.2860 O   0  0  0  0  0  1  0  0  0  0  0  0
    5.9669    1.3535    0.7185 O   0  0  0  0  0  0  0  0  0  0  0  0
    0.0059    2.8856    0.0594 C   0  0  0  0  0  0  0  0  0  0  0  0
   -0.9238    3.2016   -0.0492 H   0  0  0  0  0  0  0  0  0  0  0  0
    0.5889    3.2223   -0.6641 H   0  0  0  0  0  0  0  0  0  0  0  0
    0.3836    3.2812    1.0022 H   0  0  0  0  0  0  0  0  0  0  0  0
    0.0024    1.3934    0.0007 C   0  0  0  0  0  0  0  0  0  0  0  0
   -1.1927    0.6917   -0.0002 C   0  0  0  0  0  0  0  0  0  0  0  0
   -2.0587    1.1896   -0.0019 H   0  0  0  0  0  0  0  0  0  0  0  0
   -1.2050   -0.6892    0.0000 C   0  0  0  0  0  0  0  0  0  0  0  0
   -2.0865   -1.1799   -0.0001 H   0  0  0  0  0  0  0  0  0  0  0  0
   -0.0144   -1.3886    0.0023 C   0  0  0  0  0  0  0  0  0  0  0  0
   -0.0156   -2.3874    0.0050 H   0  0  0  0  0  0  0  0  0  0  0  0
    1.2050   -0.6960    0.0000 C   0  0  0  0  0  0  0  0  0  0  0  0
    2.0753   -1.2057    0.0016 H   0  0  0  0  0  0  0  0  0  0  0  0
    1.2047    0.6886   -0.0028 C   0  0  0  0  0  0  0  0  0  0  0  0
    2.0679    1.1882   -0.0078 H   0  0  0  0  0  0  0  0  0  0  0  0
  1  5  1  0
  5  6  1  0
  5  7  2  0
  1  2  1  0
  1  3  1  0
  1  4  1  0
  8 12  1  0
 12 13  2  0
 13 15  1  0
 15 17  2  0
 17 19  1  0
 19 21  2  0
 21 12  1  0
  8  9  1  0
  8 10  1  0
  8 11  1  0
 13 14  1  0
 15 16  1  0
 17 18  1  0
 19 20  1  0
 21 22  1  0
M  CHG  1   6  -1
M  END
>  <PDB_ID>  (818) 
pdb1omo

>  <RESIDUE_NAME>  (818) 
ASP   PHE

>  <FRAG_NAME>  (818) 
ACET   MBZ

>  <FRAG_ATOM_NUM>  (818) 
fragi: 7  fragj: 15

>  <atom.prop.CHAIN_ID>  (818) 
A A A A A A A Z Z Z Z Z Z Z Z Z Z Z Z Z Z Z

>  <atom.prop.IS_HEAVY_ATOM>  (818) 
1 0 0 0 1 1 1 1 0 0 0 1 1 0 1 0 1 0 1 0 1 0

>  <DIFUSE_FUNC_ATOM>  (818) 
atom 6   atom 7   

>  <FINAL_SINGLE_POINT_ENERGY>  (818) 
0

>  <NONCOV_INTER_ENERGY_QM>  (818) 
0

>  <FF_Energy>  (818) 
-1.33

>  <QM_Energy>  (818) 
-6.8

>  <source>  (818) 
ACET_MBZ_00

>  <Index>  (818) 
29366

$$$$
ACET-pdb2v6h-A-ASP-211:MBZ-pdb2v6h-A-PHE-222
     RDKit          3D

 22 21  0  0  0  0  0  0  0  0999 V2000
   -4.1288    0.9228   -2.8300 C   0  0  0  0  0  0  0  0  0  0  0  0
   -5.0137    0.5530   -3.1123 H   0  0  0  0  0  0  0  0  0  0  0  0
   -3.4525    0.1873   -2.8063 H   0  0  0  0  0  0  0  0  0  0  0  0
   -3.8123    1.6484   -3.5793 H   0  0  0  0  0  0  0  0  0  0  0  0
   -4.2684    1.4961   -1.4332 C   0  0  0  0  0  0  0  0  0  0  0  0
   -3.6082    2.5111   -1.1687 O   0  0  0  0  0  1  0  0  0  0  0  0
   -5.0457    0.9055   -0.6520 O   0  0  0  0  0  0  0  0  0  0  0  0
   -0.0884    2.9047   -0.0336 C   0  0  0  0  0  0  0  0  0  0  0  0
    0.7155    3.2492    0.4064 H   0  0  0  0  0  0  0  0  0  0  0  0
   -0.9157    3.1744    0.4158 H   0  0  0  0  0  0  0  0  0  0  0  0
   -0.1124    3.3012   -1.0486 H   0  0  0  0  0  0  0  0  0  0  0  0
   -0.0194    1.3911   -0.0158 C   0  0  0  0  0  0  0  0  0  0  0  0
   -1.1953    0.6615   -0.0111 C   0  0  0  0  0  0  0  0  0  0  0  0
   -2.0753    1.1486   -0.0172 H   0  0  0  0  0  0  0  0  0  0  0  0
   -1.1961   -0.7164   -0.0000 C   0  0  0  0  0  0  0  0  0  0  0  0
   -2.0607   -1.2225   -0.0065 H   0  0  0  0  0  0  0  0  0  0  0  0
    0.0170   -1.3883    0.0217 C   0  0  0  0  0  0  0  0  0  0  0  0
    0.0298   -2.3872    0.0526 H   0  0  0  0  0  0  0  0  0  0  0  0
    1.1961   -0.6714   -0.0000 C   0  0  0  0  0  0  0  0  0  0  0  0
    2.0932   -1.1619   -0.0186 H   0  0  0  0  0  0  0  0  0  0  0  0
    1.1977    0.7235    0.0052 C   0  0  0  0  0  0  0  0  0  0  0  0
    2.0470    1.2215    0.0224 H   0  0  0  0  0  0  0  0  0  0  0  0
  1  5  1  0
  5  6  1  0
  5  7  2  0
  1  2  1  0
  1  3  1  0
  1  4  1  0
  8 12  1  0
 12 13  2  0
 13 15  1  0
 15 17  2  0
 17 19  1  0
 19 21  2  0
 21 12  1  0
  8  9  1  0
  8 10  1  0
  8 11  1  0
 13 14  1  0
 15 16  1  0
 17 18  1  0
 19 20  1  0
 21 22  1  0
M  CHG  1   6  -1
M  END
>  <PDB_ID>  (819) 
pdb2v6h

>  <RESIDUE_NAME>  (819) 
ASP   PHE

>  <FRAG_NAME>  (819) 
ACET   MBZ

>  <FRAG_ATOM_NUM>  (819) 
fragi: 7  fragj: 15

>  <atom.prop.CHAIN_ID>  (819) 
A A A A A A A Z Z Z Z Z Z Z Z Z Z Z Z Z Z Z

>  <atom.prop.IS_HEAVY_ATOM>  (819) 
1 0 0 0 1 1 1 1 0 0 0 1 1 0 1 0 1 0 1 0 1 0

>  <DIFUSE_FUNC_ATOM>  (819) 
atom 6   atom 7   

>  <FINAL_SINGLE_POINT_ENERGY>  (819) 
0

>  <NONCOV_INTER_ENERGY_QM>  (819) 
0

>  <FF_Energy>  (819) 
-2.03

>  <QM_Energy>  (819) 
-7.46

>  <source>  (819) 
ACET_MBZ_00

>  <Index>  (819) 
29386

$$$$
ACET-pdb1omw-A-GLU-152:MBZ-pdb1omw-A-PHE-124
     RDKit          3D

 22 21  0  0  0  0  0  0  0  0999 V2000
   -5.2220    2.0965   -1.0211 C   0  0  0  0  0  0  0  0  0  0  0  0
   -5.7876    2.0967   -1.8288 H   0  0  0  0  0  0  0  0  0  0  0  0
   -5.7544    2.2262   -0.2021 H   0  0  0  0  0  0  0  0  0  0  0  0
   -4.7199    1.1313   -0.9553 H   0  0  0  0  0  0  0  0  0  0  0  0
   -4.2664    3.2777   -1.1336 C   0  0  0  0  0  0  0  0  0  0  0  0
   -3.0587    3.0661   -1.3475 O   0  0  0  0  0  1  0  0  0  0  0  0
   -4.7358    4.4319   -0.9973 O   0  0  0  0  0  0  0  0  0  0  0  0
   -0.0075    2.8637   -0.0210 C   0  0  0  0  0  0  0  0  0  0  0  0
    0.7187    3.2012    0.5492 H   0  0  0  0  0  0  0  0  0  0  0  0
   -0.8903    3.1850    0.2697 H   0  0  0  0  0  0  0  0  0  0  0  0
    0.1629    3.2485   -1.0264 H   0  0  0  0  0  0  0  0  0  0  0  0
    0.0005    1.3829    0.0195 C   0  0  0  0  0  0  0  0  0  0  0  0
   -1.1739    0.6914   -0.0094 C   0  0  0  0  0  0  0  0  0  0  0  0
   -2.0467    1.1861   -0.0390 H   0  0  0  0  0  0  0  0  0  0  0  0
   -1.1824   -0.6760   -0.0000 C   0  0  0  0  0  0  0  0  0  0  0  0
   -2.0749   -1.1668    0.0193 H   0  0  0  0  0  0  0  0  0  0  0  0
   -0.0141   -1.3759   -0.0150 C   0  0  0  0  0  0  0  0  0  0  0  0
   -0.0241   -2.3786   -0.0372 H   0  0  0  0  0  0  0  0  0  0  0  0
    1.1824   -0.6983    0.0000 C   0  0  0  0  0  0  0  0  0  0  0  0
    2.0615   -1.2065    0.0093 H   0  0  0  0  0  0  0  0  0  0  0  0
    1.1875    0.6759    0.0049 C   0  0  0  0  0  0  0  0  0  0  0  0
    2.0587    1.1727   -0.0033 H   0  0  0  0  0  0  0  0  0  0  0  0
  1  5  1  0
  5  6  1  0
  5  7  2  0
  1  2  1  0
  1  3  1  0
  1  4  1  0
  8 12  1  0
 12 13  2  0
 13 15  1  0
 15 17  2  0
 17 19  1  0
 19 21  2  0
 21 12  1  0
  8  9  1  0
  8 10  1  0
  8 11  1  0
 13 14  1  0
 15 16  1  0
 17 18  1  0
 19 20  1  0
 21 22  1  0
M  CHG  1   6  -1
M  END
>  <PDB_ID>  (820) 
pdb1omw

>  <RESIDUE_NAME>  (820) 
GLU   PHE

>  <FRAG_NAME>  (820) 
ACET   MBZ

>  <FRAG_ATOM_NUM>  (820) 
fragi: 7  fragj: 15

>  <atom.prop.CHAIN_ID>  (820) 
A A A A A A A Z Z Z Z Z Z Z Z Z Z Z Z Z Z Z

>  <atom.prop.IS_HEAVY_ATOM>  (820) 
1 0 0 0 1 1 1 1 0 0 0 1 1 0 1 0 1 0 1 0 1 0

>  <DIFUSE_FUNC_ATOM>  (820) 
atom 6   atom 7   

>  <FINAL_SINGLE_POINT_ENERGY>  (820) 
0

>  <NONCOV_INTER_ENERGY_QM>  (820) 
0

>  <FF_Energy>  (820) 
-1.77

>  <QM_Energy>  (820) 
-6.97

>  <source>  (820) 
ACET_MBZ_00

>  <Index>  (820) 
29399

$$$$
ACET-pdb1oqs-B-ASP-99:MBZ-pdb1oqs-B-PHE-5
     RDKit          3D

 22 21  0  0  0  0  0  0  0  0999 V2000
   -1.8607    1.6347   -3.4247 C   0  0  0  0  0  0  0  0  0  0  0  0
   -2.3639    2.1623   -4.0911 H   0  0  0  0  0  0  0  0  0  0  0  0
   -2.2357    1.7462   -2.5180 H   0  0  0  0  0  0  0  0  0  0  0  0
   -1.9443    0.5824   -3.6966 H   0  0  0  0  0  0  0  0  0  0  0  0
   -0.3965    2.1328   -3.4134 C   0  0  0  0  0  0  0  0  0  0  0  0
    0.5581    1.3622   -3.6485 O   0  0  0  0  0  1  0  0  0  0  0  0
   -0.1231    3.3223   -3.2210 O   0  0  0  0  0  0  0  0  0  0  0  0
    0.0377    2.9083   -0.0022 C   0  0  0  0  0  0  0  0  0  0  0  0
    0.1695    3.1687   -0.9568 H   0  0  0  0  0  0  0  0  0  0  0  0
    0.8238    3.1980    0.5398 H   0  0  0  0  0  0  0  0  0  0  0  0
   -0.8390    3.4377    0.3708 H   0  0  0  0  0  0  0  0  0  0  0  0
   -0.0322    1.4104    0.0587 C   0  0  0  0  0  0  0  0  0  0  0  0
   -1.2206    0.7119   -0.0393 C   0  0  0  0  0  0  0  0  0  0  0  0
   -2.0916    1.1498   -0.1382 H   0  0  0  0  0  0  0  0  0  0  0  0
   -1.2341   -0.7856    0.0000 C   0  0  0  0  0  0  0  0  0  0  0  0
   -2.0542   -1.2555    0.0288 H   0  0  0  0  0  0  0  0  0  0  0  0
    0.0648   -1.4109   -0.0074 C   0  0  0  0  0  0  0  0  0  0  0  0
    0.1146   -2.4013   -0.0178 H   0  0  0  0  0  0  0  0  0  0  0  0
    1.2341   -0.6283   -0.0000 C   0  0  0  0  0  0  0  0  0  0  0  0
    2.1391   -1.1242    0.0174 H   0  0  0  0  0  0  0  0  0  0  0  0
    1.1880    0.7025   -0.0120 C   0  0  0  0  0  0  0  0  0  0  0  0
    2.0364    1.2565   -0.0736 H   0  0  0  0  0  0  0  0  0  0  0  0
  1  5  1  0
  5  6  1  0
  5  7  2  0
  1  2  1  0
  1  3  1  0
  1  4  1  0
  8 12  1  0
 12 13  2  0
 13 15  1  0
 15 17  2  0
 17 19  1  0
 19 21  2  0
 21 12  1  0
  8  9  1  0
  8 10  1  0
  8 11  1  0
 13 14  1  0
 15 16  1  0
 17 18  1  0
 19 20  1  0
 21 22  1  0
M  CHG  1   6  -1
M  END
>  <PDB_ID>  (821) 
pdb1oqs

>  <RESIDUE_NAME>  (821) 
ASP   PHE

>  <FRAG_NAME>  (821) 
ACET   MBZ

>  <FRAG_ATOM_NUM>  (821) 
fragi: 7  fragj: 15

>  <atom.prop.CHAIN_ID>  (821) 
A A A A A A A Z Z Z Z Z Z Z Z Z Z Z Z Z Z Z

>  <atom.prop.IS_HEAVY_ATOM>  (821) 
1 0 0 0 1 1 1 1 0 0 0 1 1 0 1 0 1 0 1 0 1 0

>  <DIFUSE_FUNC_ATOM>  (821) 
atom 6   atom 7   

>  <FINAL_SINGLE_POINT_ENERGY>  (821) 
0

>  <NONCOV_INTER_ENERGY_QM>  (821) 
0

>  <FF_Energy>  (821) 
1.57

>  <QM_Energy>  (821) 
-4.82

>  <source>  (821) 
ACET_MBZ_00

>  <Index>  (821) 
29516

$$$$
ACET-pdb1oqs-D-ASP-99:MBZ-pdb1oqs-D-PHE-5
     RDKit          3D

 22 21  0  0  0  0  0  0  0  0999 V2000
   -1.7993    1.5307   -3.6174 C   0  0  0  0  0  0  0  0  0  0  0  0
   -2.2320    1.9563   -4.3927 H   0  0  0  0  0  0  0  0  0  0  0  0
   -2.2209    1.7936   -2.7682 H   0  0  0  0  0  0  0  0  0  0  0  0
   -1.8970    0.4504   -3.7252 H   0  0  0  0  0  0  0  0  0  0  0  0
   -0.3086    1.9878   -3.5825 C   0  0  0  0  0  0  0  0  0  0  0  0
    0.6006    1.1314   -3.7423 O   0  0  0  0  0  1  0  0  0  0  0  0
   -0.0012    3.1848   -3.3605 O   0  0  0  0  0  0  0  0  0  0  0  0
    0.1020    2.9044    0.0540 C   0  0  0  0  0  0  0  0  0  0  0  0
    0.3638    3.2139   -0.8583 H   0  0  0  0  0  0  0  0  0  0  0  0
    0.8021    3.1691    0.7149 H   0  0  0  0  0  0  0  0  0  0  0  0
   -0.8140    3.4297    0.3242 H   0  0  0  0  0  0  0  0  0  0  0  0
    0.0198    1.4129    0.0345 C   0  0  0  0  0  0  0  0  0  0  0  0
   -1.2024    0.7348    0.0061 C   0  0  0  0  0  0  0  0  0  0  0  0
   -2.0554    1.2042   -0.0114 H   0  0  0  0  0  0  0  0  0  0  0  0
   -1.2082   -0.7171    0.0000 C   0  0  0  0  0  0  0  0  0  0  0  0
   -2.0956   -1.1768   -0.0125 H   0  0  0  0  0  0  0  0  0  0  0  0
   -0.0170   -1.4138    0.0133 C   0  0  0  0  0  0  0  0  0  0  0  0
    0.0006   -2.4038    0.0309 H   0  0  0  0  0  0  0  0  0  0  0  0
    1.2082   -0.6923    0.0000 C   0  0  0  0  0  0  0  0  0  0  0  0
    2.0783   -1.2069    0.0320 H   0  0  0  0  0  0  0  0  0  0  0  0
    1.1997    0.6755   -0.0539 C   0  0  0  0  0  0  0  0  0  0  0  0
    2.0718    1.1770   -0.1623 H   0  0  0  0  0  0  0  0  0  0  0  0
  1  5  1  0
  5  6  1  0
  5  7  2  0
  1  2  1  0
  1  3  1  0
  1  4  1  0
  8 12  1  0
 12 13  2  0
 13 15  1  0
 15 17  2  0
 17 19  1  0
 19 21  2  0
 21 12  1  0
  8  9  1  0
  8 10  1  0
  8 11  1  0
 13 14  1  0
 15 16  1  0
 17 18  1  0
 19 20  1  0
 21 22  1  0
M  CHG  1   6  -1
M  END
>  <PDB_ID>  (822) 
pdb1oqs

>  <RESIDUE_NAME>  (822) 
ASP   PHE

>  <FRAG_NAME>  (822) 
ACET   MBZ

>  <FRAG_ATOM_NUM>  (822) 
fragi: 7  fragj: 15

>  <atom.prop.CHAIN_ID>  (822) 
A A A A A A A Z Z Z Z Z Z Z Z Z Z Z Z Z Z Z

>  <atom.prop.IS_HEAVY_ATOM>  (822) 
1 0 0 0 1 1 1 1 0 0 0 1 1 0 1 0 1 0 1 0 1 0

>  <DIFUSE_FUNC_ATOM>  (822) 
atom 6   atom 7   

>  <FINAL_SINGLE_POINT_ENERGY>  (822) 
0

>  <NONCOV_INTER_ENERGY_QM>  (822) 
0

>  <FF_Energy>  (822) 
0.7

>  <QM_Energy>  (822) 
-4.37

>  <source>  (822) 
ACET_MBZ_00

>  <Index>  (822) 
29522

$$$$
ACET-pdb1oqs-F-ASP-99:MBZ-pdb1oqs-F-PHE-5
     RDKit          3D

 22 21  0  0  0  0  0  0  0  0999 V2000
   -2.3798    1.5011   -3.5013 C   0  0  0  0  0  0  0  0  0  0  0  0
   -2.9305    2.0224   -4.1469 H   0  0  0  0  0  0  0  0  0  0  0  0
   -2.7040    1.6557   -2.5730 H   0  0  0  0  0  0  0  0  0  0  0  0
   -2.4987    0.4423   -3.7311 H   0  0  0  0  0  0  0  0  0  0  0  0
   -0.9457    1.9687   -3.5989 C   0  0  0  0  0  0  0  0  0  0  0  0
   -0.1001    1.1621   -3.9005 O   0  0  0  0  0  1  0  0  0  0  0  0
   -0.5826    3.1306   -3.3026 O   0  0  0  0  0  0  0  0  0  0  0  0
    0.0777    2.9135   -0.0084 C   0  0  0  0  0  0  0  0  0  0  0  0
    0.2364    3.1986   -0.9498 H   0  0  0  0  0  0  0  0  0  0  0  0
    0.8423    3.1919    0.5667 H   0  0  0  0  0  0  0  0  0  0  0  0
   -0.8099    3.4361    0.3483 H   0  0  0  0  0  0  0  0  0  0  0  0
    0.0023    1.4143    0.0153 C   0  0  0  0  0  0  0  0  0  0  0  0
   -1.2227    0.6876   -0.0062 C   0  0  0  0  0  0  0  0  0  0  0  0
   -2.0733    1.1853   -0.0264 H   0  0  0  0  0  0  0  0  0  0  0  0
   -1.2014   -0.6855    0.0000 C   0  0  0  0  0  0  0  0  0  0  0  0
   -2.0632   -1.2091    0.0151 H   0  0  0  0  0  0  0  0  0  0  0  0
    0.0272   -1.3836   -0.0132 C   0  0  0  0  0  0  0  0  0  0  0  0
   -0.0132   -2.3954   -0.0338 H   0  0  0  0  0  0  0  0  0  0  0  0
    1.2014   -0.7292   -0.0000 C   0  0  0  0  0  0  0  0  0  0  0  0
    2.0922   -1.1976    0.0080 H   0  0  0  0  0  0  0  0  0  0  0  0
    1.1932    0.6965    0.0042 C   0  0  0  0  0  0  0  0  0  0  0  0
    2.0691    1.1755   -0.0026 H   0  0  0  0  0  0  0  0  0  0  0  0
  1  5  1  0
  5  6  1  0
  5  7  2  0
  1  2  1  0
  1  3  1  0
  1  4  1  0
  8 12  1  0
 12 13  2  0
 13 15  1  0
 15 17  2  0
 17 19  1  0
 19 21  2  0
 21 12  1  0
  8  9  1  0
  8 10  1  0
  8 11  1  0
 13 14  1  0
 15 16  1  0
 17 18  1  0
 19 20  1  0
 21 22  1  0
M  CHG  1   6  -1
M  END
>  <PDB_ID>  (823) 
pdb1oqs

>  <RESIDUE_NAME>  (823) 
ASP   PHE

>  <FRAG_NAME>  (823) 
ACET   MBZ

>  <FRAG_ATOM_NUM>  (823) 
fragi: 7  fragj: 15

>  <atom.prop.CHAIN_ID>  (823) 
A A A A A A A Z Z Z Z Z Z Z Z Z Z Z Z Z Z Z

>  <atom.prop.IS_HEAVY_ATOM>  (823) 
1 0 0 0 1 1 1 1 0 0 0 1 1 0 1 0 1 0 1 0 1 0

>  <DIFUSE_FUNC_ATOM>  (823) 
atom 6   atom 7   

>  <FINAL_SINGLE_POINT_ENERGY>  (823) 
0

>  <NONCOV_INTER_ENERGY_QM>  (823) 
0

>  <FF_Energy>  (823) 
1.09

>  <QM_Energy>  (823) 
-4.29

>  <source>  (823) 
ACET_MBZ_00

>  <Index>  (823) 
29526

$$$$
ACET-pdb2v8c-A-GLU-18:MBZ-pdb2v8c-A-PHE-39
     RDKit          3D

 22 21  0  0  0  0  0  0  0  0999 V2000
    2.2934    0.1663   -3.6115 C   0  0  0  0  0  0  0  0  0  0  0  0
    2.3076   -0.4288   -4.3976 H   0  0  0  0  0  0  0  0  0  0  0  0
    2.1711   -0.3374   -2.7727 H   0  0  0  0  0  0  0  0  0  0  0  0
    3.2445    0.6965   -3.5624 H   0  0  0  0  0  0  0  0  0  0  0  0
    1.0985    1.0898   -3.7634 C   0  0  0  0  0  0  0  0  0  0  0  0
    0.9325    1.9969   -2.9201 O   0  0  0  0  0  1  0  0  0  0  0  0
    0.3244    0.9119   -4.7318 O   0  0  0  0  0  0  0  0  0  0  0  0
    0.0516    2.8950    0.0297 C   0  0  0  0  0  0  0  0  0  0  0  0
    0.8169    3.1869   -0.5303 H   0  0  0  0  0  0  0  0  0  0  0  0
    0.1776    3.1804    0.9716 H   0  0  0  0  0  0  0  0  0  0  0  0
   -0.8469    3.3811   -0.3503 H   0  0  0  0  0  0  0  0  0  0  0  0
    0.0068    1.3956    0.0039 C   0  0  0  0  0  0  0  0  0  0  0  0
   -1.2011    0.6868    0.0106 C   0  0  0  0  0  0  0  0  0  0  0  0
   -2.0609    1.1796    0.0215 H   0  0  0  0  0  0  0  0  0  0  0  0
   -1.2005   -0.7009    0.0000 C   0  0  0  0  0  0  0  0  0  0  0  0
   -2.0769   -1.1966    0.0064 H   0  0  0  0  0  0  0  0  0  0  0  0
   -0.0043   -1.3791   -0.0168 C   0  0  0  0  0  0  0  0  0  0  0  0
    0.0011   -2.3846   -0.0417 H   0  0  0  0  0  0  0  0  0  0  0  0
    1.2005   -0.6870    0.0000 C   0  0  0  0  0  0  0  0  0  0  0  0
    2.0768   -1.1971    0.0120 H   0  0  0  0  0  0  0  0  0  0  0  0
    1.1986    0.6845    0.0023 C   0  0  0  0  0  0  0  0  0  0  0  0
    2.0681    1.1877    0.0016 H   0  0  0  0  0  0  0  0  0  0  0  0
  1  5  1  0
  5  6  1  0
  5  7  2  0
  1  2  1  0
  1  3  1  0
  1  4  1  0
  8 12  1  0
 12 13  2  0
 13 15  1  0
 15 17  2  0
 17 19  1  0
 19 21  2  0
 21 12  1  0
  8  9  1  0
  8 10  1  0
  8 11  1  0
 13 14  1  0
 15 16  1  0
 17 18  1  0
 19 20  1  0
 21 22  1  0
M  CHG  1   6  -1
M  END
>  <PDB_ID>  (824) 
pdb2v8c

>  <RESIDUE_NAME>  (824) 
GLU   PHE

>  <FRAG_NAME>  (824) 
ACET   MBZ

>  <FRAG_ATOM_NUM>  (824) 
fragi: 7  fragj: 15

>  <atom.prop.CHAIN_ID>  (824) 
A A A A A A A Z Z Z Z Z Z Z Z Z Z Z Z Z Z Z

>  <atom.prop.IS_HEAVY_ATOM>  (824) 
1 0 0 0 1 1 1 1 0 0 0 1 1 0 1 0 1 0 1 0 1 0

>  <DIFUSE_FUNC_ATOM>  (824) 
atom 6   atom 7   

>  <FINAL_SINGLE_POINT_ENERGY>  (824) 
0

>  <NONCOV_INTER_ENERGY_QM>  (824) 
0

>  <FF_Energy>  (824) 
2.62

>  <QM_Energy>  (824) 
-3.27

>  <source>  (824) 
ACET_MBZ_00

>  <Index>  (824) 
29531

$$$$
ACET-pdb1ouw-B-ASP-6:MBZ-pdb1ouw-A-PHE-19
     RDKit          3D

 22 21  0  0  0  0  0  0  0  0999 V2000
    2.9428    1.8847   -3.0447 C   0  0  0  0  0  0  0  0  0  0  0  0
    2.9059    1.1037   -2.4243 H   0  0  0  0  0  0  0  0  0  0  0  0
    3.8430    1.9340   -3.4720 H   0  0  0  0  0  0  0  0  0  0  0  0
    2.2035    1.7284   -3.8302 H   0  0  0  0  0  0  0  0  0  0  0  0
    2.7098    3.1432   -2.2536 C   0  0  0  0  0  0  0  0  0  0  0  0
    2.0175    4.0643   -2.7112 O   0  0  0  0  0  1  0  0  0  0  0  0
    3.2188    3.2486   -1.1180 O   0  0  0  0  0  0  0  0  0  0  0  0
    0.0080    2.9121    0.0349 C   0  0  0  0  0  0  0  0  0  0  0  0
   -0.5868    3.2205   -0.6918 H   0  0  0  0  0  0  0  0  0  0  0  0
    0.9363    3.2206   -0.1033 H   0  0  0  0  0  0  0  0  0  0  0  0
   -0.3519    3.3478    0.9670 H   0  0  0  0  0  0  0  0  0  0  0  0
    0.0118    1.4033    0.0251 C   0  0  0  0  0  0  0  0  0  0  0  0
   -1.1858    0.6857   -0.0106 C   0  0  0  0  0  0  0  0  0  0  0  0
   -2.0519    1.1832   -0.0462 H   0  0  0  0  0  0  0  0  0  0  0  0
   -1.1923   -0.6928    0.0000 C   0  0  0  0  0  0  0  0  0  0  0  0
   -2.0818   -1.1816    0.0230 H   0  0  0  0  0  0  0  0  0  0  0  0
   -0.0180   -1.3881   -0.0183 C   0  0  0  0  0  0  0  0  0  0  0  0
   -0.0173   -2.3887   -0.0451 H   0  0  0  0  0  0  0  0  0  0  0  0
    1.1923   -0.6989   -0.0000 C   0  0  0  0  0  0  0  0  0  0  0  0
    2.0674   -1.2022    0.0114 H   0  0  0  0  0  0  0  0  0  0  0  0
    1.1920    0.6908    0.0038 C   0  0  0  0  0  0  0  0  0  0  0  0
    2.0693    1.1794   -0.0099 H   0  0  0  0  0  0  0  0  0  0  0  0
  1  5  1  0
  5  6  1  0
  5  7  2  0
  1  2  1  0
  1  3  1  0
  1  4  1  0
  8 12  1  0
 12 13  2  0
 13 15  1  0
 15 17  2  0
 17 19  1  0
 19 21  2  0
 21 12  1  0
  8  9  1  0
  8 10  1  0
  8 11  1  0
 13 14  1  0
 15 16  1  0
 17 18  1  0
 19 20  1  0
 21 22  1  0
M  CHG  1   6  -1
M  END
>  <PDB_ID>  (825) 
pdb1ouw

>  <RESIDUE_NAME>  (825) 
ASP   PHE

>  <FRAG_NAME>  (825) 
ACET   MBZ

>  <FRAG_ATOM_NUM>  (825) 
fragi: 7  fragj: 15

>  <atom.prop.CHAIN_ID>  (825) 
A A A A A A A Z Z Z Z Z Z Z Z Z Z Z Z Z Z Z

>  <atom.prop.IS_HEAVY_ATOM>  (825) 
1 0 0 0 1 1 1 1 0 0 0 1 1 0 1 0 1 0 1 0 1 0

>  <DIFUSE_FUNC_ATOM>  (825) 
atom 6   atom 7   

>  <FINAL_SINGLE_POINT_ENERGY>  (825) 
0

>  <NONCOV_INTER_ENERGY_QM>  (825) 
0

>  <FF_Energy>  (825) 
-2.27

>  <QM_Energy>  (825) 
-8.61

>  <source>  (825) 
ACET_MBZ_00

>  <Index>  (825) 
29829

$$$$
ACET-pdb2v7b-B-GLU-528:MBZ-pdb2v7b-B-PHE-524
     RDKit          3D

 22 21  0  0  0  0  0  0  0  0999 V2000
   -5.1651    3.6471    1.7683 C   0  0  0  0  0  0  0  0  0  0  0  0
   -6.0487    3.9303    1.4442 H   0  0  0  0  0  0  0  0  0  0  0  0
   -4.5639    4.4093    1.9259 H   0  0  0  0  0  0  0  0  0  0  0  0
   -5.3033    3.1212    2.7130 H   0  0  0  0  0  0  0  0  0  0  0  0
   -4.5264    2.7865    0.6573 C   0  0  0  0  0  0  0  0  0  0  0  0
   -4.5548    1.5244    0.7417 O   0  0  0  0  0  1  0  0  0  0  0  0
   -3.9956    3.3910   -0.3107 O   0  0  0  0  0  0  0  0  0  0  0  0
   -0.0171    2.9493   -0.0078 C   0  0  0  0  0  0  0  0  0  0  0  0
   -0.8665    3.2372   -0.4210 H   0  0  0  0  0  0  0  0  0  0  0  0
    0.7626    3.2516   -0.5326 H   0  0  0  0  0  0  0  0  0  0  0  0
    0.0464    3.4110    0.9776 H   0  0  0  0  0  0  0  0  0  0  0  0
   -0.0024    1.4212    0.0048 C   0  0  0  0  0  0  0  0  0  0  0  0
   -1.2043    0.6963   -0.0043 C   0  0  0  0  0  0  0  0  0  0  0  0
   -2.0727    1.1851   -0.0149 H   0  0  0  0  0  0  0  0  0  0  0  0
   -1.2146   -0.7076   -0.0000 C   0  0  0  0  0  0  0  0  0  0  0  0
   -2.0864   -1.1964   -0.0023 H   0  0  0  0  0  0  0  0  0  0  0  0
   -0.0018   -1.4112    0.0090 C   0  0  0  0  0  0  0  0  0  0  0  0
   -0.0037   -2.4041    0.0217 H   0  0  0  0  0  0  0  0  0  0  0  0
    1.2146   -0.7060   -0.0000 C   0  0  0  0  0  0  0  0  0  0  0  0
    2.0909   -1.1982    0.0018 H   0  0  0  0  0  0  0  0  0  0  0  0
    1.2084    0.7073   -0.0096 C   0  0  0  0  0  0  0  0  0  0  0  0
    2.0722    1.1981   -0.0274 H   0  0  0  0  0  0  0  0  0  0  0  0
  1  5  1  0
  5  6  1  0
  5  7  2  0
  1  2  1  0
  1  3  1  0
  1  4  1  0
  8 12  1  0
 12 13  2  0
 13 15  1  0
 15 17  2  0
 17 19  1  0
 19 21  2  0
 21 12  1  0
  8  9  1  0
  8 10  1  0
  8 11  1  0
 13 14  1  0
 15 16  1  0
 17 18  1  0
 19 20  1  0
 21 22  1  0
M  CHG  1   6  -1
M  END
>  <PDB_ID>  (826) 
pdb2v7b

>  <RESIDUE_NAME>  (826) 
GLU   PHE

>  <FRAG_NAME>  (826) 
ACET   MBZ

>  <FRAG_ATOM_NUM>  (826) 
fragi: 7  fragj: 15

>  <atom.prop.CHAIN_ID>  (826) 
A A A A A A A Z Z Z Z Z Z Z Z Z Z Z Z Z Z Z

>  <atom.prop.IS_HEAVY_ATOM>  (826) 
1 0 0 0 1 1 1 1 0 0 0 1 1 0 1 0 1 0 1 0 1 0

>  <DIFUSE_FUNC_ATOM>  (826) 
atom 6   atom 7   

>  <FINAL_SINGLE_POINT_ENERGY>  (826) 
0

>  <NONCOV_INTER_ENERGY_QM>  (826) 
0

>  <FF_Energy>  (826) 
-3.05

>  <QM_Energy>  (826) 
-8.15

>  <source>  (826) 
ACET_MBZ_00

>  <Index>  (826) 
29841

$$$$
ACET-pdb2vfb-A-ASP-127:MBZ-pdb2vfb-A-PHE-130
     RDKit          3D

 22 21  0  0  0  0  0  0  0  0999 V2000
   -0.0068    6.2923   -4.1319 C   0  0  0  0  0  0  0  0  0  0  0  0
   -0.5473    6.1122   -4.9439 H   0  0  0  0  0  0  0  0  0  0  0  0
    0.9279    5.9836   -4.2570 H   0  0  0  0  0  0  0  0  0  0  0  0
   -0.0148    7.3607   -3.9161 H   0  0  0  0  0  0  0  0  0  0  0  0
   -0.6215    5.4291   -2.9737 C   0  0  0  0  0  0  0  0  0  0  0  0
   -1.2021    5.9908   -2.0368 O   0  0  0  0  0  1  0  0  0  0  0  0
   -0.4784    4.1867   -3.0288 O   0  0  0  0  0  0  0  0  0  0  0  0
    0.0209    2.9078    0.0157 C   0  0  0  0  0  0  0  0  0  0  0  0
   -0.4810    3.2307   -0.7776 H   0  0  0  0  0  0  0  0  0  0  0  0
    0.9674    3.2040   -0.0226 H   0  0  0  0  0  0  0  0  0  0  0  0
   -0.4324    3.3526    0.9015 H   0  0  0  0  0  0  0  0  0  0  0  0
    0.0002    1.4155    0.0017 C   0  0  0  0  0  0  0  0  0  0  0  0
   -1.2029    0.7083    0.0124 C   0  0  0  0  0  0  0  0  0  0  0  0
   -2.0689    1.1880    0.0277 H   0  0  0  0  0  0  0  0  0  0  0  0
   -1.2101   -0.7111    0.0000 C   0  0  0  0  0  0  0  0  0  0  0  0
   -2.0854   -1.1924    0.0053 H   0  0  0  0  0  0  0  0  0  0  0  0
   -0.0009   -1.4085   -0.0172 C   0  0  0  0  0  0  0  0  0  0  0  0
   -0.0015   -2.4046   -0.0427 H   0  0  0  0  0  0  0  0  0  0  0  0
    1.2101   -0.7062   -0.0000 C   0  0  0  0  0  0  0  0  0  0  0  0
    2.0884   -1.1986    0.0123 H   0  0  0  0  0  0  0  0  0  0  0  0
    1.2036    0.7020    0.0032 C   0  0  0  0  0  0  0  0  0  0  0  0
    2.0712    1.1938    0.0058 H   0  0  0  0  0  0  0  0  0  0  0  0
  1  5  1  0
  5  6  1  0
  5  7  2  0
  1  2  1  0
  1  3  1  0
  1  4  1  0
  8 12  1  0
 12 13  2  0
 13 15  1  0
 15 17  2  0
 17 19  1  0
 19 21  2  0
 21 12  1  0
  8  9  1  0
  8 10  1  0
  8 11  1  0
 13 14  1  0
 15 16  1  0
 17 18  1  0
 19 20  1  0
 21 22  1  0
M  CHG  1   6  -1
M  END
>  <PDB_ID>  (827) 
pdb2vfb

>  <RESIDUE_NAME>  (827) 
ASP   PHE

>  <FRAG_NAME>  (827) 
ACET   MBZ

>  <FRAG_ATOM_NUM>  (827) 
fragi: 7  fragj: 15

>  <atom.prop.CHAIN_ID>  (827) 
A A A A A A A Z Z Z Z Z Z Z Z Z Z Z Z Z Z Z

>  <atom.prop.IS_HEAVY_ATOM>  (827) 
1 0 0 0 1 1 1 1 0 0 0 1 1 0 1 0 1 0 1 0 1 0

>  <DIFUSE_FUNC_ATOM>  (827) 
atom 6   atom 7   

>  <FINAL_SINGLE_POINT_ENERGY>  (827) 
0

>  <NONCOV_INTER_ENERGY_QM>  (827) 
0

>  <FF_Energy>  (827) 
-2.01

>  <QM_Energy>  (827) 
-5.75

>  <source>  (827) 
ACET_MBZ_00

>  <Index>  (827) 
29842

$$$$
ACET-pdb1oyj-A-ASP-166:MBZ-pdb1oyj-A-PHE-154
     RDKit          3D

 22 21  0  0  0  0  0  0  0  0999 V2000
    4.8097    3.7957    1.2415 C   0  0  0  0  0  0  0  0  0  0  0  0
    5.1020    4.7192    1.4837 H   0  0  0  0  0  0  0  0  0  0  0  0
    5.6032    3.2520    0.9720 H   0  0  0  0  0  0  0  0  0  0  0  0
    4.2992    3.3282    2.0835 H   0  0  0  0  0  0  0  0  0  0  0  0
    3.9097    3.9244   -0.0067 C   0  0  0  0  0  0  0  0  0  0  0  0
    3.5988    2.9090   -0.6720 O   0  0  0  0  0  1  0  0  0  0  0  0
    3.5658    5.0733   -0.3622 O   0  0  0  0  0  0  0  0  0  0  0  0
    0.0391    2.8791   -0.0921 C   0  0  0  0  0  0  0  0  0  0  0  0
    0.8522    3.2076    0.3496 H   0  0  0  0  0  0  0  0  0  0  0  0
   -0.7810    3.2180    0.3290 H   0  0  0  0  0  0  0  0  0  0  0  0
    0.0546    3.2474   -1.1179 H   0  0  0  0  0  0  0  0  0  0  0  0
    0.0287    1.3782   -0.0153 C   0  0  0  0  0  0  0  0  0  0  0  0
   -1.1487    0.6698    0.0297 C   0  0  0  0  0  0  0  0  0  0  0  0
   -2.0230    1.1943    0.0868 H   0  0  0  0  0  0  0  0  0  0  0  0
   -1.2019   -0.6809   -0.0000 C   0  0  0  0  0  0  0  0  0  0  0  0
   -2.1128   -1.1440   -0.0332 H   0  0  0  0  0  0  0  0  0  0  0  0
   -0.0690   -1.4031    0.0157 C   0  0  0  0  0  0  0  0  0  0  0  0
   -0.0353   -2.3807    0.0359 H   0  0  0  0  0  0  0  0  0  0  0  0
    1.2019   -0.6692    0.0000 C   0  0  0  0  0  0  0  0  0  0  0  0
    2.0501   -1.1970    0.0136 H   0  0  0  0  0  0  0  0  0  0  0  0
    1.1891    0.7053   -0.0301 C   0  0  0  0  0  0  0  0  0  0  0  0
    2.0686    1.1990   -0.0639 H   0  0  0  0  0  0  0  0  0  0  0  0
  1  5  1  0
  5  6  1  0
  5  7  2  0
  1  2  1  0
  1  3  1  0
  1  4  1  0
  8 12  1  0
 12 13  2  0
 13 15  1  0
 15 17  2  0
 17 19  1  0
 19 21  2  0
 21 12  1  0
  8  9  1  0
  8 10  1  0
  8 11  1  0
 13 14  1  0
 15 16  1  0
 17 18  1  0
 19 20  1  0
 21 22  1  0
M  CHG  1   6  -1
M  END
>  <PDB_ID>  (828) 
pdb1oyj

>  <RESIDUE_NAME>  (828) 
ASP   PHE

>  <FRAG_NAME>  (828) 
ACET   MBZ

>  <FRAG_ATOM_NUM>  (828) 
fragi: 7  fragj: 15

>  <atom.prop.CHAIN_ID>  (828) 
A A A A A A A Z Z Z Z Z Z Z Z Z Z Z Z Z Z Z

>  <atom.prop.IS_HEAVY_ATOM>  (828) 
1 0 0 0 1 1 1 1 0 0 0 1 1 0 1 0 1 0 1 0 1 0

>  <DIFUSE_FUNC_ATOM>  (828) 
atom 6   atom 7   

>  <FINAL_SINGLE_POINT_ENERGY>  (828) 
0

>  <NONCOV_INTER_ENERGY_QM>  (828) 
0

>  <FF_Energy>  (828) 
-2.24

>  <QM_Energy>  (828) 
-7.98

>  <source>  (828) 
ACET_MBZ_00

>  <Index>  (828) 
29993

$$$$
ACET-pdb1oyj-B-ASP-166:MBZ-pdb1oyj-B-PHE-154
     RDKit          3D

 22 21  0  0  0  0  0  0  0  0999 V2000
    4.6346    3.8255    1.8715 C   0  0  0  0  0  0  0  0  0  0  0  0
    4.7886    4.7320    2.2650 H   0  0  0  0  0  0  0  0  0  0  0  0
    5.5098    3.4286    1.5960 H   0  0  0  0  0  0  0  0  0  0  0  0
    4.1784    3.1860    2.6272 H   0  0  0  0  0  0  0  0  0  0  0  0
    3.7817    3.9959    0.6195 C   0  0  0  0  0  0  0  0  0  0  0  0
    3.5179    3.0311   -0.1562 O   0  0  0  0  0  1  0  0  0  0  0  0
    3.3754    5.1327    0.3093 O   0  0  0  0  0  0  0  0  0  0  0  0
   -0.0056    2.8519    0.1091 C   0  0  0  0  0  0  0  0  0  0  0  0
    0.8154    3.1417    0.5950 H   0  0  0  0  0  0  0  0  0  0  0  0
   -0.8177    3.1367    0.6142 H   0  0  0  0  0  0  0  0  0  0  0  0
   -0.0188    3.3584   -0.8561 H   0  0  0  0  0  0  0  0  0  0  0  0
   -0.0025    1.3954    0.0164 C   0  0  0  0  0  0  0  0  0  0  0  0
   -1.1896    0.7006   -0.0239 C   0  0  0  0  0  0  0  0  0  0  0  0
   -2.0580    1.1838   -0.0716 H   0  0  0  0  0  0  0  0  0  0  0  0
   -1.1946   -0.6959    0.0000 C   0  0  0  0  0  0  0  0  0  0  0  0
   -2.0702   -1.1870    0.0310 H   0  0  0  0  0  0  0  0  0  0  0  0
    0.0091   -1.3925   -0.0173 C   0  0  0  0  0  0  0  0  0  0  0  0
    0.0001   -2.3909   -0.0421 H   0  0  0  0  0  0  0  0  0  0  0  0
    1.1946   -0.6972    0.0000 C   0  0  0  0  0  0  0  0  0  0  0  0
    2.0829   -1.1875   -0.0042 H   0  0  0  0  0  0  0  0  0  0  0  0
    1.1830    0.6896    0.0249 C   0  0  0  0  0  0  0  0  0  0  0  0
    2.0562    1.1868    0.0488 H   0  0  0  0  0  0  0  0  0  0  0  0
  1  5  1  0
  5  6  1  0
  5  7  2  0
  1  2  1  0
  1  3  1  0
  1  4  1  0
  8 12  1  0
 12 13  2  0
 13 15  1  0
 15 17  2  0
 17 19  1  0
 19 21  2  0
 21 12  1  0
  8  9  1  0
  8 10  1  0
  8 11  1  0
 13 14  1  0
 15 16  1  0
 17 18  1  0
 19 20  1  0
 21 22  1  0
M  CHG  1   6  -1
M  END
>  <PDB_ID>  (829) 
pdb1oyj

>  <RESIDUE_NAME>  (829) 
ASP   PHE

>  <FRAG_NAME>  (829) 
ACET   MBZ

>  <FRAG_ATOM_NUM>  (829) 
fragi: 7  fragj: 15

>  <atom.prop.CHAIN_ID>  (829) 
A A A A A A A Z Z Z Z Z Z Z Z Z Z Z Z Z Z Z

>  <atom.prop.IS_HEAVY_ATOM>  (829) 
1 0 0 0 1 1 1 1 0 0 0 1 1 0 1 0 1 0 1 0 1 0

>  <DIFUSE_FUNC_ATOM>  (829) 
atom 6   atom 7   

>  <FINAL_SINGLE_POINT_ENERGY>  (829) 
0

>  <NONCOV_INTER_ENERGY_QM>  (829) 
0

>  <FF_Energy>  (829) 
-2.23

>  <QM_Energy>  (829) 
-8.33

>  <source>  (829) 
ACET_MBZ_00

>  <Index>  (829) 
30002

$$$$
ACET-pdb1oyj-B-ASP-166:MBZ-pdb1oyj-B-PHE-153
     RDKit          3D

 22 21  0  0  0  0  0  0  0  0999 V2000
   -4.7603    2.7452    2.3101 C   0  0  0  0  0  0  0  0  0  0  0  0
   -4.4834    2.6578    3.2672 H   0  0  0  0  0  0  0  0  0  0  0  0
   -4.9413    1.8380    1.9312 H   0  0  0  0  0  0  0  0  0  0  0  0
   -5.6735    3.3381    2.2601 H   0  0  0  0  0  0  0  0  0  0  0  0
   -3.5947    3.3523    1.5378 C   0  0  0  0  0  0  0  0  0  0  0  0
   -3.6095    3.4781    0.2784 O   0  0  0  0  0  1  0  0  0  0  0  0
   -2.5630    3.6844    2.1535 O   0  0  0  0  0  0  0  0  0  0  0  0
   -0.0247    2.8439    0.0342 C   0  0  0  0  0  0  0  0  0  0  0  0
    0.8669    3.1639    0.3303 H   0  0  0  0  0  0  0  0  0  0  0  0
   -0.7325    3.1482    0.6604 H   0  0  0  0  0  0  0  0  0  0  0  0
   -0.2312    3.2792   -0.9436 H   0  0  0  0  0  0  0  0  0  0  0  0
   -0.0111    1.3688    0.0299 C   0  0  0  0  0  0  0  0  0  0  0  0
   -1.1925    0.6572   -0.0260 C   0  0  0  0  0  0  0  0  0  0  0  0
   -2.0609    1.1625   -0.0884 H   0  0  0  0  0  0  0  0  0  0  0  0
   -1.1942   -0.6878   -0.0000 C   0  0  0  0  0  0  0  0  0  0  0  0
   -2.0517   -1.2129    0.0254 H   0  0  0  0  0  0  0  0  0  0  0  0
    0.0298   -1.3699   -0.0060 C   0  0  0  0  0  0  0  0  0  0  0  0
    0.0215   -2.3719   -0.0157 H   0  0  0  0  0  0  0  0  0  0  0  0
    1.1942   -0.6707   -0.0000 C   0  0  0  0  0  0  0  0  0  0  0  0
    2.0931   -1.1560    0.0044 H   0  0  0  0  0  0  0  0  0  0  0  0
    1.1738    0.7023    0.0021 C   0  0  0  0  0  0  0  0  0  0  0  0
    2.0400    1.2099   -0.0177 H   0  0  0  0  0  0  0  0  0  0  0  0
  1  5  1  0
  5  6  1  0
  5  7  2  0
  1  2  1  0
  1  3  1  0
  1  4  1  0
  8 12  1  0
 12 13  2  0
 13 15  1  0
 15 17  2  0
 17 19  1  0
 19 21  2  0
 21 12  1  0
  8  9  1  0
  8 10  1  0
  8 11  1  0
 13 14  1  0
 15 16  1  0
 17 18  1  0
 19 20  1  0
 21 22  1  0
M  CHG  1   6  -1
M  END
>  <PDB_ID>  (830) 
pdb1oyj

>  <RESIDUE_NAME>  (830) 
ASP   PHE

>  <FRAG_NAME>  (830) 
ACET   MBZ

>  <FRAG_ATOM_NUM>  (830) 
fragi: 7  fragj: 15

>  <atom.prop.CHAIN_ID>  (830) 
A A A A A A A Z Z Z Z Z Z Z Z Z Z Z Z Z Z Z

>  <atom.prop.IS_HEAVY_ATOM>  (830) 
1 0 0 0 1 1 1 1 0 0 0 1 1 0 1 0 1 0 1 0 1 0

>  <DIFUSE_FUNC_ATOM>  (830) 
atom 6   atom 7   

>  <FINAL_SINGLE_POINT_ENERGY>  (830) 
0

>  <NONCOV_INTER_ENERGY_QM>  (830) 
0

>  <FF_Energy>  (830) 
-2.07

>  <QM_Energy>  (830) 
-8.73

>  <source>  (830) 
ACET_MBZ_00

>  <Index>  (830) 
30004

$$$$
ACET-pdb1p30-A-ASP-788:MBZ-pdb1p30-A-PHE-794
     RDKit          3D

 22 21  0  0  0  0  0  0  0  0999 V2000
    4.4850    4.4763   -2.2972 C   0  0  0  0  0  0  0  0  0  0  0  0
    3.9628    4.2298   -3.1071 H   0  0  0  0  0  0  0  0  0  0  0  0
    5.3573    4.0005   -2.2907 H   0  0  0  0  0  0  0  0  0  0  0  0
    4.6893    5.5458   -2.3452 H   0  0  0  0  0  0  0  0  0  0  0  0
    3.7023    4.0886   -1.0703 C   0  0  0  0  0  0  0  0  0  0  0  0
    2.9151    4.9291   -0.5828 O   0  0  0  0  0  1  0  0  0  0  0  0
    3.8643    2.9402   -0.6069 O   0  0  0  0  0  0  0  0  0  0  0  0
   -0.0006    2.9058    0.0786 C   0  0  0  0  0  0  0  0  0  0  0  0
   -0.7315    3.2398   -0.4941 H   0  0  0  0  0  0  0  0  0  0  0  0
    0.8801    3.2272   -0.2294 H   0  0  0  0  0  0  0  0  0  0  0  0
   -0.1626    3.2872    1.0867 H   0  0  0  0  0  0  0  0  0  0  0  0
   -0.0000    1.4030    0.0011 C   0  0  0  0  0  0  0  0  0  0  0  0
   -1.1994    0.6952   -0.0016 C   0  0  0  0  0  0  0  0  0  0  0  0
   -2.0647    1.1877   -0.0063 H   0  0  0  0  0  0  0  0  0  0  0  0
   -1.2070   -0.6958    0.0000 C   0  0  0  0  0  0  0  0  0  0  0  0
   -2.0817   -1.1897    0.0005 H   0  0  0  0  0  0  0  0  0  0  0  0
   -0.0015   -1.3967    0.0023 C   0  0  0  0  0  0  0  0  0  0  0  0
   -0.0056   -2.3930    0.0054 H   0  0  0  0  0  0  0  0  0  0  0  0
    1.2070   -0.6981   -0.0000 C   0  0  0  0  0  0  0  0  0  0  0  0
    2.0845   -1.1981    0.0009 H   0  0  0  0  0  0  0  0  0  0  0  0
    1.2009    0.6924   -0.0018 C   0  0  0  0  0  0  0  0  0  0  0  0
    2.0676    1.1912   -0.0060 H   0  0  0  0  0  0  0  0  0  0  0  0
  1  5  1  0
  5  6  1  0
  5  7  2  0
  1  2  1  0
  1  3  1  0
  1  4  1  0
  8 12  1  0
 12 13  2  0
 13 15  1  0
 15 17  2  0
 17 19  1  0
 19 21  2  0
 21 12  1  0
  8  9  1  0
  8 10  1  0
  8 11  1  0
 13 14  1  0
 15 16  1  0
 17 18  1  0
 19 20  1  0
 21 22  1  0
M  CHG  1   6  -1
M  END
>  <PDB_ID>  (831) 
pdb1p30

>  <RESIDUE_NAME>  (831) 
ASP   PHE

>  <FRAG_NAME>  (831) 
ACET   MBZ

>  <FRAG_ATOM_NUM>  (831) 
fragi: 7  fragj: 15

>  <atom.prop.CHAIN_ID>  (831) 
A A A A A A A Z Z Z Z Z Z Z Z Z Z Z Z Z Z Z

>  <atom.prop.IS_HEAVY_ATOM>  (831) 
1 0 0 0 1 1 1 1 0 0 0 1 1 0 1 0 1 0 1 0 1 0

>  <DIFUSE_FUNC_ATOM>  (831) 
atom 6   atom 7   

>  <FINAL_SINGLE_POINT_ENERGY>  (831) 
0

>  <NONCOV_INTER_ENERGY_QM>  (831) 
0

>  <FF_Energy>  (831) 
-2.86

>  <QM_Energy>  (831) 
-8.68

>  <source>  (831) 
ACET_MBZ_00

>  <Index>  (831) 
30170

$$$$
ACET-pdb1p2z-A-ASP-804:MBZ-pdb1p2z-A-PHE-810
     RDKit          3D

 22 21  0  0  0  0  0  0  0  0999 V2000
    4.2965    4.4498   -2.2864 C   0  0  0  0  0  0  0  0  0  0  0  0
    3.7280    4.1879   -3.0595 H   0  0  0  0  0  0  0  0  0  0  0  0
    5.1639    3.9649   -2.3141 H   0  0  0  0  0  0  0  0  0  0  0  0
    4.5033    5.5170   -2.3662 H   0  0  0  0  0  0  0  0  0  0  0  0
    3.5728    4.0801   -1.0038 C   0  0  0  0  0  0  0  0  0  0  0  0
    2.8202    4.9219   -0.4584 O   0  0  0  0  0  1  0  0  0  0  0  0
    3.7484    2.9306   -0.5553 O   0  0  0  0  0  0  0  0  0  0  0  0
   -0.0061    2.9061    0.0801 C   0  0  0  0  0  0  0  0  0  0  0  0
   -0.7336    3.2402   -0.4956 H   0  0  0  0  0  0  0  0  0  0  0  0
    0.8761    3.2325   -0.2194 H   0  0  0  0  0  0  0  0  0  0  0  0
   -0.1775    3.2810    1.0891 H   0  0  0  0  0  0  0  0  0  0  0  0
   -0.0000    1.4074    0.0002 C   0  0  0  0  0  0  0  0  0  0  0  0
   -1.2017    0.6945   -0.0004 C   0  0  0  0  0  0  0  0  0  0  0  0
   -2.0673    1.1835   -0.0022 H   0  0  0  0  0  0  0  0  0  0  0  0
   -1.2061   -0.7030    0.0000 C   0  0  0  0  0  0  0  0  0  0  0  0
   -2.0806   -1.1956   -0.0005 H   0  0  0  0  0  0  0  0  0  0  0  0
    0.0004   -1.4004    0.0026 C   0  0  0  0  0  0  0  0  0  0  0  0
   -0.0010   -2.3964    0.0063 H   0  0  0  0  0  0  0  0  0  0  0  0
    1.2061   -0.6985   -0.0000 C   0  0  0  0  0  0  0  0  0  0  0  0
    2.0866   -1.1934    0.0016 H   0  0  0  0  0  0  0  0  0  0  0  0
    1.2012    0.7001   -0.0024 C   0  0  0  0  0  0  0  0  0  0  0  0
    2.0674    1.1947   -0.0073 H   0  0  0  0  0  0  0  0  0  0  0  0
  1  5  1  0
  5  6  1  0
  5  7  2  0
  1  2  1  0
  1  3  1  0
  1  4  1  0
  8 12  1  0
 12 13  2  0
 13 15  1  0
 15 17  2  0
 17 19  1  0
 19 21  2  0
 21 12  1  0
  8  9  1  0
  8 10  1  0
  8 11  1  0
 13 14  1  0
 15 16  1  0
 17 18  1  0
 19 20  1  0
 21 22  1  0
M  CHG  1   6  -1
M  END
>  <PDB_ID>  (832) 
pdb1p2z

>  <RESIDUE_NAME>  (832) 
ASP   PHE

>  <FRAG_NAME>  (832) 
ACET   MBZ

>  <FRAG_ATOM_NUM>  (832) 
fragi: 7  fragj: 15

>  <atom.prop.CHAIN_ID>  (832) 
A A A A A A A Z Z Z Z Z Z Z Z Z Z Z Z Z Z Z

>  <atom.prop.IS_HEAVY_ATOM>  (832) 
1 0 0 0 1 1 1 1 0 0 0 1 1 0 1 0 1 0 1 0 1 0

>  <DIFUSE_FUNC_ATOM>  (832) 
atom 6   atom 7   

>  <FINAL_SINGLE_POINT_ENERGY>  (832) 
0

>  <NONCOV_INTER_ENERGY_QM>  (832) 
0

>  <FF_Energy>  (832) 
-2.75

>  <QM_Energy>  (832) 
-9.06

>  <source>  (832) 
ACET_MBZ_00

>  <Index>  (832) 
30174

$$$$
ACET-pdb1on3-E-ASP-139:MBZ-pdb1on3-E-PHE-105
     RDKit          3D

 22 21  0  0  0  0  0  0  0  0999 V2000
   -2.8567    4.7930   -2.6077 C   0  0  0  0  0  0  0  0  0  0  0  0
   -2.9360    5.5412   -3.2554 H   0  0  0  0  0  0  0  0  0  0  0  0
   -2.7833    5.1382   -1.6806 H   0  0  0  0  0  0  0  0  0  0  0  0
   -3.7677    4.1982   -2.6721 H   0  0  0  0  0  0  0  0  0  0  0  0
   -1.6044    3.9927   -2.9347 C   0  0  0  0  0  0  0  0  0  0  0  0
   -1.6997    2.7538   -2.9502 O   0  0  0  0  0  1  0  0  0  0  0  0
   -0.5340    4.6062   -3.1592 O   0  0  0  0  0  0  0  0  0  0  0  0
   -0.0100    2.8994    0.0739 C   0  0  0  0  0  0  0  0  0  0  0  0
   -0.7136    3.2334   -0.5336 H   0  0  0  0  0  0  0  0  0  0  0  0
    0.8835    3.2251   -0.1927 H   0  0  0  0  0  0  0  0  0  0  0  0
   -0.2207    3.2858    1.0710 H   0  0  0  0  0  0  0  0  0  0  0  0
   -0.0024    1.4005    0.0010 C   0  0  0  0  0  0  0  0  0  0  0  0
   -1.1989    0.6880   -0.0009 C   0  0  0  0  0  0  0  0  0  0  0  0
   -2.0658    1.1842   -0.0047 H   0  0  0  0  0  0  0  0  0  0  0  0
   -1.2079   -0.6947    0.0000 C   0  0  0  0  0  0  0  0  0  0  0  0
   -2.0807   -1.1922    0.0003 H   0  0  0  0  0  0  0  0  0  0  0  0
   -0.0013   -1.3934    0.0024 C   0  0  0  0  0  0  0  0  0  0  0  0
   -0.0056   -2.3911    0.0048 H   0  0  0  0  0  0  0  0  0  0  0  0
    1.2079   -0.6965   -0.0000 C   0  0  0  0  0  0  0  0  0  0  0  0
    2.0847   -1.1961    0.0018 H   0  0  0  0  0  0  0  0  0  0  0  0
    1.2026    0.6962   -0.0025 C   0  0  0  0  0  0  0  0  0  0  0  0
    2.0655    1.1953   -0.0073 H   0  0  0  0  0  0  0  0  0  0  0  0
  1  5  1  0
  5  6  1  0
  5  7  2  0
  1  2  1  0
  1  3  1  0
  1  4  1  0
  8 12  1  0
 12 13  2  0
 13 15  1  0
 15 17  2  0
 17 19  1  0
 19 21  2  0
 21 12  1  0
  8  9  1  0
  8 10  1  0
  8 11  1  0
 13 14  1  0
 15 16  1  0
 17 18  1  0
 19 20  1  0
 21 22  1  0
M  CHG  1   6  -1
M  END
>  <PDB_ID>  (833) 
pdb1on3

>  <RESIDUE_NAME>  (833) 
ASP   PHE

>  <FRAG_NAME>  (833) 
ACET   MBZ

>  <FRAG_ATOM_NUM>  (833) 
fragi: 7  fragj: 15

>  <atom.prop.CHAIN_ID>  (833) 
A A A A A A A Z Z Z Z Z Z Z Z Z Z Z Z Z Z Z

>  <atom.prop.IS_HEAVY_ATOM>  (833) 
1 0 0 0 1 1 1 1 0 0 0 1 1 0 1 0 1 0 1 0 1 0

>  <DIFUSE_FUNC_ATOM>  (833) 
atom 6   atom 7   

>  <FINAL_SINGLE_POINT_ENERGY>  (833) 
0

>  <NONCOV_INTER_ENERGY_QM>  (833) 
0

>  <FF_Energy>  (833) 
0.65

>  <QM_Energy>  (833) 
-4.58

>  <source>  (833) 
ACET_MBZ_00

>  <Index>  (833) 
30216

$$$$
ACET-pdb1p5j-A-ASP-138:MBZ-pdb1p5j-A-PHE-48
     RDKit          3D

 22 21  0  0  0  0  0  0  0  0999 V2000
   -4.7157   -0.4164   -2.1428 C   0  0  0  0  0  0  0  0  0  0  0  0
   -4.3507   -1.2407   -2.5566 H   0  0  0  0  0  0  0  0  0  0  0  0
   -4.1873    0.3772   -2.4151 H   0  0  0  0  0  0  0  0  0  0  0  0
   -5.7380   -0.2824   -2.4965 H   0  0  0  0  0  0  0  0  0  0  0  0
   -4.6320   -0.5578   -0.6243 C   0  0  0  0  0  0  0  0  0  0  0  0
   -4.9154    0.4170    0.0981 O   0  0  0  0  0  1  0  0  0  0  0  0
   -4.2829   -1.6512   -0.1574 O   0  0  0  0  0  0  0  0  0  0  0  0
    0.0019    2.9266   -0.1158 C   0  0  0  0  0  0  0  0  0  0  0  0
   -0.8388    3.1931   -0.5692 H   0  0  0  0  0  0  0  0  0  0  0  0
    0.7924    3.1884   -0.6535 H   0  0  0  0  0  0  0  0  0  0  0  0
    0.0530    3.4518    0.8380 H   0  0  0  0  0  0  0  0  0  0  0  0
    0.0036    1.4192   -0.0027 C   0  0  0  0  0  0  0  0  0  0  0  0
   -1.2076    0.6989    0.0038 C   0  0  0  0  0  0  0  0  0  0  0  0
   -2.0712    1.1823    0.0100 H   0  0  0  0  0  0  0  0  0  0  0  0
   -1.2128   -0.7180   -0.0000 C   0  0  0  0  0  0  0  0  0  0  0  0
   -2.0857   -1.2021    0.0015 H   0  0  0  0  0  0  0  0  0  0  0  0
   -0.0017   -1.4107   -0.0034 C   0  0  0  0  0  0  0  0  0  0  0  0
    0.0070   -2.4040   -0.0084 H   0  0  0  0  0  0  0  0  0  0  0  0
    1.2128   -0.6959   -0.0000 C   0  0  0  0  0  0  0  0  0  0  0  0
    2.0910   -1.1923    0.0020 H   0  0  0  0  0  0  0  0  0  0  0  0
    1.2057    0.7065    0.0023 C   0  0  0  0  0  0  0  0  0  0  0  0
    2.0726    1.2004    0.0063 H   0  0  0  0  0  0  0  0  0  0  0  0
  1  5  1  0
  5  6  1  0
  5  7  2  0
  1  2  1  0
  1  3  1  0
  1  4  1  0
  8 12  1  0
 12 13  2  0
 13 15  1  0
 15 17  2  0
 17 19  1  0
 19 21  2  0
 21 12  1  0
  8  9  1  0
  8 10  1  0
  8 11  1  0
 13 14  1  0
 15 16  1  0
 17 18  1  0
 19 20  1  0
 21 22  1  0
M  CHG  1   6  -1
M  END
>  <PDB_ID>  (834) 
pdb1p5j

>  <RESIDUE_NAME>  (834) 
ASP   PHE

>  <FRAG_NAME>  (834) 
ACET   MBZ

>  <FRAG_ATOM_NUM>  (834) 
fragi: 7  fragj: 15

>  <atom.prop.CHAIN_ID>  (834) 
A A A A A A A Z Z Z Z Z Z Z Z Z Z Z Z Z Z Z

>  <atom.prop.IS_HEAVY_ATOM>  (834) 
1 0 0 0 1 1 1 1 0 0 0 1 1 0 1 0 1 0 1 0 1 0

>  <DIFUSE_FUNC_ATOM>  (834) 
atom 6   atom 7   

>  <FINAL_SINGLE_POINT_ENERGY>  (834) 
0

>  <NONCOV_INTER_ENERGY_QM>  (834) 
0

>  <FF_Energy>  (834) 
-2.08

>  <QM_Energy>  (834) 
-7.6

>  <source>  (834) 
ACET_MBZ_00

>  <Index>  (834) 
30247

$$$$
ACET-pdb1p5u-C-ASP-92:MBZ-pdb1p5u-C-PHE-96
     RDKit          3D

 22 21  0  0  0  0  0  0  0  0999 V2000
   -0.9347    6.4859    3.6416 C   0  0  0  0  0  0  0  0  0  0  0  0
   -1.5304    6.5810    4.4361 H   0  0  0  0  0  0  0  0  0  0  0  0
   -1.3289    6.9701    2.8639 H   0  0  0  0  0  0  0  0  0  0  0  0
    0.0233    6.9485    3.8794 H   0  0  0  0  0  0  0  0  0  0  0  0
   -0.8530    4.9856    3.2813 C   0  0  0  0  0  0  0  0  0  0  0  0
    0.2211    4.4652    2.9246 O   0  0  0  0  0  1  0  0  0  0  0  0
   -1.8713    4.2429    3.3494 O   0  0  0  0  0  0  0  0  0  0  0  0
   -0.0377    2.9287    0.0175 C   0  0  0  0  0  0  0  0  0  0  0  0
   -0.3793    3.2122    0.9011 H   0  0  0  0  0  0  0  0  0  0  0  0
   -0.6395    3.2225   -0.7109 H   0  0  0  0  0  0  0  0  0  0  0  0
    0.9377    3.3901   -0.1372 H   0  0  0  0  0  0  0  0  0  0  0  0
   -0.0128    1.4126    0.0038 C   0  0  0  0  0  0  0  0  0  0  0  0
   -1.1971    0.7155    0.0209 C   0  0  0  0  0  0  0  0  0  0  0  0
   -2.0699    1.1906    0.0470 H   0  0  0  0  0  0  0  0  0  0  0  0
   -1.2002   -0.6933    0.0000 C   0  0  0  0  0  0  0  0  0  0  0  0
   -2.0761   -1.1814   -0.0048 H   0  0  0  0  0  0  0  0  0  0  0  0
    0.0072   -1.3967   -0.0114 C   0  0  0  0  0  0  0  0  0  0  0  0
   -0.0178   -2.4013   -0.0285 H   0  0  0  0  0  0  0  0  0  0  0  0
    1.2002   -0.7252   -0.0000 C   0  0  0  0  0  0  0  0  0  0  0  0
    2.0831   -1.2121    0.0193 H   0  0  0  0  0  0  0  0  0  0  0  0
    1.2027    0.6870   -0.0133 C   0  0  0  0  0  0  0  0  0  0  0  0
    2.0653    1.1768   -0.0353 H   0  0  0  0  0  0  0  0  0  0  0  0
  1  5  1  0
  5  6  1  0
  5  7  2  0
  1  2  1  0
  1  3  1  0
  1  4  1  0
  8 12  1  0
 12 13  2  0
 13 15  1  0
 15 17  2  0
 17 19  1  0
 19 21  2  0
 21 12  1  0
  8  9  1  0
  8 10  1  0
  8 11  1  0
 13 14  1  0
 15 16  1  0
 17 18  1  0
 19 20  1  0
 21 22  1  0
M  CHG  1   6  -1
M  END
>  <PDB_ID>  (835) 
pdb1p5u

>  <RESIDUE_NAME>  (835) 
ASP   PHE

>  <FRAG_NAME>  (835) 
ACET   MBZ

>  <FRAG_ATOM_NUM>  (835) 
fragi: 7  fragj: 15

>  <atom.prop.CHAIN_ID>  (835) 
A A A A A A A Z Z Z Z Z Z Z Z Z Z Z Z Z Z Z

>  <atom.prop.IS_HEAVY_ATOM>  (835) 
1 0 0 0 1 1 1 1 0 0 0 1 1 0 1 0 1 0 1 0 1 0

>  <DIFUSE_FUNC_ATOM>  (835) 
atom 6   atom 7   

>  <FINAL_SINGLE_POINT_ENERGY>  (835) 
0

>  <NONCOV_INTER_ENERGY_QM>  (835) 
0

>  <FF_Energy>  (835) 
-0.22

>  <QM_Energy>  (835) 
-5.58

>  <source>  (835) 
ACET_MBZ_00

>  <Index>  (835) 
30258

$$$$
ACET-pdb1p7o-B-ASP-99:MBZ-pdb1p7o-B-PHE-5
     RDKit          3D

 22 21  0  0  0  0  0  0  0  0999 V2000
   -3.2568    1.8257   -2.4311 C   0  0  0  0  0  0  0  0  0  0  0  0
   -3.9842    2.4168   -2.7551 H   0  0  0  0  0  0  0  0  0  0  0  0
   -3.1807    1.8691   -1.4437 H   0  0  0  0  0  0  0  0  0  0  0  0
   -3.5108    0.8014   -2.7040 H   0  0  0  0  0  0  0  0  0  0  0  0
   -1.9418    2.2866   -3.0442 C   0  0  0  0  0  0  0  0  0  0  0  0
   -1.2537    1.4524   -3.6672 O   0  0  0  0  0  1  0  0  0  0  0  0
   -1.5963    3.4771   -2.9004 O   0  0  0  0  0  0  0  0  0  0  0  0
    0.0039    2.9100   -0.0159 C   0  0  0  0  0  0  0  0  0  0  0  0
   -0.2553    3.2078   -0.9213 H   0  0  0  0  0  0  0  0  0  0  0  0
    0.9144    3.2147    0.2172 H   0  0  0  0  0  0  0  0  0  0  0  0
   -0.6888    3.3635    0.6930 H   0  0  0  0  0  0  0  0  0  0  0  0
   -0.0014    1.4023   -0.0005 C   0  0  0  0  0  0  0  0  0  0  0  0
   -1.1933    0.6938   -0.0001 C   0  0  0  0  0  0  0  0  0  0  0  0
   -2.0626    1.1853   -0.0010 H   0  0  0  0  0  0  0  0  0  0  0  0
   -1.1996   -0.6930   -0.0000 C   0  0  0  0  0  0  0  0  0  0  0  0
   -2.0779   -1.1865    0.0012 H   0  0  0  0  0  0  0  0  0  0  0  0
   -0.0007   -1.3940    0.0005 C   0  0  0  0  0  0  0  0  0  0  0  0
   -0.0090   -2.3919    0.0011 H   0  0  0  0  0  0  0  0  0  0  0  0
    1.1996   -0.7015    0.0000 C   0  0  0  0  0  0  0  0  0  0  0  0
    2.0805   -1.1974    0.0016 H   0  0  0  0  0  0  0  0  0  0  0  0
    1.1954    0.6924    0.0001 C   0  0  0  0  0  0  0  0  0  0  0  0
    2.0639    1.1876   -0.0002 H   0  0  0  0  0  0  0  0  0  0  0  0
  1  5  1  0
  5  6  1  0
  5  7  2  0
  1  2  1  0
  1  3  1  0
  1  4  1  0
  8 12  1  0
 12 13  2  0
 13 15  1  0
 15 17  2  0
 17 19  1  0
 19 21  2  0
 21 12  1  0
  8  9  1  0
  8 10  1  0
  8 11  1  0
 13 14  1  0
 15 16  1  0
 17 18  1  0
 19 20  1  0
 21 22  1  0
M  CHG  1   6  -1
M  END
>  <PDB_ID>  (836) 
pdb1p7o

>  <RESIDUE_NAME>  (836) 
ASP   PHE

>  <FRAG_NAME>  (836) 
ACET   MBZ

>  <FRAG_ATOM_NUM>  (836) 
fragi: 7  fragj: 15

>  <atom.prop.CHAIN_ID>  (836) 
A A A A A A A Z Z Z Z Z Z Z Z Z Z Z Z Z Z Z

>  <atom.prop.IS_HEAVY_ATOM>  (836) 
1 0 0 0 1 1 1 1 0 0 0 1 1 0 1 0 1 0 1 0 1 0

>  <DIFUSE_FUNC_ATOM>  (836) 
atom 6   atom 7   

>  <FINAL_SINGLE_POINT_ENERGY>  (836) 
0

>  <NONCOV_INTER_ENERGY_QM>  (836) 
0

>  <FF_Energy>  (836) 
2.42

>  <QM_Energy>  (836) 
-3.71

>  <source>  (836) 
ACET_MBZ_00

>  <Index>  (836) 
30309

$$$$
ACET-pdb1p7o-C-ASP-99:MBZ-pdb1p7o-C-PHE-5
     RDKit          3D

 22 21  0  0  0  0  0  0  0  0999 V2000
   -3.2691    2.2502   -2.5558 C   0  0  0  0  0  0  0  0  0  0  0  0
   -3.9339    2.8575   -2.9664 H   0  0  0  0  0  0  0  0  0  0  0  0
   -3.2786    2.3249   -1.5701 H   0  0  0  0  0  0  0  0  0  0  0  0
   -3.5345    1.2270   -2.8215 H   0  0  0  0  0  0  0  0  0  0  0  0
   -1.8791    2.6364   -3.0614 C   0  0  0  0  0  0  0  0  0  0  0  0
   -1.2866    1.8266   -3.8038 O   0  0  0  0  0  1  0  0  0  0  0  0
   -1.3790    3.7330   -2.7276 O   0  0  0  0  0  0  0  0  0  0  0  0
    0.0175    2.9236   -0.0503 C   0  0  0  0  0  0  0  0  0  0  0  0
   -0.1964    3.1988   -0.9762 H   0  0  0  0  0  0  0  0  0  0  0  0
    0.9227    3.2246    0.2129 H   0  0  0  0  0  0  0  0  0  0  0  0
   -0.6994    3.4054    0.6145 H   0  0  0  0  0  0  0  0  0  0  0  0
    0.0016    1.4075   -0.0027 C   0  0  0  0  0  0  0  0  0  0  0  0
   -1.1961    0.7001    0.0004 C   0  0  0  0  0  0  0  0  0  0  0  0
   -2.0630    1.1865    0.0017 H   0  0  0  0  0  0  0  0  0  0  0  0
   -1.2008   -0.6996   -0.0000 C   0  0  0  0  0  0  0  0  0  0  0  0
   -2.0792   -1.1886   -0.0007 H   0  0  0  0  0  0  0  0  0  0  0  0
   -0.0010   -1.3988    0.0018 C   0  0  0  0  0  0  0  0  0  0  0  0
   -0.0059   -2.3960    0.0034 H   0  0  0  0  0  0  0  0  0  0  0  0
    1.2008   -0.7016    0.0000 C   0  0  0  0  0  0  0  0  0  0  0  0
    2.0817   -1.1970   -0.0004 H   0  0  0  0  0  0  0  0  0  0  0  0
    1.1954    0.6924    0.0005 C   0  0  0  0  0  0  0  0  0  0  0  0
    2.0667    1.1868    0.0030 H   0  0  0  0  0  0  0  0  0  0  0  0
  1  5  1  0
  5  6  1  0
  5  7  2  0
  1  2  1  0
  1  3  1  0
  1  4  1  0
  8 12  1  0
 12 13  2  0
 13 15  1  0
 15 17  2  0
 17 19  1  0
 19 21  2  0
 21 12  1  0
  8  9  1  0
  8 10  1  0
  8 11  1  0
 13 14  1  0
 15 16  1  0
 17 18  1  0
 19 20  1  0
 21 22  1  0
M  CHG  1   6  -1
M  END
>  <PDB_ID>  (837) 
pdb1p7o

>  <RESIDUE_NAME>  (837) 
ASP   PHE

>  <FRAG_NAME>  (837) 
ACET   MBZ

>  <FRAG_ATOM_NUM>  (837) 
fragi: 7  fragj: 15

>  <atom.prop.CHAIN_ID>  (837) 
A A A A A A A Z Z Z Z Z Z Z Z Z Z Z Z Z Z Z

>  <atom.prop.IS_HEAVY_ATOM>  (837) 
1 0 0 0 1 1 1 1 0 0 0 1 1 0 1 0 1 0 1 0 1 0

>  <DIFUSE_FUNC_ATOM>  (837) 
atom 6   atom 7   

>  <FINAL_SINGLE_POINT_ENERGY>  (837) 
0

>  <NONCOV_INTER_ENERGY_QM>  (837) 
0

>  <FF_Energy>  (837) 
2.35

>  <QM_Energy>  (837) 
-4.71

>  <source>  (837) 
ACET_MBZ_00

>  <Index>  (837) 
30310

$$$$
ACET-pdb1p7o-E-ASP-99:MBZ-pdb1p7o-E-PHE-5
     RDKit          3D

 22 21  0  0  0  0  0  0  0  0999 V2000
   -3.2855    1.7940   -2.3777 C   0  0  0  0  0  0  0  0  0  0  0  0
   -4.0407    2.3687   -2.6677 H   0  0  0  0  0  0  0  0  0  0  0  0
   -3.1635    1.8436   -1.3951 H   0  0  0  0  0  0  0  0  0  0  0  0
   -3.5262    0.7630   -2.6372 H   0  0  0  0  0  0  0  0  0  0  0  0
   -2.0137    2.2834   -3.0533 C   0  0  0  0  0  0  0  0  0  0  0  0
   -1.3563    1.4681   -3.7329 O   0  0  0  0  0  1  0  0  0  0  0  0
   -1.6713    3.4767   -2.9000 O   0  0  0  0  0  0  0  0  0  0  0  0
    0.0052    2.9042   -0.0069 C   0  0  0  0  0  0  0  0  0  0  0  0
   -0.2697    3.2098   -0.9058 H   0  0  0  0  0  0  0  0  0  0  0  0
    0.9198    3.2098    0.2131 H   0  0  0  0  0  0  0  0  0  0  0  0
   -0.6750    3.3535    0.7166 H   0  0  0  0  0  0  0  0  0  0  0  0
   -0.0002    1.4014   -0.0013 C   0  0  0  0  0  0  0  0  0  0  0  0
   -1.1898    0.6953   -0.0001 C   0  0  0  0  0  0  0  0  0  0  0  0
   -2.0598    1.1857   -0.0002 H   0  0  0  0  0  0  0  0  0  0  0  0
   -1.1958   -0.6915    0.0000 C   0  0  0  0  0  0  0  0  0  0  0  0
   -2.0763   -1.1836    0.0008 H   0  0  0  0  0  0  0  0  0  0  0  0
   -0.0016   -1.3909    0.0013 C   0  0  0  0  0  0  0  0  0  0  0  0
   -0.0115   -2.3913    0.0027 H   0  0  0  0  0  0  0  0  0  0  0  0
    1.1958   -0.7035   -0.0000 C   0  0  0  0  0  0  0  0  0  0  0  0
    2.0779   -1.1991    0.0004 H   0  0  0  0  0  0  0  0  0  0  0  0
    1.1916    0.6893    0.0002 C   0  0  0  0  0  0  0  0  0  0  0  0
    2.0632    1.1834    0.0004 H   0  0  0  0  0  0  0  0  0  0  0  0
  1  5  1  0
  5  6  1  0
  5  7  2  0
  1  2  1  0
  1  3  1  0
  1  4  1  0
  8 12  1  0
 12 13  2  0
 13 15  1  0
 15 17  2  0
 17 19  1  0
 19 21  2  0
 21 12  1  0
  8  9  1  0
  8 10  1  0
  8 11  1  0
 13 14  1  0
 15 16  1  0
 17 18  1  0
 19 20  1  0
 21 22  1  0
M  CHG  1   6  -1
M  END
>  <PDB_ID>  (838) 
pdb1p7o

>  <RESIDUE_NAME>  (838) 
ASP   PHE

>  <FRAG_NAME>  (838) 
ACET   MBZ

>  <FRAG_ATOM_NUM>  (838) 
fragi: 7  fragj: 15

>  <atom.prop.CHAIN_ID>  (838) 
A A A A A A A Z Z Z Z Z Z Z Z Z Z Z Z Z Z Z

>  <atom.prop.IS_HEAVY_ATOM>  (838) 
1 0 0 0 1 1 1 1 0 0 0 1 1 0 1 0 1 0 1 0 1 0

>  <DIFUSE_FUNC_ATOM>  (838) 
atom 6   atom 7   

>  <FINAL_SINGLE_POINT_ENERGY>  (838) 
0

>  <NONCOV_INTER_ENERGY_QM>  (838) 
0

>  <FF_Energy>  (838) 
2.74

>  <QM_Energy>  (838) 
-3.46

>  <source>  (838) 
ACET_MBZ_00

>  <Index>  (838) 
30312

$$$$
ACET-pdb2vrf-B-ASP-161:MBZ-pdb2vrf-B-PHE-196
     RDKit          3D

 22 21  0  0  0  0  0  0  0  0999 V2000
   -5.3826    3.7044    0.0914 C   0  0  0  0  0  0  0  0  0  0  0  0
   -6.2150    3.2377   -0.1982 H   0  0  0  0  0  0  0  0  0  0  0  0
   -5.5893    4.6483    0.3352 H   0  0  0  0  0  0  0  0  0  0  0  0
   -5.0154    3.2031    0.9869 H   0  0  0  0  0  0  0  0  0  0  0  0
   -4.3939    3.6977   -1.0524 C   0  0  0  0  0  0  0  0  0  0  0  0
   -3.1697    3.6139   -0.8181 O   0  0  0  0  0  1  0  0  0  0  0  0
   -4.8380    3.8183   -2.2212 O   0  0  0  0  0  0  0  0  0  0  0  0
   -0.0103    2.8909    0.0266 C   0  0  0  0  0  0  0  0  0  0  0  0
   -0.4476    3.2082   -0.8030 H   0  0  0  0  0  0  0  0  0  0  0  0
    0.9275    3.2046    0.0770 H   0  0  0  0  0  0  0  0  0  0  0  0
   -0.5501    3.3167    0.8724 H   0  0  0  0  0  0  0  0  0  0  0  0
   -0.0033    1.4027    0.0100 C   0  0  0  0  0  0  0  0  0  0  0  0
   -1.2135    0.6911    0.0054 C   0  0  0  0  0  0  0  0  0  0  0  0
   -2.0730    1.1853    0.0047 H   0  0  0  0  0  0  0  0  0  0  0  0
   -1.2131   -0.6965   -0.0000 C   0  0  0  0  0  0  0  0  0  0  0  0
   -2.0764   -1.2036    0.0132 H   0  0  0  0  0  0  0  0  0  0  0  0
    0.0132   -1.3952   -0.0223 C   0  0  0  0  0  0  0  0  0  0  0  0
    0.0015   -2.3929   -0.0549 H   0  0  0  0  0  0  0  0  0  0  0  0
    1.2131   -0.7006    0.0000 C   0  0  0  0  0  0  0  0  0  0  0  0
    2.0944   -1.1916    0.0130 H   0  0  0  0  0  0  0  0  0  0  0  0
    1.2036    0.6984    0.0069 C   0  0  0  0  0  0  0  0  0  0  0  0
    2.0668    1.1969    0.0084 H   0  0  0  0  0  0  0  0  0  0  0  0
  1  5  1  0
  5  6  1  0
  5  7  2  0
  1  2  1  0
  1  3  1  0
  1  4  1  0
  8 12  1  0
 12 13  2  0
 13 15  1  0
 15 17  2  0
 17 19  1  0
 19 21  2  0
 21 12  1  0
  8  9  1  0
  8 10  1  0
  8 11  1  0
 13 14  1  0
 15 16  1  0
 17 18  1  0
 19 20  1  0
 21 22  1  0
M  CHG  1   6  -1
M  END
>  <PDB_ID>  (839) 
pdb2vrf

>  <RESIDUE_NAME>  (839) 
ASP   PHE

>  <FRAG_NAME>  (839) 
ACET   MBZ

>  <FRAG_ATOM_NUM>  (839) 
fragi: 7  fragj: 15

>  <atom.prop.CHAIN_ID>  (839) 
A A A A A A A Z Z Z Z Z Z Z Z Z Z Z Z Z Z Z

>  <atom.prop.IS_HEAVY_ATOM>  (839) 
1 0 0 0 1 1 1 1 0 0 0 1 1 0 1 0 1 0 1 0 1 0

>  <DIFUSE_FUNC_ATOM>  (839) 
atom 6   atom 7   

>  <FINAL_SINGLE_POINT_ENERGY>  (839) 
0

>  <NONCOV_INTER_ENERGY_QM>  (839) 
0

>  <FF_Energy>  (839) 
-1.74

>  <QM_Energy>  (839) 
-6.78

>  <source>  (839) 
ACET_MBZ_00

>  <Index>  (839) 
30425

$$$$
ACET-pdb2vro-B-ASP-101:MBZ-pdb2vro-B-PHE-160
     RDKit          3D

 22 21  0  0  0  0  0  0  0  0999 V2000
   -4.7815    1.4480   -0.7750 C   0  0  0  0  0  0  0  0  0  0  0  0
   -4.1828    0.8634   -1.3124 H   0  0  0  0  0  0  0  0  0  0  0  0
   -5.6859    1.4886   -1.1837 H   0  0  0  0  0  0  0  0  0  0  0  0
   -4.8802    1.0055    0.2163 H   0  0  0  0  0  0  0  0  0  0  0  0
   -4.1944    2.8542   -0.7477 C   0  0  0  0  0  0  0  0  0  0  0  0
   -3.2914    3.1271    0.0770 O   0  0  0  0  0  1  0  0  0  0  0  0
   -4.6514    3.6967   -1.5462 O   0  0  0  0  0  0  0  0  0  0  0  0
    0.0166    2.9184    0.0150 C   0  0  0  0  0  0  0  0  0  0  0  0
    0.9524    3.2127    0.1432 H   0  0  0  0  0  0  0  0  0  0  0  0
   -0.5600    3.2211    0.7595 H   0  0  0  0  0  0  0  0  0  0  0  0
   -0.3555    3.3726   -0.9034 H   0  0  0  0  0  0  0  0  0  0  0  0
    0.0029    1.4119    0.0012 C   0  0  0  0  0  0  0  0  0  0  0  0
   -1.2067    0.6915   -0.0028 C   0  0  0  0  0  0  0  0  0  0  0  0
   -2.0703    1.1793   -0.0089 H   0  0  0  0  0  0  0  0  0  0  0  0
   -1.2136   -0.7152   -0.0000 C   0  0  0  0  0  0  0  0  0  0  0  0
   -2.0868   -1.2022   -0.0010 H   0  0  0  0  0  0  0  0  0  0  0  0
   -0.0052   -1.4075    0.0056 C   0  0  0  0  0  0  0  0  0  0  0  0
    0.0043   -2.4021    0.0131 H   0  0  0  0  0  0  0  0  0  0  0  0
    1.2136   -0.6948   -0.0000 C   0  0  0  0  0  0  0  0  0  0  0  0
    2.0894   -1.1905    0.0002 H   0  0  0  0  0  0  0  0  0  0  0  0
    1.2091    0.7141   -0.0040 C   0  0  0  0  0  0  0  0  0  0  0  0
    2.0718    1.2052   -0.0115 H   0  0  0  0  0  0  0  0  0  0  0  0
  1  5  1  0
  5  6  1  0
  5  7  2  0
  1  2  1  0
  1  3  1  0
  1  4  1  0
  8 12  1  0
 12 13  2  0
 13 15  1  0
 15 17  2  0
 17 19  1  0
 19 21  2  0
 21 12  1  0
  8  9  1  0
  8 10  1  0
  8 11  1  0
 13 14  1  0
 15 16  1  0
 17 18  1  0
 19 20  1  0
 21 22  1  0
M  CHG  1   6  -1
M  END
>  <PDB_ID>  (840) 
pdb2vro

>  <RESIDUE_NAME>  (840) 
ASP   PHE

>  <FRAG_NAME>  (840) 
ACET   MBZ

>  <FRAG_ATOM_NUM>  (840) 
fragi: 7  fragj: 15

>  <atom.prop.CHAIN_ID>  (840) 
A A A A A A A Z Z Z Z Z Z Z Z Z Z Z Z Z Z Z

>  <atom.prop.IS_HEAVY_ATOM>  (840) 
1 0 0 0 1 1 1 1 0 0 0 1 1 0 1 0 1 0 1 0 1 0

>  <DIFUSE_FUNC_ATOM>  (840) 
atom 6   atom 7   

>  <FINAL_SINGLE_POINT_ENERGY>  (840) 
0

>  <NONCOV_INTER_ENERGY_QM>  (840) 
0

>  <FF_Energy>  (840) 
-1.22

>  <QM_Energy>  (840) 
-7.84

>  <source>  (840) 
ACET_MBZ_00

>  <Index>  (840) 
30450

$$$$
ACET-pdb1pd5-K-ASP-197:MBZ-pdb1pd5-J-PHE-102
     RDKit          3D

 22 21  0  0  0  0  0  0  0  0999 V2000
    4.2439   -0.0599   -2.5705 C   0  0  0  0  0  0  0  0  0  0  0  0
    4.8425    0.7379   -2.5970 H   0  0  0  0  0  0  0  0  0  0  0  0
    3.3020    0.2199   -2.7405 H   0  0  0  0  0  0  0  0  0  0  0  0
    4.5510   -0.7561   -3.3510 H   0  0  0  0  0  0  0  0  0  0  0  0
    4.3266   -0.6760   -1.2258 C   0  0  0  0  0  0  0  0  0  0  0  0
    4.5141    0.0947   -0.2247 O   0  0  0  0  0  1  0  0  0  0  0  0
    4.2157   -1.9429   -1.0921 O   0  0  0  0  0  0  0  0  0  0  0  0
   -0.0097    2.9106    0.0646 C   0  0  0  0  0  0  0  0  0  0  0  0
   -0.8399    3.2383   -0.3391 H   0  0  0  0  0  0  0  0  0  0  0  0
    0.7922    3.2532   -0.3824 H   0  0  0  0  0  0  0  0  0  0  0  0
    0.0139    3.2823    1.0890 H   0  0  0  0  0  0  0  0  0  0  0  0
    0.0017    1.4018   -0.0123 C   0  0  0  0  0  0  0  0  0  0  0  0
   -1.2013    0.6749   -0.0026 C   0  0  0  0  0  0  0  0  0  0  0  0
   -2.0694    1.1747    0.0016 H   0  0  0  0  0  0  0  0  0  0  0  0
   -1.2260   -0.7204   -0.0000 C   0  0  0  0  0  0  0  0  0  0  0  0
   -2.0863   -1.2113    0.0143 H   0  0  0  0  0  0  0  0  0  0  0  0
   -0.0013   -1.4024   -0.0159 C   0  0  0  0  0  0  0  0  0  0  0  0
    0.0254   -2.3913   -0.0384 H   0  0  0  0  0  0  0  0  0  0  0  0
    1.2260   -0.6646   -0.0000 C   0  0  0  0  0  0  0  0  0  0  0  0
    2.0977   -1.1706   -0.0100 H   0  0  0  0  0  0  0  0  0  0  0  0
    1.2009    0.7106    0.0309 C   0  0  0  0  0  0  0  0  0  0  0  0
    2.0620    1.2241    0.0846 H   0  0  0  0  0  0  0  0  0  0  0  0
  1  5  1  0
  5  6  1  0
  5  7  2  0
  1  2  1  0
  1  3  1  0
  1  4  1  0
  8 12  1  0
 12 13  2  0
 13 15  1  0
 15 17  2  0
 17 19  1  0
 19 21  2  0
 21 12  1  0
  8  9  1  0
  8 10  1  0
  8 11  1  0
 13 14  1  0
 15 16  1  0
 17 18  1  0
 19 20  1  0
 21 22  1  0
M  CHG  1   6  -1
M  END
>  <PDB_ID>  (841) 
pdb1pd5

>  <RESIDUE_NAME>  (841) 
ASP   PHE

>  <FRAG_NAME>  (841) 
ACET   MBZ

>  <FRAG_ATOM_NUM>  (841) 
fragi: 7  fragj: 15

>  <atom.prop.CHAIN_ID>  (841) 
A A A A A A A Z Z Z Z Z Z Z Z Z Z Z Z Z Z Z

>  <atom.prop.IS_HEAVY_ATOM>  (841) 
1 0 0 0 1 1 1 1 0 0 0 1 1 0 1 0 1 0 1 0 1 0

>  <DIFUSE_FUNC_ATOM>  (841) 
atom 6   atom 7   

>  <FINAL_SINGLE_POINT_ENERGY>  (841) 
0

>  <NONCOV_INTER_ENERGY_QM>  (841) 
0

>  <FF_Energy>  (841) 
-2.84

>  <QM_Energy>  (841) 
-8.1

>  <source>  (841) 
ACET_MBZ_00

>  <Index>  (841) 
30545

$$$$
ACET-pdb1pdy-A-ASP-50:MBZ-pdb1pdy-A-PHE-62
     RDKit          3D

 22 21  0  0  0  0  0  0  0  0999 V2000
    5.0099    3.6921   -2.2697 C   0  0  0  0  0  0  0  0  0  0  0  0
    5.2704    2.8022   -2.6255 H   0  0  0  0  0  0  0  0  0  0  0  0
    5.4421    3.8569   -1.3915 H   0  0  0  0  0  0  0  0  0  0  0  0
    5.3645    4.4505   -2.9676 H   0  0  0  0  0  0  0  0  0  0  0  0
    3.5056    3.7244   -2.0885 C   0  0  0  0  0  0  0  0  0  0  0  0
    2.8647    4.7191   -2.4892 O   0  0  0  0  0  1  0  0  0  0  0  0
    2.9594    2.7445   -1.5484 O   0  0  0  0  0  0  0  0  0  0  0  0
    0.0004    2.9009   -0.0463 C   0  0  0  0  0  0  0  0  0  0  0  0
    0.9382    3.2102   -0.0279 H   0  0  0  0  0  0  0  0  0  0  0  0
   -0.5064    3.2328    0.7329 H   0  0  0  0  0  0  0  0  0  0  0  0
   -0.4659    3.3088   -0.9432 H   0  0  0  0  0  0  0  0  0  0  0  0
    0.0004    1.4026   -0.0009 C   0  0  0  0  0  0  0  0  0  0  0  0
   -1.1970    0.6962    0.0020 C   0  0  0  0  0  0  0  0  0  0  0  0
   -2.0633    1.1856    0.0039 H   0  0  0  0  0  0  0  0  0  0  0  0
   -1.2015   -0.6971    0.0000 C   0  0  0  0  0  0  0  0  0  0  0  0
   -2.0793   -1.1888    0.0010 H   0  0  0  0  0  0  0  0  0  0  0  0
   -0.0015   -1.3925   -0.0013 C   0  0  0  0  0  0  0  0  0  0  0  0
   -0.0070   -2.3930   -0.0038 H   0  0  0  0  0  0  0  0  0  0  0  0
    1.2015   -0.7002   -0.0000 C   0  0  0  0  0  0  0  0  0  0  0  0
    2.0810   -1.1986    0.0023 H   0  0  0  0  0  0  0  0  0  0  0  0
    1.1981    0.6911    0.0002 C   0  0  0  0  0  0  0  0  0  0  0  0
    2.0661    1.1869    0.0004 H   0  0  0  0  0  0  0  0  0  0  0  0
  1  5  1  0
  5  6  1  0
  5  7  2  0
  1  2  1  0
  1  3  1  0
  1  4  1  0
  8 12  1  0
 12 13  2  0
 13 15  1  0
 15 17  2  0
 17 19  1  0
 19 21  2  0
 21 12  1  0
  8  9  1  0
  8 10  1  0
  8 11  1  0
 13 14  1  0
 15 16  1  0
 17 18  1  0
 19 20  1  0
 21 22  1  0
M  CHG  1   6  -1
M  END
>  <PDB_ID>  (842) 
pdb1pdy

>  <RESIDUE_NAME>  (842) 
ASP   PHE

>  <FRAG_NAME>  (842) 
ACET   MBZ

>  <FRAG_ATOM_NUM>  (842) 
fragi: 7  fragj: 15

>  <atom.prop.CHAIN_ID>  (842) 
A A A A A A A Z Z Z Z Z Z Z Z Z Z Z Z Z Z Z

>  <atom.prop.IS_HEAVY_ATOM>  (842) 
1 0 0 0 1 1 1 1 0 0 0 1 1 0 1 0 1 0 1 0 1 0

>  <DIFUSE_FUNC_ATOM>  (842) 
atom 6   atom 7   

>  <FINAL_SINGLE_POINT_ENERGY>  (842) 
0

>  <NONCOV_INTER_ENERGY_QM>  (842) 
0

>  <FF_Energy>  (842) 
-0.7

>  <QM_Energy>  (842) 
-7.38

>  <source>  (842) 
ACET_MBZ_00

>  <Index>  (842) 
30559

$$$$
ACET-pdb2vut-A-GLU-135:MBZ-pdb2vut-A-PHE-147
     RDKit          3D

 22 21  0  0  0  0  0  0  0  0999 V2000
   -0.9273    0.2105    3.1372 C   0  0  0  0  0  0  0  0  0  0  0  0
   -0.3440   -0.5355    3.4059 H   0  0  0  0  0  0  0  0  0  0  0  0
   -1.0419    0.2560    2.1606 H   0  0  0  0  0  0  0  0  0  0  0  0
   -1.9080    0.0475    3.5840 H   0  0  0  0  0  0  0  0  0  0  0  0
   -0.2528    1.5067    3.5830 C   0  0  0  0  0  0  0  0  0  0  0  0
   -0.9335    2.5458    3.6833 O   0  0  0  0  0  1  0  0  0  0  0  0
    0.9714    1.4849    3.8128 O   0  0  0  0  0  0  0  0  0  0  0  0
   -0.0057    2.8807   -0.1969 C   0  0  0  0  0  0  0  0  0  0  0  0
    0.8595    3.2374    0.1113 H   0  0  0  0  0  0  0  0  0  0  0  0
   -0.7617    3.2609    0.3073 H   0  0  0  0  0  0  0  0  0  0  0  0
   -0.1281    3.1713   -1.2403 H   0  0  0  0  0  0  0  0  0  0  0  0
   -0.0036    1.4003   -0.0026 C   0  0  0  0  0  0  0  0  0  0  0  0
   -1.1986    0.6917    0.0028 C   0  0  0  0  0  0  0  0  0  0  0  0
   -2.0655    1.1834    0.0073 H   0  0  0  0  0  0  0  0  0  0  0  0
   -1.2030   -0.6953   -0.0000 C   0  0  0  0  0  0  0  0  0  0  0  0
   -2.0764   -1.1931    0.0034 H   0  0  0  0  0  0  0  0  0  0  0  0
    0.0051   -1.3944   -0.0054 C   0  0  0  0  0  0  0  0  0  0  0  0
   -0.0020   -2.3916   -0.0132 H   0  0  0  0  0  0  0  0  0  0  0  0
    1.2030   -0.6967    0.0000 C   0  0  0  0  0  0  0  0  0  0  0  0
    2.0856   -1.1924    0.0015 H   0  0  0  0  0  0  0  0  0  0  0  0
    1.1972    0.6944    0.0052 C   0  0  0  0  0  0  0  0  0  0  0  0
    2.0626    1.1931    0.0136 H   0  0  0  0  0  0  0  0  0  0  0  0
  1  5  1  0
  5  6  1  0
  5  7  2  0
  1  2  1  0
  1  3  1  0
  1  4  1  0
  8 12  1  0
 12 13  2  0
 13 15  1  0
 15 17  2  0
 17 19  1  0
 19 21  2  0
 21 12  1  0
  8  9  1  0
  8 10  1  0
  8 11  1  0
 13 14  1  0
 15 16  1  0
 17 18  1  0
 19 20  1  0
 21 22  1  0
M  CHG  1   6  -1
M  END
>  <PDB_ID>  (843) 
pdb2vut

>  <RESIDUE_NAME>  (843) 
GLU   PHE

>  <FRAG_NAME>  (843) 
ACET   MBZ

>  <FRAG_ATOM_NUM>  (843) 
fragi: 7  fragj: 15

>  <atom.prop.CHAIN_ID>  (843) 
A A A A A A A Z Z Z Z Z Z Z Z Z Z Z Z Z Z Z

>  <atom.prop.IS_HEAVY_ATOM>  (843) 
1 0 0 0 1 1 1 1 0 0 0 1 1 0 1 0 1 0 1 0 1 0

>  <DIFUSE_FUNC_ATOM>  (843) 
atom 6   atom 7   

>  <FINAL_SINGLE_POINT_ENERGY>  (843) 
0

>  <NONCOV_INTER_ENERGY_QM>  (843) 
0

>  <FF_Energy>  (843) 
8.58

>  <QM_Energy>  (843) 
0.79

>  <source>  (843) 
ACET_MBZ_00

>  <Index>  (843) 
30588

$$$$
ACET-pdb2vut-C-GLU-135:MBZ-pdb2vut-C-PHE-147
     RDKit          3D

 22 21  0  0  0  0  0  0  0  0999 V2000
   -0.8785    0.4649    3.2460 C   0  0  0  0  0  0  0  0  0  0  0  0
   -0.4210   -0.3725    3.4869 H   0  0  0  0  0  0  0  0  0  0  0  0
   -1.0177    0.5427    2.2746 H   0  0  0  0  0  0  0  0  0  0  0  0
   -1.8556    0.4659    3.7291 H   0  0  0  0  0  0  0  0  0  0  0  0
    0.0054    1.6162    3.6795 C   0  0  0  0  0  0  0  0  0  0  0  0
   -0.5194    2.7252    3.9003 O   0  0  0  0  0  1  0  0  0  0  0  0
    1.2325    1.4166    3.7816 O   0  0  0  0  0  0  0  0  0  0  0  0
   -0.0012    2.8998   -0.1213 C   0  0  0  0  0  0  0  0  0  0  0  0
    0.8657    3.2370    0.1978 H   0  0  0  0  0  0  0  0  0  0  0  0
   -0.7539    3.2534    0.4056 H   0  0  0  0  0  0  0  0  0  0  0  0
   -0.1294    3.2386   -1.1494 H   0  0  0  0  0  0  0  0  0  0  0  0
   -0.0010    1.4074   -0.0013 C   0  0  0  0  0  0  0  0  0  0  0  0
   -1.1998    0.6996    0.0016 C   0  0  0  0  0  0  0  0  0  0  0  0
   -2.0665    1.1882    0.0041 H   0  0  0  0  0  0  0  0  0  0  0  0
   -1.2076   -0.6993    0.0000 C   0  0  0  0  0  0  0  0  0  0  0  0
   -2.0819   -1.1899    0.0026 H   0  0  0  0  0  0  0  0  0  0  0  0
   -0.0006   -1.4010   -0.0028 C   0  0  0  0  0  0  0  0  0  0  0  0
   -0.0063   -2.3974   -0.0073 H   0  0  0  0  0  0  0  0  0  0  0  0
    1.2076   -0.7038   -0.0000 C   0  0  0  0  0  0  0  0  0  0  0  0
    2.0863   -1.1984    0.0013 H   0  0  0  0  0  0  0  0  0  0  0  0
    1.2014    0.6971    0.0026 C   0  0  0  0  0  0  0  0  0  0  0  0
    2.0679    1.1917    0.0069 H   0  0  0  0  0  0  0  0  0  0  0  0
  1  5  1  0
  5  6  1  0
  5  7  2  0
  1  2  1  0
  1  3  1  0
  1  4  1  0
  8 12  1  0
 12 13  2  0
 13 15  1  0
 15 17  2  0
 17 19  1  0
 19 21  2  0
 21 12  1  0
  8  9  1  0
  8 10  1  0
  8 11  1  0
 13 14  1  0
 15 16  1  0
 17 18  1  0
 19 20  1  0
 21 22  1  0
M  CHG  1   6  -1
M  END
>  <PDB_ID>  (844) 
pdb2vut

>  <RESIDUE_NAME>  (844) 
GLU   PHE

>  <FRAG_NAME>  (844) 
ACET   MBZ

>  <FRAG_ATOM_NUM>  (844) 
fragi: 7  fragj: 15

>  <atom.prop.CHAIN_ID>  (844) 
A A A A A A A Z Z Z Z Z Z Z Z Z Z Z Z Z Z Z

>  <atom.prop.IS_HEAVY_ATOM>  (844) 
1 0 0 0 1 1 1 1 0 0 0 1 1 0 1 0 1 0 1 0 1 0

>  <DIFUSE_FUNC_ATOM>  (844) 
atom 6   atom 7   

>  <FINAL_SINGLE_POINT_ENERGY>  (844) 
0

>  <NONCOV_INTER_ENERGY_QM>  (844) 
0

>  <FF_Energy>  (844) 
4.69

>  <QM_Energy>  (844) 
-0.46

>  <source>  (844) 
ACET_MBZ_00

>  <Index>  (844) 
30594

$$$$
ACET-pdb2vut-H-GLU-135:MBZ-pdb2vut-H-PHE-147
     RDKit          3D

 22 21  0  0  0  0  0  0  0  0999 V2000
   -0.5002    0.2518    3.2162 C   0  0  0  0  0  0  0  0  0  0  0  0
    0.1364   -0.4451    3.4805 H   0  0  0  0  0  0  0  0  0  0  0  0
   -0.6804    0.2572    2.2529 H   0  0  0  0  0  0  0  0  0  0  0  0
   -1.4405    0.0593    3.7328 H   0  0  0  0  0  0  0  0  0  0  0  0
    0.1070    1.6001    3.5829 C   0  0  0  0  0  0  0  0  0  0  0  0
   -0.6651    2.5626    3.7552 O   0  0  0  0  0  1  0  0  0  0  0  0
    1.3478    1.7118    3.6877 O   0  0  0  0  0  0  0  0  0  0  0  0
   -0.0048    2.8975   -0.1209 C   0  0  0  0  0  0  0  0  0  0  0  0
    0.8833    3.2314    0.1473 H   0  0  0  0  0  0  0  0  0  0  0  0
   -0.7204    3.2502    0.4585 H   0  0  0  0  0  0  0  0  0  0  0  0
   -0.1979    3.2374   -1.1383 H   0  0  0  0  0  0  0  0  0  0  0  0
    0.0006    1.4063   -0.0007 C   0  0  0  0  0  0  0  0  0  0  0  0
   -1.1998    0.6928    0.0007 C   0  0  0  0  0  0  0  0  0  0  0  0
   -2.0659    1.1844    0.0011 H   0  0  0  0  0  0  0  0  0  0  0  0
   -1.2092   -0.7019   -0.0000 C   0  0  0  0  0  0  0  0  0  0  0  0
   -2.0828   -1.1938    0.0035 H   0  0  0  0  0  0  0  0  0  0  0  0
   -0.0023   -1.3997   -0.0032 C   0  0  0  0  0  0  0  0  0  0  0  0
   -0.0029   -2.3959   -0.0084 H   0  0  0  0  0  0  0  0  0  0  0  0
    1.2092   -0.6979    0.0000 C   0  0  0  0  0  0  0  0  0  0  0  0
    2.0857   -1.1946    0.0017 H   0  0  0  0  0  0  0  0  0  0  0  0
    1.2015    0.7004    0.0031 C   0  0  0  0  0  0  0  0  0  0  0  0
    2.0675    1.1957    0.0073 H   0  0  0  0  0  0  0  0  0  0  0  0
  1  5  1  0
  5  6  1  0
  5  7  2  0
  1  2  1  0
  1  3  1  0
  1  4  1  0
  8 12  1  0
 12 13  2  0
 13 15  1  0
 15 17  2  0
 17 19  1  0
 19 21  2  0
 21 12  1  0
  8  9  1  0
  8 10  1  0
  8 11  1  0
 13 14  1  0
 15 16  1  0
 17 18  1  0
 19 20  1  0
 21 22  1  0
M  CHG  1   6  -1
M  END
>  <PDB_ID>  (845) 
pdb2vut

>  <RESIDUE_NAME>  (845) 
GLU   PHE

>  <FRAG_NAME>  (845) 
ACET   MBZ

>  <FRAG_ATOM_NUM>  (845) 
fragi: 7  fragj: 15

>  <atom.prop.CHAIN_ID>  (845) 
A A A A A A A Z Z Z Z Z Z Z Z Z Z Z Z Z Z Z

>  <atom.prop.IS_HEAVY_ATOM>  (845) 
1 0 0 0 1 1 1 1 0 0 0 1 1 0 1 0 1 0 1 0 1 0

>  <DIFUSE_FUNC_ATOM>  (845) 
atom 6   atom 7   

>  <FINAL_SINGLE_POINT_ENERGY>  (845) 
0

>  <NONCOV_INTER_ENERGY_QM>  (845) 
0

>  <FF_Energy>  (845) 
4.06

>  <QM_Energy>  (845) 
-1.65

>  <source>  (845) 
ACET_MBZ_00

>  <Index>  (845) 
30609

$$$$
ACET-pdb1pgs-A-ASP-262:MBZ-pdb1pgs-A-PHE-222
     RDKit          3D

 22 21  0  0  0  0  0  0  0  0999 V2000
   -0.2564    0.2227    3.3032 C   0  0  0  0  0  0  0  0  0  0  0  0
    0.6249    0.0296    3.6699 H   0  0  0  0  0  0  0  0  0  0  0  0
   -0.3565   -0.0193    2.3664 H   0  0  0  0  0  0  0  0  0  0  0  0
   -0.9937   -0.3360    3.8798 H   0  0  0  0  0  0  0  0  0  0  0  0
   -0.5514    1.7036    3.4705 C   0  0  0  0  0  0  0  0  0  0  0  0
   -1.6166    2.1811    3.1999 O   0  0  0  0  0  1  0  0  0  0  0  0
    0.3698    2.3519    4.0789 O   0  0  0  0  0  0  0  0  0  0  0  0
   -0.0189    2.9258    0.0095 C   0  0  0  0  0  0  0  0  0  0  0  0
    0.8890    3.2420    0.2134 H   0  0  0  0  0  0  0  0  0  0  0  0
   -0.6774    3.2191    0.6769 H   0  0  0  0  0  0  0  0  0  0  0  0
   -0.3088    3.3588   -0.9478 H   0  0  0  0  0  0  0  0  0  0  0  0
   -0.0001    1.4091   -0.0003 C   0  0  0  0  0  0  0  0  0  0  0  0
   -1.2004    0.7004   -0.0186 C   0  0  0  0  0  0  0  0  0  0  0  0
   -2.0659    1.1919   -0.0462 H   0  0  0  0  0  0  0  0  0  0  0  0
   -1.2122   -0.6975    0.0000 C   0  0  0  0  0  0  0  0  0  0  0  0
   -2.0833   -1.1886    0.0094 H   0  0  0  0  0  0  0  0  0  0  0  0
   -0.0003   -1.3971    0.0069 C   0  0  0  0  0  0  0  0  0  0  0  0
   -0.0098   -2.3975    0.0165 H   0  0  0  0  0  0  0  0  0  0  0  0
    1.2122   -0.7084   -0.0000 C   0  0  0  0  0  0  0  0  0  0  0  0
    2.0862   -1.2018   -0.0114 H   0  0  0  0  0  0  0  0  0  0  0  0
    1.2008    0.6935    0.0120 C   0  0  0  0  0  0  0  0  0  0  0  0
    2.0691    1.1894    0.0282 H   0  0  0  0  0  0  0  0  0  0  0  0
  1  5  1  0
  5  6  1  0
  5  7  2  0
  1  2  1  0
  1  3  1  0
  1  4  1  0
  8 12  1  0
 12 13  2  0
 13 15  1  0
 15 17  2  0
 17 19  1  0
 19 21  2  0
 21 12  1  0
  8  9  1  0
  8 10  1  0
  8 11  1  0
 13 14  1  0
 15 16  1  0
 17 18  1  0
 19 20  1  0
 21 22  1  0
M  CHG  1   6  -1
M  END
>  <PDB_ID>  (846) 
pdb1pgs

>  <RESIDUE_NAME>  (846) 
ASP   PHE

>  <FRAG_NAME>  (846) 
ACET   MBZ

>  <FRAG_ATOM_NUM>  (846) 
fragi: 7  fragj: 15

>  <atom.prop.CHAIN_ID>  (846) 
A A A A A A A Z Z Z Z Z Z Z Z Z Z Z Z Z Z Z

>  <atom.prop.IS_HEAVY_ATOM>  (846) 
1 0 0 0 1 1 1 1 0 0 0 1 1 0 1 0 1 0 1 0 1 0

>  <DIFUSE_FUNC_ATOM>  (846) 
atom 6   atom 7   

>  <FINAL_SINGLE_POINT_ENERGY>  (846) 
0

>  <NONCOV_INTER_ENERGY_QM>  (846) 
0

>  <FF_Energy>  (846) 
1.23

>  <QM_Energy>  (846) 
-4.21

>  <source>  (846) 
ACET_MBZ_00

>  <Index>  (846) 
30628

$$$$
ACET-pdb1pgu-A-ASP-181:MBZ-pdb1pgu-A-PHE-208
     RDKit          3D

 22 21  0  0  0  0  0  0  0  0999 V2000
    4.4915    2.0222    2.8544 C   0  0  0  0  0  0  0  0  0  0  0  0
    5.4360    2.0818    3.1536 H   0  0  0  0  0  0  0  0  0  0  0  0
    4.0414    1.2423    3.2711 H   0  0  0  0  0  0  0  0  0  0  0  0
    3.9760    2.9251    3.1819 H   0  0  0  0  0  0  0  0  0  0  0  0
    4.4642    1.8582    1.3522 C   0  0  0  0  0  0  0  0  0  0  0  0
    3.5079    2.3691    0.7224 O   0  0  0  0  0  1  0  0  0  0  0  0
    5.3855    1.2121    0.8077 O   0  0  0  0  0  0  0  0  0  0  0  0
   -0.0017    2.8995    0.0151 C   0  0  0  0  0  0  0  0  0  0  0  0
   -0.7357    3.2144   -0.5705 H   0  0  0  0  0  0  0  0  0  0  0  0
    0.8775    3.2142   -0.3147 H   0  0  0  0  0  0  0  0  0  0  0  0
   -0.1582    3.3360    1.0016 H   0  0  0  0  0  0  0  0  0  0  0  0
    0.0005    1.4028    0.0005 C   0  0  0  0  0  0  0  0  0  0  0  0
   -1.1971    0.6947    0.0001 C   0  0  0  0  0  0  0  0  0  0  0  0
   -2.0641    1.1841   -0.0013 H   0  0  0  0  0  0  0  0  0  0  0  0
   -1.2042   -0.7006   -0.0000 C   0  0  0  0  0  0  0  0  0  0  0  0
   -2.0790   -1.1928    0.0014 H   0  0  0  0  0  0  0  0  0  0  0  0
    0.0009   -1.3973    0.0003 C   0  0  0  0  0  0  0  0  0  0  0  0
   -0.0008   -2.3946   -0.0002 H   0  0  0  0  0  0  0  0  0  0  0  0
    1.2042   -0.6967   -0.0000 C   0  0  0  0  0  0  0  0  0  0  0  0
    2.0851   -1.1920    0.0018 H   0  0  0  0  0  0  0  0  0  0  0  0
    1.1957    0.6970   -0.0009 C   0  0  0  0  0  0  0  0  0  0  0  0
    2.0645    1.1931   -0.0034 H   0  0  0  0  0  0  0  0  0  0  0  0
  1  5  1  0
  5  6  1  0
  5  7  2  0
  1  2  1  0
  1  3  1  0
  1  4  1  0
  8 12  1  0
 12 13  2  0
 13 15  1  0
 15 17  2  0
 17 19  1  0
 19 21  2  0
 21 12  1  0
  8  9  1  0
  8 10  1  0
  8 11  1  0
 13 14  1  0
 15 16  1  0
 17 18  1  0
 19 20  1  0
 21 22  1  0
M  CHG  1   6  -1
M  END
>  <PDB_ID>  (847) 
pdb1pgu

>  <RESIDUE_NAME>  (847) 
ASP   PHE

>  <FRAG_NAME>  (847) 
ACET   MBZ

>  <FRAG_ATOM_NUM>  (847) 
fragi: 7  fragj: 15

>  <atom.prop.CHAIN_ID>  (847) 
A A A A A A A Z Z Z Z Z Z Z Z Z Z Z Z Z Z Z

>  <atom.prop.IS_HEAVY_ATOM>  (847) 
1 0 0 0 1 1 1 1 0 0 0 1 1 0 1 0 1 0 1 0 1 0

>  <DIFUSE_FUNC_ATOM>  (847) 
atom 6   atom 7   

>  <FINAL_SINGLE_POINT_ENERGY>  (847) 
0

>  <NONCOV_INTER_ENERGY_QM>  (847) 
0

>  <FF_Energy>  (847) 
5.31

>  <QM_Energy>  (847) 
-7.21

>  <source>  (847) 
ACET_MBZ_00

>  <Index>  (847) 
30635

$$$$
ACET-pdb2vvl-A-GLU-145:MBZ-pdb2vvl-A-PHE-128
     RDKit          3D

 22 21  0  0  0  0  0  0  0  0999 V2000
    0.6543    1.2001   -3.5142 C   0  0  0  0  0  0  0  0  0  0  0  0
    0.7676    0.9083   -4.4437 H   0  0  0  0  0  0  0  0  0  0  0  0
    0.6065    0.4483   -2.8861 H   0  0  0  0  0  0  0  0  0  0  0  0
    1.5094    1.8197   -3.2438 H   0  0  0  0  0  0  0  0  0  0  0  0
   -0.6655    1.9545   -3.4269 C   0  0  0  0  0  0  0  0  0  0  0  0
   -0.6645    3.2021   -3.6043 O   0  0  0  0  0  1  0  0  0  0  0  0
   -1.7120    1.3052   -3.2082 O   0  0  0  0  0  0  0  0  0  0  0  0
    0.0250    2.9082   -0.0359 C   0  0  0  0  0  0  0  0  0  0  0  0
   -0.4175    3.1950   -0.8786 H   0  0  0  0  0  0  0  0  0  0  0  0
    0.9759    3.1981   -0.0279 H   0  0  0  0  0  0  0  0  0  0  0  0
   -0.4807    3.4065    0.7912 H   0  0  0  0  0  0  0  0  0  0  0  0
   -0.0002    1.4059    0.0109 C   0  0  0  0  0  0  0  0  0  0  0  0
   -1.2055    0.7003   -0.0071 C   0  0  0  0  0  0  0  0  0  0  0  0
   -2.0674    1.1879   -0.0265 H   0  0  0  0  0  0  0  0  0  0  0  0
   -1.2089   -0.7018   -0.0000 C   0  0  0  0  0  0  0  0  0  0  0  0
   -2.0800   -1.1953    0.0049 H   0  0  0  0  0  0  0  0  0  0  0  0
    0.0054   -1.3984    0.0013 C   0  0  0  0  0  0  0  0  0  0  0  0
    0.0027   -2.3949    0.0029 H   0  0  0  0  0  0  0  0  0  0  0  0
    1.2089   -0.6952   -0.0000 C   0  0  0  0  0  0  0  0  0  0  0  0
    2.0896   -1.1948    0.0042 H   0  0  0  0  0  0  0  0  0  0  0  0
    1.2003    0.6892   -0.0051 C   0  0  0  0  0  0  0  0  0  0  0  0
    2.0669    1.1923   -0.0215 H   0  0  0  0  0  0  0  0  0  0  0  0
  1  5  1  0
  5  6  1  0
  5  7  2  0
  1  2  1  0
  1  3  1  0
  1  4  1  0
  8 12  1  0
 12 13  2  0
 13 15  1  0
 15 17  2  0
 17 19  1  0
 19 21  2  0
 21 12  1  0
  8  9  1  0
  8 10  1  0
  8 11  1  0
 13 14  1  0
 15 16  1  0
 17 18  1  0
 19 20  1  0
 21 22  1  0
M  CHG  1   6  -1
M  END
>  <PDB_ID>  (848) 
pdb2vvl

>  <RESIDUE_NAME>  (848) 
GLU   PHE

>  <FRAG_NAME>  (848) 
ACET   MBZ

>  <FRAG_ATOM_NUM>  (848) 
fragi: 7  fragj: 15

>  <atom.prop.CHAIN_ID>  (848) 
A A A A A A A Z Z Z Z Z Z Z Z Z Z Z Z Z Z Z

>  <atom.prop.IS_HEAVY_ATOM>  (848) 
1 0 0 0 1 1 1 1 0 0 0 1 1 0 1 0 1 0 1 0 1 0

>  <DIFUSE_FUNC_ATOM>  (848) 
atom 6   atom 7   

>  <FINAL_SINGLE_POINT_ENERGY>  (848) 
0

>  <NONCOV_INTER_ENERGY_QM>  (848) 
0

>  <FF_Energy>  (848) 
0.04

>  <QM_Energy>  (848) 
-5.03

>  <source>  (848) 
ACET_MBZ_00

>  <Index>  (848) 
30648

$$$$
ACET-pdb1pbg-B-GLU-160:MBZ-pdb1pbg-B-PHE-117
     RDKit          3D

 22 21  0  0  0  0  0  0  0  0999 V2000
   -1.0383   -5.1742    0.1073 C   0  0  0  0  0  0  0  0  0  0  0  0
   -1.1808   -6.0935    0.4354 H   0  0  0  0  0  0  0  0  0  0  0  0
   -1.6046   -4.9751   -0.6753 H   0  0  0  0  0  0  0  0  0  0  0  0
   -1.3113   -4.4852    0.9065 H   0  0  0  0  0  0  0  0  0  0  0  0
    0.4270   -5.0773   -0.3538 C   0  0  0  0  0  0  0  0  0  0  0  0
    1.1126   -4.0614   -0.0927 O   0  0  0  0  0  1  0  0  0  0  0  0
    0.8927   -6.0409   -0.9932 O   0  0  0  0  0  0  0  0  0  0  0  0
    0.0116    2.9329   -0.0279 C   0  0  0  0  0  0  0  0  0  0  0  0
    0.4305    3.2142   -0.8791 H   0  0  0  0  0  0  0  0  0  0  0  0
    0.5381    3.2444    0.7496 H   0  0  0  0  0  0  0  0  0  0  0  0
   -0.9734    3.3963    0.0288 H   0  0  0  0  0  0  0  0  0  0  0  0
    0.0023    1.4102    0.0009 C   0  0  0  0  0  0  0  0  0  0  0  0
   -1.1966    0.6749    0.0013 C   0  0  0  0  0  0  0  0  0  0  0  0
   -2.0665    1.1673    0.0011 H   0  0  0  0  0  0  0  0  0  0  0  0
   -1.1993   -0.7120    0.0000 C   0  0  0  0  0  0  0  0  0  0  0  0
   -2.0765   -1.2059    0.0020 H   0  0  0  0  0  0  0  0  0  0  0  0
   -0.0052   -1.3908   -0.0021 C   0  0  0  0  0  0  0  0  0  0  0  0
    0.0041   -2.3946   -0.0056 H   0  0  0  0  0  0  0  0  0  0  0  0
    1.1993   -0.6916   -0.0000 C   0  0  0  0  0  0  0  0  0  0  0  0
    2.0804   -1.1874    0.0034 H   0  0  0  0  0  0  0  0  0  0  0  0
    1.1995    0.7092   -0.0001 C   0  0  0  0  0  0  0  0  0  0  0  0
    2.0669    1.1981   -0.0015 H   0  0  0  0  0  0  0  0  0  0  0  0
  1  5  1  0
  5  6  1  0
  5  7  2  0
  1  2  1  0
  1  3  1  0
  1  4  1  0
  8 12  1  0
 12 13  2  0
 13 15  1  0
 15 17  2  0
 17 19  1  0
 19 21  2  0
 21 12  1  0
  8  9  1  0
  8 10  1  0
  8 11  1  0
 13 14  1  0
 15 16  1  0
 17 18  1  0
 19 20  1  0
 21 22  1  0
M  CHG  1   6  -1
M  END
>  <PDB_ID>  (849) 
pdb1pbg

>  <RESIDUE_NAME>  (849) 
GLU   PHE

>  <FRAG_NAME>  (849) 
ACET   MBZ

>  <FRAG_ATOM_NUM>  (849) 
fragi: 7  fragj: 15

>  <atom.prop.CHAIN_ID>  (849) 
A A A A A A A Z Z Z Z Z Z Z Z Z Z Z Z Z Z Z

>  <atom.prop.IS_HEAVY_ATOM>  (849) 
1 0 0 0 1 1 1 1 0 0 0 1 1 0 1 0 1 0 1 0 1 0

>  <DIFUSE_FUNC_ATOM>  (849) 
atom 6   atom 7   

>  <FINAL_SINGLE_POINT_ENERGY>  (849) 
0

>  <NONCOV_INTER_ENERGY_QM>  (849) 
0

>  <FF_Energy>  (849) 
5.36

>  <QM_Energy>  (849) 
-5.0

>  <source>  (849) 
ACET_MBZ_00

>  <Index>  (849) 
30722

$$$$
ACET-pdb1pie-A-GLU-91:MBZ-pdb1pie-A-PHE-87
     RDKit          3D

 22 21  0  0  0  0  0  0  0  0999 V2000
   -3.3822    5.1099   -1.9031 C   0  0  0  0  0  0  0  0  0  0  0  0
   -3.6123    6.0056   -2.1989 H   0  0  0  0  0  0  0  0  0  0  0  0
   -4.0990    4.6417   -1.4455 H   0  0  0  0  0  0  0  0  0  0  0  0
   -3.1041    4.5268   -2.7810 H   0  0  0  0  0  0  0  0  0  0  0  0
   -2.2105    5.2048   -0.9736 C   0  0  0  0  0  0  0  0  0  0  0  0
   -1.0491    5.0856   -1.3581 O   0  0  0  0  0  1  0  0  0  0  0  0
   -2.5787    5.3660    0.2810 O   0  0  0  0  0  0  0  0  0  0  0  0
    0.0132    2.9623    0.0861 C   0  0  0  0  0  0  0  0  0  0  0  0
   -0.6933    3.2957   -0.5317 H   0  0  0  0  0  0  0  0  0  0  0  0
    0.9093    3.2713   -0.2196 H   0  0  0  0  0  0  0  0  0  0  0  0
   -0.1679    3.4320    1.0529 H   0  0  0  0  0  0  0  0  0  0  0  0
    0.0025    1.4224    0.0242 C   0  0  0  0  0  0  0  0  0  0  0  0
   -1.1970    0.6991    0.0039 C   0  0  0  0  0  0  0  0  0  0  0  0
   -2.0657    1.1914   -0.0095 H   0  0  0  0  0  0  0  0  0  0  0  0
   -1.2100   -0.6974   -0.0000 C   0  0  0  0  0  0  0  0  0  0  0  0
   -2.0858   -1.1867    0.0208 H   0  0  0  0  0  0  0  0  0  0  0  0
   -0.0039   -1.4045   -0.0311 C   0  0  0  0  0  0  0  0  0  0  0  0
   -0.0121   -2.3982   -0.0753 H   0  0  0  0  0  0  0  0  0  0  0  0
    1.2100   -0.7085   -0.0000 C   0  0  0  0  0  0  0  0  0  0  0  0
    2.0840   -1.2049    0.0214 H   0  0  0  0  0  0  0  0  0  0  0  0
    1.1984    0.6891    0.0030 C   0  0  0  0  0  0  0  0  0  0  0  0
    2.0720    1.1855   -0.0114 H   0  0  0  0  0  0  0  0  0  0  0  0
  1  5  1  0
  5  6  1  0
  5  7  2  0
  1  2  1  0
  1  3  1  0
  1  4  1  0
  8 12  1  0
 12 13  2  0
 13 15  1  0
 15 17  2  0
 17 19  1  0
 19 21  2  0
 21 12  1  0
  8  9  1  0
  8 10  1  0
  8 11  1  0
 13 14  1  0
 15 16  1  0
 17 18  1  0
 19 20  1  0
 21 22  1  0
M  CHG  1   6  -1
M  END
>  <PDB_ID>  (850) 
pdb1pie

>  <RESIDUE_NAME>  (850) 
GLU   PHE

>  <FRAG_NAME>  (850) 
ACET   MBZ

>  <FRAG_ATOM_NUM>  (850) 
fragi: 7  fragj: 15

>  <atom.prop.CHAIN_ID>  (850) 
A A A A A A A Z Z Z Z Z Z Z Z Z Z Z Z Z Z Z

>  <atom.prop.IS_HEAVY_ATOM>  (850) 
1 0 0 0 1 1 1 1 0 0 0 1 1 0 1 0 1 0 1 0 1 0

>  <DIFUSE_FUNC_ATOM>  (850) 
atom 6   atom 7   

>  <FINAL_SINGLE_POINT_ENERGY>  (850) 
0

>  <NONCOV_INTER_ENERGY_QM>  (850) 
0

>  <FF_Energy>  (850) 
7.86

>  <QM_Energy>  (850) 
-3.67

>  <source>  (850) 
ACET_MBZ_00

>  <Index>  (850) 
30734

$$$$
ACET-pdb2vyn-A-GLU-285:MBZ-pdb2vyn-A-PHE-282
     RDKit          3D

 22 21  0  0  0  0  0  0  0  0999 V2000
   -3.7334    2.9424   -0.4034 C   0  0  0  0  0  0  0  0  0  0  0  0
   -3.7723    3.1199   -1.3715 H   0  0  0  0  0  0  0  0  0  0  0  0
   -2.9288    2.4320   -0.1550 H   0  0  0  0  0  0  0  0  0  0  0  0
   -3.7181    3.8962    0.1242 H   0  0  0  0  0  0  0  0  0  0  0  0
   -4.9304    2.1103   -0.0433 C   0  0  0  0  0  0  0  0  0  0  0  0
   -5.7304    2.5413    0.8104 O   0  0  0  0  0  1  0  0  0  0  0  0
   -5.0671    1.0159   -0.6188 O   0  0  0  0  0  0  0  0  0  0  0  0
   -0.0028    2.8791   -0.0697 C   0  0  0  0  0  0  0  0  0  0  0  0
    0.8777    3.2119    0.2167 H   0  0  0  0  0  0  0  0  0  0  0  0
   -0.7310    3.2223    0.4955 H   0  0  0  0  0  0  0  0  0  0  0  0
   -0.1767    3.2389   -1.0837 H   0  0  0  0  0  0  0  0  0  0  0  0
    0.0011    1.3961    0.0077 C   0  0  0  0  0  0  0  0  0  0  0  0
   -1.2026    0.6935   -0.0161 C   0  0  0  0  0  0  0  0  0  0  0  0
   -2.0634    1.1888   -0.0462 H   0  0  0  0  0  0  0  0  0  0  0  0
   -1.2086   -0.6919    0.0000 C   0  0  0  0  0  0  0  0  0  0  0  0
   -2.0820   -1.1897    0.0017 H   0  0  0  0  0  0  0  0  0  0  0  0
   -0.0028   -1.3893    0.0155 C   0  0  0  0  0  0  0  0  0  0  0  0
   -0.0094   -2.3900    0.0374 H   0  0  0  0  0  0  0  0  0  0  0  0
    1.2086   -0.6997   -0.0000 C   0  0  0  0  0  0  0  0  0  0  0  0
    2.0829   -1.2015   -0.0044 H   0  0  0  0  0  0  0  0  0  0  0  0
    1.2043    0.6913   -0.0071 C   0  0  0  0  0  0  0  0  0  0  0  0
    2.0683    1.1896   -0.0243 H   0  0  0  0  0  0  0  0  0  0  0  0
  1  5  1  0
  5  6  1  0
  5  7  2  0
  1  2  1  0
  1  3  1  0
  1  4  1  0
  8 12  1  0
 12 13  2  0
 13 15  1  0
 15 17  2  0
 17 19  1  0
 19 21  2  0
 21 12  1  0
  8  9  1  0
  8 10  1  0
  8 11  1  0
 13 14  1  0
 15 16  1  0
 17 18  1  0
 19 20  1  0
 21 22  1  0
M  CHG  1   6  -1
M  END
>  <PDB_ID>  (851) 
pdb2vyn

>  <RESIDUE_NAME>  (851) 
GLU   PHE

>  <FRAG_NAME>  (851) 
ACET   MBZ

>  <FRAG_ATOM_NUM>  (851) 
fragi: 7  fragj: 15

>  <atom.prop.CHAIN_ID>  (851) 
A A A A A A A Z Z Z Z Z Z Z Z Z Z Z Z Z Z Z

>  <atom.prop.IS_HEAVY_ATOM>  (851) 
1 0 0 0 1 1 1 1 0 0 0 1 1 0 1 0 1 0 1 0 1 0

>  <DIFUSE_FUNC_ATOM>  (851) 
atom 6   atom 7   

>  <FINAL_SINGLE_POINT_ENERGY>  (851) 
0

>  <NONCOV_INTER_ENERGY_QM>  (851) 
0

>  <FF_Energy>  (851) 
25.57

>  <QM_Energy>  (851) 
-0.25

>  <source>  (851) 
ACET_MBZ_00

>  <Index>  (851) 
30819

$$$$
ACET-pdb1pku-B-GLU-129:MBZ-pdb1pku-B-PHE-8
     RDKit          3D

 22 21  0  0  0  0  0  0  0  0999 V2000
    3.3081    2.2248   -2.9702 C   0  0  0  0  0  0  0  0  0  0  0  0
    3.4439    1.2525   -2.8667 H   0  0  0  0  0  0  0  0  0  0  0  0
    3.7784    2.5732   -3.7660 H   0  0  0  0  0  0  0  0  0  0  0  0
    2.2410    2.4095   -3.0943 H   0  0  0  0  0  0  0  0  0  0  0  0
    3.9172    2.9012   -1.7497 C   0  0  0  0  0  0  0  0  0  0  0  0
    3.2445    2.9827   -0.6944 O   0  0  0  0  0  1  0  0  0  0  0  0
    5.0872    3.3366   -1.8441 O   0  0  0  0  0  0  0  0  0  0  0  0
    0.0043    2.9019   -0.0342 C   0  0  0  0  0  0  0  0  0  0  0  0
   -0.4614    3.1900   -0.8583 H   0  0  0  0  0  0  0  0  0  0  0  0
    0.9461    3.2044   -0.0308 H   0  0  0  0  0  0  0  0  0  0  0  0
   -0.4989    3.3657    0.8143 H   0  0  0  0  0  0  0  0  0  0  0  0
    0.0004    1.3986   -0.0010 C   0  0  0  0  0  0  0  0  0  0  0  0
   -1.1932    0.6937    0.0003 C   0  0  0  0  0  0  0  0  0  0  0  0
   -2.0602    1.1854    0.0000 H   0  0  0  0  0  0  0  0  0  0  0  0
   -1.1981   -0.6919   -0.0000 C   0  0  0  0  0  0  0  0  0  0  0  0
   -2.0783   -1.1856    0.0011 H   0  0  0  0  0  0  0  0  0  0  0  0
   -0.0033   -1.3881   -0.0005 C   0  0  0  0  0  0  0  0  0  0  0  0
   -0.0096   -2.3892   -0.0017 H   0  0  0  0  0  0  0  0  0  0  0  0
    1.1981   -0.7000    0.0000 C   0  0  0  0  0  0  0  0  0  0  0  0
    2.0773   -1.2005    0.0005 H   0  0  0  0  0  0  0  0  0  0  0  0
    1.1961    0.6877    0.0012 C   0  0  0  0  0  0  0  0  0  0  0  0
    2.0643    1.1844    0.0027 H   0  0  0  0  0  0  0  0  0  0  0  0
  1  5  1  0
  5  6  1  0
  5  7  2  0
  1  2  1  0
  1  3  1  0
  1  4  1  0
  8 12  1  0
 12 13  2  0
 13 15  1  0
 15 17  2  0
 17 19  1  0
 19 21  2  0
 21 12  1  0
  8  9  1  0
  8 10  1  0
  8 11  1  0
 13 14  1  0
 15 16  1  0
 17 18  1  0
 19 20  1  0
 21 22  1  0
M  CHG  1   6  -1
M  END
>  <PDB_ID>  (852) 
pdb1pku

>  <RESIDUE_NAME>  (852) 
GLU   PHE

>  <FRAG_NAME>  (852) 
ACET   MBZ

>  <FRAG_ATOM_NUM>  (852) 
fragi: 7  fragj: 15

>  <atom.prop.CHAIN_ID>  (852) 
A A A A A A A Z Z Z Z Z Z Z Z Z Z Z Z Z Z Z

>  <atom.prop.IS_HEAVY_ATOM>  (852) 
1 0 0 0 1 1 1 1 0 0 0 1 1 0 1 0 1 0 1 0 1 0

>  <DIFUSE_FUNC_ATOM>  (852) 
atom 6   atom 7   

>  <FINAL_SINGLE_POINT_ENERGY>  (852) 
0

>  <NONCOV_INTER_ENERGY_QM>  (852) 
0

>  <FF_Energy>  (852) 
-1.22

>  <QM_Energy>  (852) 
-8.19

>  <source>  (852) 
ACET_MBZ_00

>  <Index>  (852) 
30838

$$$$
ACET-pdb1pku-F-GLU-129:MBZ-pdb1pku-F-PHE-8
     RDKit          3D

 22 21  0  0  0  0  0  0  0  0999 V2000
    3.4118    1.9621   -2.8437 C   0  0  0  0  0  0  0  0  0  0  0  0
    3.4094    0.9959   -2.6848 H   0  0  0  0  0  0  0  0  0  0  0  0
    4.0102    2.2258   -3.5737 H   0  0  0  0  0  0  0  0  0  0  0  0
    2.3983    2.2700   -3.1007 H   0  0  0  0  0  0  0  0  0  0  0  0
    3.9168    2.6349   -1.5723 C   0  0  0  0  0  0  0  0  0  0  0  0
    3.1252    2.8296   -0.6335 O   0  0  0  0  0  1  0  0  0  0  0  0
    5.1146    2.9677   -1.5020 O   0  0  0  0  0  0  0  0  0  0  0  0
    0.0036    2.9231   -0.0657 C   0  0  0  0  0  0  0  0  0  0  0  0
   -0.4356    3.1883   -0.9097 H   0  0  0  0  0  0  0  0  0  0  0  0
    0.9447    3.2212   -0.0389 H   0  0  0  0  0  0  0  0  0  0  0  0
   -0.5267    3.4037    0.7563 H   0  0  0  0  0  0  0  0  0  0  0  0
   -0.0004    1.4049   -0.0015 C   0  0  0  0  0  0  0  0  0  0  0  0
   -1.1910    0.6941    0.0025 C   0  0  0  0  0  0  0  0  0  0  0  0
   -2.0608    1.1825    0.0063 H   0  0  0  0  0  0  0  0  0  0  0  0
   -1.1923   -0.6932    0.0000 C   0  0  0  0  0  0  0  0  0  0  0  0
   -2.0745   -1.1866    0.0012 H   0  0  0  0  0  0  0  0  0  0  0  0
   -0.0012   -1.3915   -0.0017 C   0  0  0  0  0  0  0  0  0  0  0  0
   -0.0116   -2.3933   -0.0046 H   0  0  0  0  0  0  0  0  0  0  0  0
    1.1923   -0.7058   -0.0000 C   0  0  0  0  0  0  0  0  0  0  0  0
    2.0763   -1.1998    0.0024 H   0  0  0  0  0  0  0  0  0  0  0  0
    1.1926    0.6915    0.0007 C   0  0  0  0  0  0  0  0  0  0  0  0
    2.0639    1.1811    0.0025 H   0  0  0  0  0  0  0  0  0  0  0  0
  1  5  1  0
  5  6  1  0
  5  7  2  0
  1  2  1  0
  1  3  1  0
  1  4  1  0
  8 12  1  0
 12 13  2  0
 13 15  1  0
 15 17  2  0
 17 19  1  0
 19 21  2  0
 21 12  1  0
  8  9  1  0
  8 10  1  0
  8 11  1  0
 13 14  1  0
 15 16  1  0
 17 18  1  0
 19 20  1  0
 21 22  1  0
M  CHG  1   6  -1
M  END
>  <PDB_ID>  (853) 
pdb1pku

>  <RESIDUE_NAME>  (853) 
GLU   PHE

>  <FRAG_NAME>  (853) 
ACET   MBZ

>  <FRAG_ATOM_NUM>  (853) 
fragi: 7  fragj: 15

>  <atom.prop.CHAIN_ID>  (853) 
A A A A A A A Z Z Z Z Z Z Z Z Z Z Z Z Z Z Z

>  <atom.prop.IS_HEAVY_ATOM>  (853) 
1 0 0 0 1 1 1 1 0 0 0 1 1 0 1 0 1 0 1 0 1 0

>  <DIFUSE_FUNC_ATOM>  (853) 
atom 6   atom 7   

>  <FINAL_SINGLE_POINT_ENERGY>  (853) 
0

>  <NONCOV_INTER_ENERGY_QM>  (853) 
0

>  <FF_Energy>  (853) 
3.71

>  <QM_Energy>  (853) 
-7.5

>  <source>  (853) 
ACET_MBZ_00

>  <Index>  (853) 
30842

$$$$
ACET-pdb1pku-G-GLU-129:MBZ-pdb1pku-G-PHE-8
     RDKit          3D

 22 21  0  0  0  0  0  0  0  0999 V2000
    3.2455    2.6414   -3.1264 C   0  0  0  0  0  0  0  0  0  0  0  0
    3.5149    1.6998   -3.1953 H   0  0  0  0  0  0  0  0  0  0  0  0
    3.6521    3.1992   -3.8258 H   0  0  0  0  0  0  0  0  0  0  0  0
    2.1616    2.6975   -3.2270 H   0  0  0  0  0  0  0  0  0  0  0  0
    3.7330    3.1597   -1.7878 C   0  0  0  0  0  0  0  0  0  0  0  0
    2.9250    3.2163   -0.8322 O   0  0  0  0  0  1  0  0  0  0  0  0
    4.9326    3.5037   -1.6902 O   0  0  0  0  0  0  0  0  0  0  0  0
   -0.0082    2.8892    0.0728 C   0  0  0  0  0  0  0  0  0  0  0  0
   -0.5152    3.2349   -0.7023 H   0  0  0  0  0  0  0  0  0  0  0  0
    0.9283    3.2053    0.0609 H   0  0  0  0  0  0  0  0  0  0  0  0
   -0.4775    3.2778    0.9766 H   0  0  0  0  0  0  0  0  0  0  0  0
   -0.0019    1.3996    0.0017 C   0  0  0  0  0  0  0  0  0  0  0  0
   -1.1956    0.6907   -0.0023 C   0  0  0  0  0  0  0  0  0  0  0  0
   -2.0645    1.1796   -0.0078 H   0  0  0  0  0  0  0  0  0  0  0  0
   -1.2012   -0.7021   -0.0000 C   0  0  0  0  0  0  0  0  0  0  0  0
   -2.0753   -1.1955    0.0019 H   0  0  0  0  0  0  0  0  0  0  0  0
    0.0031   -1.3922    0.0014 C   0  0  0  0  0  0  0  0  0  0  0  0
    0.0031   -2.3920    0.0030 H   0  0  0  0  0  0  0  0  0  0  0  0
    1.2012   -0.6930   -0.0000 C   0  0  0  0  0  0  0  0  0  0  0  0
    2.0842   -1.1893    0.0007 H   0  0  0  0  0  0  0  0  0  0  0  0
    1.1944    0.6971   -0.0008 C   0  0  0  0  0  0  0  0  0  0  0  0
    2.0617    1.1946   -0.0035 H   0  0  0  0  0  0  0  0  0  0  0  0
  1  5  1  0
  5  6  1  0
  5  7  2  0
  1  2  1  0
  1  3  1  0
  1  4  1  0
  8 12  1  0
 12 13  2  0
 13 15  1  0
 15 17  2  0
 17 19  1  0
 19 21  2  0
 21 12  1  0
  8  9  1  0
  8 10  1  0
  8 11  1  0
 13 14  1  0
 15 16  1  0
 17 18  1  0
 19 20  1  0
 21 22  1  0
M  CHG  1   6  -1
M  END
>  <PDB_ID>  (854) 
pdb1pku

>  <RESIDUE_NAME>  (854) 
GLU   PHE

>  <FRAG_NAME>  (854) 
ACET   MBZ

>  <FRAG_ATOM_NUM>  (854) 
fragi: 7  fragj: 15

>  <atom.prop.CHAIN_ID>  (854) 
A A A A A A A Z Z Z Z Z Z Z Z Z Z Z Z Z Z Z

>  <atom.prop.IS_HEAVY_ATOM>  (854) 
1 0 0 0 1 1 1 1 0 0 0 1 1 0 1 0 1 0 1 0 1 0

>  <DIFUSE_FUNC_ATOM>  (854) 
atom 6   atom 7   

>  <FINAL_SINGLE_POINT_ENERGY>  (854) 
0

>  <NONCOV_INTER_ENERGY_QM>  (854) 
0

>  <FF_Energy>  (854) 
0.29

>  <QM_Energy>  (854) 
-7.75

>  <source>  (854) 
ACET_MBZ_00

>  <Index>  (854) 
30844

$$$$
ACET-pdb1pku-I-GLU-129:MBZ-pdb1pku-I-PHE-8
     RDKit          3D

 22 21  0  0  0  0  0  0  0  0999 V2000
    3.1293    3.2683   -3.1597 C   0  0  0  0  0  0  0  0  0  0  0  0
    3.6925    2.6642   -3.7010 H   0  0  0  0  0  0  0  0  0  0  0  0
    3.1222    4.1841   -3.5288 H   0  0  0  0  0  0  0  0  0  0  0  0
    2.1087    2.8860   -3.1805 H   0  0  0  0  0  0  0  0  0  0  0  0
    3.7432    3.3417   -1.7664 C   0  0  0  0  0  0  0  0  0  0  0  0
    3.0196    3.6526   -0.7938 O   0  0  0  0  0  1  0  0  0  0  0  0
    4.9611    3.1037   -1.6435 O   0  0  0  0  0  0  0  0  0  0  0  0
   -0.0125    2.8906    0.0611 C   0  0  0  0  0  0  0  0  0  0  0  0
   -0.5188    3.2261   -0.7162 H   0  0  0  0  0  0  0  0  0  0  0  0
    0.9223    3.2070    0.0518 H   0  0  0  0  0  0  0  0  0  0  0  0
   -0.4875    3.2788    0.9621 H   0  0  0  0  0  0  0  0  0  0  0  0
    0.0002    1.3955    0.0010 C   0  0  0  0  0  0  0  0  0  0  0  0
   -1.1970    0.6820   -0.0013 C   0  0  0  0  0  0  0  0  0  0  0  0
   -2.0631    1.1783   -0.0055 H   0  0  0  0  0  0  0  0  0  0  0  0
   -1.2022   -0.6982   -0.0000 C   0  0  0  0  0  0  0  0  0  0  0  0
   -2.0763   -1.1964    0.0008 H   0  0  0  0  0  0  0  0  0  0  0  0
   -0.0001   -1.3889    0.0020 C   0  0  0  0  0  0  0  0  0  0  0  0
    0.0021   -2.3881    0.0043 H   0  0  0  0  0  0  0  0  0  0  0  0
    1.2022   -0.6879    0.0000 C   0  0  0  0  0  0  0  0  0  0  0  0
    2.0827   -1.1882    0.0016 H   0  0  0  0  0  0  0  0  0  0  0  0
    1.1968    0.6974   -0.0017 C   0  0  0  0  0  0  0  0  0  0  0  0
    2.0620    1.1970   -0.0060 H   0  0  0  0  0  0  0  0  0  0  0  0
  1  5  1  0
  5  6  1  0
  5  7  2  0
  1  2  1  0
  1  3  1  0
  1  4  1  0
  8 12  1  0
 12 13  2  0
 13 15  1  0
 15 17  2  0
 17 19  1  0
 19 21  2  0
 21 12  1  0
  8  9  1  0
  8 10  1  0
  8 11  1  0
 13 14  1  0
 15 16  1  0
 17 18  1  0
 19 20  1  0
 21 22  1  0
M  CHG  1   6  -1
M  END
>  <PDB_ID>  (855) 
pdb1pku

>  <RESIDUE_NAME>  (855) 
GLU   PHE

>  <FRAG_NAME>  (855) 
ACET   MBZ

>  <FRAG_ATOM_NUM>  (855) 
fragi: 7  fragj: 15

>  <atom.prop.CHAIN_ID>  (855) 
A A A A A A A Z Z Z Z Z Z Z Z Z Z Z Z Z Z Z

>  <atom.prop.IS_HEAVY_ATOM>  (855) 
1 0 0 0 1 1 1 1 0 0 0 1 1 0 1 0 1 0 1 0 1 0

>  <DIFUSE_FUNC_ATOM>  (855) 
atom 6   atom 7   

>  <FINAL_SINGLE_POINT_ENERGY>  (855) 
0

>  <NONCOV_INTER_ENERGY_QM>  (855) 
0

>  <FF_Energy>  (855) 
-1.8

>  <QM_Energy>  (855) 
-7.61

>  <source>  (855) 
ACET_MBZ_00

>  <Index>  (855) 
30852

$$$$
ACET-pdb1pku-J-GLU-129:MBZ-pdb1pku-J-PHE-8
     RDKit          3D

 22 21  0  0  0  0  0  0  0  0999 V2000
    3.2613    3.0930   -3.2868 C   0  0  0  0  0  0  0  0  0  0  0  0
    3.7818    2.4353   -3.7980 H   0  0  0  0  0  0  0  0  0  0  0  0
    3.3245    3.9969   -3.6664 H   0  0  0  0  0  0  0  0  0  0  0  0
    2.2152    2.7871   -3.3023 H   0  0  0  0  0  0  0  0  0  0  0  0
    3.8227    3.1405   -1.8887 C   0  0  0  0  0  0  0  0  0  0  0  0
    3.0750    3.5223   -0.9675 O   0  0  0  0  0  1  0  0  0  0  0  0
    5.0097    2.8052   -1.7116 O   0  0  0  0  0  0  0  0  0  0  0  0
    0.0026    2.8960    0.0375 C   0  0  0  0  0  0  0  0  0  0  0  0
   -0.5904    3.2208   -0.6826 H   0  0  0  0  0  0  0  0  0  0  0  0
    0.9313    3.2069   -0.0899 H   0  0  0  0  0  0  0  0  0  0  0  0
   -0.3596    3.3091    0.9788 H   0  0  0  0  0  0  0  0  0  0  0  0
    0.0028    1.3952    0.0008 C   0  0  0  0  0  0  0  0  0  0  0  0
   -1.1936    0.6871    0.0017 C   0  0  0  0  0  0  0  0  0  0  0  0
   -2.0600    1.1802    0.0025 H   0  0  0  0  0  0  0  0  0  0  0  0
   -1.1995   -0.6987   -0.0000 C   0  0  0  0  0  0  0  0  0  0  0  0
   -2.0785   -1.1908   -0.0005 H   0  0  0  0  0  0  0  0  0  0  0  0
   -0.0067   -1.3864    0.0003 C   0  0  0  0  0  0  0  0  0  0  0  0
   -0.0017   -2.3879   -0.0000 H   0  0  0  0  0  0  0  0  0  0  0  0
    1.1995   -0.6887    0.0000 C   0  0  0  0  0  0  0  0  0  0  0  0
    2.0776   -1.1946    0.0033 H   0  0  0  0  0  0  0  0  0  0  0  0
    1.1974    0.6915   -0.0028 C   0  0  0  0  0  0  0  0  0  0  0  0
    2.0651    1.1912   -0.0084 H   0  0  0  0  0  0  0  0  0  0  0  0
  1  5  1  0
  5  6  1  0
  5  7  2  0
  1  2  1  0
  1  3  1  0
  1  4  1  0
  8 12  1  0
 12 13  2  0
 13 15  1  0
 15 17  2  0
 17 19  1  0
 19 21  2  0
 21 12  1  0
  8  9  1  0
  8 10  1  0
  8 11  1  0
 13 14  1  0
 15 16  1  0
 17 18  1  0
 19 20  1  0
 21 22  1  0
M  CHG  1   6  -1
M  END
>  <PDB_ID>  (856) 
pdb1pku

>  <RESIDUE_NAME>  (856) 
GLU   PHE

>  <FRAG_NAME>  (856) 
ACET   MBZ

>  <FRAG_ATOM_NUM>  (856) 
fragi: 7  fragj: 15

>  <atom.prop.CHAIN_ID>  (856) 
A A A A A A A Z Z Z Z Z Z Z Z Z Z Z Z Z Z Z

>  <atom.prop.IS_HEAVY_ATOM>  (856) 
1 0 0 0 1 1 1 1 0 0 0 1 1 0 1 0 1 0 1 0 1 0

>  <DIFUSE_FUNC_ATOM>  (856) 
atom 6   atom 7   

>  <FINAL_SINGLE_POINT_ENERGY>  (856) 
0

>  <NONCOV_INTER_ENERGY_QM>  (856) 
0

>  <FF_Energy>  (856) 
-2.0

>  <QM_Energy>  (856) 
-7.77

>  <source>  (856) 
ACET_MBZ_00

>  <Index>  (856) 
30856

$$$$
ACET-pdb1pku-K-GLU-129:MBZ-pdb1pku-K-PHE-8
     RDKit          3D

 22 21  0  0  0  0  0  0  0  0999 V2000
    3.0752    2.1005   -3.0821 C   0  0  0  0  0  0  0  0  0  0  0  0
    3.1167    1.1533   -2.8120 H   0  0  0  0  0  0  0  0  0  0  0  0
    3.5689    2.2649   -3.9194 H   0  0  0  0  0  0  0  0  0  0  0  0
    2.0303    2.3677   -3.2395 H   0  0  0  0  0  0  0  0  0  0  0  0
    3.7669    2.9143   -1.9830 C   0  0  0  0  0  0  0  0  0  0  0  0
    3.1580    3.1493   -0.9061 O   0  0  0  0  0  1  0  0  0  0  0  0
    4.9398    3.3025   -2.2009 O   0  0  0  0  0  0  0  0  0  0  0  0
   -0.0006    2.9097    0.0231 C   0  0  0  0  0  0  0  0  0  0  0  0
   -0.5109    3.2235   -0.7626 H   0  0  0  0  0  0  0  0  0  0  0  0
    0.9391    3.2113   -0.0114 H   0  0  0  0  0  0  0  0  0  0  0  0
   -0.4596    3.3340    0.9160 H   0  0  0  0  0  0  0  0  0  0  0  0
   -0.0012    1.3992    0.0005 C   0  0  0  0  0  0  0  0  0  0  0  0
   -1.1962    0.6896    0.0002 C   0  0  0  0  0  0  0  0  0  0  0  0
   -2.0633    1.1808   -0.0015 H   0  0  0  0  0  0  0  0  0  0  0  0
   -1.1981   -0.6951    0.0000 C   0  0  0  0  0  0  0  0  0  0  0  0
   -2.0727   -1.1940    0.0006 H   0  0  0  0  0  0  0  0  0  0  0  0
    0.0052   -1.3881    0.0008 C   0  0  0  0  0  0  0  0  0  0  0  0
   -0.0016   -2.3896    0.0012 H   0  0  0  0  0  0  0  0  0  0  0  0
    1.1981   -0.6958   -0.0000 C   0  0  0  0  0  0  0  0  0  0  0  0
    2.0827   -1.1920    0.0016 H   0  0  0  0  0  0  0  0  0  0  0  0
    1.1922    0.6903   -0.0015 C   0  0  0  0  0  0  0  0  0  0  0  0
    2.0624    1.1882   -0.0044 H   0  0  0  0  0  0  0  0  0  0  0  0
  1  5  1  0
  5  6  1  0
  5  7  2  0
  1  2  1  0
  1  3  1  0
  1  4  1  0
  8 12  1  0
 12 13  2  0
 13 15  1  0
 15 17  2  0
 17 19  1  0
 19 21  2  0
 21 12  1  0
  8  9  1  0
  8 10  1  0
  8 11  1  0
 13 14  1  0
 15 16  1  0
 17 18  1  0
 19 20  1  0
 21 22  1  0
M  CHG  1   6  -1
M  END
>  <PDB_ID>  (857) 
pdb1pku

>  <RESIDUE_NAME>  (857) 
GLU   PHE

>  <FRAG_NAME>  (857) 
ACET   MBZ

>  <FRAG_ATOM_NUM>  (857) 
fragi: 7  fragj: 15

>  <atom.prop.CHAIN_ID>  (857) 
A A A A A A A Z Z Z Z Z Z Z Z Z Z Z Z Z Z Z

>  <atom.prop.IS_HEAVY_ATOM>  (857) 
1 0 0 0 1 1 1 1 0 0 0 1 1 0 1 0 1 0 1 0 1 0

>  <DIFUSE_FUNC_ATOM>  (857) 
atom 6   atom 7   

>  <FINAL_SINGLE_POINT_ENERGY>  (857) 
0

>  <NONCOV_INTER_ENERGY_QM>  (857) 
0

>  <FF_Energy>  (857) 
-2.0

>  <QM_Energy>  (857) 
-8.02

>  <source>  (857) 
ACET_MBZ_00

>  <Index>  (857) 
30862

$$$$
ACET-pdb2w02-A-GLU-341:MBZ-pdb2w02-A-PHE-465
     RDKit          3D

 22 21  0  0  0  0  0  0  0  0999 V2000
    2.1213    0.7629   -3.2154 C   0  0  0  0  0  0  0  0  0  0  0  0
    2.1134    0.3845   -4.1347 H   0  0  0  0  0  0  0  0  0  0  0  0
    1.5936    0.1866   -2.6000 H   0  0  0  0  0  0  0  0  0  0  0  0
    3.1534    0.7750   -2.8651 H   0  0  0  0  0  0  0  0  0  0  0  0
    1.4126    2.1203   -3.2804 C   0  0  0  0  0  0  0  0  0  0  0  0
    1.8847    3.1233   -2.6840 O   0  0  0  0  0  1  0  0  0  0  0  0
    0.3455    2.1632   -3.9487 O   0  0  0  0  0  0  0  0  0  0  0  0
    0.0182    2.8962    0.0123 C   0  0  0  0  0  0  0  0  0  0  0  0
    0.7057    3.2017   -0.6324 H   0  0  0  0  0  0  0  0  0  0  0  0
    0.2392    3.1887    0.9327 H   0  0  0  0  0  0  0  0  0  0  0  0
   -0.9284    3.3596   -0.2655 H   0  0  0  0  0  0  0  0  0  0  0  0
   -0.0007    1.3955   -0.0057 C   0  0  0  0  0  0  0  0  0  0  0  0
   -1.1892    0.6904   -0.0021 C   0  0  0  0  0  0  0  0  0  0  0  0
   -2.0594    1.1785   -0.0019 H   0  0  0  0  0  0  0  0  0  0  0  0
   -1.1907   -0.6947    0.0000 C   0  0  0  0  0  0  0  0  0  0  0  0
   -2.0714   -1.1884   -0.0007 H   0  0  0  0  0  0  0  0  0  0  0  0
    0.0001   -1.3834    0.0052 C   0  0  0  0  0  0  0  0  0  0  0  0
   -0.0029   -2.3864    0.0121 H   0  0  0  0  0  0  0  0  0  0  0  0
    1.1907   -0.6936    0.0000 C   0  0  0  0  0  0  0  0  0  0  0  0
    2.0759   -1.1948   -0.0043 H   0  0  0  0  0  0  0  0  0  0  0  0
    1.1897    0.6859    0.0026 C   0  0  0  0  0  0  0  0  0  0  0  0
    2.0603    1.1844    0.0100 H   0  0  0  0  0  0  0  0  0  0  0  0
  1  5  1  0
  5  6  1  0
  5  7  2  0
  1  2  1  0
  1  3  1  0
  1  4  1  0
  8 12  1  0
 12 13  2  0
 13 15  1  0
 15 17  2  0
 17 19  1  0
 19 21  2  0
 21 12  1  0
  8  9  1  0
  8 10  1  0
  8 11  1  0
 13 14  1  0
 15 16  1  0
 17 18  1  0
 19 20  1  0
 21 22  1  0
M  CHG  1   6  -1
M  END
>  <PDB_ID>  (858) 
pdb2w02

>  <RESIDUE_NAME>  (858) 
GLU   PHE

>  <FRAG_NAME>  (858) 
ACET   MBZ

>  <FRAG_ATOM_NUM>  (858) 
fragi: 7  fragj: 15

>  <atom.prop.CHAIN_ID>  (858) 
A A A A A A A Z Z Z Z Z Z Z Z Z Z Z Z Z Z Z

>  <atom.prop.IS_HEAVY_ATOM>  (858) 
1 0 0 0 1 1 1 1 0 0 0 1 1 0 1 0 1 0 1 0 1 0

>  <DIFUSE_FUNC_ATOM>  (858) 
atom 6   atom 7   

>  <FINAL_SINGLE_POINT_ENERGY>  (858) 
0

>  <NONCOV_INTER_ENERGY_QM>  (858) 
0

>  <FF_Energy>  (858) 
0.64

>  <QM_Energy>  (858) 
-5.55

>  <source>  (858) 
ACET_MBZ_00

>  <Index>  (858) 
30931

$$$$
ACET-pdb1pn2-B-GLU-238:MBZ-pdb1pn2-B-PHE-235
     RDKit          3D

 22 21  0  0  0  0  0  0  0  0999 V2000
    3.3509    4.8393    0.5018 C   0  0  0  0  0  0  0  0  0  0  0  0
    3.8870    4.9277    1.3147 H   0  0  0  0  0  0  0  0  0  0  0  0
    2.3883    4.8531    0.6724 H   0  0  0  0  0  0  0  0  0  0  0  0
    3.5936    5.6726   -0.1575 H   0  0  0  0  0  0  0  0  0  0  0  0
    3.6868    3.4844   -0.1276 C   0  0  0  0  0  0  0  0  0  0  0  0
    3.3875    3.2802   -1.3226 O   0  0  0  0  0  1  0  0  0  0  0  0
    4.2748    2.6336    0.5556 O   0  0  0  0  0  0  0  0  0  0  0  0
    0.0040    2.8955   -0.0022 C   0  0  0  0  0  0  0  0  0  0  0  0
    0.9126    3.2021    0.2405 H   0  0  0  0  0  0  0  0  0  0  0  0
   -0.6683    3.2099    0.6516 H   0  0  0  0  0  0  0  0  0  0  0  0
   -0.2458    3.3263   -0.9717 H   0  0  0  0  0  0  0  0  0  0  0  0
   -0.0010    1.3978    0.0090 C   0  0  0  0  0  0  0  0  0  0  0  0
   -1.1988    0.6985   -0.0105 C   0  0  0  0  0  0  0  0  0  0  0  0
   -2.0646    1.1830   -0.0334 H   0  0  0  0  0  0  0  0  0  0  0  0
   -1.2057   -0.7055   -0.0000 C   0  0  0  0  0  0  0  0  0  0  0  0
   -2.0809   -1.1913    0.0085 H   0  0  0  0  0  0  0  0  0  0  0  0
   -0.0034   -1.3898    0.0002 C   0  0  0  0  0  0  0  0  0  0  0  0
    0.0030   -2.3906    0.0003 H   0  0  0  0  0  0  0  0  0  0  0  0
    1.2057   -0.6887    0.0000 C   0  0  0  0  0  0  0  0  0  0  0  0
    2.0820   -1.1977   -0.0001 H   0  0  0  0  0  0  0  0  0  0  0  0
    1.2032    0.6877    0.0013 C   0  0  0  0  0  0  0  0  0  0  0  0
    2.0660    1.1931   -0.0045 H   0  0  0  0  0  0  0  0  0  0  0  0
  1  5  1  0
  5  6  1  0
  5  7  2  0
  1  2  1  0
  1  3  1  0
  1  4  1  0
  8 12  1  0
 12 13  2  0
 13 15  1  0
 15 17  2  0
 17 19  1  0
 19 21  2  0
 21 12  1  0
  8  9  1  0
  8 10  1  0
  8 11  1  0
 13 14  1  0
 15 16  1  0
 17 18  1  0
 19 20  1  0
 21 22  1  0
M  CHG  1   6  -1
M  END
>  <PDB_ID>  (859) 
pdb1pn2

>  <RESIDUE_NAME>  (859) 
GLU   PHE

>  <FRAG_NAME>  (859) 
ACET   MBZ

>  <FRAG_ATOM_NUM>  (859) 
fragi: 7  fragj: 15

>  <atom.prop.CHAIN_ID>  (859) 
A A A A A A A Z Z Z Z Z Z Z Z Z Z Z Z Z Z Z

>  <atom.prop.IS_HEAVY_ATOM>  (859) 
1 0 0 0 1 1 1 1 0 0 0 1 1 0 1 0 1 0 1 0 1 0

>  <DIFUSE_FUNC_ATOM>  (859) 
atom 6   atom 7   

>  <FINAL_SINGLE_POINT_ENERGY>  (859) 
0

>  <NONCOV_INTER_ENERGY_QM>  (859) 
0

>  <FF_Energy>  (859) 
-2.55

>  <QM_Energy>  (859) 
-7.61

>  <source>  (859) 
ACET_MBZ_00

>  <Index>  (859) 
30985

$$$$
ACET-pdb2w3z-A-ASP-114:MBZ-pdb2w3z-A-PHE-139
     RDKit          3D

 22 21  0  0  0  0  0  0  0  0999 V2000
    3.1962    5.4480    2.4229 C   0  0  0  0  0  0  0  0  0  0  0  0
    4.1044    5.6484    2.7890 H   0  0  0  0  0  0  0  0  0  0  0  0
    2.5331    6.0909    2.8055 H   0  0  0  0  0  0  0  0  0  0  0  0
    3.2341    5.6217    1.3476 H   0  0  0  0  0  0  0  0  0  0  0  0
    2.8052    4.0435    2.8144 C   0  0  0  0  0  0  0  0  0  0  0  0
    2.5653    3.2071    1.9438 O   0  0  0  0  0  1  0  0  0  0  0  0
    2.7318    3.7723    4.0549 O   0  0  0  0  0  0  0  0  0  0  0  0
   -0.0452    2.9319   -0.0200 C   0  0  0  0  0  0  0  0  0  0  0  0
    0.8351    3.2584    0.2668 H   0  0  0  0  0  0  0  0  0  0  0  0
   -0.7673    3.2194    0.5804 H   0  0  0  0  0  0  0  0  0  0  0  0
   -0.2495    3.3326   -1.0129 H   0  0  0  0  0  0  0  0  0  0  0  0
   -0.0038    1.4135    0.0001 C   0  0  0  0  0  0  0  0  0  0  0  0
   -1.1955    0.6980   -0.0009 C   0  0  0  0  0  0  0  0  0  0  0  0
   -2.0673    1.1908   -0.0038 H   0  0  0  0  0  0  0  0  0  0  0  0
   -1.2103   -0.6928   -0.0000 C   0  0  0  0  0  0  0  0  0  0  0  0
   -2.0841   -1.1858   -0.0007 H   0  0  0  0  0  0  0  0  0  0  0  0
    0.0013   -1.4097    0.0040 C   0  0  0  0  0  0  0  0  0  0  0  0
   -0.0151   -2.4024    0.0092 H   0  0  0  0  0  0  0  0  0  0  0  0
    1.2103   -0.7159   -0.0000 C   0  0  0  0  0  0  0  0  0  0  0  0
    2.0892   -1.1969    0.0009 H   0  0  0  0  0  0  0  0  0  0  0  0
    1.1980    0.7069   -0.0032 C   0  0  0  0  0  0  0  0  0  0  0  0
    2.0664    1.1924   -0.0084 H   0  0  0  0  0  0  0  0  0  0  0  0
  1  5  1  0
  5  6  1  0
  5  7  2  0
  1  2  1  0
  1  3  1  0
  1  4  1  0
  8 12  1  0
 12 13  2  0
 13 15  1  0
 15 17  2  0
 17 19  1  0
 19 21  2  0
 21 12  1  0
  8  9  1  0
  8 10  1  0
  8 11  1  0
 13 14  1  0
 15 16  1  0
 17 18  1  0
 19 20  1  0
 21 22  1  0
M  CHG  1   6  -1
M  END
>  <PDB_ID>  (860) 
pdb2w3z

>  <RESIDUE_NAME>  (860) 
ASP   PHE

>  <FRAG_NAME>  (860) 
ACET   MBZ

>  <FRAG_ATOM_NUM>  (860) 
fragi: 7  fragj: 15

>  <atom.prop.CHAIN_ID>  (860) 
A A A A A A A Z Z Z Z Z Z Z Z Z Z Z Z Z Z Z

>  <atom.prop.IS_HEAVY_ATOM>  (860) 
1 0 0 0 1 1 1 1 0 0 0 1 1 0 1 0 1 0 1 0 1 0

>  <DIFUSE_FUNC_ATOM>  (860) 
atom 6   atom 7   

>  <FINAL_SINGLE_POINT_ENERGY>  (860) 
0

>  <NONCOV_INTER_ENERGY_QM>  (860) 
0

>  <FF_Energy>  (860) 
-0.17

>  <QM_Energy>  (860) 
-5.7

>  <source>  (860) 
ACET_MBZ_00

>  <Index>  (860) 
31149

$$$$
ACET-pdb2w58-B-GLU-1156:MBZ-pdb2w58-A-PHE-170
     RDKit          3D

 22 21  0  0  0  0  0  0  0  0999 V2000
   -1.7669   -3.5159   -1.8264 C   0  0  0  0  0  0  0  0  0  0  0  0
   -1.0507   -3.2883   -2.4931 H   0  0  0  0  0  0  0  0  0  0  0  0
   -2.2056   -2.6630   -1.5237 H   0  0  0  0  0  0  0  0  0  0  0  0
   -2.5111   -4.1548   -2.3020 H   0  0  0  0  0  0  0  0  0  0  0  0
   -1.0612   -4.0856   -0.6179 C   0  0  0  0  0  0  0  0  0  0  0  0
   -1.6112   -4.1391    0.4990 O   0  0  0  0  0  1  0  0  0  0  0  0
    0.1034   -4.4751   -0.7837 O   0  0  0  0  0  0  0  0  0  0  0  0
    0.0251    2.8908    0.0242 C   0  0  0  0  0  0  0  0  0  0  0  0
   -0.6743    3.2201   -0.5940 H   0  0  0  0  0  0  0  0  0  0  0  0
    0.9244    3.1890   -0.2628 H   0  0  0  0  0  0  0  0  0  0  0  0
   -0.1692    3.3251    1.0049 H   0  0  0  0  0  0  0  0  0  0  0  0
    0.0002    1.3925    0.0034 C   0  0  0  0  0  0  0  0  0  0  0  0
   -1.2015    0.6985   -0.0007 C   0  0  0  0  0  0  0  0  0  0  0  0
   -2.0612    1.1939   -0.0048 H   0  0  0  0  0  0  0  0  0  0  0  0
   -1.1984   -0.6777    0.0000 C   0  0  0  0  0  0  0  0  0  0  0  0
   -2.0743   -1.1835    0.0034 H   0  0  0  0  0  0  0  0  0  0  0  0
    0.0053   -1.3801   -0.0021 C   0  0  0  0  0  0  0  0  0  0  0  0
   -0.0154   -2.3830   -0.0060 H   0  0  0  0  0  0  0  0  0  0  0  0
    1.1984   -0.7040    0.0000 C   0  0  0  0  0  0  0  0  0  0  0  0
    2.0784   -1.2076    0.0037 H   0  0  0  0  0  0  0  0  0  0  0  0
    1.1959    0.6709   -0.0006 C   0  0  0  0  0  0  0  0  0  0  0  0
    2.0654    1.1742   -0.0052 H   0  0  0  0  0  0  0  0  0  0  0  0
  1  5  1  0
  5  6  1  0
  5  7  2  0
  1  2  1  0
  1  3  1  0
  1  4  1  0
  8 12  1  0
 12 13  2  0
 13 15  1  0
 15 17  2  0
 17 19  1  0
 19 21  2  0
 21 12  1  0
  8  9  1  0
  8 10  1  0
  8 11  1  0
 13 14  1  0
 15 16  1  0
 17 18  1  0
 19 20  1  0
 21 22  1  0
M  CHG  1   6  -1
M  END
>  <PDB_ID>  (861) 
pdb2w58

>  <RESIDUE_NAME>  (861) 
GLU   PHE

>  <FRAG_NAME>  (861) 
ACET   MBZ

>  <FRAG_ATOM_NUM>  (861) 
fragi: 7  fragj: 15

>  <atom.prop.CHAIN_ID>  (861) 
A A A A A A A Z Z Z Z Z Z Z Z Z Z Z Z Z Z Z

>  <atom.prop.IS_HEAVY_ATOM>  (861) 
1 0 0 0 1 1 1 1 0 0 0 1 1 0 1 0 1 0 1 0 1 0

>  <DIFUSE_FUNC_ATOM>  (861) 
atom 6   atom 7   

>  <FINAL_SINGLE_POINT_ENERGY>  (861) 
0

>  <NONCOV_INTER_ENERGY_QM>  (861) 
0

>  <FF_Energy>  (861) 
13.34

>  <QM_Energy>  (861) 
-3.53

>  <source>  (861) 
ACET_MBZ_00

>  <Index>  (861) 
31253

$$$$
ACET-pdb1pv1-C-ASP-275:MBZ-pdb1pv1-D-PHE-7
     RDKit          3D

 22 21  0  0  0  0  0  0  0  0999 V2000
    5.6314    2.8239    0.0337 C   0  0  0  0  0  0  0  0  0  0  0  0
    4.9182    3.3949   -0.3669 H   0  0  0  0  0  0  0  0  0  0  0  0
    6.0904    2.3041   -0.6814 H   0  0  0  0  0  0  0  0  0  0  0  0
    6.3711    3.4910    0.4763 H   0  0  0  0  0  0  0  0  0  0  0  0
    5.0249    1.8881    1.0203 C   0  0  0  0  0  0  0  0  0  0  0  0
    5.7395    1.4591    1.9547 O   0  0  0  0  0  1  0  0  0  0  0  0
    3.8335    1.5692    0.8496 O   0  0  0  0  0  0  0  0  0  0  0  0
   -0.0176    2.9031    0.0278 C   0  0  0  0  0  0  0  0  0  0  0  0
   -0.8135    3.2153   -0.4715 H   0  0  0  0  0  0  0  0  0  0  0  0
    0.8168    3.2279   -0.3947 H   0  0  0  0  0  0  0  0  0  0  0  0
   -0.0684    3.3309    1.0291 H   0  0  0  0  0  0  0  0  0  0  0  0
   -0.0044    1.4053   -0.0006 C   0  0  0  0  0  0  0  0  0  0  0  0
   -1.1959    0.6947   -0.0001 C   0  0  0  0  0  0  0  0  0  0  0  0
   -2.0663    1.1847   -0.0015 H   0  0  0  0  0  0  0  0  0  0  0  0
   -1.2071   -0.6986    0.0000 C   0  0  0  0  0  0  0  0  0  0  0  0
   -2.0786   -1.1919   -0.0002 H   0  0  0  0  0  0  0  0  0  0  0  0
    0.0051   -1.4016    0.0015 C   0  0  0  0  0  0  0  0  0  0  0  0
   -0.0026   -2.3972    0.0029 H   0  0  0  0  0  0  0  0  0  0  0  0
    1.2071   -0.7018   -0.0000 C   0  0  0  0  0  0  0  0  0  0  0  0
    2.0895   -1.1899    0.0010 H   0  0  0  0  0  0  0  0  0  0  0  0
    1.1952    0.7020   -0.0008 C   0  0  0  0  0  0  0  0  0  0  0  0
    2.0631    1.1966   -0.0022 H   0  0  0  0  0  0  0  0  0  0  0  0
  1  5  1  0
  5  6  1  0
  5  7  2  0
  1  2  1  0
  1  3  1  0
  1  4  1  0
  8 12  1  0
 12 13  2  0
 13 15  1  0
 15 17  2  0
 17 19  1  0
 19 21  2  0
 21 12  1  0
  8  9  1  0
  8 10  1  0
  8 11  1  0
 13 14  1  0
 15 16  1  0
 17 18  1  0
 19 20  1  0
 21 22  1  0
M  CHG  1   6  -1
M  END
>  <PDB_ID>  (862) 
pdb1pv1

>  <RESIDUE_NAME>  (862) 
ASP   PHE

>  <FRAG_NAME>  (862) 
ACET   MBZ

>  <FRAG_ATOM_NUM>  (862) 
fragi: 7  fragj: 15

>  <atom.prop.CHAIN_ID>  (862) 
A A A A A A A Z Z Z Z Z Z Z Z Z Z Z Z Z Z Z

>  <atom.prop.IS_HEAVY_ATOM>  (862) 
1 0 0 0 1 1 1 1 0 0 0 1 1 0 1 0 1 0 1 0 1 0

>  <DIFUSE_FUNC_ATOM>  (862) 
atom 6   atom 7   

>  <FINAL_SINGLE_POINT_ENERGY>  (862) 
0

>  <NONCOV_INTER_ENERGY_QM>  (862) 
0

>  <FF_Energy>  (862) 
6.02

>  <QM_Energy>  (862) 
-5.9

>  <source>  (862) 
ACET_MBZ_00

>  <Index>  (862) 
31280

$$$$
ACET-pdb2w69-D-GLU-119:MBZ-pdb2w69-D-PHE-105
     RDKit          3D

 22 21  0  0  0  0  0  0  0  0999 V2000
   -3.4174   -2.2827   -2.5929 C   0  0  0  0  0  0  0  0  0  0  0  0
   -2.5100   -1.9905   -2.8198 H   0  0  0  0  0  0  0  0  0  0  0  0
   -3.9044   -2.6419   -3.3642 H   0  0  0  0  0  0  0  0  0  0  0  0
   -3.3307   -3.0813   -1.8562 H   0  0  0  0  0  0  0  0  0  0  0  0
   -4.1869   -1.0688   -2.0761 C   0  0  0  0  0  0  0  0  0  0  0  0
   -4.1295   -0.7963   -0.8662 O   0  0  0  0  0  1  0  0  0  0  0  0
   -4.8688   -0.3885   -2.8626 O   0  0  0  0  0  0  0  0  0  0  0  0
    0.0145    2.9222    0.0233 C   0  0  0  0  0  0  0  0  0  0  0  0
   -0.8385    3.2411   -0.3537 H   0  0  0  0  0  0  0  0  0  0  0  0
    0.7878    3.2325   -0.5043 H   0  0  0  0  0  0  0  0  0  0  0  0
    0.1099    3.3418    1.0248 H   0  0  0  0  0  0  0  0  0  0  0  0
    0.0032    1.4100   -0.0048 C   0  0  0  0  0  0  0  0  0  0  0  0
   -1.2015    0.6990   -0.0029 C   0  0  0  0  0  0  0  0  0  0  0  0
   -2.0644    1.1916   -0.0054 H   0  0  0  0  0  0  0  0  0  0  0  0
   -1.2061   -0.6931   -0.0000 C   0  0  0  0  0  0  0  0  0  0  0  0
   -2.0855   -1.1852   -0.0005 H   0  0  0  0  0  0  0  0  0  0  0  0
   -0.0084   -1.3965    0.0056 C   0  0  0  0  0  0  0  0  0  0  0  0
   -0.0168   -2.3955    0.0137 H   0  0  0  0  0  0  0  0  0  0  0  0
    1.2061   -0.7078    0.0000 C   0  0  0  0  0  0  0  0  0  0  0  0
    2.0796   -1.2102   -0.0036 H   0  0  0  0  0  0  0  0  0  0  0  0
    1.2067    0.6885    0.0021 C   0  0  0  0  0  0  0  0  0  0  0  0
    2.0734    1.1825    0.0079 H   0  0  0  0  0  0  0  0  0  0  0  0
  1  5  1  0
  5  6  1  0
  5  7  2  0
  1  2  1  0
  1  3  1  0
  1  4  1  0
  8 12  1  0
 12 13  2  0
 13 15  1  0
 15 17  2  0
 17 19  1  0
 19 21  2  0
 21 12  1  0
  8  9  1  0
  8 10  1  0
  8 11  1  0
 13 14  1  0
 15 16  1  0
 17 18  1  0
 19 20  1  0
 21 22  1  0
M  CHG  1   6  -1
M  END
>  <PDB_ID>  (863) 
pdb2w69

>  <RESIDUE_NAME>  (863) 
GLU   PHE

>  <FRAG_NAME>  (863) 
ACET   MBZ

>  <FRAG_ATOM_NUM>  (863) 
fragi: 7  fragj: 15

>  <atom.prop.CHAIN_ID>  (863) 
A A A A A A A Z Z Z Z Z Z Z Z Z Z Z Z Z Z Z

>  <atom.prop.IS_HEAVY_ATOM>  (863) 
1 0 0 0 1 1 1 1 0 0 0 1 1 0 1 0 1 0 1 0 1 0

>  <DIFUSE_FUNC_ATOM>  (863) 
atom 6   atom 7   

>  <FINAL_SINGLE_POINT_ENERGY>  (863) 
0

>  <NONCOV_INTER_ENERGY_QM>  (863) 
0

>  <FF_Energy>  (863) 
-1.17

>  <QM_Energy>  (863) 
-6.28

>  <source>  (863) 
ACET_MBZ_00

>  <Index>  (863) 
31355

$$$$
ACET-pdb1pvh-C-GLU-301:MBZ-pdb1pvh-C-PHE-270
     RDKit          3D

 22 21  0  0  0  0  0  0  0  0999 V2000
   -1.6485    5.9617   -3.0994 C   0  0  0  0  0  0  0  0  0  0  0  0
   -1.6309    5.7654   -4.0629 H   0  0  0  0  0  0  0  0  0  0  0  0
   -0.9628    6.6189   -2.8415 H   0  0  0  0  0  0  0  0  0  0  0  0
   -2.6269    6.3752   -2.8551 H   0  0  0  0  0  0  0  0  0  0  0  0
   -1.3344    4.6598   -2.3616 C   0  0  0  0  0  0  0  0  0  0  0  0
   -0.1605    4.2272   -2.4347 O   0  0  0  0  0  1  0  0  0  0  0  0
   -2.2491    4.0653   -1.7280 O   0  0  0  0  0  0  0  0  0  0  0  0
    0.0003    2.9275    0.0777 C   0  0  0  0  0  0  0  0  0  0  0  0
   -0.6850    3.2642   -0.5461 H   0  0  0  0  0  0  0  0  0  0  0  0
    0.9022    3.2427   -0.1638 H   0  0  0  0  0  0  0  0  0  0  0  0
   -0.2329    3.3138    1.0699 H   0  0  0  0  0  0  0  0  0  0  0  0
   -0.0015    1.4154   -0.0006 C   0  0  0  0  0  0  0  0  0  0  0  0
   -1.2061    0.7089   -0.0008 C   0  0  0  0  0  0  0  0  0  0  0  0
   -2.0692    1.1987   -0.0028 H   0  0  0  0  0  0  0  0  0  0  0  0
   -1.2102   -0.6878   -0.0000 C   0  0  0  0  0  0  0  0  0  0  0  0
   -2.0859   -1.1832   -0.0001 H   0  0  0  0  0  0  0  0  0  0  0  0
    0.0013   -1.4069    0.0032 C   0  0  0  0  0  0  0  0  0  0  0  0
   -0.0203   -2.4002    0.0076 H   0  0  0  0  0  0  0  0  0  0  0  0
    1.2102   -0.7193    0.0000 C   0  0  0  0  0  0  0  0  0  0  0  0
    2.0874   -1.2110    0.0003 H   0  0  0  0  0  0  0  0  0  0  0  0
    1.2063    0.6897   -0.0018 C   0  0  0  0  0  0  0  0  0  0  0  0
    2.0730    1.1812   -0.0047 H   0  0  0  0  0  0  0  0  0  0  0  0
  1  5  1  0
  5  6  1  0
  5  7  2  0
  1  2  1  0
  1  3  1  0
  1  4  1  0
  8 12  1  0
 12 13  2  0
 13 15  1  0
 15 17  2  0
 17 19  1  0
 19 21  2  0
 21 12  1  0
  8  9  1  0
  8 10  1  0
  8 11  1  0
 13 14  1  0
 15 16  1  0
 17 18  1  0
 19 20  1  0
 21 22  1  0
M  CHG  1   6  -1
M  END
>  <PDB_ID>  (864) 
pdb1pvh

>  <RESIDUE_NAME>  (864) 
GLU   PHE

>  <FRAG_NAME>  (864) 
ACET   MBZ

>  <FRAG_ATOM_NUM>  (864) 
fragi: 7  fragj: 15

>  <atom.prop.CHAIN_ID>  (864) 
A A A A A A A Z Z Z Z Z Z Z Z Z Z Z Z Z Z Z

>  <atom.prop.IS_HEAVY_ATOM>  (864) 
1 0 0 0 1 1 1 1 0 0 0 1 1 0 1 0 1 0 1 0 1 0

>  <DIFUSE_FUNC_ATOM>  (864) 
atom 6   atom 7   

>  <FINAL_SINGLE_POINT_ENERGY>  (864) 
0

>  <NONCOV_INTER_ENERGY_QM>  (864) 
0

>  <FF_Energy>  (864) 
8.17

>  <QM_Energy>  (864) 
-4.95

>  <source>  (864) 
ACET_MBZ_00

>  <Index>  (864) 
31358

$$$$
ACET-pdb2w80-H-GLU-157:MBZ-pdb2w80-H-PHE-143
     RDKit          3D

 22 21  0  0  0  0  0  0  0  0999 V2000
   -2.7280   -3.3225    0.3734 C   0  0  0  0  0  0  0  0  0  0  0  0
   -3.1899   -2.4717    0.2114 H   0  0  0  0  0  0  0  0  0  0  0  0
   -1.8948   -3.2082    0.8802 H   0  0  0  0  0  0  0  0  0  0  0  0
   -3.3930   -3.9645    0.9510 H   0  0  0  0  0  0  0  0  0  0  0  0
   -2.3575   -3.9109   -0.9904 C   0  0  0  0  0  0  0  0  0  0  0  0
   -3.0274   -4.8655   -1.4326 O   0  0  0  0  0  1  0  0  0  0  0  0
   -1.4009   -3.4108   -1.6218 O   0  0  0  0  0  0  0  0  0  0  0  0
   -0.0076    2.9134    0.0042 C   0  0  0  0  0  0  0  0  0  0  0  0
   -0.7411    3.2140   -0.5852 H   0  0  0  0  0  0  0  0  0  0  0  0
    0.8708    3.2217   -0.3267 H   0  0  0  0  0  0  0  0  0  0  0  0
   -0.1668    3.3601    0.9856 H   0  0  0  0  0  0  0  0  0  0  0  0
   -0.0009    1.4001    0.0040 C   0  0  0  0  0  0  0  0  0  0  0  0
   -1.1945    0.6868    0.0009 C   0  0  0  0  0  0  0  0  0  0  0  0
   -2.0636    1.1747   -0.0023 H   0  0  0  0  0  0  0  0  0  0  0  0
   -1.1978   -0.7053    0.0000 C   0  0  0  0  0  0  0  0  0  0  0  0
   -2.0733   -1.1983    0.0008 H   0  0  0  0  0  0  0  0  0  0  0  0
    0.0023   -1.3907   -0.0011 C   0  0  0  0  0  0  0  0  0  0  0  0
    0.0067   -2.3908   -0.0036 H   0  0  0  0  0  0  0  0  0  0  0  0
    1.1978   -0.6876    0.0000 C   0  0  0  0  0  0  0  0  0  0  0  0
    2.0822   -1.1864    0.0049 H   0  0  0  0  0  0  0  0  0  0  0  0
    1.1931    0.6967   -0.0037 C   0  0  0  0  0  0  0  0  0  0  0  0
    2.0608    1.1955   -0.0130 H   0  0  0  0  0  0  0  0  0  0  0  0
  1  5  1  0
  5  6  1  0
  5  7  2  0
  1  2  1  0
  1  3  1  0
  1  4  1  0
  8 12  1  0
 12 13  2  0
 13 15  1  0
 15 17  2  0
 17 19  1  0
 19 21  2  0
 21 12  1  0
  8  9  1  0
  8 10  1  0
  8 11  1  0
 13 14  1  0
 15 16  1  0
 17 18  1  0
 19 20  1  0
 21 22  1  0
M  CHG  1   6  -1
M  END
>  <PDB_ID>  (865) 
pdb2w80

>  <RESIDUE_NAME>  (865) 
GLU   PHE

>  <FRAG_NAME>  (865) 
ACET   MBZ

>  <FRAG_ATOM_NUM>  (865) 
fragi: 7  fragj: 15

>  <atom.prop.CHAIN_ID>  (865) 
A A A A A A A Z Z Z Z Z Z Z Z Z Z Z Z Z Z Z

>  <atom.prop.IS_HEAVY_ATOM>  (865) 
1 0 0 0 1 1 1 1 0 0 0 1 1 0 1 0 1 0 1 0 1 0

>  <DIFUSE_FUNC_ATOM>  (865) 
atom 6   atom 7   

>  <FINAL_SINGLE_POINT_ENERGY>  (865) 
0

>  <NONCOV_INTER_ENERGY_QM>  (865) 
0

>  <FF_Energy>  (865) 
13.46

>  <QM_Energy>  (865) 
0.63

>  <source>  (865) 
ACET_MBZ_00

>  <Index>  (865) 
31427

$$$$
ACET-pdb2w8s-A-GLU-364:MBZ-pdb2w8s-A-PHE-397
     RDKit          3D

 22 21  0  0  0  0  0  0  0  0999 V2000
   -3.1198    0.4558    3.0726 C   0  0  0  0  0  0  0  0  0  0  0  0
   -2.2508    0.8216    2.8210 H   0  0  0  0  0  0  0  0  0  0  0  0
   -3.0615   -0.3812    3.5713 H   0  0  0  0  0  0  0  0  0  0  0  0
   -3.6318    1.1903    3.6942 H   0  0  0  0  0  0  0  0  0  0  0  0
   -3.8964    0.1896    1.8076 C   0  0  0  0  0  0  0  0  0  0  0  0
   -4.2421    1.1900    1.1470 O   0  0  0  0  0  1  0  0  0  0  0  0
   -4.1600   -0.9993    1.4857 O   0  0  0  0  0  0  0  0  0  0  0  0
   -0.0116    2.8792   -0.0032 C   0  0  0  0  0  0  0  0  0  0  0  0
    0.8505    3.1970    0.3685 H   0  0  0  0  0  0  0  0  0  0  0  0
   -0.7728    3.1891    0.5497 H   0  0  0  0  0  0  0  0  0  0  0  0
   -0.1248    3.3120   -0.9971 H   0  0  0  0  0  0  0  0  0  0  0  0
   -0.0044    1.3960    0.0006 C   0  0  0  0  0  0  0  0  0  0  0  0
   -1.2049    0.6919   -0.0040 C   0  0  0  0  0  0  0  0  0  0  0  0
   -2.0684    1.1772   -0.0112 H   0  0  0  0  0  0  0  0  0  0  0  0
   -1.2042   -0.7058   -0.0000 C   0  0  0  0  0  0  0  0  0  0  0  0
   -2.0688   -1.2053   -0.0058 H   0  0  0  0  0  0  0  0  0  0  0  0
    0.0174   -1.3928    0.0141 C   0  0  0  0  0  0  0  0  0  0  0  0
    0.0174   -2.3901    0.0341 H   0  0  0  0  0  0  0  0  0  0  0  0
    1.2042   -0.6848   -0.0000 C   0  0  0  0  0  0  0  0  0  0  0  0
    2.0941   -1.1792   -0.0007 H   0  0  0  0  0  0  0  0  0  0  0  0
    1.1920    0.6956   -0.0107 C   0  0  0  0  0  0  0  0  0  0  0  0
    2.0585    1.2001   -0.0280 H   0  0  0  0  0  0  0  0  0  0  0  0
  1  5  1  0
  5  6  1  0
  5  7  2  0
  1  2  1  0
  1  3  1  0
  1  4  1  0
  8 12  1  0
 12 13  2  0
 13 15  1  0
 15 17  2  0
 17 19  1  0
 19 21  2  0
 21 12  1  0
  8  9  1  0
  8 10  1  0
  8 11  1  0
 13 14  1  0
 15 16  1  0
 17 18  1  0
 19 20  1  0
 21 22  1  0
M  CHG  1   6  -1
M  END
>  <PDB_ID>  (866) 
pdb2w8s

>  <RESIDUE_NAME>  (866) 
GLU   PHE

>  <FRAG_NAME>  (866) 
ACET   MBZ

>  <FRAG_ATOM_NUM>  (866) 
fragi: 7  fragj: 15

>  <atom.prop.CHAIN_ID>  (866) 
A A A A A A A Z Z Z Z Z Z Z Z Z Z Z Z Z Z Z

>  <atom.prop.IS_HEAVY_ATOM>  (866) 
1 0 0 0 1 1 1 1 0 0 0 1 1 0 1 0 1 0 1 0 1 0

>  <DIFUSE_FUNC_ATOM>  (866) 
atom 6   atom 7   

>  <FINAL_SINGLE_POINT_ENERGY>  (866) 
0

>  <NONCOV_INTER_ENERGY_QM>  (866) 
0

>  <FF_Energy>  (866) 
-2.57

>  <QM_Energy>  (866) 
-7.8

>  <source>  (866) 
ACET_MBZ_00

>  <Index>  (866) 
31505

$$$$
ACET-pdb1pz2-A-GLU-11:MBZ-pdb1pz2-A-PHE-14
     RDKit          3D

 22 21  0  0  0  0  0  0  0  0999 V2000
   -4.1022    1.2340    0.5195 C   0  0  0  0  0  0  0  0  0  0  0  0
   -3.4248    0.5107    0.4880 H   0  0  0  0  0  0  0  0  0  0  0  0
   -3.7624    2.0115    1.0327 H   0  0  0  0  0  0  0  0  0  0  0  0
   -4.2834    1.5633   -0.5036 H   0  0  0  0  0  0  0  0  0  0  0  0
   -5.3133    0.7050    1.2288 C   0  0  0  0  0  0  0  0  0  0  0  0
   -5.7791   -0.3775    0.8283 O   0  0  0  0  0  1  0  0  0  0  0  0
   -5.7602    1.3341    2.2058 O   0  0  0  0  0  0  0  0  0  0  0  0
   -0.0371    2.9200   -0.0256 C   0  0  0  0  0  0  0  0  0  0  0  0
   -0.8624    3.1974   -0.5016 H   0  0  0  0  0  0  0  0  0  0  0  0
    0.7704    3.2363   -0.5080 H   0  0  0  0  0  0  0  0  0  0  0  0
   -0.0448    3.3867    0.9594 H   0  0  0  0  0  0  0  0  0  0  0  0
   -0.0009    1.4269    0.0054 C   0  0  0  0  0  0  0  0  0  0  0  0
   -1.1884    0.6974   -0.0086 C   0  0  0  0  0  0  0  0  0  0  0  0
   -2.0685    1.1773   -0.0271 H   0  0  0  0  0  0  0  0  0  0  0  0
   -1.2174   -0.7303   -0.0000 C   0  0  0  0  0  0  0  0  0  0  0  0
   -2.1017   -1.1897    0.0059 H   0  0  0  0  0  0  0  0  0  0  0  0
   -0.0295   -1.4263    0.0017 C   0  0  0  0  0  0  0  0  0  0  0  0
   -0.0030   -2.4146    0.0031 H   0  0  0  0  0  0  0  0  0  0  0  0
    1.2174   -0.6994    0.0000 C   0  0  0  0  0  0  0  0  0  0  0  0
    2.0839   -1.1974   -0.0006 H   0  0  0  0  0  0  0  0  0  0  0  0
    1.2188    0.7317    0.0016 C   0  0  0  0  0  0  0  0  0  0  0  0
    2.0753    1.2142   -0.0008 H   0  0  0  0  0  0  0  0  0  0  0  0
  1  5  1  0
  5  6  1  0
  5  7  2  0
  1  2  1  0
  1  3  1  0
  1  4  1  0
  8 12  1  0
 12 13  2  0
 13 15  1  0
 15 17  2  0
 17 19  1  0
 19 21  2  0
 21 12  1  0
  8  9  1  0
  8 10  1  0
  8 11  1  0
 13 14  1  0
 15 16  1  0
 17 18  1  0
 19 20  1  0
 21 22  1  0
M  CHG  1   6  -1
M  END
>  <PDB_ID>  (867) 
pdb1pz2

>  <RESIDUE_NAME>  (867) 
GLU   PHE

>  <FRAG_NAME>  (867) 
ACET   MBZ

>  <FRAG_ATOM_NUM>  (867) 
fragi: 7  fragj: 15

>  <atom.prop.CHAIN_ID>  (867) 
A A A A A A A Z Z Z Z Z Z Z Z Z Z Z Z Z Z Z

>  <atom.prop.IS_HEAVY_ATOM>  (867) 
1 0 0 0 1 1 1 1 0 0 0 1 1 0 1 0 1 0 1 0 1 0

>  <DIFUSE_FUNC_ATOM>  (867) 
atom 6   atom 7   

>  <FINAL_SINGLE_POINT_ENERGY>  (867) 
0

>  <NONCOV_INTER_ENERGY_QM>  (867) 
0

>  <FF_Energy>  (867) 
29.81

>  <QM_Energy>  (867) 
3.58

>  <source>  (867) 
ACET_MBZ_00

>  <Index>  (867) 
31528

$$$$
ACET-pdb1pz2-B-ASP-48:MBZ-pdb1pz2-B-PHE-52
     RDKit          3D

 22 21  0  0  0  0  0  0  0  0999 V2000
    4.1363    5.2220   -2.1203 C   0  0  0  0  0  0  0  0  0  0  0  0
    5.1230    5.0929   -2.1741 H   0  0  0  0  0  0  0  0  0  0  0  0
    3.9229    5.9734   -1.5029 H   0  0  0  0  0  0  0  0  0  0  0  0
    3.7832    5.4974   -3.1141 H   0  0  0  0  0  0  0  0  0  0  0  0
    3.5076    3.9408   -1.5647 C   0  0  0  0  0  0  0  0  0  0  0  0
    2.8261    3.1719   -2.2951 O   0  0  0  0  0  1  0  0  0  0  0  0
    3.6723    3.6387   -0.3610 O   0  0  0  0  0  0  0  0  0  0  0  0
   -0.0151    2.8780   -0.0026 C   0  0  0  0  0  0  0  0  0  0  0  0
    0.9180    3.1984   -0.0719 H   0  0  0  0  0  0  0  0  0  0  0  0
   -0.4398    3.1895    0.8353 H   0  0  0  0  0  0  0  0  0  0  0  0
   -0.5753    3.3021   -0.8359 H   0  0  0  0  0  0  0  0  0  0  0  0
   -0.0017    1.3936    0.0018 C   0  0  0  0  0  0  0  0  0  0  0  0
   -1.1891    0.6864    0.0059 C   0  0  0  0  0  0  0  0  0  0  0  0
   -2.0594    1.1747    0.0123 H   0  0  0  0  0  0  0  0  0  0  0  0
   -1.1869   -0.6947    0.0000 C   0  0  0  0  0  0  0  0  0  0  0  0
   -2.0671   -1.1931   -0.0070 H   0  0  0  0  0  0  0  0  0  0  0  0
    0.0061   -1.3856    0.0058 C   0  0  0  0  0  0  0  0  0  0  0  0
   -0.0032   -2.3896    0.0136 H   0  0  0  0  0  0  0  0  0  0  0  0
    1.1869   -0.7001    0.0000 C   0  0  0  0  0  0  0  0  0  0  0  0
    2.0785   -1.1859    0.0068 H   0  0  0  0  0  0  0  0  0  0  0  0
    1.1847    0.7005   -0.0135 C   0  0  0  0  0  0  0  0  0  0  0  0
    2.0560    1.1868   -0.0351 H   0  0  0  0  0  0  0  0  0  0  0  0
  1  5  1  0
  5  6  1  0
  5  7  2  0
  1  2  1  0
  1  3  1  0
  1  4  1  0
  8 12  1  0
 12 13  2  0
 13 15  1  0
 15 17  2  0
 17 19  1  0
 19 21  2  0
 21 12  1  0
  8  9  1  0
  8 10  1  0
  8 11  1  0
 13 14  1  0
 15 16  1  0
 17 18  1  0
 19 20  1  0
 21 22  1  0
M  CHG  1   6  -1
M  END
>  <PDB_ID>  (868) 
pdb1pz2

>  <RESIDUE_NAME>  (868) 
ASP   PHE

>  <FRAG_NAME>  (868) 
ACET   MBZ

>  <FRAG_ATOM_NUM>  (868) 
fragi: 7  fragj: 15

>  <atom.prop.CHAIN_ID>  (868) 
A A A A A A A Z Z Z Z Z Z Z Z Z Z Z Z Z Z Z

>  <atom.prop.IS_HEAVY_ATOM>  (868) 
1 0 0 0 1 1 1 1 0 0 0 1 1 0 1 0 1 0 1 0 1 0

>  <DIFUSE_FUNC_ATOM>  (868) 
atom 6   atom 7   

>  <FINAL_SINGLE_POINT_ENERGY>  (868) 
0

>  <NONCOV_INTER_ENERGY_QM>  (868) 
0

>  <FF_Energy>  (868) 
-2.14

>  <QM_Energy>  (868) 
-8.01

>  <source>  (868) 
ACET_MBZ_00

>  <Index>  (868) 
31553

$$$$
ACET-pdb2wa1-A-GLU-248:MBZ-pdb2wa1-A-PHE-32
     RDKit          3D

 22 21  0  0  0  0  0  0  0  0999 V2000
    4.1316   -4.2003   -0.3477 C   0  0  0  0  0  0  0  0  0  0  0  0
    4.1343   -5.1238    0.0046 H   0  0  0  0  0  0  0  0  0  0  0  0
    4.9957   -3.9728   -0.7689 H   0  0  0  0  0  0  0  0  0  0  0  0
    3.3558   -4.1334   -1.1104 H   0  0  0  0  0  0  0  0  0  0  0  0
    3.9536   -3.2534    0.8626 C   0  0  0  0  0  0  0  0  0  0  0  0
    3.8279   -2.0079    0.6815 O   0  0  0  0  0  1  0  0  0  0  0  0
    3.9901   -3.7703    2.0150 O   0  0  0  0  0  0  0  0  0  0  0  0
    0.0238    2.9349   -0.0263 C   0  0  0  0  0  0  0  0  0  0  0  0
    0.9059    3.2250   -0.3631 H   0  0  0  0  0  0  0  0  0  0  0  0
   -0.1342    3.2516    0.8962 H   0  0  0  0  0  0  0  0  0  0  0  0
   -0.7367    3.3864   -0.6634 H   0  0  0  0  0  0  0  0  0  0  0  0
    0.0042    1.4202   -0.0107 C   0  0  0  0  0  0  0  0  0  0  0  0
   -1.1988    0.7088    0.0009 C   0  0  0  0  0  0  0  0  0  0  0  0
   -2.0651    1.1926    0.0086 H   0  0  0  0  0  0  0  0  0  0  0  0
   -1.2069   -0.7032   -0.0000 C   0  0  0  0  0  0  0  0  0  0  0  0
   -2.0880   -1.1853   -0.0044 H   0  0  0  0  0  0  0  0  0  0  0  0
   -0.0052   -1.4150    0.0076 C   0  0  0  0  0  0  0  0  0  0  0  0
   -0.0106   -2.4059    0.0172 H   0  0  0  0  0  0  0  0  0  0  0  0
    1.2069   -0.7105    0.0000 C   0  0  0  0  0  0  0  0  0  0  0  0
    2.0855   -1.2020   -0.0054 H   0  0  0  0  0  0  0  0  0  0  0  0
    1.1999    0.6997    0.0022 C   0  0  0  0  0  0  0  0  0  0  0  0
    2.0723    1.1872    0.0125 H   0  0  0  0  0  0  0  0  0  0  0  0
  1  5  1  0
  5  6  1  0
  5  7  2  0
  1  2  1  0
  1  3  1  0
  1  4  1  0
  8 12  1  0
 12 13  2  0
 13 15  1  0
 15 17  2  0
 17 19  1  0
 19 21  2  0
 21 12  1  0
  8  9  1  0
  8 10  1  0
  8 11  1  0
 13 14  1  0
 15 16  1  0
 17 18  1  0
 19 20  1  0
 21 22  1  0
M  CHG  1   6  -1
M  END
>  <PDB_ID>  (869) 
pdb2wa1

>  <RESIDUE_NAME>  (869) 
GLU   PHE

>  <FRAG_NAME>  (869) 
ACET   MBZ

>  <FRAG_ATOM_NUM>  (869) 
fragi: 7  fragj: 15

>  <atom.prop.CHAIN_ID>  (869) 
A A A A A A A Z Z Z Z Z Z Z Z Z Z Z Z Z Z Z

>  <atom.prop.IS_HEAVY_ATOM>  (869) 
1 0 0 0 1 1 1 1 0 0 0 1 1 0 1 0 1 0 1 0 1 0

>  <DIFUSE_FUNC_ATOM>  (869) 
atom 6   atom 7   

>  <FINAL_SINGLE_POINT_ENERGY>  (869) 
0

>  <NONCOV_INTER_ENERGY_QM>  (869) 
0

>  <FF_Energy>  (869) 
3.44

>  <QM_Energy>  (869) 
-5.57

>  <source>  (869) 
ACET_MBZ_00

>  <Index>  (869) 
31554

$$$$
ACET-pdb2wbn-A-GLU-324:MBZ-pdb2wbn-A-PHE-267
     RDKit          3D

 22 21  0  0  0  0  0  0  0  0999 V2000
   -2.5096    2.9273   -3.1136 C   0  0  0  0  0  0  0  0  0  0  0  0
   -2.9595    3.3438   -3.8821 H   0  0  0  0  0  0  0  0  0  0  0  0
   -2.9964    3.0759   -2.2722 H   0  0  0  0  0  0  0  0  0  0  0  0
   -2.4618    1.8531   -3.2920 H   0  0  0  0  0  0  0  0  0  0  0  0
   -1.1341    3.5920   -2.9715 C   0  0  0  0  0  0  0  0  0  0  0  0
   -0.1011    3.0030   -3.3807 O   0  0  0  0  0  1  0  0  0  0  0  0
   -1.0880    4.7257   -2.4680 O   0  0  0  0  0  0  0  0  0  0  0  0
    0.0048    2.8992    0.0158 C   0  0  0  0  0  0  0  0  0  0  0  0
   -0.9161    3.2134   -0.1504 H   0  0  0  0  0  0  0  0  0  0  0  0
    0.6282    3.2169   -0.6814 H   0  0  0  0  0  0  0  0  0  0  0  0
    0.3317    3.3147    0.9691 H   0  0  0  0  0  0  0  0  0  0  0  0
   -0.0013    1.4010   -0.0094 C   0  0  0  0  0  0  0  0  0  0  0  0
   -1.1919    0.7010    0.0015 C   0  0  0  0  0  0  0  0  0  0  0  0
   -2.0615    1.1860    0.0096 H   0  0  0  0  0  0  0  0  0  0  0  0
   -1.2008   -0.6988    0.0000 C   0  0  0  0  0  0  0  0  0  0  0  0
   -2.0793   -1.1854   -0.0059 H   0  0  0  0  0  0  0  0  0  0  0  0
   -0.0028   -1.3937    0.0089 C   0  0  0  0  0  0  0  0  0  0  0  0
   -0.0056   -2.3932    0.0210 H   0  0  0  0  0  0  0  0  0  0  0  0
    1.2008   -0.6990   -0.0000 C   0  0  0  0  0  0  0  0  0  0  0  0
    2.0800   -1.1980   -0.0044 H   0  0  0  0  0  0  0  0  0  0  0  0
    1.1960    0.6894   -0.0010 C   0  0  0  0  0  0  0  0  0  0  0  0
    2.0641    1.1872    0.0034 H   0  0  0  0  0  0  0  0  0  0  0  0
  1  5  1  0
  5  6  1  0
  5  7  2  0
  1  2  1  0
  1  3  1  0
  1  4  1  0
  8 12  1  0
 12 13  2  0
 13 15  1  0
 15 17  2  0
 17 19  1  0
 19 21  2  0
 21 12  1  0
  8  9  1  0
  8 10  1  0
  8 11  1  0
 13 14  1  0
 15 16  1  0
 17 18  1  0
 19 20  1  0
 21 22  1  0
M  CHG  1   6  -1
M  END
>  <PDB_ID>  (870) 
pdb2wbn

>  <RESIDUE_NAME>  (870) 
GLU   PHE

>  <FRAG_NAME>  (870) 
ACET   MBZ

>  <FRAG_ATOM_NUM>  (870) 
fragi: 7  fragj: 15

>  <atom.prop.CHAIN_ID>  (870) 
A A A A A A A Z Z Z Z Z Z Z Z Z Z Z Z Z Z Z

>  <atom.prop.IS_HEAVY_ATOM>  (870) 
1 0 0 0 1 1 1 1 0 0 0 1 1 0 1 0 1 0 1 0 1 0

>  <DIFUSE_FUNC_ATOM>  (870) 
atom 6   atom 7   

>  <FINAL_SINGLE_POINT_ENERGY>  (870) 
0

>  <NONCOV_INTER_ENERGY_QM>  (870) 
0

>  <FF_Energy>  (870) 
0.27

>  <QM_Energy>  (870) 
-5.18

>  <source>  (870) 
ACET_MBZ_00

>  <Index>  (870) 
31696

$$$$
ACET-pdb1q3a-A-ASP-197:MBZ-pdb1q3a-A-PHE-173
     RDKit          3D

 22 21  0  0  0  0  0  0  0  0999 V2000
    0.9477    0.3536   -3.4189 C   0  0  0  0  0  0  0  0  0  0  0  0
    1.2519   -0.0035   -2.5456 H   0  0  0  0  0  0  0  0  0  0  0  0
    1.5881    0.1203   -4.1385 H   0  0  0  0  0  0  0  0  0  0  0  0
   -0.0077   -0.1144   -3.6563 H   0  0  0  0  0  0  0  0  0  0  0  0
    0.8219    1.8394   -3.3300 C   0  0  0  0  0  0  0  0  0  0  0  0
   -0.3037    2.3148   -3.5907 O   0  0  0  0  0  1  0  0  0  0  0  0
    1.7604    2.6211   -3.0612 O   0  0  0  0  0  0  0  0  0  0  0  0
    0.0183    2.8968    0.0187 C   0  0  0  0  0  0  0  0  0  0  0  0
   -0.9119    3.2178   -0.0283 H   0  0  0  0  0  0  0  0  0  0  0  0
    0.5551    3.2120   -0.7449 H   0  0  0  0  0  0  0  0  0  0  0  0
    0.4651    3.2936    0.9303 H   0  0  0  0  0  0  0  0  0  0  0  0
    0.0001    1.4035   -0.0074 C   0  0  0  0  0  0  0  0  0  0  0  0
   -1.1929    0.7014    0.0041 C   0  0  0  0  0  0  0  0  0  0  0  0
   -2.0611    1.1802    0.0137 H   0  0  0  0  0  0  0  0  0  0  0  0
   -1.1918   -0.7038    0.0000 C   0  0  0  0  0  0  0  0  0  0  0  0
   -2.0717   -1.1907    0.0067 H   0  0  0  0  0  0  0  0  0  0  0  0
    0.0045   -1.3951   -0.0112 C   0  0  0  0  0  0  0  0  0  0  0  0
   -0.0006   -2.3964   -0.0284 H   0  0  0  0  0  0  0  0  0  0  0  0
    1.1918   -0.7024   -0.0000 C   0  0  0  0  0  0  0  0  0  0  0  0
    2.0800   -1.1917   -0.0003 H   0  0  0  0  0  0  0  0  0  0  0  0
    1.1884    0.6965    0.0145 C   0  0  0  0  0  0  0  0  0  0  0  0
    2.0610    1.1847    0.0402 H   0  0  0  0  0  0  0  0  0  0  0  0
  1  5  1  0
  5  6  1  0
  5  7  2  0
  1  2  1  0
  1  3  1  0
  1  4  1  0
  8 12  1  0
 12 13  2  0
 13 15  1  0
 15 17  2  0
 17 19  1  0
 19 21  2  0
 21 12  1  0
  8  9  1  0
  8 10  1  0
  8 11  1  0
 13 14  1  0
 15 16  1  0
 17 18  1  0
 19 20  1  0
 21 22  1  0
M  CHG  1   6  -1
M  END
>  <PDB_ID>  (871) 
pdb1q3a

>  <RESIDUE_NAME>  (871) 
ASP   PHE

>  <FRAG_NAME>  (871) 
ACET   MBZ

>  <FRAG_ATOM_NUM>  (871) 
fragi: 7  fragj: 15

>  <atom.prop.CHAIN_ID>  (871) 
A A A A A A A Z Z Z Z Z Z Z Z Z Z Z Z Z Z Z

>  <atom.prop.IS_HEAVY_ATOM>  (871) 
1 0 0 0 1 1 1 1 0 0 0 1 1 0 1 0 1 0 1 0 1 0

>  <DIFUSE_FUNC_ATOM>  (871) 
atom 6   atom 7   

>  <FINAL_SINGLE_POINT_ENERGY>  (871) 
0

>  <NONCOV_INTER_ENERGY_QM>  (871) 
0

>  <FF_Energy>  (871) 
0.67

>  <QM_Energy>  (871) 
-5.81

>  <source>  (871) 
ACET_MBZ_00

>  <Index>  (871) 
31763

$$$$
ACET-pdb1q3a-B-ASP-197:MBZ-pdb1q3a-B-PHE-173
     RDKit          3D

 22 21  0  0  0  0  0  0  0  0999 V2000
   -0.8668    0.8128    3.5213 C   0  0  0  0  0  0  0  0  0  0  0  0
   -1.2198    0.3516    2.7143 H   0  0  0  0  0  0  0  0  0  0  0  0
   -1.4151    0.5861    4.3182 H   0  0  0  0  0  0  0  0  0  0  0  0
    0.1430    0.4424    3.6979 H   0  0  0  0  0  0  0  0  0  0  0  0
   -0.9527    2.3390    3.2880 C   0  0  0  0  0  0  0  0  0  0  0  0
    0.0089    3.0757    3.6174 O   0  0  0  0  0  1  0  0  0  0  0  0
   -1.9840    2.8964    2.7951 O   0  0  0  0  0  0  0  0  0  0  0  0
   -0.0291    2.9254   -0.0171 C   0  0  0  0  0  0  0  0  0  0  0  0
    0.9001    3.2407   -0.1019 H   0  0  0  0  0  0  0  0  0  0  0  0
   -0.4480    3.2320    0.8200 H   0  0  0  0  0  0  0  0  0  0  0  0
   -0.5994    3.3420   -0.8474 H   0  0  0  0  0  0  0  0  0  0  0  0
   -0.0095    1.4139   -0.0021 C   0  0  0  0  0  0  0  0  0  0  0  0
   -1.2021    0.6999   -0.0050 C   0  0  0  0  0  0  0  0  0  0  0  0
   -2.0727    1.1882   -0.0119 H   0  0  0  0  0  0  0  0  0  0  0  0
   -1.2090   -0.6942   -0.0000 C   0  0  0  0  0  0  0  0  0  0  0  0
   -2.0781   -1.1917    0.0044 H   0  0  0  0  0  0  0  0  0  0  0  0
    0.0091   -1.4001    0.0003 C   0  0  0  0  0  0  0  0  0  0  0  0
   -0.0145   -2.4017    0.0008 H   0  0  0  0  0  0  0  0  0  0  0  0
    1.2090   -0.7222   -0.0000 C   0  0  0  0  0  0  0  0  0  0  0  0
    2.0897   -1.2016   -0.0036 H   0  0  0  0  0  0  0  0  0  0  0  0
    1.2026    0.7026    0.0067 C   0  0  0  0  0  0  0  0  0  0  0  0
    2.0660    1.1883    0.0173 H   0  0  0  0  0  0  0  0  0  0  0  0
  1  5  1  0
  5  6  1  0
  5  7  2  0
  1  2  1  0
  1  3  1  0
  1  4  1  0
  8 12  1  0
 12 13  2  0
 13 15  1  0
 15 17  2  0
 17 19  1  0
 19 21  2  0
 21 12  1  0
  8  9  1  0
  8 10  1  0
  8 11  1  0
 13 14  1  0
 15 16  1  0
 17 18  1  0
 19 20  1  0
 21 22  1  0
M  CHG  1   6  -1
M  END
>  <PDB_ID>  (872) 
pdb1q3a

>  <RESIDUE_NAME>  (872) 
ASP   PHE

>  <FRAG_NAME>  (872) 
ACET   MBZ

>  <FRAG_ATOM_NUM>  (872) 
fragi: 7  fragj: 15

>  <atom.prop.CHAIN_ID>  (872) 
A A A A A A A Z Z Z Z Z Z Z Z Z Z Z Z Z Z Z

>  <atom.prop.IS_HEAVY_ATOM>  (872) 
1 0 0 0 1 1 1 1 0 0 0 1 1 0 1 0 1 0 1 0 1 0

>  <DIFUSE_FUNC_ATOM>  (872) 
atom 6   atom 7   

>  <FINAL_SINGLE_POINT_ENERGY>  (872) 
0

>  <NONCOV_INTER_ENERGY_QM>  (872) 
0

>  <FF_Energy>  (872) 
-0.39

>  <QM_Energy>  (872) 
-6.99

>  <source>  (872) 
ACET_MBZ_00

>  <Index>  (872) 
31767

$$$$
ACET-pdb1q3a-C-ASP-197:MBZ-pdb1q3a-C-PHE-173
     RDKit          3D

 22 21  0  0  0  0  0  0  0  0999 V2000
    0.5418    0.8441   -3.4902 C   0  0  0  0  0  0  0  0  0  0  0  0
    0.9142    0.4629   -2.6535 H   0  0  0  0  0  0  0  0  0  0  0  0
    1.1146    0.6153   -4.2667 H   0  0  0  0  0  0  0  0  0  0  0  0
   -0.4416    0.4033   -3.6539 H   0  0  0  0  0  0  0  0  0  0  0  0
    0.4789    2.3518   -3.3552 C   0  0  0  0  0  0  0  0  0  0  0  0
   -0.5972    2.9566   -3.5913 O   0  0  0  0  0  1  0  0  0  0  0  0
    1.4556    3.0263   -2.9844 O   0  0  0  0  0  0  0  0  0  0  0  0
    0.0535    2.9121    0.0112 C   0  0  0  0  0  0  0  0  0  0  0  0
   -0.8500    3.2470    0.1637 H   0  0  0  0  0  0  0  0  0  0  0  0
    0.4458    3.2160   -0.8293 H   0  0  0  0  0  0  0  0  0  0  0  0
    0.6844    3.2720    0.8238 H   0  0  0  0  0  0  0  0  0  0  0  0
    0.0008    1.4023   -0.0106 C   0  0  0  0  0  0  0  0  0  0  0  0
   -1.2097    0.6981    0.0073 C   0  0  0  0  0  0  0  0  0  0  0  0
   -2.0697    1.1916    0.0235 H   0  0  0  0  0  0  0  0  0  0  0  0
   -1.2210   -0.7022    0.0000 C   0  0  0  0  0  0  0  0  0  0  0  0
   -2.0858   -1.1950    0.0077 H   0  0  0  0  0  0  0  0  0  0  0  0
    0.0006   -1.3935   -0.0166 C   0  0  0  0  0  0  0  0  0  0  0  0
    0.0087   -2.3878   -0.0403 H   0  0  0  0  0  0  0  0  0  0  0  0
    1.2210   -0.6800   -0.0000 C   0  0  0  0  0  0  0  0  0  0  0  0
    2.0911   -1.1983   -0.0016 H   0  0  0  0  0  0  0  0  0  0  0  0
    1.2083    0.6753    0.0199 C   0  0  0  0  0  0  0  0  0  0  0  0
    2.0705    1.1971    0.0568 H   0  0  0  0  0  0  0  0  0  0  0  0
  1  5  1  0
  5  6  1  0
  5  7  2  0
  1  2  1  0
  1  3  1  0
  1  4  1  0
  8 12  1  0
 12 13  2  0
 13 15  1  0
 15 17  2  0
 17 19  1  0
 19 21  2  0
 21 12  1  0
  8  9  1  0
  8 10  1  0
  8 11  1  0
 13 14  1  0
 15 16  1  0
 17 18  1  0
 19 20  1  0
 21 22  1  0
M  CHG  1   6  -1
M  END
>  <PDB_ID>  (873) 
pdb1q3a

>  <RESIDUE_NAME>  (873) 
ASP   PHE

>  <FRAG_NAME>  (873) 
ACET   MBZ

>  <FRAG_ATOM_NUM>  (873) 
fragi: 7  fragj: 15

>  <atom.prop.CHAIN_ID>  (873) 
A A A A A A A Z Z Z Z Z Z Z Z Z Z Z Z Z Z Z

>  <atom.prop.IS_HEAVY_ATOM>  (873) 
1 0 0 0 1 1 1 1 0 0 0 1 1 0 1 0 1 0 1 0 1 0

>  <DIFUSE_FUNC_ATOM>  (873) 
atom 6   atom 7   

>  <FINAL_SINGLE_POINT_ENERGY>  (873) 
0

>  <NONCOV_INTER_ENERGY_QM>  (873) 
0

>  <FF_Energy>  (873) 
0.46

>  <QM_Energy>  (873) 
-6.67

>  <source>  (873) 
ACET_MBZ_00

>  <Index>  (873) 
31769

$$$$
ACET-pdb2wdp-A-GLU-63:MBZ-pdb2wdp-A-PHE-56
     RDKit          3D

 22 21  0  0  0  0  0  0  0  0999 V2000
    2.4428   -4.6809   -2.0808 C   0  0  0  0  0  0  0  0  0  0  0  0
    1.5889   -4.5363   -2.5429 H   0  0  0  0  0  0  0  0  0  0  0  0
    2.7386   -5.6157   -2.1221 H   0  0  0  0  0  0  0  0  0  0  0  0
    3.1988   -4.0629   -2.5654 H   0  0  0  0  0  0  0  0  0  0  0  0
    2.2367   -4.3285   -0.6107 C   0  0  0  0  0  0  0  0  0  0  0  0
    2.7253   -3.2687   -0.1617 O   0  0  0  0  0  1  0  0  0  0  0  0
    1.5820   -5.1219    0.0955 O   0  0  0  0  0  0  0  0  0  0  0  0
   -0.0127    2.9030   -0.0174 C   0  0  0  0  0  0  0  0  0  0  0  0
   -0.5819    3.1976   -0.7671 H   0  0  0  0  0  0  0  0  0  0  0  0
    0.9180    3.2135   -0.1212 H   0  0  0  0  0  0  0  0  0  0  0  0
   -0.4108    3.3416    0.8976 H   0  0  0  0  0  0  0  0  0  0  0  0
   -0.0045    1.3992   -0.0020 C   0  0  0  0  0  0  0  0  0  0  0  0
   -1.1979    0.6830   -0.0003 C   0  0  0  0  0  0  0  0  0  0  0  0
   -2.0667    1.1699   -0.0005 H   0  0  0  0  0  0  0  0  0  0  0  0
   -1.1963   -0.7065   -0.0000 C   0  0  0  0  0  0  0  0  0  0  0  0
   -2.0626   -1.2089   -0.0024 H   0  0  0  0  0  0  0  0  0  0  0  0
    0.0206   -1.3903    0.0056 C   0  0  0  0  0  0  0  0  0  0  0  0
    0.0190   -2.3907    0.0130 H   0  0  0  0  0  0  0  0  0  0  0  0
    1.1963   -0.6857    0.0000 C   0  0  0  0  0  0  0  0  0  0  0  0
    2.0912   -1.1716   -0.0002 H   0  0  0  0  0  0  0  0  0  0  0  0
    1.1818    0.7004   -0.0033 C   0  0  0  0  0  0  0  0  0  0  0  0
    2.0541    1.1999   -0.0070 H   0  0  0  0  0  0  0  0  0  0  0  0
  1  5  1  0
  5  6  1  0
  5  7  2  0
  1  2  1  0
  1  3  1  0
  1  4  1  0
  8 12  1  0
 12 13  2  0
 13 15  1  0
 15 17  2  0
 17 19  1  0
 19 21  2  0
 21 12  1  0
  8  9  1  0
  8 10  1  0
  8 11  1  0
 13 14  1  0
 15 16  1  0
 17 18  1  0
 19 20  1  0
 21 22  1  0
M  CHG  1   6  -1
M  END
>  <PDB_ID>  (874) 
pdb2wdp

>  <RESIDUE_NAME>  (874) 
GLU   PHE

>  <FRAG_NAME>  (874) 
ACET   MBZ

>  <FRAG_ATOM_NUM>  (874) 
fragi: 7  fragj: 15

>  <atom.prop.CHAIN_ID>  (874) 
A A A A A A A Z Z Z Z Z Z Z Z Z Z Z Z Z Z Z

>  <atom.prop.IS_HEAVY_ATOM>  (874) 
1 0 0 0 1 1 1 1 0 0 0 1 1 0 1 0 1 0 1 0 1 0

>  <DIFUSE_FUNC_ATOM>  (874) 
atom 6   atom 7   

>  <FINAL_SINGLE_POINT_ENERGY>  (874) 
0

>  <NONCOV_INTER_ENERGY_QM>  (874) 
0

>  <FF_Energy>  (874) 
-1.17

>  <QM_Energy>  (874) 
-6.68

>  <source>  (874) 
ACET_MBZ_00

>  <Index>  (874) 
31775

$$$$
ACET-pdb2wdp-B-GLU-63:MBZ-pdb2wdp-B-PHE-56
     RDKit          3D

 22 21  0  0  0  0  0  0  0  0999 V2000
    2.4829   -4.6835   -1.8838 C   0  0  0  0  0  0  0  0  0  0  0  0
    1.6161   -4.5451   -2.3217 H   0  0  0  0  0  0  0  0  0  0  0  0
    2.7781   -5.6184   -1.9194 H   0  0  0  0  0  0  0  0  0  0  0  0
    3.2292   -4.0554   -2.3703 H   0  0  0  0  0  0  0  0  0  0  0  0
    2.3034   -4.3272   -0.4099 C   0  0  0  0  0  0  0  0  0  0  0  0
    2.7490   -3.2312    0.0298 O   0  0  0  0  0  1  0  0  0  0  0  0
    1.7237   -5.1614    0.3190 O   0  0  0  0  0  0  0  0  0  0  0  0
    0.0002    2.8962   -0.0007 C   0  0  0  0  0  0  0  0  0  0  0  0
   -0.7747    3.2024   -0.5326 H   0  0  0  0  0  0  0  0  0  0  0  0
    0.8532    3.2026   -0.3970 H   0  0  0  0  0  0  0  0  0  0  0  0
   -0.0825    3.3365    0.9930 H   0  0  0  0  0  0  0  0  0  0  0  0
   -0.0002    1.3942   -0.0003 C   0  0  0  0  0  0  0  0  0  0  0  0
   -1.1917    0.6886    0.0001 C   0  0  0  0  0  0  0  0  0  0  0  0
   -2.0600    1.1805   -0.0009 H   0  0  0  0  0  0  0  0  0  0  0  0
   -1.1945   -0.6930   -0.0000 C   0  0  0  0  0  0  0  0  0  0  0  0
   -2.0732   -1.1895    0.0010 H   0  0  0  0  0  0  0  0  0  0  0  0
    0.0004   -1.3849    0.0007 C   0  0  0  0  0  0  0  0  0  0  0  0
   -0.0043   -2.3868    0.0005 H   0  0  0  0  0  0  0  0  0  0  0  0
    1.1945   -0.6937    0.0000 C   0  0  0  0  0  0  0  0  0  0  0  0
    2.0783   -1.1939    0.0013 H   0  0  0  0  0  0  0  0  0  0  0  0
    1.1915    0.6888   -0.0005 C   0  0  0  0  0  0  0  0  0  0  0  0
    2.0608    1.1868   -0.0021 H   0  0  0  0  0  0  0  0  0  0  0  0
  1  5  1  0
  5  6  1  0
  5  7  2  0
  1  2  1  0
  1  3  1  0
  1  4  1  0
  8 12  1  0
 12 13  2  0
 13 15  1  0
 15 17  2  0
 17 19  1  0
 19 21  2  0
 21 12  1  0
  8  9  1  0
  8 10  1  0
  8 11  1  0
 13 14  1  0
 15 16  1  0
 17 18  1  0
 19 20  1  0
 21 22  1  0
M  CHG  1   6  -1
M  END
>  <PDB_ID>  (875) 
pdb2wdp

>  <RESIDUE_NAME>  (875) 
GLU   PHE

>  <FRAG_NAME>  (875) 
ACET   MBZ

>  <FRAG_ATOM_NUM>  (875) 
fragi: 7  fragj: 15

>  <atom.prop.CHAIN_ID>  (875) 
A A A A A A A Z Z Z Z Z Z Z Z Z Z Z Z Z Z Z

>  <atom.prop.IS_HEAVY_ATOM>  (875) 
1 0 0 0 1 1 1 1 0 0 0 1 1 0 1 0 1 0 1 0 1 0

>  <DIFUSE_FUNC_ATOM>  (875) 
atom 6   atom 7   

>  <FINAL_SINGLE_POINT_ENERGY>  (875) 
0

>  <NONCOV_INTER_ENERGY_QM>  (875) 
0

>  <FF_Energy>  (875) 
-0.17

>  <QM_Energy>  (875) 
-6.47

>  <source>  (875) 
ACET_MBZ_00

>  <Index>  (875) 
31778

$$$$
ACET-pdb2wdp-C-GLU-63:MBZ-pdb2wdp-C-PHE-56
     RDKit          3D

 22 21  0  0  0  0  0  0  0  0999 V2000
    2.8633   -4.5244   -1.8959 C   0  0  0  0  0  0  0  0  0  0  0  0
    1.9940   -4.4749   -2.3474 H   0  0  0  0  0  0  0  0  0  0  0  0
    3.2375   -5.4309   -1.8937 H   0  0  0  0  0  0  0  0  0  0  0  0
    3.5577   -3.8686   -2.4210 H   0  0  0  0  0  0  0  0  0  0  0  0
    2.6601   -4.1069   -0.4556 C   0  0  0  0  0  0  0  0  0  0  0  0
    3.0403   -2.9655   -0.1113 O   0  0  0  0  0  1  0  0  0  0  0  0
    2.1242   -4.9272    0.3258 O   0  0  0  0  0  0  0  0  0  0  0  0
    0.0076    2.8544   -0.0044 C   0  0  0  0  0  0  0  0  0  0  0  0
   -0.5293    3.1640   -0.7809 H   0  0  0  0  0  0  0  0  0  0  0  0
    0.9478    3.1670   -0.0824 H   0  0  0  0  0  0  0  0  0  0  0  0
   -0.4174    3.3049    0.8926 H   0  0  0  0  0  0  0  0  0  0  0  0
    0.0067    1.3728    0.0032 C   0  0  0  0  0  0  0  0  0  0  0  0
   -1.1528    0.6750   -0.0116 C   0  0  0  0  0  0  0  0  0  0  0  0
   -2.0337    1.1717   -0.0331 H   0  0  0  0  0  0  0  0  0  0  0  0
   -1.1580   -0.6745    0.0000 C   0  0  0  0  0  0  0  0  0  0  0  0
   -2.0704   -1.1577    0.0160 H   0  0  0  0  0  0  0  0  0  0  0  0
   -0.0365   -1.3468   -0.0067 C   0  0  0  0  0  0  0  0  0  0  0  0
   -0.0370   -2.3684   -0.0177 H   0  0  0  0  0  0  0  0  0  0  0  0
    1.1580   -0.6965    0.0000 C   0  0  0  0  0  0  0  0  0  0  0  0
    2.0335   -1.2165   -0.0049 H   0  0  0  0  0  0  0  0  0  0  0  0
    1.1826    0.6700    0.0150 C   0  0  0  0  0  0  0  0  0  0  0  0
    2.0561    1.1574    0.0340 H   0  0  0  0  0  0  0  0  0  0  0  0
  1  5  1  0
  5  6  1  0
  5  7  2  0
  1  2  1  0
  1  3  1  0
  1  4  1  0
  8 12  1  0
 12 13  2  0
 13 15  1  0
 15 17  2  0
 17 19  1  0
 19 21  2  0
 21 12  1  0
  8  9  1  0
  8 10  1  0
  8 11  1  0
 13 14  1  0
 15 16  1  0
 17 18  1  0
 19 20  1  0
 21 22  1  0
M  CHG  1   6  -1
M  END
>  <PDB_ID>  (876) 
pdb2wdp

>  <RESIDUE_NAME>  (876) 
GLU   PHE

>  <FRAG_NAME>  (876) 
ACET   MBZ

>  <FRAG_ATOM_NUM>  (876) 
fragi: 7  fragj: 15

>  <atom.prop.CHAIN_ID>  (876) 
A A A A A A A Z Z Z Z Z Z Z Z Z Z Z Z Z Z Z

>  <atom.prop.IS_HEAVY_ATOM>  (876) 
1 0 0 0 1 1 1 1 0 0 0 1 1 0 1 0 1 0 1 0 1 0

>  <DIFUSE_FUNC_ATOM>  (876) 
atom 6   atom 7   

>  <FINAL_SINGLE_POINT_ENERGY>  (876) 
0

>  <NONCOV_INTER_ENERGY_QM>  (876) 
0

>  <FF_Energy>  (876) 
3.47

>  <QM_Energy>  (876) 
-5.98

>  <source>  (876) 
ACET_MBZ_00

>  <Index>  (876) 
31782

$$$$
ACET-pdb2wdz-D-GLU-176:MBZ-pdb2wdz-C-PHE-155
     RDKit          3D

 22 21  0  0  0  0  0  0  0  0999 V2000
    1.0061    0.1117   -3.6717 C   0  0  0  0  0  0  0  0  0  0  0  0
    0.7176   -0.2115   -4.5603 H   0  0  0  0  0  0  0  0  0  0  0  0
    0.6113   -0.4314   -2.9458 H   0  0  0  0  0  0  0  0  0  0  0  0
    2.0894    0.0036   -3.6167 H   0  0  0  0  0  0  0  0  0  0  0  0
    0.4846    1.5435   -3.5098 C   0  0  0  0  0  0  0  0  0  0  0  0
    1.2712    2.5141   -3.3423 O   0  0  0  0  0  1  0  0  0  0  0  0
   -0.7542    1.6945   -3.5454 O   0  0  0  0  0  0  0  0  0  0  0  0
   -0.0141    2.9255    0.0310 C   0  0  0  0  0  0  0  0  0  0  0  0
   -0.9568    3.2224    0.0033 H   0  0  0  0  0  0  0  0  0  0  0  0
    0.4901    3.2527   -0.7537 H   0  0  0  0  0  0  0  0  0  0  0  0
    0.4412    3.3648    0.9186 H   0  0  0  0  0  0  0  0  0  0  0  0
    0.0054    1.4199    0.0077 C   0  0  0  0  0  0  0  0  0  0  0  0
   -1.1842    0.7086    0.0084 C   0  0  0  0  0  0  0  0  0  0  0  0
   -2.0598    1.1776    0.0132 H   0  0  0  0  0  0  0  0  0  0  0  0
   -1.1951   -0.7255   -0.0000 C   0  0  0  0  0  0  0  0  0  0  0  0
   -2.0869   -1.1852    0.0049 H   0  0  0  0  0  0  0  0  0  0  0  0
   -0.0195   -1.4114   -0.0121 C   0  0  0  0  0  0  0  0  0  0  0  0
   -0.0029   -2.4097   -0.0297 H   0  0  0  0  0  0  0  0  0  0  0  0
    1.1951   -0.7047    0.0000 C   0  0  0  0  0  0  0  0  0  0  0  0
    2.0736   -1.1972    0.0133 H   0  0  0  0  0  0  0  0  0  0  0  0
    1.1983    0.7131   -0.0040 C   0  0  0  0  0  0  0  0  0  0  0  0
    2.0699    1.1913   -0.0159 H   0  0  0  0  0  0  0  0  0  0  0  0
  1  5  1  0
  5  6  1  0
  5  7  2  0
  1  2  1  0
  1  3  1  0
  1  4  1  0
  8 12  1  0
 12 13  2  0
 13 15  1  0
 15 17  2  0
 17 19  1  0
 19 21  2  0
 21 12  1  0
  8  9  1  0
  8 10  1  0
  8 11  1  0
 13 14  1  0
 15 16  1  0
 17 18  1  0
 19 20  1  0
 21 22  1  0
M  CHG  1   6  -1
M  END
>  <PDB_ID>  (877) 
pdb2wdz

>  <RESIDUE_NAME>  (877) 
GLU   PHE

>  <FRAG_NAME>  (877) 
ACET   MBZ

>  <FRAG_ATOM_NUM>  (877) 
fragi: 7  fragj: 15

>  <atom.prop.CHAIN_ID>  (877) 
A A A A A A A Z Z Z Z Z Z Z Z Z Z Z Z Z Z Z

>  <atom.prop.IS_HEAVY_ATOM>  (877) 
1 0 0 0 1 1 1 1 0 0 0 1 1 0 1 0 1 0 1 0 1 0

>  <DIFUSE_FUNC_ATOM>  (877) 
atom 6   atom 7   

>  <FINAL_SINGLE_POINT_ENERGY>  (877) 
0

>  <NONCOV_INTER_ENERGY_QM>  (877) 
0

>  <FF_Energy>  (877) 
0.46

>  <QM_Energy>  (877) 
-5.18

>  <source>  (877) 
ACET_MBZ_00

>  <Index>  (877) 
31805

$$$$
ACET-pdb2wbo-A-ASP-268:MBZ-pdb2wbo-A-PHE-271
     RDKit          3D

 22 21  0  0  0  0  0  0  0  0999 V2000
    3.4233    4.9241    0.4593 C   0  0  0  0  0  0  0  0  0  0  0  0
    3.5846    5.1767    1.4064 H   0  0  0  0  0  0  0  0  0  0  0  0
    2.4920    5.1460    0.1946 H   0  0  0  0  0  0  0  0  0  0  0  0
    4.1002    5.5074   -0.1649 H   0  0  0  0  0  0  0  0  0  0  0  0
    3.6360    3.4397    0.3055 C   0  0  0  0  0  0  0  0  0  0  0  0
    3.8245    2.7375    1.3254 O   0  0  0  0  0  1  0  0  0  0  0  0
    3.6169    2.9857   -0.8508 O   0  0  0  0  0  0  0  0  0  0  0  0
   -0.0068    2.8955   -0.0271 C   0  0  0  0  0  0  0  0  0  0  0  0
    0.8594    3.2148    0.3180 H   0  0  0  0  0  0  0  0  0  0  0  0
   -0.7611    3.2144    0.5213 H   0  0  0  0  0  0  0  0  0  0  0  0
   -0.1328    3.3035   -1.0300 H   0  0  0  0  0  0  0  0  0  0  0  0
   -0.0022    1.3961    0.0030 C   0  0  0  0  0  0  0  0  0  0  0  0
   -1.1923    0.6896   -0.0043 C   0  0  0  0  0  0  0  0  0  0  0  0
   -2.0607    1.1792   -0.0135 H   0  0  0  0  0  0  0  0  0  0  0  0
   -1.1904   -0.6915   -0.0000 C   0  0  0  0  0  0  0  0  0  0  0  0
   -2.0687   -1.1909    0.0063 H   0  0  0  0  0  0  0  0  0  0  0  0
    0.0058   -1.3844   -0.0022 C   0  0  0  0  0  0  0  0  0  0  0  0
   -0.0060   -2.3880   -0.0062 H   0  0  0  0  0  0  0  0  0  0  0  0
    1.1904   -0.7010    0.0000 C   0  0  0  0  0  0  0  0  0  0  0  0
    2.0788   -1.1938    0.0007 H   0  0  0  0  0  0  0  0  0  0  0  0
    1.1887    0.6911    0.0035 C   0  0  0  0  0  0  0  0  0  0  0  0
    2.0594    1.1838    0.0053 H   0  0  0  0  0  0  0  0  0  0  0  0
  1  5  1  0
  5  6  1  0
  5  7  2  0
  1  2  1  0
  1  3  1  0
  1  4  1  0
  8 12  1  0
 12 13  2  0
 13 15  1  0
 15 17  2  0
 17 19  1  0
 19 21  2  0
 21 12  1  0
  8  9  1  0
  8 10  1  0
  8 11  1  0
 13 14  1  0
 15 16  1  0
 17 18  1  0
 19 20  1  0
 21 22  1  0
M  CHG  1   6  -1
M  END
>  <PDB_ID>  (878) 
pdb2wbo

>  <RESIDUE_NAME>  (878) 
ASP   PHE

>  <FRAG_NAME>  (878) 
ACET   MBZ

>  <FRAG_ATOM_NUM>  (878) 
fragi: 7  fragj: 15

>  <atom.prop.CHAIN_ID>  (878) 
A A A A A A A Z Z Z Z Z Z Z Z Z Z Z Z Z Z Z

>  <atom.prop.IS_HEAVY_ATOM>  (878) 
1 0 0 0 1 1 1 1 0 0 0 1 1 0 1 0 1 0 1 0 1 0

>  <DIFUSE_FUNC_ATOM>  (878) 
atom 6   atom 7   

>  <FINAL_SINGLE_POINT_ENERGY>  (878) 
0

>  <NONCOV_INTER_ENERGY_QM>  (878) 
0

>  <FF_Energy>  (878) 
-2.5

>  <QM_Energy>  (878) 
-8.31

>  <source>  (878) 
ACET_MBZ_00

>  <Index>  (878) 
31826

$$$$
ACET-pdb1q1l-D-GLU-222:MBZ-pdb1q1l-A-PHE-278
     RDKit          3D

 22 21  0  0  0  0  0  0  0  0999 V2000
   -1.7214    2.7351    2.6349 C   0  0  0  0  0  0  0  0  0  0  0  0
   -1.0121    2.0803    2.4542 H   0  0  0  0  0  0  0  0  0  0  0  0
   -2.1875    3.0179    1.8181 H   0  0  0  0  0  0  0  0  0  0  0  0
   -2.4446    2.2913    3.3190 H   0  0  0  0  0  0  0  0  0  0  0  0
   -1.0619    3.9648    3.2258 C   0  0  0  0  0  0  0  0  0  0  0  0
   -0.2996    3.8190    4.2077 O   0  0  0  0  0  1  0  0  0  0  0  0
   -1.3166    5.0772    2.7130 O   0  0  0  0  0  0  0  0  0  0  0  0
    0.0014    2.9081   -0.0059 C   0  0  0  0  0  0  0  0  0  0  0  0
    0.9402    3.2150    0.0306 H   0  0  0  0  0  0  0  0  0  0  0  0
   -0.5097    3.2181    0.7819 H   0  0  0  0  0  0  0  0  0  0  0  0
   -0.4574    3.3464   -0.8922 H   0  0  0  0  0  0  0  0  0  0  0  0
    0.0011    1.4058   -0.0001 C   0  0  0  0  0  0  0  0  0  0  0  0
   -1.1963    0.6986    0.0006 C   0  0  0  0  0  0  0  0  0  0  0  0
   -2.0634    1.1865    0.0006 H   0  0  0  0  0  0  0  0  0  0  0  0
   -1.2037   -0.7000    0.0000 C   0  0  0  0  0  0  0  0  0  0  0  0
   -2.0825   -1.1881    0.0005 H   0  0  0  0  0  0  0  0  0  0  0  0
   -0.0040   -1.3990    0.0006 C   0  0  0  0  0  0  0  0  0  0  0  0
   -0.0069   -2.3966    0.0010 H   0  0  0  0  0  0  0  0  0  0  0  0
    1.2037   -0.7012   -0.0000 C   0  0  0  0  0  0  0  0  0  0  0  0
    2.0821   -1.1979    0.0019 H   0  0  0  0  0  0  0  0  0  0  0  0
    1.1992    0.6958   -0.0011 C   0  0  0  0  0  0  0  0  0  0  0  0
    2.0680    1.1899   -0.0032 H   0  0  0  0  0  0  0  0  0  0  0  0
  1  5  1  0
  5  6  1  0
  5  7  2  0
  1  2  1  0
  1  3  1  0
  1  4  1  0
  8 12  1  0
 12 13  2  0
 13 15  1  0
 15 17  2  0
 17 19  1  0
 19 21  2  0
 21 12  1  0
  8  9  1  0
  8 10  1  0
  8 11  1  0
 13 14  1  0
 15 16  1  0
 17 18  1  0
 19 20  1  0
 21 22  1  0
M  CHG  1   6  -1
M  END
>  <PDB_ID>  (879) 
pdb1q1l

>  <RESIDUE_NAME>  (879) 
GLU   PHE

>  <FRAG_NAME>  (879) 
ACET   MBZ

>  <FRAG_ATOM_NUM>  (879) 
fragi: 7  fragj: 15

>  <atom.prop.CHAIN_ID>  (879) 
A A A A A A A Z Z Z Z Z Z Z Z Z Z Z Z Z Z Z

>  <atom.prop.IS_HEAVY_ATOM>  (879) 
1 0 0 0 1 1 1 1 0 0 0 1 1 0 1 0 1 0 1 0 1 0

>  <DIFUSE_FUNC_ATOM>  (879) 
atom 6   atom 7   

>  <FINAL_SINGLE_POINT_ENERGY>  (879) 
0

>  <NONCOV_INTER_ENERGY_QM>  (879) 
0

>  <FF_Energy>  (879) 
6.31

>  <QM_Energy>  (879) 
-1.96

>  <source>  (879) 
ACET_MBZ_00

>  <Index>  (879) 
31873

$$$$
ACET-pdb1q4g-B-GLU-490:MBZ-pdb1q4g-B-PHE-181
     RDKit          3D

 22 21  0  0  0  0  0  0  0  0999 V2000
    0.8435   -4.6531    1.0563 C   0  0  0  0  0  0  0  0  0  0  0  0
    0.3584   -4.0054    0.4969 H   0  0  0  0  0  0  0  0  0  0  0  0
    0.3787   -5.5189    1.1087 H   0  0  0  0  0  0  0  0  0  0  0  0
    1.8270   -4.8165    0.6158 H   0  0  0  0  0  0  0  0  0  0  0  0
    0.9034   -4.0829    2.4684 C   0  0  0  0  0  0  0  0  0  0  0  0
    1.8731   -3.3507    2.7872 O   0  0  0  0  0  1  0  0  0  0  0  0
   -0.0339   -4.3585    3.2552 O   0  0  0  0  0  0  0  0  0  0  0  0
   -0.0005    2.8987   -0.0026 C   0  0  0  0  0  0  0  0  0  0  0  0
   -0.8575    3.2067   -0.3899 H   0  0  0  0  0  0  0  0  0  0  0  0
    0.7680    3.2060   -0.5453 H   0  0  0  0  0  0  0  0  0  0  0  0
    0.0947    3.3406    0.9893 H   0  0  0  0  0  0  0  0  0  0  0  0
   -0.0008    1.4013   -0.0000 C   0  0  0  0  0  0  0  0  0  0  0  0
   -1.1952    0.6950    0.0007 C   0  0  0  0  0  0  0  0  0  0  0  0
   -2.0627    1.1838   -0.0001 H   0  0  0  0  0  0  0  0  0  0  0  0
   -1.1994   -0.6972   -0.0000 C   0  0  0  0  0  0  0  0  0  0  0  0
   -2.0763   -1.1900    0.0010 H   0  0  0  0  0  0  0  0  0  0  0  0
    0.0014   -1.3946   -0.0004 C   0  0  0  0  0  0  0  0  0  0  0  0
   -0.0045   -2.3938   -0.0014 H   0  0  0  0  0  0  0  0  0  0  0  0
    1.1994   -0.6996    0.0000 C   0  0  0  0  0  0  0  0  0  0  0  0
    2.0825   -1.1936    0.0015 H   0  0  0  0  0  0  0  0  0  0  0  0
    1.1945    0.6951   -0.0003 C   0  0  0  0  0  0  0  0  0  0  0  0
    2.0635    1.1893   -0.0009 H   0  0  0  0  0  0  0  0  0  0  0  0
  1  5  1  0
  5  6  1  0
  5  7  2  0
  1  2  1  0
  1  3  1  0
  1  4  1  0
  8 12  1  0
 12 13  2  0
 13 15  1  0
 15 17  2  0
 17 19  1  0
 19 21  2  0
 21 12  1  0
  8  9  1  0
  8 10  1  0
  8 11  1  0
 13 14  1  0
 15 16  1  0
 17 18  1  0
 19 20  1  0
 21 22  1  0
M  CHG  1   6  -1
M  END
>  <PDB_ID>  (880) 
pdb1q4g

>  <RESIDUE_NAME>  (880) 
GLU   PHE

>  <FRAG_NAME>  (880) 
ACET   MBZ

>  <FRAG_ATOM_NUM>  (880) 
fragi: 7  fragj: 15

>  <atom.prop.CHAIN_ID>  (880) 
A A A A A A A Z Z Z Z Z Z Z Z Z Z Z Z Z Z Z

>  <atom.prop.IS_HEAVY_ATOM>  (880) 
1 0 0 0 1 1 1 1 0 0 0 1 1 0 1 0 1 0 1 0 1 0

>  <DIFUSE_FUNC_ATOM>  (880) 
atom 6   atom 7   

>  <FINAL_SINGLE_POINT_ENERGY>  (880) 
0

>  <NONCOV_INTER_ENERGY_QM>  (880) 
0

>  <FF_Energy>  (880) 
5.1

>  <QM_Energy>  (880) 
-0.27

>  <source>  (880) 
ACET_MBZ_00

>  <Index>  (880) 
31888

$$$$
ACET-pdb1q1l-B-GLU-222:MBZ-pdb1q1l-C-PHE-278
     RDKit          3D

 22 21  0  0  0  0  0  0  0  0999 V2000
    2.7322    2.3330   -3.2687 C   0  0  0  0  0  0  0  0  0  0  0  0
    3.0778    2.3578   -4.1880 H   0  0  0  0  0  0  0  0  0  0  0  0
    2.2898    1.4802   -3.0592 H   0  0  0  0  0  0  0  0  0  0  0  0
    3.5695    2.4651   -2.5835 H   0  0  0  0  0  0  0  0  0  0  0  0
    1.6908    3.4304   -3.1421 C   0  0  0  0  0  0  0  0  0  0  0  0
    0.6955    3.3916   -3.8960 O   0  0  0  0  0  1  0  0  0  0  0  0
    1.8607    4.3292   -2.2907 O   0  0  0  0  0  0  0  0  0  0  0  0
   -0.0004    2.9091   -0.0208 C   0  0  0  0  0  0  0  0  0  0  0  0
   -0.8308    3.2093   -0.4679 H   0  0  0  0  0  0  0  0  0  0  0  0
    0.8009    3.2093   -0.5195 H   0  0  0  0  0  0  0  0  0  0  0  0
    0.0307    3.3717    0.9656 H   0  0  0  0  0  0  0  0  0  0  0  0
    0.0001    1.4052   -0.0007 C   0  0  0  0  0  0  0  0  0  0  0  0
   -1.1974    0.6947    0.0012 C   0  0  0  0  0  0  0  0  0  0  0  0
   -2.0648    1.1840    0.0018 H   0  0  0  0  0  0  0  0  0  0  0  0
   -1.2045   -0.7006    0.0000 C   0  0  0  0  0  0  0  0  0  0  0  0
   -2.0802   -1.1925    0.0005 H   0  0  0  0  0  0  0  0  0  0  0  0
   -0.0000   -1.3984    0.0001 C   0  0  0  0  0  0  0  0  0  0  0  0
   -0.0027   -2.3952   -0.0004 H   0  0  0  0  0  0  0  0  0  0  0  0
    1.2045   -0.6985   -0.0000 C   0  0  0  0  0  0  0  0  0  0  0  0
    2.0842   -1.1936    0.0017 H   0  0  0  0  0  0  0  0  0  0  0  0
    1.1973    0.6976   -0.0006 C   0  0  0  0  0  0  0  0  0  0  0  0
    2.0655    1.1926   -0.0018 H   0  0  0  0  0  0  0  0  0  0  0  0
  1  5  1  0
  5  6  1  0
  5  7  2  0
  1  2  1  0
  1  3  1  0
  1  4  1  0
  8 12  1  0
 12 13  2  0
 13 15  1  0
 15 17  2  0
 17 19  1  0
 19 21  2  0
 21 12  1  0
  8  9  1  0
  8 10  1  0
  8 11  1  0
 13 14  1  0
 15 16  1  0
 17 18  1  0
 19 20  1  0
 21 22  1  0
M  CHG  1   6  -1
M  END
>  <PDB_ID>  (881) 
pdb1q1l

>  <RESIDUE_NAME>  (881) 
GLU   PHE

>  <FRAG_NAME>  (881) 
ACET   MBZ

>  <FRAG_ATOM_NUM>  (881) 
fragi: 7  fragj: 15

>  <atom.prop.CHAIN_ID>  (881) 
A A A A A A A Z Z Z Z Z Z Z Z Z Z Z Z Z Z Z

>  <atom.prop.IS_HEAVY_ATOM>  (881) 
1 0 0 0 1 1 1 1 0 0 0 1 1 0 1 0 1 0 1 0 1 0

>  <DIFUSE_FUNC_ATOM>  (881) 
atom 6   atom 7   

>  <FINAL_SINGLE_POINT_ENERGY>  (881) 
0

>  <NONCOV_INTER_ENERGY_QM>  (881) 
0

>  <FF_Energy>  (881) 
-0.4

>  <QM_Energy>  (881) 
-5.52

>  <source>  (881) 
ACET_MBZ_00

>  <Index>  (881) 
32025

$$$$
ACET-pdb1q8c-A-GLU-23:MBZ-pdb1q8c-A-PHE-26
     RDKit          3D

 22 21  0  0  0  0  0  0  0  0999 V2000
    4.7878    3.9203   -2.5368 C   0  0  0  0  0  0  0  0  0  0  0  0
    4.6173    3.8393   -3.5086 H   0  0  0  0  0  0  0  0  0  0  0  0
    5.7540    3.8333   -2.3371 H   0  0  0  0  0  0  0  0  0  0  0  0
    4.4588    4.9079   -2.2134 H   0  0  0  0  0  0  0  0  0  0  0  0
    4.0788    2.7501   -1.8552 C   0  0  0  0  0  0  0  0  0  0  0  0
    4.6871    2.1446   -0.9318 O   0  0  0  0  0  1  0  0  0  0  0  0
    2.9201    2.4112   -2.2564 O   0  0  0  0  0  0  0  0  0  0  0  0
   -0.0117    2.9034   -0.0060 C   0  0  0  0  0  0  0  0  0  0  0  0
   -0.4252    3.2052   -0.8500 H   0  0  0  0  0  0  0  0  0  0  0  0
    0.9205    3.2191    0.0751 H   0  0  0  0  0  0  0  0  0  0  0  0
   -0.5801    3.3419    0.8142 H   0  0  0  0  0  0  0  0  0  0  0  0
   -0.0014    1.4025    0.0016 C   0  0  0  0  0  0  0  0  0  0  0  0
   -1.1913    0.6983   -0.0015 C   0  0  0  0  0  0  0  0  0  0  0  0
   -2.0617    1.1885   -0.0068 H   0  0  0  0  0  0  0  0  0  0  0  0
   -1.2032   -0.6938   -0.0000 C   0  0  0  0  0  0  0  0  0  0  0  0
   -2.0822   -1.1822    0.0047 H   0  0  0  0  0  0  0  0  0  0  0  0
   -0.0041   -1.3984   -0.0034 C   0  0  0  0  0  0  0  0  0  0  0  0
   -0.0094   -2.3929   -0.0083 H   0  0  0  0  0  0  0  0  0  0  0  0
    1.2032   -0.6993    0.0000 C   0  0  0  0  0  0  0  0  0  0  0  0
    2.0810   -1.1986    0.0016 H   0  0  0  0  0  0  0  0  0  0  0  0
    1.1969    0.6907    0.0033 C   0  0  0  0  0  0  0  0  0  0  0  0
    2.0644    1.1893    0.0062 H   0  0  0  0  0  0  0  0  0  0  0  0
  1  5  1  0
  5  6  1  0
  5  7  2  0
  1  2  1  0
  1  3  1  0
  1  4  1  0
  8 12  1  0
 12 13  2  0
 13 15  1  0
 15 17  2  0
 17 19  1  0
 19 21  2  0
 21 12  1  0
  8  9  1  0
  8 10  1  0
  8 11  1  0
 13 14  1  0
 15 16  1  0
 17 18  1  0
 19 20  1  0
 21 22  1  0
M  CHG  1   6  -1
M  END
>  <PDB_ID>  (882) 
pdb1q8c

>  <RESIDUE_NAME>  (882) 
GLU   PHE

>  <FRAG_NAME>  (882) 
ACET   MBZ

>  <FRAG_ATOM_NUM>  (882) 
fragi: 7  fragj: 15

>  <atom.prop.CHAIN_ID>  (882) 
A A A A A A A Z Z Z Z Z Z Z Z Z Z Z Z Z Z Z

>  <atom.prop.IS_HEAVY_ATOM>  (882) 
1 0 0 0 1 1 1 1 0 0 0 1 1 0 1 0 1 0 1 0 1 0

>  <DIFUSE_FUNC_ATOM>  (882) 
atom 6   atom 7   

>  <FINAL_SINGLE_POINT_ENERGY>  (882) 
0

>  <NONCOV_INTER_ENERGY_QM>  (882) 
0

>  <FF_Energy>  (882) 
0.18

>  <QM_Energy>  (882) 
-6.63

>  <source>  (882) 
ACET_MBZ_00

>  <Index>  (882) 
32031

$$$$
ACET-pdb2whn-B-GLU-139:MBZ-pdb2whn-B-PHE-117
     RDKit          3D

 22 21  0  0  0  0  0  0  0  0999 V2000
    3.5353    4.8920    1.2419 C   0  0  0  0  0  0  0  0  0  0  0  0
    3.2519    4.5614    0.3602 H   0  0  0  0  0  0  0  0  0  0  0  0
    4.0089    4.2042    1.7611 H   0  0  0  0  0  0  0  0  0  0  0  0
    4.2016    5.7425    1.0977 H   0  0  0  0  0  0  0  0  0  0  0  0
    2.2830    5.2584    2.0126 C   0  0  0  0  0  0  0  0  0  0  0  0
    2.2585    6.3326    2.6609 O   0  0  0  0  0  1  0  0  0  0  0  0
    1.3229    4.4618    1.9735 O   0  0  0  0  0  0  0  0  0  0  0  0
    0.0087    2.9116   -0.0445 C   0  0  0  0  0  0  0  0  0  0  0  0
   -0.0383    3.1880   -0.9927 H   0  0  0  0  0  0  0  0  0  0  0  0
    0.8482    3.2207    0.3777 H   0  0  0  0  0  0  0  0  0  0  0  0
   -0.8231    3.3793    0.4822 H   0  0  0  0  0  0  0  0  0  0  0  0
   -0.0000    1.3998   -0.0024 C   0  0  0  0  0  0  0  0  0  0  0  0
   -1.1928    0.6922   -0.0121 C   0  0  0  0  0  0  0  0  0  0  0  0
   -2.0603    1.1838   -0.0295 H   0  0  0  0  0  0  0  0  0  0  0  0
   -1.1963   -0.6909   -0.0000 C   0  0  0  0  0  0  0  0  0  0  0  0
   -2.0743   -1.1878   -0.0039 H   0  0  0  0  0  0  0  0  0  0  0  0
    0.0021   -1.3908    0.0186 C   0  0  0  0  0  0  0  0  0  0  0  0
   -0.0071   -2.3890    0.0451 H   0  0  0  0  0  0  0  0  0  0  0  0
    1.1963   -0.6995   -0.0000 C   0  0  0  0  0  0  0  0  0  0  0  0
    2.0804   -1.1951   -0.0097 H   0  0  0  0  0  0  0  0  0  0  0  0
    1.1907    0.6892   -0.0041 C   0  0  0  0  0  0  0  0  0  0  0  0
    2.0622    1.1854   -0.0090 H   0  0  0  0  0  0  0  0  0  0  0  0
  1  5  1  0
  5  6  1  0
  5  7  2  0
  1  2  1  0
  1  3  1  0
  1  4  1  0
  8 12  1  0
 12 13  2  0
 13 15  1  0
 15 17  2  0
 17 19  1  0
 19 21  2  0
 21 12  1  0
  8  9  1  0
  8 10  1  0
  8 11  1  0
 13 14  1  0
 15 16  1  0
 17 18  1  0
 19 20  1  0
 21 22  1  0
M  CHG  1   6  -1
M  END
>  <PDB_ID>  (883) 
pdb2whn

>  <RESIDUE_NAME>  (883) 
GLU   PHE

>  <FRAG_NAME>  (883) 
ACET   MBZ

>  <FRAG_ATOM_NUM>  (883) 
fragi: 7  fragj: 15

>  <atom.prop.CHAIN_ID>  (883) 
A A A A A A A Z Z Z Z Z Z Z Z Z Z Z Z Z Z Z

>  <atom.prop.IS_HEAVY_ATOM>  (883) 
1 0 0 0 1 1 1 1 0 0 0 1 1 0 1 0 1 0 1 0 1 0

>  <DIFUSE_FUNC_ATOM>  (883) 
atom 6   atom 7   

>  <FINAL_SINGLE_POINT_ENERGY>  (883) 
0

>  <NONCOV_INTER_ENERGY_QM>  (883) 
0

>  <FF_Energy>  (883) 
4.11

>  <QM_Energy>  (883) 
-3.72

>  <source>  (883) 
ACET_MBZ_00

>  <Index>  (883) 
32075

$$$$
ACET-pdb1qdl-B-GLU-177:MBZ-pdb1qdl-B-PHE-13
     RDKit          3D

 22 21  0  0  0  0  0  0  0  0999 V2000
   -0.6442    5.3911   -4.4813 C   0  0  0  0  0  0  0  0  0  0  0  0
   -0.5630    5.9120   -3.6430 H   0  0  0  0  0  0  0  0  0  0  0  0
   -1.2995    5.8074   -5.0967 H   0  0  0  0  0  0  0  0  0  0  0  0
    0.3291    5.3711   -4.9716 H   0  0  0  0  0  0  0  0  0  0  0  0
   -1.1832    4.0228   -4.1100 C   0  0  0  0  0  0  0  0  0  0  0  0
   -0.5713    3.3054   -3.2882 O   0  0  0  0  0  1  0  0  0  0  0  0
   -2.2497    3.6752   -4.6423 O   0  0  0  0  0  0  0  0  0  0  0  0
   -0.0078    2.8948   -0.0478 C   0  0  0  0  0  0  0  0  0  0  0  0
   -0.8631    3.2134    0.3414 H   0  0  0  0  0  0  0  0  0  0  0  0
    0.0744    3.1755   -0.9956 H   0  0  0  0  0  0  0  0  0  0  0  0
    0.8033    3.3661    0.5072 H   0  0  0  0  0  0  0  0  0  0  0  0
    0.0000    1.4027   -0.0007 C   0  0  0  0  0  0  0  0  0  0  0  0
   -1.1966    0.6967    0.0008 C   0  0  0  0  0  0  0  0  0  0  0  0
   -2.0634    1.1840    0.0016 H   0  0  0  0  0  0  0  0  0  0  0  0
   -1.2016   -0.7006   -0.0000 C   0  0  0  0  0  0  0  0  0  0  0  0
   -2.0780   -1.1912    0.0017 H   0  0  0  0  0  0  0  0  0  0  0  0
    0.0008   -1.3952   -0.0017 C   0  0  0  0  0  0  0  0  0  0  0  0
   -0.0020   -2.3939   -0.0043 H   0  0  0  0  0  0  0  0  0  0  0  0
    1.2016   -0.6987    0.0000 C   0  0  0  0  0  0  0  0  0  0  0  0
    2.0834   -1.1943    0.0019 H   0  0  0  0  0  0  0  0  0  0  0  0
    1.1957    0.6952    0.0015 C   0  0  0  0  0  0  0  0  0  0  0  0
    2.0646    1.1900    0.0032 H   0  0  0  0  0  0  0  0  0  0  0  0
  1  5  1  0
  5  6  1  0
  5  7  2  0
  1  2  1  0
  1  3  1  0
  1  4  1  0
  8 12  1  0
 12 13  2  0
 13 15  1  0
 15 17  2  0
 17 19  1  0
 19 21  2  0
 21 12  1  0
  8  9  1  0
  8 10  1  0
  8 11  1  0
 13 14  1  0
 15 16  1  0
 17 18  1  0
 19 20  1  0
 21 22  1  0
M  CHG  1   6  -1
M  END
>  <PDB_ID>  (884) 
pdb1qdl

>  <RESIDUE_NAME>  (884) 
GLU   PHE

>  <FRAG_NAME>  (884) 
ACET   MBZ

>  <FRAG_ATOM_NUM>  (884) 
fragi: 7  fragj: 15

>  <atom.prop.CHAIN_ID>  (884) 
A A A A A A A Z Z Z Z Z Z Z Z Z Z Z Z Z Z Z

>  <atom.prop.IS_HEAVY_ATOM>  (884) 
1 0 0 0 1 1 1 1 0 0 0 1 1 0 1 0 1 0 1 0 1 0

>  <DIFUSE_FUNC_ATOM>  (884) 
atom 6   atom 7   

>  <FINAL_SINGLE_POINT_ENERGY>  (884) 
0

>  <NONCOV_INTER_ENERGY_QM>  (884) 
0

>  <FF_Energy>  (884) 
0.97

>  <QM_Energy>  (884) 
-4.42

>  <source>  (884) 
ACET_MBZ_00

>  <Index>  (884) 
32218

$$$$
ACET-pdb2wl3-A-ASP-222:MBZ-pdb2wl3-A-PHE-137
     RDKit          3D

 22 21  0  0  0  0  0  0  0  0999 V2000
   -4.5487    3.3762   -1.4995 C   0  0  0  0  0  0  0  0  0  0  0  0
   -4.1803    4.0245   -2.1533 H   0  0  0  0  0  0  0  0  0  0  0  0
   -5.5097    3.5549   -1.3308 H   0  0  0  0  0  0  0  0  0  0  0  0
   -4.4593    2.3769   -1.9254 H   0  0  0  0  0  0  0  0  0  0  0  0
   -3.7872    3.5271   -0.1840 C   0  0  0  0  0  0  0  0  0  0  0  0
   -3.7527    2.5707    0.6175 O   0  0  0  0  0  1  0  0  0  0  0  0
   -3.2203    4.6066    0.0533 O   0  0  0  0  0  0  0  0  0  0  0  0
   -0.0005    2.9100   -0.0135 C   0  0  0  0  0  0  0  0  0  0  0  0
   -0.7950    3.2104   -0.5189 H   0  0  0  0  0  0  0  0  0  0  0  0
    0.8365    3.2147   -0.4427 H   0  0  0  0  0  0  0  0  0  0  0  0
   -0.0483    3.3581    0.9789 H   0  0  0  0  0  0  0  0  0  0  0  0
    0.0030    1.4072   -0.0017 C   0  0  0  0  0  0  0  0  0  0  0  0
   -1.1929    0.6878   -0.0054 C   0  0  0  0  0  0  0  0  0  0  0  0
   -2.0626    1.1753   -0.0129 H   0  0  0  0  0  0  0  0  0  0  0  0
   -1.1987   -0.7095   -0.0000 C   0  0  0  0  0  0  0  0  0  0  0  0
   -2.0810   -1.1948    0.0004 H   0  0  0  0  0  0  0  0  0  0  0  0
   -0.0097   -1.3988    0.0064 C   0  0  0  0  0  0  0  0  0  0  0  0
   -0.0004   -2.3969    0.0152 H   0  0  0  0  0  0  0  0  0  0  0  0
    1.1987   -0.6942    0.0000 C   0  0  0  0  0  0  0  0  0  0  0  0
    2.0794   -1.1917   -0.0039 H   0  0  0  0  0  0  0  0  0  0  0  0
    1.1996    0.7075    0.0008 C   0  0  0  0  0  0  0  0  0  0  0  0
    2.0664    1.1962    0.0027 H   0  0  0  0  0  0  0  0  0  0  0  0
  1  5  1  0
  5  6  1  0
  5  7  2  0
  1  2  1  0
  1  3  1  0
  1  4  1  0
  8 12  1  0
 12 13  2  0
 13 15  1  0
 15 17  2  0
 17 19  1  0
 19 21  2  0
 21 12  1  0
  8  9  1  0
  8 10  1  0
  8 11  1  0
 13 14  1  0
 15 16  1  0
 17 18  1  0
 19 20  1  0
 21 22  1  0
M  CHG  1   6  -1
M  END
>  <PDB_ID>  (885) 
pdb2wl3

>  <RESIDUE_NAME>  (885) 
ASP   PHE

>  <FRAG_NAME>  (885) 
ACET   MBZ

>  <FRAG_ATOM_NUM>  (885) 
fragi: 7  fragj: 15

>  <atom.prop.CHAIN_ID>  (885) 
A A A A A A A Z Z Z Z Z Z Z Z Z Z Z Z Z Z Z

>  <atom.prop.IS_HEAVY_ATOM>  (885) 
1 0 0 0 1 1 1 1 0 0 0 1 1 0 1 0 1 0 1 0 1 0

>  <DIFUSE_FUNC_ATOM>  (885) 
atom 6   atom 7   

>  <FINAL_SINGLE_POINT_ENERGY>  (885) 
0

>  <NONCOV_INTER_ENERGY_QM>  (885) 
0

>  <FF_Energy>  (885) 
-1.85

>  <QM_Energy>  (885) 
-8.19

>  <source>  (885) 
ACET_MBZ_00

>  <Index>  (885) 
32219

$$$$
ACET-pdb1qfg-A-GLU-19:MBZ-pdb1qfg-A-PHE-634
     RDKit          3D

 22 21  0  0  0  0  0  0  0  0999 V2000
    1.0332   -1.8705   -2.6230 C   0  0  0  0  0  0  0  0  0  0  0  0
    0.3765   -1.5157   -1.9646 H   0  0  0  0  0  0  0  0  0  0  0  0
    1.9498   -1.8551   -2.2357 H   0  0  0  0  0  0  0  0  0  0  0  0
    0.7710   -2.9044   -2.8477 H   0  0  0  0  0  0  0  0  0  0  0  0
    1.0380   -0.8996   -3.8132 C   0  0  0  0  0  0  0  0  0  0  0  0
   -0.0538   -0.5630   -4.3433 O   0  0  0  0  0  1  0  0  0  0  0  0
    2.1427   -0.4527   -4.2004 O   0  0  0  0  0  0  0  0  0  0  0  0
   -0.0047    2.8626   -0.0057 C   0  0  0  0  0  0  0  0  0  0  0  0
   -0.8171    3.1765   -0.4819 H   0  0  0  0  0  0  0  0  0  0  0  0
    0.8154    3.1823   -0.4647 H   0  0  0  0  0  0  0  0  0  0  0  0
   -0.0168    3.2999    0.9927 H   0  0  0  0  0  0  0  0  0  0  0  0
    0.0006    1.3951   -0.0016 C   0  0  0  0  0  0  0  0  0  0  0  0
   -1.2019    0.6971    0.0038 C   0  0  0  0  0  0  0  0  0  0  0  0
   -2.0637    1.1906    0.0090 H   0  0  0  0  0  0  0  0  0  0  0  0
   -1.2115   -0.6949    0.0000 C   0  0  0  0  0  0  0  0  0  0  0  0
   -2.0852   -1.1885   -0.0011 H   0  0  0  0  0  0  0  0  0  0  0  0
   -0.0034   -1.3952   -0.0001 C   0  0  0  0  0  0  0  0  0  0  0  0
   -0.0065   -2.3911   -0.0008 H   0  0  0  0  0  0  0  0  0  0  0  0
    1.2115   -0.6962    0.0000 C   0  0  0  0  0  0  0  0  0  0  0  0
    2.0855   -1.1982    0.0035 H   0  0  0  0  0  0  0  0  0  0  0  0
    1.2047    0.6940   -0.0021 C   0  0  0  0  0  0  0  0  0  0  0  0
    2.0679    1.1944   -0.0052 H   0  0  0  0  0  0  0  0  0  0  0  0
  1  5  1  0
  5  6  1  0
  5  7  2  0
  1  2  1  0
  1  3  1  0
  1  4  1  0
  8 12  1  0
 12 13  2  0
 13 15  1  0
 15 17  2  0
 17 19  1  0
 19 21  2  0
 21 12  1  0
  8  9  1  0
  8 10  1  0
  8 11  1  0
 13 14  1  0
 15 16  1  0
 17 18  1  0
 19 20  1  0
 21 22  1  0
M  CHG  1   6  -1
M  END
>  <PDB_ID>  (886) 
pdb1qfg

>  <RESIDUE_NAME>  (886) 
GLU   PHE

>  <FRAG_NAME>  (886) 
ACET   MBZ

>  <FRAG_ATOM_NUM>  (886) 
fragi: 7  fragj: 15

>  <atom.prop.CHAIN_ID>  (886) 
A A A A A A A Z Z Z Z Z Z Z Z Z Z Z Z Z Z Z

>  <atom.prop.IS_HEAVY_ATOM>  (886) 
1 0 0 0 1 1 1 1 0 0 0 1 1 0 1 0 1 0 1 0 1 0

>  <DIFUSE_FUNC_ATOM>  (886) 
atom 6   atom 7   

>  <FINAL_SINGLE_POINT_ENERGY>  (886) 
0

>  <NONCOV_INTER_ENERGY_QM>  (886) 
0

>  <FF_Energy>  (886) 
27.8

>  <QM_Energy>  (886) 
9.25

>  <source>  (886) 
ACET_MBZ_00

>  <Index>  (886) 
32234

$$$$
ACET-pdb1qfx-A-ASP-191:MBZ-pdb1qfx-A-PHE-434
     RDKit          3D

 22 21  0  0  0  0  0  0  0  0999 V2000
    5.9877    1.4871    0.6139 C   0  0  0  0  0  0  0  0  0  0  0  0
    6.5816    1.7329    1.3737 H   0  0  0  0  0  0  0  0  0  0  0  0
    6.4705    1.5919   -0.2490 H   0  0  0  0  0  0  0  0  0  0  0  0
    5.7190    0.4365    0.7236 H   0  0  0  0  0  0  0  0  0  0  0  0
    4.7851    2.4096    0.6167 C   0  0  0  0  0  0  0  0  0  0  0  0
    3.7151    2.0309    1.1398 O   0  0  0  0  0  1  0  0  0  0  0  0
    4.9113    3.5438    0.1194 O   0  0  0  0  0  0  0  0  0  0  0  0
    0.0112    2.9050   -0.0448 C   0  0  0  0  0  0  0  0  0  0  0  0
   -0.7946    3.2036   -0.5391 H   0  0  0  0  0  0  0  0  0  0  0  0
    0.8379    3.1935   -0.5108 H   0  0  0  0  0  0  0  0  0  0  0  0
   -0.0027    3.3927    0.9299 H   0  0  0  0  0  0  0  0  0  0  0  0
    0.0003    1.4015    0.0006 C   0  0  0  0  0  0  0  0  0  0  0  0
   -1.1987    0.6916   -0.0009 C   0  0  0  0  0  0  0  0  0  0  0  0
   -2.0642    1.1819   -0.0040 H   0  0  0  0  0  0  0  0  0  0  0  0
   -1.2025   -0.7010    0.0000 C   0  0  0  0  0  0  0  0  0  0  0  0
   -2.0756   -1.1962    0.0020 H   0  0  0  0  0  0  0  0  0  0  0  0
    0.0043   -1.3930   -0.0005 C   0  0  0  0  0  0  0  0  0  0  0  0
    0.0020   -2.3921   -0.0018 H   0  0  0  0  0  0  0  0  0  0  0  0
    1.2025   -0.6940   -0.0000 C   0  0  0  0  0  0  0  0  0  0  0  0
    2.0858   -1.1898    0.0009 H   0  0  0  0  0  0  0  0  0  0  0  0
    1.1940    0.6949    0.0008 C   0  0  0  0  0  0  0  0  0  0  0  0
    2.0638    1.1922    0.0010 H   0  0  0  0  0  0  0  0  0  0  0  0
  1  5  1  0
  5  6  1  0
  5  7  2  0
  1  2  1  0
  1  3  1  0
  1  4  1  0
  8 12  1  0
 12 13  2  0
 13 15  1  0
 15 17  2  0
 17 19  1  0
 19 21  2  0
 21 12  1  0
  8  9  1  0
  8 10  1  0
  8 11  1  0
 13 14  1  0
 15 16  1  0
 17 18  1  0
 19 20  1  0
 21 22  1  0
M  CHG  1   6  -1
M  END
>  <PDB_ID>  (887) 
pdb1qfx

>  <RESIDUE_NAME>  (887) 
ASP   PHE

>  <FRAG_NAME>  (887) 
ACET   MBZ

>  <FRAG_ATOM_NUM>  (887) 
fragi: 7  fragj: 15

>  <atom.prop.CHAIN_ID>  (887) 
A A A A A A A Z Z Z Z Z Z Z Z Z Z Z Z Z Z Z

>  <atom.prop.IS_HEAVY_ATOM>  (887) 
1 0 0 0 1 1 1 1 0 0 0 1 1 0 1 0 1 0 1 0 1 0

>  <DIFUSE_FUNC_ATOM>  (887) 
atom 6   atom 7   

>  <FINAL_SINGLE_POINT_ENERGY>  (887) 
0

>  <NONCOV_INTER_ENERGY_QM>  (887) 
0

>  <FF_Energy>  (887) 
0.22

>  <QM_Energy>  (887) 
-6.69

>  <source>  (887) 
ACET_MBZ_00

>  <Index>  (887) 
32272

$$$$
ACET-pdb1qhb-E-GLU-564:MBZ-pdb1qhb-E-PHE-589
     RDKit          3D

 22 21  0  0  0  0  0  0  0  0999 V2000
    3.2559    0.5064   -3.6277 C   0  0  0  0  0  0  0  0  0  0  0  0
    3.9218    0.7976   -4.2844 H   0  0  0  0  0  0  0  0  0  0  0  0
    2.5677   -0.0734   -4.0155 H   0  0  0  0  0  0  0  0  0  0  0  0
    3.7767   -0.0635   -2.8583 H   0  0  0  0  0  0  0  0  0  0  0  0
    2.5717    1.7404   -3.0747 C   0  0  0  0  0  0  0  0  0  0  0  0
    3.2836    2.6403   -2.5976 O   0  0  0  0  0  1  0  0  0  0  0  0
    1.3184    1.8454   -3.1032 O   0  0  0  0  0  0  0  0  0  0  0  0
    0.0553    2.8870    0.0664 C   0  0  0  0  0  0  0  0  0  0  0  0
    0.9725    3.1653   -0.2243 H   0  0  0  0  0  0  0  0  0  0  0  0
   -0.0921    3.1770    1.0140 H   0  0  0  0  0  0  0  0  0  0  0  0
   -0.6622    3.4226   -0.5552 H   0  0  0  0  0  0  0  0  0  0  0  0
   -0.0133    1.4043    0.0211 C   0  0  0  0  0  0  0  0  0  0  0  0
   -1.1660    0.6966   -0.0092 C   0  0  0  0  0  0  0  0  0  0  0  0
   -2.0566    1.1841   -0.0409 H   0  0  0  0  0  0  0  0  0  0  0  0
   -1.1908   -0.6860    0.0000 C   0  0  0  0  0  0  0  0  0  0  0  0
   -2.0750   -1.1672    0.0167 H   0  0  0  0  0  0  0  0  0  0  0  0
   -0.0085   -1.3806   -0.0119 C   0  0  0  0  0  0  0  0  0  0  0  0
   -0.0176   -2.3855   -0.0301 H   0  0  0  0  0  0  0  0  0  0  0  0
    1.1908   -0.7033    0.0000 C   0  0  0  0  0  0  0  0  0  0  0  0
    2.0678   -1.2097    0.0103 H   0  0  0  0  0  0  0  0  0  0  0  0
    1.1878    0.6690   -0.0000 C   0  0  0  0  0  0  0  0  0  0  0  0
    2.0559    1.1758   -0.0164 H   0  0  0  0  0  0  0  0  0  0  0  0
  1  5  1  0
  5  6  1  0
  5  7  2  0
  1  2  1  0
  1  3  1  0
  1  4  1  0
  8 12  1  0
 12 13  2  0
 13 15  1  0
 15 17  2  0
 17 19  1  0
 19 21  2  0
 21 12  1  0
  8  9  1  0
  8 10  1  0
  8 11  1  0
 13 14  1  0
 15 16  1  0
 17 18  1  0
 19 20  1  0
 21 22  1  0
M  CHG  1   6  -1
M  END
>  <PDB_ID>  (888) 
pdb1qhb

>  <RESIDUE_NAME>  (888) 
GLU   PHE

>  <FRAG_NAME>  (888) 
ACET   MBZ

>  <FRAG_ATOM_NUM>  (888) 
fragi: 7  fragj: 15

>  <atom.prop.CHAIN_ID>  (888) 
A A A A A A A Z Z Z Z Z Z Z Z Z Z Z Z Z Z Z

>  <atom.prop.IS_HEAVY_ATOM>  (888) 
1 0 0 0 1 1 1 1 0 0 0 1 1 0 1 0 1 0 1 0 1 0

>  <DIFUSE_FUNC_ATOM>  (888) 
atom 6   atom 7   

>  <FINAL_SINGLE_POINT_ENERGY>  (888) 
0

>  <NONCOV_INTER_ENERGY_QM>  (888) 
0

>  <FF_Energy>  (888) 
0.71

>  <QM_Energy>  (888) 
-4.57

>  <source>  (888) 
ACET_MBZ_00

>  <Index>  (888) 
32474

$$$$
ACET-pdb2wpn-B-GLU-390:MBZ-pdb2wpn-B-PHE-210
     RDKit          3D

 22 21  0  0  0  0  0  0  0  0999 V2000
    3.0788   -3.1885   -0.8439 C   0  0  0  0  0  0  0  0  0  0  0  0
    2.1921   -2.7539   -0.8740 H   0  0  0  0  0  0  0  0  0  0  0  0
    3.0855   -3.9490   -0.2118 H   0  0  0  0  0  0  0  0  0  0  0  0
    3.3078   -3.5680   -1.8398 H   0  0  0  0  0  0  0  0  0  0  0  0
    4.0741   -2.1424   -0.2993 C   0  0  0  0  0  0  0  0  0  0  0  0
    4.3057   -2.1426    0.9320 O   0  0  0  0  0  1  0  0  0  0  0  0
    4.6082   -1.3103   -1.0767 O   0  0  0  0  0  0  0  0  0  0  0  0
    0.0015    2.9437   -0.0002 C   0  0  0  0  0  0  0  0  0  0  0  0
   -0.5278    3.2406   -0.7798 H   0  0  0  0  0  0  0  0  0  0  0  0
    0.9402    3.2442   -0.0631 H   0  0  0  0  0  0  0  0  0  0  0  0
   -0.4362    3.3861    0.8947 H   0  0  0  0  0  0  0  0  0  0  0  0
    0.0050    1.4247    0.0018 C   0  0  0  0  0  0  0  0  0  0  0  0
   -1.2027    0.6985   -0.0008 C   0  0  0  0  0  0  0  0  0  0  0  0
   -2.0686    1.1797   -0.0046 H   0  0  0  0  0  0  0  0  0  0  0  0
   -1.2064   -0.7187    0.0000 C   0  0  0  0  0  0  0  0  0  0  0  0
   -2.0879   -1.1984   -0.0017 H   0  0  0  0  0  0  0  0  0  0  0  0
   -0.0079   -1.4210    0.0049 C   0  0  0  0  0  0  0  0  0  0  0  0
    0.0028   -2.4089    0.0114 H   0  0  0  0  0  0  0  0  0  0  0  0
    1.2064   -0.6990   -0.0000 C   0  0  0  0  0  0  0  0  0  0  0  0
    2.0872   -1.1918    0.0017 H   0  0  0  0  0  0  0  0  0  0  0  0
    1.2056    0.7155   -0.0059 C   0  0  0  0  0  0  0  0  0  0  0  0
    2.0730    1.1998   -0.0168 H   0  0  0  0  0  0  0  0  0  0  0  0
  1  5  1  0
  5  6  1  0
  5  7  2  0
  1  2  1  0
  1  3  1  0
  1  4  1  0
  8 12  1  0
 12 13  2  0
 13 15  1  0
 15 17  2  0
 17 19  1  0
 19 21  2  0
 21 12  1  0
  8  9  1  0
  8 10  1  0
  8 11  1  0
 13 14  1  0
 15 16  1  0
 17 18  1  0
 19 20  1  0
 21 22  1  0
M  CHG  1   6  -1
M  END
>  <PDB_ID>  (889) 
pdb2wpn

>  <RESIDUE_NAME>  (889) 
GLU   PHE

>  <FRAG_NAME>  (889) 
ACET   MBZ

>  <FRAG_ATOM_NUM>  (889) 
fragi: 7  fragj: 15

>  <atom.prop.CHAIN_ID>  (889) 
A A A A A A A Z Z Z Z Z Z Z Z Z Z Z Z Z Z Z

>  <atom.prop.IS_HEAVY_ATOM>  (889) 
1 0 0 0 1 1 1 1 0 0 0 1 1 0 1 0 1 0 1 0 1 0

>  <DIFUSE_FUNC_ATOM>  (889) 
atom 6   atom 7   

>  <FINAL_SINGLE_POINT_ENERGY>  (889) 
0

>  <NONCOV_INTER_ENERGY_QM>  (889) 
0

>  <FF_Energy>  (889) 
10.53

>  <QM_Energy>  (889) 
-1.79

>  <source>  (889) 
ACET_MBZ_00

>  <Index>  (889) 
32477

$$$$
ACET-pdb1qhw-A-GLU-175:MBZ-pdb1qhw-A-PHE-169
     RDKit          3D

 22 21  0  0  0  0  0  0  0  0999 V2000
    1.9049    0.6799   -3.6387 C   0  0  0  0  0  0  0  0  0  0  0  0
    2.2279    0.7321   -4.5642 H   0  0  0  0  0  0  0  0  0  0  0  0
    1.0846    1.1985   -3.4965 H   0  0  0  0  0  0  0  0  0  0  0  0
    1.6980   -0.3646   -3.4053 H   0  0  0  0  0  0  0  0  0  0  0  0
    2.9816    1.2731   -2.7433 C   0  0  0  0  0  0  0  0  0  0  0  0
    4.0576    0.6456   -2.5977 O   0  0  0  0  0  1  0  0  0  0  0  0
    2.7519    2.3710   -2.1892 O   0  0  0  0  0  0  0  0  0  0  0  0
    0.0007    2.9140   -0.0005 C   0  0  0  0  0  0  0  0  0  0  0  0
   -0.7280    3.2186   -0.5951 H   0  0  0  0  0  0  0  0  0  0  0  0
    0.8831    3.2187   -0.3253 H   0  0  0  0  0  0  0  0  0  0  0  0
   -0.1633    3.3577    0.9815 H   0  0  0  0  0  0  0  0  0  0  0  0
    0.0009    1.4064   -0.0001 C   0  0  0  0  0  0  0  0  0  0  0  0
   -1.1972    0.6959    0.0007 C   0  0  0  0  0  0  0  0  0  0  0  0
   -2.0638    1.1849    0.0008 H   0  0  0  0  0  0  0  0  0  0  0  0
   -1.2037   -0.6993    0.0000 C   0  0  0  0  0  0  0  0  0  0  0  0
   -2.0804   -1.1906    0.0006 H   0  0  0  0  0  0  0  0  0  0  0  0
   -0.0015   -1.3987    0.0001 C   0  0  0  0  0  0  0  0  0  0  0  0
   -0.0056   -2.3962    0.0003 H   0  0  0  0  0  0  0  0  0  0  0  0
    1.2037   -0.7015   -0.0000 C   0  0  0  0  0  0  0  0  0  0  0  0
    2.0833   -1.1956    0.0018 H   0  0  0  0  0  0  0  0  0  0  0  0
    1.1977    0.6972   -0.0007 C   0  0  0  0  0  0  0  0  0  0  0  0
    2.0667    1.1907   -0.0023 H   0  0  0  0  0  0  0  0  0  0  0  0
  1  5  1  0
  5  6  1  0
  5  7  2  0
  1  2  1  0
  1  3  1  0
  1  4  1  0
  8 12  1  0
 12 13  2  0
 13 15  1  0
 15 17  2  0
 17 19  1  0
 19 21  2  0
 21 12  1  0
  8  9  1  0
  8 10  1  0
  8 11  1  0
 13 14  1  0
 15 16  1  0
 17 18  1  0
 19 20  1  0
 21 22  1  0
M  CHG  1   6  -1
M  END
>  <PDB_ID>  (890) 
pdb1qhw

>  <RESIDUE_NAME>  (890) 
GLU   PHE

>  <FRAG_NAME>  (890) 
ACET   MBZ

>  <FRAG_ATOM_NUM>  (890) 
fragi: 7  fragj: 15

>  <atom.prop.CHAIN_ID>  (890) 
A A A A A A A Z Z Z Z Z Z Z Z Z Z Z Z Z Z Z

>  <atom.prop.IS_HEAVY_ATOM>  (890) 
1 0 0 0 1 1 1 1 0 0 0 1 1 0 1 0 1 0 1 0 1 0

>  <DIFUSE_FUNC_ATOM>  (890) 
atom 6   atom 7   

>  <FINAL_SINGLE_POINT_ENERGY>  (890) 
0

>  <NONCOV_INTER_ENERGY_QM>  (890) 
0

>  <FF_Energy>  (890) 
-1.67

>  <QM_Energy>  (890) 
-7.06

>  <source>  (890) 
ACET_MBZ_00

>  <Index>  (890) 
32538

$$$$
ACET-pdb2ws2-A-GLU-162:MBZ-pdb2ws2-A-PHE-165
     RDKit          3D

 22 21  0  0  0  0  0  0  0  0999 V2000
    5.4694    1.4804    0.4275 C   0  0  0  0  0  0  0  0  0  0  0  0
    6.1594    1.3964    1.1261 H   0  0  0  0  0  0  0  0  0  0  0  0
    5.2268    2.4217    0.2629 H   0  0  0  0  0  0  0  0  0  0  0  0
    5.8485    1.0448   -0.4970 H   0  0  0  0  0  0  0  0  0  0  0  0
    4.1937    0.7876    0.9818 C   0  0  0  0  0  0  0  0  0  0  0  0
    3.3548    1.5142    1.5433 O   0  0  0  0  0  1  0  0  0  0  0  0
    4.0489   -0.4554    0.8804 O   0  0  0  0  0  0  0  0  0  0  0  0
   -0.0126    2.8703   -0.0590 C   0  0  0  0  0  0  0  0  0  0  0  0
    0.9086    3.2062    0.0419 H   0  0  0  0  0  0  0  0  0  0  0  0
   -0.6081    3.2154    0.6462 H   0  0  0  0  0  0  0  0  0  0  0  0
   -0.3916    3.2286   -1.0161 H   0  0  0  0  0  0  0  0  0  0  0  0
    0.0048    1.4048    0.0089 C   0  0  0  0  0  0  0  0  0  0  0  0
   -1.2009    0.6878   -0.0147 C   0  0  0  0  0  0  0  0  0  0  0  0
   -2.0650    1.1783   -0.0437 H   0  0  0  0  0  0  0  0  0  0  0  0
   -1.2104   -0.7133    0.0000 C   0  0  0  0  0  0  0  0  0  0  0  0
   -2.0827   -1.2018    0.0009 H   0  0  0  0  0  0  0  0  0  0  0  0
   -0.0032   -1.4020    0.0154 C   0  0  0  0  0  0  0  0  0  0  0  0
    0.0100   -2.3954    0.0366 H   0  0  0  0  0  0  0  0  0  0  0  0
    1.2104   -0.6849   -0.0000 C   0  0  0  0  0  0  0  0  0  0  0  0
    2.0881   -1.1836   -0.0029 H   0  0  0  0  0  0  0  0  0  0  0  0
    1.1994    0.7075   -0.0096 C   0  0  0  0  0  0  0  0  0  0  0  0
    2.0668    1.2050   -0.0308 H   0  0  0  0  0  0  0  0  0  0  0  0
  1  5  1  0
  5  6  1  0
  5  7  2  0
  1  2  1  0
  1  3  1  0
  1  4  1  0
  8 12  1  0
 12 13  2  0
 13 15  1  0
 15 17  2  0
 17 19  1  0
 19 21  2  0
 21 12  1  0
  8  9  1  0
  8 10  1  0
  8 11  1  0
 13 14  1  0
 15 16  1  0
 17 18  1  0
 19 20  1  0
 21 22  1  0
M  CHG  1   6  -1
M  END
>  <PDB_ID>  (891) 
pdb2ws2

>  <RESIDUE_NAME>  (891) 
GLU   PHE

>  <FRAG_NAME>  (891) 
ACET   MBZ

>  <FRAG_ATOM_NUM>  (891) 
fragi: 7  fragj: 15

>  <atom.prop.CHAIN_ID>  (891) 
A A A A A A A Z Z Z Z Z Z Z Z Z Z Z Z Z Z Z

>  <atom.prop.IS_HEAVY_ATOM>  (891) 
1 0 0 0 1 1 1 1 0 0 0 1 1 0 1 0 1 0 1 0 1 0

>  <DIFUSE_FUNC_ATOM>  (891) 
atom 6   atom 7   

>  <FINAL_SINGLE_POINT_ENERGY>  (891) 
0

>  <NONCOV_INTER_ENERGY_QM>  (891) 
0

>  <FF_Energy>  (891) 
9.12

>  <QM_Energy>  (891) 
-4.25

>  <source>  (891) 
ACET_MBZ_00

>  <Index>  (891) 
32594

$$$$
ACET-pdb2wsk-A-GLU-480:MBZ-pdb2wsk-A-PHE-453
     RDKit          3D

 22 21  0  0  0  0  0  0  0  0999 V2000
    4.4930    1.3618    2.3300 C   0  0  0  0  0  0  0  0  0  0  0  0
    5.3793    1.3489    1.9028 H   0  0  0  0  0  0  0  0  0  0  0  0
    3.9340    0.6020    2.0475 H   0  0  0  0  0  0  0  0  0  0  0  0
    4.6328    1.3026    3.4094 H   0  0  0  0  0  0  0  0  0  0  0  0
    3.7908    2.6346    1.8873 C   0  0  0  0  0  0  0  0  0  0  0  0
    3.6219    2.8253    0.6607 O   0  0  0  0  0  1  0  0  0  0  0  0
    3.4101    3.4464    2.7611 O   0  0  0  0  0  0  0  0  0  0  0  0
    0.0085    2.9013    0.0390 C   0  0  0  0  0  0  0  0  0  0  0  0
   -0.8280    3.2258   -0.3763 H   0  0  0  0  0  0  0  0  0  0  0  0
    0.8032    3.2181   -0.4562 H   0  0  0  0  0  0  0  0  0  0  0  0
    0.0597    3.3155    1.0459 H   0  0  0  0  0  0  0  0  0  0  0  0
   -0.0001    1.4014    0.0006 C   0  0  0  0  0  0  0  0  0  0  0  0
   -1.1964    0.6994   -0.0008 C   0  0  0  0  0  0  0  0  0  0  0  0
   -2.0629    1.1894   -0.0037 H   0  0  0  0  0  0  0  0  0  0  0  0
   -1.2050   -0.6943   -0.0000 C   0  0  0  0  0  0  0  0  0  0  0  0
   -2.0804   -1.1869    0.0015 H   0  0  0  0  0  0  0  0  0  0  0  0
    0.0008   -1.3974    0.0009 C   0  0  0  0  0  0  0  0  0  0  0  0
   -0.0054   -2.3935    0.0015 H   0  0  0  0  0  0  0  0  0  0  0  0
    1.2050   -0.6989    0.0000 C   0  0  0  0  0  0  0  0  0  0  0  0
    2.0848   -1.1970    0.0013 H   0  0  0  0  0  0  0  0  0  0  0  0
    1.1957    0.6898   -0.0008 C   0  0  0  0  0  0  0  0  0  0  0  0
    2.0650    1.1890   -0.0032 H   0  0  0  0  0  0  0  0  0  0  0  0
  1  5  1  0
  5  6  1  0
  5  7  2  0
  1  2  1  0
  1  3  1  0
  1  4  1  0
  8 12  1  0
 12 13  2  0
 13 15  1  0
 15 17  2  0
 17 19  1  0
 19 21  2  0
 21 12  1  0
  8  9  1  0
  8 10  1  0
  8 11  1  0
 13 14  1  0
 15 16  1  0
 17 18  1  0
 19 20  1  0
 21 22  1  0
M  CHG  1   6  -1
M  END
>  <PDB_ID>  (892) 
pdb2wsk

>  <RESIDUE_NAME>  (892) 
GLU   PHE

>  <FRAG_NAME>  (892) 
ACET   MBZ

>  <FRAG_ATOM_NUM>  (892) 
fragi: 7  fragj: 15

>  <atom.prop.CHAIN_ID>  (892) 
A A A A A A A Z Z Z Z Z Z Z Z Z Z Z Z Z Z Z

>  <atom.prop.IS_HEAVY_ATOM>  (892) 
1 0 0 0 1 1 1 1 0 0 0 1 1 0 1 0 1 0 1 0 1 0

>  <DIFUSE_FUNC_ATOM>  (892) 
atom 6   atom 7   

>  <FINAL_SINGLE_POINT_ENERGY>  (892) 
0

>  <NONCOV_INTER_ENERGY_QM>  (892) 
0

>  <FF_Energy>  (892) 
-2.0

>  <QM_Energy>  (892) 
-7.63

>  <source>  (892) 
ACET_MBZ_00

>  <Index>  (892) 
32645

$$$$
ACET-pdb2wtb-A-GLU-83:MBZ-pdb2wtb-A-PHE-33
     RDKit          3D

 22 21  0  0  0  0  0  0  0  0999 V2000
   -3.1558   -2.3935    1.3926 C   0  0  0  0  0  0  0  0  0  0  0  0
   -3.1999   -1.4035    1.2590 H   0  0  0  0  0  0  0  0  0  0  0  0
   -2.1991   -2.6868    1.3951 H   0  0  0  0  0  0  0  0  0  0  0  0
   -3.5748   -2.6149    2.3742 H   0  0  0  0  0  0  0  0  0  0  0  0
   -3.8276   -3.0432    0.2223 C   0  0  0  0  0  0  0  0  0  0  0  0
   -4.7945   -3.7856    0.3148 O   0  0  0  0  0  1  0  0  0  0  0  0
   -3.2802   -2.7498   -0.8613 O   0  0  0  0  0  0  0  0  0  0  0  0
   -0.0032    2.8938   -0.0027 C   0  0  0  0  0  0  0  0  0  0  0  0
    0.9340    3.2038    0.0572 H   0  0  0  0  0  0  0  0  0  0  0  0
   -0.5342    3.2007    0.7731 H   0  0  0  0  0  0  0  0  0  0  0  0
   -0.4421    3.3303   -0.8998 H   0  0  0  0  0  0  0  0  0  0  0  0
    0.0003    1.3944   -0.0014 C   0  0  0  0  0  0  0  0  0  0  0  0
   -1.1919    0.6879    0.0013 C   0  0  0  0  0  0  0  0  0  0  0  0
   -2.0599    1.1808    0.0027 H   0  0  0  0  0  0  0  0  0  0  0  0
   -1.1953   -0.6935   -0.0000 C   0  0  0  0  0  0  0  0  0  0  0  0
   -2.0739   -1.1899    0.0004 H   0  0  0  0  0  0  0  0  0  0  0  0
   -0.0005   -1.3859    0.0002 C   0  0  0  0  0  0  0  0  0  0  0  0
   -0.0042   -2.3869    0.0003 H   0  0  0  0  0  0  0  0  0  0  0  0
    1.1953   -0.6934    0.0000 C   0  0  0  0  0  0  0  0  0  0  0  0
    2.0787   -1.1927    0.0018 H   0  0  0  0  0  0  0  0  0  0  0  0
    1.1921    0.6906   -0.0001 C   0  0  0  0  0  0  0  0  0  0  0  0
    2.0613    1.1880   -0.0008 H   0  0  0  0  0  0  0  0  0  0  0  0
  1  5  1  0
  5  6  1  0
  5  7  2  0
  1  2  1  0
  1  3  1  0
  1  4  1  0
  8 12  1  0
 12 13  2  0
 13 15  1  0
 15 17  2  0
 17 19  1  0
 19 21  2  0
 21 12  1  0
  8  9  1  0
  8 10  1  0
  8 11  1  0
 13 14  1  0
 15 16  1  0
 17 18  1  0
 19 20  1  0
 21 22  1  0
M  CHG  1   6  -1
M  END
>  <PDB_ID>  (893) 
pdb2wtb

>  <RESIDUE_NAME>  (893) 
GLU   PHE

>  <FRAG_NAME>  (893) 
ACET   MBZ

>  <FRAG_ATOM_NUM>  (893) 
fragi: 7  fragj: 15

>  <atom.prop.CHAIN_ID>  (893) 
A A A A A A A Z Z Z Z Z Z Z Z Z Z Z Z Z Z Z

>  <atom.prop.IS_HEAVY_ATOM>  (893) 
1 0 0 0 1 1 1 1 0 0 0 1 1 0 1 0 1 0 1 0 1 0

>  <DIFUSE_FUNC_ATOM>  (893) 
atom 6   atom 7   

>  <FINAL_SINGLE_POINT_ENERGY>  (893) 
0

>  <NONCOV_INTER_ENERGY_QM>  (893) 
0

>  <FF_Energy>  (893) 
21.92

>  <QM_Energy>  (893) 
1.01

>  <source>  (893) 
ACET_MBZ_00

>  <Index>  (893) 
32678

$$$$
ACET-pdb2wtb-A-GLU-119:MBZ-pdb2wtb-A-PHE-148
     RDKit          3D

 22 21  0  0  0  0  0  0  0  0999 V2000
   -3.4645    5.1588    0.3599 C   0  0  0  0  0  0  0  0  0  0  0  0
   -3.3425    6.1019    0.6100 H   0  0  0  0  0  0  0  0  0  0  0  0
   -4.4127    4.9022    0.3282 H   0  0  0  0  0  0  0  0  0  0  0  0
   -3.0361    5.0110   -0.6314 H   0  0  0  0  0  0  0  0  0  0  0  0
   -2.7960    4.3110    1.4272 C   0  0  0  0  0  0  0  0  0  0  0  0
   -2.8197    3.0694    1.3057 O   0  0  0  0  0  1  0  0  0  0  0  0
   -2.2516    4.8875    2.3947 O   0  0  0  0  0  0  0  0  0  0  0  0
   -0.0012    2.8996   -0.0031 C   0  0  0  0  0  0  0  0  0  0  0  0
   -0.9352    3.2047    0.1095 H   0  0  0  0  0  0  0  0  0  0  0  0
    0.3755    3.2039   -0.8655 H   0  0  0  0  0  0  0  0  0  0  0  0
    0.5932    3.3428    0.7959 H   0  0  0  0  0  0  0  0  0  0  0  0
   -0.0003    1.3954   -0.0003 C   0  0  0  0  0  0  0  0  0  0  0  0
   -1.1900    0.6886    0.0018 C   0  0  0  0  0  0  0  0  0  0  0  0
   -2.0597    1.1791    0.0034 H   0  0  0  0  0  0  0  0  0  0  0  0
   -1.1934   -0.6954    0.0000 C   0  0  0  0  0  0  0  0  0  0  0  0
   -2.0729   -1.1904    0.0008 H   0  0  0  0  0  0  0  0  0  0  0  0
    0.0001   -1.3847   -0.0007 C   0  0  0  0  0  0  0  0  0  0  0  0
   -0.0025   -2.3876   -0.0017 H   0  0  0  0  0  0  0  0  0  0  0  0
    1.1934   -0.6932   -0.0000 C   0  0  0  0  0  0  0  0  0  0  0  0
    2.0768   -1.1929    0.0028 H   0  0  0  0  0  0  0  0  0  0  0  0
    1.1901    0.6893   -0.0008 C   0  0  0  0  0  0  0  0  0  0  0  0
    2.0605    1.1867   -0.0023 H   0  0  0  0  0  0  0  0  0  0  0  0
  1  5  1  0
  5  6  1  0
  5  7  2  0
  1  2  1  0
  1  3  1  0
  1  4  1  0
  8 12  1  0
 12 13  2  0
 13 15  1  0
 15 17  2  0
 17 19  1  0
 19 21  2  0
 21 12  1  0
  8  9  1  0
  8 10  1  0
  8 11  1  0
 13 14  1  0
 15 16  1  0
 17 18  1  0
 19 20  1  0
 21 22  1  0
M  CHG  1   6  -1
M  END
>  <PDB_ID>  (894) 
pdb2wtb

>  <RESIDUE_NAME>  (894) 
GLU   PHE

>  <FRAG_NAME>  (894) 
ACET   MBZ

>  <FRAG_ATOM_NUM>  (894) 
fragi: 7  fragj: 15

>  <atom.prop.CHAIN_ID>  (894) 
A A A A A A A Z Z Z Z Z Z Z Z Z Z Z Z Z Z Z

>  <atom.prop.IS_HEAVY_ATOM>  (894) 
1 0 0 0 1 1 1 1 0 0 0 1 1 0 1 0 1 0 1 0 1 0

>  <DIFUSE_FUNC_ATOM>  (894) 
atom 6   atom 7   

>  <FINAL_SINGLE_POINT_ENERGY>  (894) 
0

>  <NONCOV_INTER_ENERGY_QM>  (894) 
0

>  <FF_Energy>  (894) 
1.1

>  <QM_Energy>  (894) 
-7.02

>  <source>  (894) 
ACET_MBZ_00

>  <Index>  (894) 
32679

$$$$
ACET-pdb2wtb-A-ASP-523:MBZ-pdb2wtb-A-PHE-536
     RDKit          3D

 22 21  0  0  0  0  0  0  0  0999 V2000
   -5.5326    3.5288   -0.2364 C   0  0  0  0  0  0  0  0  0  0  0  0
   -5.6334    3.3813   -1.2132 H   0  0  0  0  0  0  0  0  0  0  0  0
   -5.8832    4.4203    0.0206 H   0  0  0  0  0  0  0  0  0  0  0  0
   -6.1228    2.7726    0.2814 H   0  0  0  0  0  0  0  0  0  0  0  0
   -4.0604    3.4601    0.1186 C   0  0  0  0  0  0  0  0  0  0  0  0
   -3.6470    2.4710    0.7591 O   0  0  0  0  0  1  0  0  0  0  0  0
   -3.3154    4.3964   -0.2383 O   0  0  0  0  0  0  0  0  0  0  0  0
    0.0007    2.8958    0.0094 C   0  0  0  0  0  0  0  0  0  0  0  0
   -0.8507    3.2056   -0.3824 H   0  0  0  0  0  0  0  0  0  0  0  0
    0.7766    3.2068   -0.5167 H   0  0  0  0  0  0  0  0  0  0  0  0
    0.0829    3.3230    1.0088 H   0  0  0  0  0  0  0  0  0  0  0  0
    0.0005    1.3943   -0.0026 C   0  0  0  0  0  0  0  0  0  0  0  0
   -1.1917    0.6889    0.0020 C   0  0  0  0  0  0  0  0  0  0  0  0
   -2.0590    1.1809    0.0058 H   0  0  0  0  0  0  0  0  0  0  0  0
   -1.1948   -0.6938   -0.0000 C   0  0  0  0  0  0  0  0  0  0  0  0
   -2.0738   -1.1898   -0.0002 H   0  0  0  0  0  0  0  0  0  0  0  0
   -0.0009   -1.3840    0.0002 C   0  0  0  0  0  0  0  0  0  0  0  0
   -0.0046   -2.3863   -0.0001 H   0  0  0  0  0  0  0  0  0  0  0  0
    1.1948   -0.6932   -0.0000 C   0  0  0  0  0  0  0  0  0  0  0  0
    2.0773   -1.1942    0.0012 H   0  0  0  0  0  0  0  0  0  0  0  0
    1.1920    0.6878    0.0003 C   0  0  0  0  0  0  0  0  0  0  0  0
    2.0611    1.1862    0.0019 H   0  0  0  0  0  0  0  0  0  0  0  0
  1  5  1  0
  5  6  1  0
  5  7  2  0
  1  2  1  0
  1  3  1  0
  1  4  1  0
  8 12  1  0
 12 13  2  0
 13 15  1  0
 15 17  2  0
 17 19  1  0
 19 21  2  0
 21 12  1  0
  8  9  1  0
  8 10  1  0
  8 11  1  0
 13 14  1  0
 15 16  1  0
 17 18  1  0
 19 20  1  0
 21 22  1  0
M  CHG  1   6  -1
M  END
>  <PDB_ID>  (895) 
pdb2wtb

>  <RESIDUE_NAME>  (895) 
ASP   PHE

>  <FRAG_NAME>  (895) 
ACET   MBZ

>  <FRAG_ATOM_NUM>  (895) 
fragi: 7  fragj: 15

>  <atom.prop.CHAIN_ID>  (895) 
A A A A A A A Z Z Z Z Z Z Z Z Z Z Z Z Z Z Z

>  <atom.prop.IS_HEAVY_ATOM>  (895) 
1 0 0 0 1 1 1 1 0 0 0 1 1 0 1 0 1 0 1 0 1 0

>  <DIFUSE_FUNC_ATOM>  (895) 
atom 6   atom 7   

>  <FINAL_SINGLE_POINT_ENERGY>  (895) 
0

>  <NONCOV_INTER_ENERGY_QM>  (895) 
0

>  <FF_Energy>  (895) 
-0.65

>  <QM_Energy>  (895) 
-8.87

>  <source>  (895) 
ACET_MBZ_00

>  <Index>  (895) 
32684

$$$$
ACET-pdb1qht-A-GLU-599:MBZ-pdb1qht-A-PHE-582
     RDKit          3D

 22 21  0  0  0  0  0  0  0  0999 V2000
    5.8631    0.8337   -0.9979 C   0  0  0  0  0  0  0  0  0  0  0  0
    6.0096    1.0022   -1.9520 H   0  0  0  0  0  0  0  0  0  0  0  0
    6.0873   -0.0833   -0.7361 H   0  0  0  0  0  0  0  0  0  0  0  0
    6.4935    1.5170   -0.4290 H   0  0  0  0  0  0  0  0  0  0  0  0
    4.3894    1.0469   -0.7134 C   0  0  0  0  0  0  0  0  0  0  0  0
    3.9935    0.8756    0.4608 O   0  0  0  0  0  1  0  0  0  0  0  0
    3.6341    1.3889   -1.6527 O   0  0  0  0  0  0  0  0  0  0  0  0
   -0.0004    2.8998    0.0467 C   0  0  0  0  0  0  0  0  0  0  0  0
   -0.7130    3.2260   -0.5538 H   0  0  0  0  0  0  0  0  0  0  0  0
    0.8900    3.2164   -0.2414 H   0  0  0  0  0  0  0  0  0  0  0  0
   -0.1918    3.3023    1.0414 H   0  0  0  0  0  0  0  0  0  0  0  0
   -0.0002    1.4005    0.0003 C   0  0  0  0  0  0  0  0  0  0  0  0
   -1.1913    0.6936   -0.0006 C   0  0  0  0  0  0  0  0  0  0  0  0
   -2.0605    1.1816   -0.0030 H   0  0  0  0  0  0  0  0  0  0  0  0
   -1.1953   -0.6972   -0.0000 C   0  0  0  0  0  0  0  0  0  0  0  0
   -2.0741   -1.1890    0.0006 H   0  0  0  0  0  0  0  0  0  0  0  0
    0.0007   -1.3920    0.0016 C   0  0  0  0  0  0  0  0  0  0  0  0
   -0.0035   -2.3924    0.0031 H   0  0  0  0  0  0  0  0  0  0  0  0
    1.1953   -0.6976   -0.0000 C   0  0  0  0  0  0  0  0  0  0  0  0
    2.0798   -1.1927    0.0013 H   0  0  0  0  0  0  0  0  0  0  0  0
    1.1908    0.6926   -0.0013 C   0  0  0  0  0  0  0  0  0  0  0  0
    2.0625    1.1870   -0.0042 H   0  0  0  0  0  0  0  0  0  0  0  0
  1  5  1  0
  5  6  1  0
  5  7  2  0
  1  2  1  0
  1  3  1  0
  1  4  1  0
  8 12  1  0
 12 13  2  0
 13 15  1  0
 15 17  2  0
 17 19  1  0
 19 21  2  0
 21 12  1  0
  8  9  1  0
  8 10  1  0
  8 11  1  0
 13 14  1  0
 15 16  1  0
 17 18  1  0
 19 20  1  0
 21 22  1  0
M  CHG  1   6  -1
M  END
>  <PDB_ID>  (896) 
pdb1qht

>  <RESIDUE_NAME>  (896) 
GLU   PHE

>  <FRAG_NAME>  (896) 
ACET   MBZ

>  <FRAG_ATOM_NUM>  (896) 
fragi: 7  fragj: 15

>  <atom.prop.CHAIN_ID>  (896) 
A A A A A A A Z Z Z Z Z Z Z Z Z Z Z Z Z Z Z

>  <atom.prop.IS_HEAVY_ATOM>  (896) 
1 0 0 0 1 1 1 1 0 0 0 1 1 0 1 0 1 0 1 0 1 0

>  <DIFUSE_FUNC_ATOM>  (896) 
atom 6   atom 7   

>  <FINAL_SINGLE_POINT_ENERGY>  (896) 
0

>  <NONCOV_INTER_ENERGY_QM>  (896) 
0

>  <FF_Energy>  (896) 
8.9

>  <QM_Energy>  (896) 
-5.59

>  <source>  (896) 
ACET_MBZ_00

>  <Index>  (896) 
32728

$$$$
ACET-pdb2wuq-B-ASP-100:MBZ-pdb2wuq-A-PHE-90
     RDKit          3D

 22 21  0  0  0  0  0  0  0  0999 V2000
    0.5927    0.3331    3.4847 C   0  0  0  0  0  0  0  0  0  0  0  0
    1.4966   -0.0539    3.5818 H   0  0  0  0  0  0  0  0  0  0  0  0
    0.1478    0.0121    2.6648 H   0  0  0  0  0  0  0  0  0  0  0  0
   -0.0062    0.0324    4.3444 H   0  0  0  0  0  0  0  0  0  0  0  0
    0.7312    1.8624    3.3915 C   0  0  0  0  0  0  0  0  0  0  0  0
   -0.2441    2.5906    3.7388 O   0  0  0  0  0  1  0  0  0  0  0  0
    1.8098    2.3357    2.9958 O   0  0  0  0  0  0  0  0  0  0  0  0
   -0.0196    2.9289   -0.0411 C   0  0  0  0  0  0  0  0  0  0  0  0
   -0.0921    3.2032   -0.9885 H   0  0  0  0  0  0  0  0  0  0  0  0
    0.8300    3.2376    0.3596 H   0  0  0  0  0  0  0  0  0  0  0  0
   -0.8446    3.3782    0.5118 H   0  0  0  0  0  0  0  0  0  0  0  0
   -0.0099    1.4082   -0.0090 C   0  0  0  0  0  0  0  0  0  0  0  0
   -1.1997    0.6932   -0.0125 C   0  0  0  0  0  0  0  0  0  0  0  0
   -2.0722    1.1811   -0.0252 H   0  0  0  0  0  0  0  0  0  0  0  0
   -1.2080   -0.7010   -0.0000 C   0  0  0  0  0  0  0  0  0  0  0  0
   -2.0743   -1.1986   -0.0024 H   0  0  0  0  0  0  0  0  0  0  0  0
    0.0134   -1.4028    0.0179 C   0  0  0  0  0  0  0  0  0  0  0  0
    0.0023   -2.3980    0.0429 H   0  0  0  0  0  0  0  0  0  0  0  0
    1.2080   -0.7024    0.0000 C   0  0  0  0  0  0  0  0  0  0  0  0
    2.0937   -1.1867   -0.0141 H   0  0  0  0  0  0  0  0  0  0  0  0
    1.1962    0.7048    0.0037 C   0  0  0  0  0  0  0  0  0  0  0  0
    2.0605    1.1999    0.0150 H   0  0  0  0  0  0  0  0  0  0  0  0
  1  5  1  0
  5  6  1  0
  5  7  2  0
  1  2  1  0
  1  3  1  0
  1  4  1  0
  8 12  1  0
 12 13  2  0
 13 15  1  0
 15 17  2  0
 17 19  1  0
 19 21  2  0
 21 12  1  0
  8  9  1  0
  8 10  1  0
  8 11  1  0
 13 14  1  0
 15 16  1  0
 17 18  1  0
 19 20  1  0
 21 22  1  0
M  CHG  1   6  -1
M  END
>  <PDB_ID>  (897) 
pdb2wuq

>  <RESIDUE_NAME>  (897) 
ASP   PHE

>  <FRAG_NAME>  (897) 
ACET   MBZ

>  <FRAG_ATOM_NUM>  (897) 
fragi: 7  fragj: 15

>  <atom.prop.CHAIN_ID>  (897) 
A A A A A A A Z Z Z Z Z Z Z Z Z Z Z Z Z Z Z

>  <atom.prop.IS_HEAVY_ATOM>  (897) 
1 0 0 0 1 1 1 1 0 0 0 1 1 0 1 0 1 0 1 0 1 0

>  <DIFUSE_FUNC_ATOM>  (897) 
atom 6   atom 7   

>  <FINAL_SINGLE_POINT_ENERGY>  (897) 
0

>  <NONCOV_INTER_ENERGY_QM>  (897) 
0

>  <FF_Energy>  (897) 
-0.29

>  <QM_Energy>  (897) 
-5.66

>  <source>  (897) 
ACET_MBZ_00

>  <Index>  (897) 
32730

$$$$
ACET-pdb2wuq-A-ASP-100:MBZ-pdb2wuq-B-PHE-90
     RDKit          3D

 22 21  0  0  0  0  0  0  0  0999 V2000
    0.4694    0.0763    3.4513 C   0  0  0  0  0  0  0  0  0  0  0  0
    1.3501   -0.2923    3.6884 H   0  0  0  0  0  0  0  0  0  0  0  0
    0.1448   -0.2613    2.5871 H   0  0  0  0  0  0  0  0  0  0  0  0
   -0.2450   -0.2038    4.2254 H   0  0  0  0  0  0  0  0  0  0  0  0
    0.6151    1.6258    3.3363 C   0  0  0  0  0  0  0  0  0  0  0  0
   -0.3572    2.3470    3.6516 O   0  0  0  0  0  1  0  0  0  0  0  0
    1.6988    2.1281    2.9810 O   0  0  0  0  0  0  0  0  0  0  0  0
    0.0422    2.9326   -0.0076 C   0  0  0  0  0  0  0  0  0  0  0  0
    0.0165    3.2183   -0.9550 H   0  0  0  0  0  0  0  0  0  0  0  0
    0.8837    3.2182    0.4285 H   0  0  0  0  0  0  0  0  0  0  0  0
   -0.7917    3.4007    0.5153 H   0  0  0  0  0  0  0  0  0  0  0  0
    0.0084    1.4217    0.0128 C   0  0  0  0  0  0  0  0  0  0  0  0
   -1.2055    0.7085   -0.0145 C   0  0  0  0  0  0  0  0  0  0  0  0
   -2.0668    1.1881   -0.0452 H   0  0  0  0  0  0  0  0  0  0  0  0
   -1.2117   -0.7184    0.0000 C   0  0  0  0  0  0  0  0  0  0  0  0
   -2.0862   -1.1973    0.0271 H   0  0  0  0  0  0  0  0  0  0  0  0
   -0.0014   -1.4146   -0.0216 C   0  0  0  0  0  0  0  0  0  0  0  0
    0.0002   -2.4098   -0.0531 H   0  0  0  0  0  0  0  0  0  0  0  0
    1.2117   -0.7090    0.0000 C   0  0  0  0  0  0  0  0  0  0  0  0
    2.0901   -1.1926    0.0003 H   0  0  0  0  0  0  0  0  0  0  0  0
    1.1985    0.7118    0.0233 C   0  0  0  0  0  0  0  0  0  0  0  0
    2.0735    1.1944    0.0465 H   0  0  0  0  0  0  0  0  0  0  0  0
  1  5  1  0
  5  6  1  0
  5  7  2  0
  1  2  1  0
  1  3  1  0
  1  4  1  0
  8 12  1  0
 12 13  2  0
 13 15  1  0
 15 17  2  0
 17 19  1  0
 19 21  2  0
 21 12  1  0
  8  9  1  0
  8 10  1  0
  8 11  1  0
 13 14  1  0
 15 16  1  0
 17 18  1  0
 19 20  1  0
 21 22  1  0
M  CHG  1   6  -1
M  END
>  <PDB_ID>  (898) 
pdb2wuq

>  <RESIDUE_NAME>  (898) 
ASP   PHE

>  <FRAG_NAME>  (898) 
ACET   MBZ

>  <FRAG_ATOM_NUM>  (898) 
fragi: 7  fragj: 15

>  <atom.prop.CHAIN_ID>  (898) 
A A A A A A A Z Z Z Z Z Z Z Z Z Z Z Z Z Z Z

>  <atom.prop.IS_HEAVY_ATOM>  (898) 
1 0 0 0 1 1 1 1 0 0 0 1 1 0 1 0 1 0 1 0 1 0

>  <DIFUSE_FUNC_ATOM>  (898) 
atom 6   atom 7   

>  <FINAL_SINGLE_POINT_ENERGY>  (898) 
0

>  <NONCOV_INTER_ENERGY_QM>  (898) 
0

>  <FF_Energy>  (898) 
0.44

>  <QM_Energy>  (898) 
-5.64

>  <source>  (898) 
ACET_MBZ_00

>  <Index>  (898) 
32731

$$$$
ACET-pdb1qni-B-GLU-435:MBZ-pdb1qni-A-PHE-564
     RDKit          3D

 22 21  0  0  0  0  0  0  0  0999 V2000
    3.1408    5.7768    1.6656 C   0  0  0  0  0  0  0  0  0  0  0  0
    3.7530    5.1406    2.0863 H   0  0  0  0  0  0  0  0  0  0  0  0
    2.3845    6.0169    2.2373 H   0  0  0  0  0  0  0  0  0  0  0  0
    3.6914    6.6800    1.4026 H   0  0  0  0  0  0  0  0  0  0  0  0
    2.5898    5.1306    0.4318 C   0  0  0  0  0  0  0  0  0  0  0  0
    1.8667    5.8313   -0.3113 O   0  0  0  0  0  1  0  0  0  0  0  0
    2.8990    3.9380    0.2016 O   0  0  0  0  0  0  0  0  0  0  0  0
    0.0012    2.9075   -0.0889 C   0  0  0  0  0  0  0  0  0  0  0  0
    0.9340    3.2205   -0.0185 H   0  0  0  0  0  0  0  0  0  0  0  0
   -0.5577    3.2587    0.6450 H   0  0  0  0  0  0  0  0  0  0  0  0
   -0.4066    3.2846   -1.0268 H   0  0  0  0  0  0  0  0  0  0  0  0
    0.0016    1.4101   -0.0015 C   0  0  0  0  0  0  0  0  0  0  0  0
   -1.1988    0.6941    0.0014 C   0  0  0  0  0  0  0  0  0  0  0  0
   -2.0653    1.1799    0.0033 H   0  0  0  0  0  0  0  0  0  0  0  0
   -1.2036   -0.7086   -0.0000 C   0  0  0  0  0  0  0  0  0  0  0  0
   -2.0789   -1.1973    0.0025 H   0  0  0  0  0  0  0  0  0  0  0  0
    0.0009   -1.4027   -0.0027 C   0  0  0  0  0  0  0  0  0  0  0  0
    0.0033   -2.3989   -0.0075 H   0  0  0  0  0  0  0  0  0  0  0  0
    1.2036   -0.6973   -0.0000 C   0  0  0  0  0  0  0  0  0  0  0  0
    2.0867   -1.1894    0.0014 H   0  0  0  0  0  0  0  0  0  0  0  0
    1.1964    0.7045    0.0028 C   0  0  0  0  0  0  0  0  0  0  0  0
    2.0661    1.1962    0.0069 H   0  0  0  0  0  0  0  0  0  0  0  0
  1  5  1  0
  5  6  1  0
  5  7  2  0
  1  2  1  0
  1  3  1  0
  1  4  1  0
  8 12  1  0
 12 13  2  0
 13 15  1  0
 15 17  2  0
 17 19  1  0
 19 21  2  0
 21 12  1  0
  8  9  1  0
  8 10  1  0
  8 11  1  0
 13 14  1  0
 15 16  1  0
 17 18  1  0
 19 20  1  0
 21 22  1  0
M  CHG  1   6  -1
M  END
>  <PDB_ID>  (899) 
pdb1qni

>  <RESIDUE_NAME>  (899) 
GLU   PHE

>  <FRAG_NAME>  (899) 
ACET   MBZ

>  <FRAG_ATOM_NUM>  (899) 
fragi: 7  fragj: 15

>  <atom.prop.CHAIN_ID>  (899) 
A A A A A A A Z Z Z Z Z Z Z Z Z Z Z Z Z Z Z

>  <atom.prop.IS_HEAVY_ATOM>  (899) 
1 0 0 0 1 1 1 1 0 0 0 1 1 0 1 0 1 0 1 0 1 0

>  <DIFUSE_FUNC_ATOM>  (899) 
atom 6   atom 7   

>  <FINAL_SINGLE_POINT_ENERGY>  (899) 
0

>  <NONCOV_INTER_ENERGY_QM>  (899) 
0

>  <FF_Energy>  (899) 
1.7

>  <QM_Energy>  (899) 
-7.72

>  <source>  (899) 
ACET_MBZ_00

>  <Index>  (899) 
32750

$$$$
ACET-pdb1qni-D-GLU-435:MBZ-pdb1qni-C-PHE-564
     RDKit          3D

 22 21  0  0  0  0  0  0  0  0999 V2000
    3.1466    5.5054    2.1982 C   0  0  0  0  0  0  0  0  0  0  0  0
    3.8985    4.9442    2.4752 H   0  0  0  0  0  0  0  0  0  0  0  0
    2.4028    5.4931    2.8335 H   0  0  0  0  0  0  0  0  0  0  0  0
    3.5000    6.5316    2.0971 H   0  0  0  0  0  0  0  0  0  0  0  0
    2.6399    4.9840    0.8845 C   0  0  0  0  0  0  0  0  0  0  0  0
    1.8429    5.6950    0.2350 O   0  0  0  0  0  1  0  0  0  0  0  0
    3.0438    3.8720    0.4994 O   0  0  0  0  0  0  0  0  0  0  0  0
    0.0043    2.9089   -0.0375 C   0  0  0  0  0  0  0  0  0  0  0  0
    0.9077    3.2175    0.2160 H   0  0  0  0  0  0  0  0  0  0  0  0
   -0.6803    3.2307    0.5975 H   0  0  0  0  0  0  0  0  0  0  0  0
   -0.2289    3.3211   -1.0193 H   0  0  0  0  0  0  0  0  0  0  0  0
    0.0012    1.4041   -0.0001 C   0  0  0  0  0  0  0  0  0  0  0  0
   -1.1973    0.6931    0.0004 C   0  0  0  0  0  0  0  0  0  0  0  0
   -2.0637    1.1827    0.0004 H   0  0  0  0  0  0  0  0  0  0  0  0
   -1.2037   -0.7019    0.0000 C   0  0  0  0  0  0  0  0  0  0  0  0
   -2.0799   -1.1921    0.0020 H   0  0  0  0  0  0  0  0  0  0  0  0
   -0.0019   -1.3966   -0.0013 C   0  0  0  0  0  0  0  0  0  0  0  0
   -0.0011   -2.3942   -0.0039 H   0  0  0  0  0  0  0  0  0  0  0  0
    1.2037   -0.6955    0.0000 C   0  0  0  0  0  0  0  0  0  0  0  0
    2.0837   -1.1939    0.0018 H   0  0  0  0  0  0  0  0  0  0  0  0
    1.1981    0.6969    0.0009 C   0  0  0  0  0  0  0  0  0  0  0  0
    2.0661    1.1928    0.0015 H   0  0  0  0  0  0  0  0  0  0  0  0
  1  5  1  0
  5  6  1  0
  5  7  2  0
  1  2  1  0
  1  3  1  0
  1  4  1  0
  8 12  1  0
 12 13  2  0
 13 15  1  0
 15 17  2  0
 17 19  1  0
 19 21  2  0
 21 12  1  0
  8  9  1  0
  8 10  1  0
  8 11  1  0
 13 14  1  0
 15 16  1  0
 17 18  1  0
 19 20  1  0
 21 22  1  0
M  CHG  1   6  -1
M  END
>  <PDB_ID>  (900) 
pdb1qni

>  <RESIDUE_NAME>  (900) 
GLU   PHE

>  <FRAG_NAME>  (900) 
ACET   MBZ

>  <FRAG_ATOM_NUM>  (900) 
fragi: 7  fragj: 15

>  <atom.prop.CHAIN_ID>  (900) 
A A A A A A A Z Z Z Z Z Z Z Z Z Z Z Z Z Z Z

>  <atom.prop.IS_HEAVY_ATOM>  (900) 
1 0 0 0 1 1 1 1 0 0 0 1 1 0 1 0 1 0 1 0 1 0

>  <DIFUSE_FUNC_ATOM>  (900) 
atom 6   atom 7   

>  <FINAL_SINGLE_POINT_ENERGY>  (900) 
0

>  <NONCOV_INTER_ENERGY_QM>  (900) 
0

>  <FF_Energy>  (900) 
-0.51

>  <QM_Energy>  (900) 
-8.05

>  <source>  (900) 
ACET_MBZ_00

>  <Index>  (900) 
32756

$$$$
ACET-pdb1qni-C-GLU-435:MBZ-pdb1qni-D-PHE-564
     RDKit          3D

 22 21  0  0  0  0  0  0  0  0999 V2000
    3.4448    5.3997    1.9761 C   0  0  0  0  0  0  0  0  0  0  0  0
    4.2789    4.8911    2.0602 H   0  0  0  0  0  0  0  0  0  0  0  0
    2.8588    5.2963    2.7550 H   0  0  0  0  0  0  0  0  0  0  0  0
    3.6907    6.4552    1.8605 H   0  0  0  0  0  0  0  0  0  0  0  0
    2.7088    4.8799    0.7773 C   0  0  0  0  0  0  0  0  0  0  0  0
    1.6812    5.4977    0.4216 O   0  0  0  0  0  1  0  0  0  0  0  0
    3.1584    3.8691    0.1860 O   0  0  0  0  0  0  0  0  0  0  0  0
    0.0003    2.9038   -0.0200 C   0  0  0  0  0  0  0  0  0  0  0  0
    0.9246    3.2137    0.1426 H   0  0  0  0  0  0  0  0  0  0  0  0
   -0.6164    3.2205    0.6838 H   0  0  0  0  0  0  0  0  0  0  0  0
   -0.3320    3.3244   -0.9691 H   0  0  0  0  0  0  0  0  0  0  0  0
    0.0011    1.4049    0.0016 C   0  0  0  0  0  0  0  0  0  0  0  0
   -1.1984    0.6931    0.0001 C   0  0  0  0  0  0  0  0  0  0  0  0
   -2.0646    1.1839   -0.0019 H   0  0  0  0  0  0  0  0  0  0  0  0
   -1.2061   -0.7014   -0.0000 C   0  0  0  0  0  0  0  0  0  0  0  0
   -2.0820   -1.1931    0.0031 H   0  0  0  0  0  0  0  0  0  0  0  0
   -0.0030   -1.3986   -0.0025 C   0  0  0  0  0  0  0  0  0  0  0  0
   -0.0028   -2.3955   -0.0067 H   0  0  0  0  0  0  0  0  0  0  0  0
    1.2061   -0.6971    0.0000 C   0  0  0  0  0  0  0  0  0  0  0  0
    2.0839   -1.1946    0.0024 H   0  0  0  0  0  0  0  0  0  0  0  0
    1.2003    0.6991    0.0008 C   0  0  0  0  0  0  0  0  0  0  0  0
    2.0672    1.1949    0.0002 H   0  0  0  0  0  0  0  0  0  0  0  0
  1  5  1  0
  5  6  1  0
  5  7  2  0
  1  2  1  0
  1  3  1  0
  1  4  1  0
  8 12  1  0
 12 13  2  0
 13 15  1  0
 15 17  2  0
 17 19  1  0
 19 21  2  0
 21 12  1  0
  8  9  1  0
  8 10  1  0
  8 11  1  0
 13 14  1  0
 15 16  1  0
 17 18  1  0
 19 20  1  0
 21 22  1  0
M  CHG  1   6  -1
M  END
>  <PDB_ID>  (901) 
pdb1qni

>  <RESIDUE_NAME>  (901) 
GLU   PHE

>  <FRAG_NAME>  (901) 
ACET   MBZ

>  <FRAG_ATOM_NUM>  (901) 
fragi: 7  fragj: 15

>  <atom.prop.CHAIN_ID>  (901) 
A A A A A A A Z Z Z Z Z Z Z Z Z Z Z Z Z Z Z

>  <atom.prop.IS_HEAVY_ATOM>  (901) 
1 0 0 0 1 1 1 1 0 0 0 1 1 0 1 0 1 0 1 0 1 0

>  <DIFUSE_FUNC_ATOM>  (901) 
atom 6   atom 7   

>  <FINAL_SINGLE_POINT_ENERGY>  (901) 
0

>  <NONCOV_INTER_ENERGY_QM>  (901) 
0

>  <FF_Energy>  (901) 
-0.34

>  <QM_Energy>  (901) 
-7.98

>  <source>  (901) 
ACET_MBZ_00

>  <Index>  (901) 
32758

$$$$
ACET-pdb1qni-F-GLU-435:MBZ-pdb1qni-E-PHE-564
     RDKit          3D

 22 21  0  0  0  0  0  0  0  0999 V2000
    3.6881    4.9131    1.9435 C   0  0  0  0  0  0  0  0  0  0  0  0
    4.4032    4.3065    2.2170 H   0  0  0  0  0  0  0  0  0  0  0  0
    2.9615    4.9743    2.5928 H   0  0  0  0  0  0  0  0  0  0  0  0
    4.1102    5.9068    1.7937 H   0  0  0  0  0  0  0  0  0  0  0  0
    3.1109    4.3935    0.6575 C   0  0  0  0  0  0  0  0  0  0  0  0
    2.4995    5.2044   -0.0806 O   0  0  0  0  0  1  0  0  0  0  0  0
    3.2718    3.1840    0.3844 O   0  0  0  0  0  0  0  0  0  0  0  0
    0.0064    2.9086   -0.0385 C   0  0  0  0  0  0  0  0  0  0  0  0
    0.9163    3.2170    0.1916 H   0  0  0  0  0  0  0  0  0  0  0  0
   -0.6609    3.2334    0.6145 H   0  0  0  0  0  0  0  0  0  0  0  0
   -0.2519    3.3157   -1.0161 H   0  0  0  0  0  0  0  0  0  0  0  0
    0.0005    1.4115    0.0001 C   0  0  0  0  0  0  0  0  0  0  0  0
   -1.2014    0.7030   -0.0006 C   0  0  0  0  0  0  0  0  0  0  0  0
   -2.0667    1.1892   -0.0012 H   0  0  0  0  0  0  0  0  0  0  0  0
   -1.2098   -0.7030   -0.0000 C   0  0  0  0  0  0  0  0  0  0  0  0
   -2.0839   -1.1912    0.0005 H   0  0  0  0  0  0  0  0  0  0  0  0
    0.0002   -1.4075   -0.0005 C   0  0  0  0  0  0  0  0  0  0  0  0
   -0.0059   -2.4018   -0.0001 H   0  0  0  0  0  0  0  0  0  0  0  0
    1.2098   -0.7070    0.0000 C   0  0  0  0  0  0  0  0  0  0  0  0
    2.0883   -1.1958    0.0001 H   0  0  0  0  0  0  0  0  0  0  0  0
    1.2008    0.7031    0.0010 C   0  0  0  0  0  0  0  0  0  0  0  0
    2.0687    1.1933    0.0024 H   0  0  0  0  0  0  0  0  0  0  0  0
  1  5  1  0
  5  6  1  0
  5  7  2  0
  1  2  1  0
  1  3  1  0
  1  4  1  0
  8 12  1  0
 12 13  2  0
 13 15  1  0
 15 17  2  0
 17 19  1  0
 19 21  2  0
 21 12  1  0
  8  9  1  0
  8 10  1  0
  8 11  1  0
 13 14  1  0
 15 16  1  0
 17 18  1  0
 19 20  1  0
 21 22  1  0
M  CHG  1   6  -1
M  END
>  <PDB_ID>  (902) 
pdb1qni

>  <RESIDUE_NAME>  (902) 
GLU   PHE

>  <FRAG_NAME>  (902) 
ACET   MBZ

>  <FRAG_ATOM_NUM>  (902) 
fragi: 7  fragj: 15

>  <atom.prop.CHAIN_ID>  (902) 
A A A A A A A Z Z Z Z Z Z Z Z Z Z Z Z Z Z Z

>  <atom.prop.IS_HEAVY_ATOM>  (902) 
1 0 0 0 1 1 1 1 0 0 0 1 1 0 1 0 1 0 1 0 1 0

>  <DIFUSE_FUNC_ATOM>  (902) 
atom 6   atom 7   

>  <FINAL_SINGLE_POINT_ENERGY>  (902) 
0

>  <NONCOV_INTER_ENERGY_QM>  (902) 
0

>  <FF_Energy>  (902) 
-0.82

>  <QM_Energy>  (902) 
-9.07

>  <source>  (902) 
ACET_MBZ_00

>  <Index>  (902) 
32761

$$$$
ACET-pdb1qno-A-ASP-37:MBZ-pdb1qno-A-PHE-312
     RDKit          3D

 22 21  0  0  0  0  0  0  0  0999 V2000
   -1.7543    0.7932    3.5261 C   0  0  0  0  0  0  0  0  0  0  0  0
   -1.5328    0.3594    4.3979 H   0  0  0  0  0  0  0  0  0  0  0  0
   -1.5507    0.1653    2.7777 H   0  0  0  0  0  0  0  0  0  0  0  0
   -2.8168    1.0359    3.5091 H   0  0  0  0  0  0  0  0  0  0  0  0
   -0.8431    2.0168    3.3704 C   0  0  0  0  0  0  0  0  0  0  0  0
   -1.2894    3.1135    2.9860 O   0  0  0  0  0  1  0  0  0  0  0  0
    0.3492    1.8064    3.7106 O   0  0  0  0  0  0  0  0  0  0  0  0
    0.0649    2.9231   -0.0759 C   0  0  0  0  0  0  0  0  0  0  0  0
    0.9793    3.1859   -0.2975 H   0  0  0  0  0  0  0  0  0  0  0  0
   -0.2369    3.2644    0.7893 H   0  0  0  0  0  0  0  0  0  0  0  0
   -0.5996    3.3121   -0.8474 H   0  0  0  0  0  0  0  0  0  0  0  0
    0.0190    1.4060   -0.0175 C   0  0  0  0  0  0  0  0  0  0  0  0
   -1.1730    0.7101   -0.0244 C   0  0  0  0  0  0  0  0  0  0  0  0
   -2.0370    1.2152   -0.0485 H   0  0  0  0  0  0  0  0  0  0  0  0
   -1.1829   -0.6504   -0.0000 C   0  0  0  0  0  0  0  0  0  0  0  0
   -2.0878   -1.1407    0.0206 H   0  0  0  0  0  0  0  0  0  0  0  0
   -0.0235   -1.3979    0.0001 C   0  0  0  0  0  0  0  0  0  0  0  0
   -0.0579   -2.3864    0.0003 H   0  0  0  0  0  0  0  0  0  0  0  0
    1.1829   -0.7249    0.0000 C   0  0  0  0  0  0  0  0  0  0  0  0
    2.0554   -1.2279   -0.0284 H   0  0  0  0  0  0  0  0  0  0  0  0
    1.1775    0.6571    0.0418 C   0  0  0  0  0  0  0  0  0  0  0  0
    2.0687    1.1432    0.1184 H   0  0  0  0  0  0  0  0  0  0  0  0
  1  5  1  0
  5  6  1  0
  5  7  2  0
  1  2  1  0
  1  3  1  0
  1  4  1  0
  8 12  1  0
 12 13  2  0
 13 15  1  0
 15 17  2  0
 17 19  1  0
 19 21  2  0
 21 12  1  0
  8  9  1  0
  8 10  1  0
  8 11  1  0
 13 14  1  0
 15 16  1  0
 17 18  1  0
 19 20  1  0
 21 22  1  0
M  CHG  1   6  -1
M  END
>  <PDB_ID>  (903) 
pdb1qno

>  <RESIDUE_NAME>  (903) 
ASP   PHE

>  <FRAG_NAME>  (903) 
ACET   MBZ

>  <FRAG_ATOM_NUM>  (903) 
fragi: 7  fragj: 15

>  <atom.prop.CHAIN_ID>  (903) 
A A A A A A A Z Z Z Z Z Z Z Z Z Z Z Z Z Z Z

>  <atom.prop.IS_HEAVY_ATOM>  (903) 
1 0 0 0 1 1 1 1 0 0 0 1 1 0 1 0 1 0 1 0 1 0

>  <DIFUSE_FUNC_ATOM>  (903) 
atom 6   atom 7   

>  <FINAL_SINGLE_POINT_ENERGY>  (903) 
0

>  <NONCOV_INTER_ENERGY_QM>  (903) 
0

>  <FF_Energy>  (903) 
0.63

>  <QM_Energy>  (903) 
-5.64

>  <source>  (903) 
ACET_MBZ_00

>  <Index>  (903) 
32766

$$$$
ACET-pdb1qni-C-ASP-523:MBZ-pdb1qni-D-PHE-398
     RDKit          3D

 22 21  0  0  0  0  0  0  0  0999 V2000
   -4.1721    1.7673    2.1893 C   0  0  0  0  0  0  0  0  0  0  0  0
   -4.3906    2.4226    2.9034 H   0  0  0  0  0  0  0  0  0  0  0  0
   -3.2857    1.3517    2.3562 H   0  0  0  0  0  0  0  0  0  0  0  0
   -4.9252    0.9796    2.2114 H   0  0  0  0  0  0  0  0  0  0  0  0
   -4.1164    2.5089    0.8508 C   0  0  0  0  0  0  0  0  0  0  0  0
   -4.8297    2.1031   -0.1023 O   0  0  0  0  0  1  0  0  0  0  0  0
   -3.3451    3.5050    0.7704 O   0  0  0  0  0  0  0  0  0  0  0  0
    0.0038    2.9183    0.0553 C   0  0  0  0  0  0  0  0  0  0  0  0
    0.9460    3.2214    0.0597 H   0  0  0  0  0  0  0  0  0  0  0  0
   -0.4656    3.1938    0.8819 H   0  0  0  0  0  0  0  0  0  0  0  0
   -0.4963    3.3963   -0.7869 H   0  0  0  0  0  0  0  0  0  0  0  0
    0.0014    1.4119    0.0006 C   0  0  0  0  0  0  0  0  0  0  0  0
   -1.2010    0.6983   -0.0021 C   0  0  0  0  0  0  0  0  0  0  0  0
   -2.0671    1.1856   -0.0062 H   0  0  0  0  0  0  0  0  0  0  0  0
   -1.2093   -0.7069    0.0000 C   0  0  0  0  0  0  0  0  0  0  0  0
   -2.0842   -1.1939    0.0014 H   0  0  0  0  0  0  0  0  0  0  0  0
   -0.0025   -1.4052    0.0020 C   0  0  0  0  0  0  0  0  0  0  0  0
   -0.0013   -2.3999    0.0046 H   0  0  0  0  0  0  0  0  0  0  0  0
    1.2093   -0.7000    0.0000 C   0  0  0  0  0  0  0  0  0  0  0  0
    2.0873   -1.1951    0.0009 H   0  0  0  0  0  0  0  0  0  0  0  0
    1.2021    0.7019   -0.0005 C   0  0  0  0  0  0  0  0  0  0  0  0
    2.0697    1.1955   -0.0021 H   0  0  0  0  0  0  0  0  0  0  0  0
  1  5  1  0
  5  6  1  0
  5  7  2  0
  1  2  1  0
  1  3  1  0
  1  4  1  0
  8 12  1  0
 12 13  2  0
 13 15  1  0
 15 17  2  0
 17 19  1  0
 19 21  2  0
 21 12  1  0
  8  9  1  0
  8 10  1  0
  8 11  1  0
 13 14  1  0
 15 16  1  0
 17 18  1  0
 19 20  1  0
 21 22  1  0
M  CHG  1   6  -1
M  END
>  <PDB_ID>  (904) 
pdb1qni

>  <RESIDUE_NAME>  (904) 
ASP   PHE

>  <FRAG_NAME>  (904) 
ACET   MBZ

>  <FRAG_ATOM_NUM>  (904) 
fragi: 7  fragj: 15

>  <atom.prop.CHAIN_ID>  (904) 
A A A A A A A Z Z Z Z Z Z Z Z Z Z Z Z Z Z Z

>  <atom.prop.IS_HEAVY_ATOM>  (904) 
1 0 0 0 1 1 1 1 0 0 0 1 1 0 1 0 1 0 1 0 1 0

>  <DIFUSE_FUNC_ATOM>  (904) 
atom 6   atom 7   

>  <FINAL_SINGLE_POINT_ENERGY>  (904) 
0

>  <NONCOV_INTER_ENERGY_QM>  (904) 
0

>  <FF_Energy>  (904) 
-2.37

>  <QM_Energy>  (904) 
-7.52

>  <source>  (904) 
ACET_MBZ_00

>  <Index>  (904) 
32769

$$$$
ACET-pdb2wv0-G-GLU-159:MBZ-pdb2wv0-G-PHE-162
     RDKit          3D

 22 21  0  0  0  0  0  0  0  0999 V2000
    5.0349    3.7905   -1.5406 C   0  0  0  0  0  0  0  0  0  0  0  0
    6.0128    3.8613   -1.3994 H   0  0  0  0  0  0  0  0  0  0  0  0
    4.6650    4.6431   -1.8850 H   0  0  0  0  0  0  0  0  0  0  0  0
    4.8497    3.0108   -2.2795 H   0  0  0  0  0  0  0  0  0  0  0  0
    4.3996    3.5488   -0.1668 C   0  0  0  0  0  0  0  0  0  0  0  0
    4.4176    4.4966    0.6542 O   0  0  0  0  0  1  0  0  0  0  0  0
    3.8940    2.4325    0.1015 O   0  0  0  0  0  0  0  0  0  0  0  0
    0.0101    2.9170    0.0140 C   0  0  0  0  0  0  0  0  0  0  0  0
    0.8810    3.2204   -0.3442 H   0  0  0  0  0  0  0  0  0  0  0  0
   -0.1106    3.2091    0.9521 H   0  0  0  0  0  0  0  0  0  0  0  0
   -0.7770    3.3762   -0.5840 H   0  0  0  0  0  0  0  0  0  0  0  0
    0.0022    1.4083   -0.0051 C   0  0  0  0  0  0  0  0  0  0  0  0
   -1.1999    0.6933    0.0019 C   0  0  0  0  0  0  0  0  0  0  0  0
   -2.0656    1.1833    0.0072 H   0  0  0  0  0  0  0  0  0  0  0  0
   -1.2054   -0.7037   -0.0000 C   0  0  0  0  0  0  0  0  0  0  0  0
   -2.0831   -1.1934    0.0003 H   0  0  0  0  0  0  0  0  0  0  0  0
   -0.0044   -1.4014   -0.0001 C   0  0  0  0  0  0  0  0  0  0  0  0
   -0.0029   -2.3971   -0.0004 H   0  0  0  0  0  0  0  0  0  0  0  0
    1.2054   -0.6974    0.0000 C   0  0  0  0  0  0  0  0  0  0  0  0
    2.0835   -1.1952   -0.0009 H   0  0  0  0  0  0  0  0  0  0  0  0
    1.2021    0.7008    0.0032 C   0  0  0  0  0  0  0  0  0  0  0  0
    2.0683    1.1941    0.0108 H   0  0  0  0  0  0  0  0  0  0  0  0
  1  5  1  0
  5  6  1  0
  5  7  2  0
  1  2  1  0
  1  3  1  0
  1  4  1  0
  8 12  1  0
 12 13  2  0
 13 15  1  0
 15 17  2  0
 17 19  1  0
 19 21  2  0
 21 12  1  0
  8  9  1  0
  8 10  1  0
  8 11  1  0
 13 14  1  0
 15 16  1  0
 17 18  1  0
 19 20  1  0
 21 22  1  0
M  CHG  1   6  -1
M  END
>  <PDB_ID>  (905) 
pdb2wv0

>  <RESIDUE_NAME>  (905) 
GLU   PHE

>  <FRAG_NAME>  (905) 
ACET   MBZ

>  <FRAG_ATOM_NUM>  (905) 
fragi: 7  fragj: 15

>  <atom.prop.CHAIN_ID>  (905) 
A A A A A A A Z Z Z Z Z Z Z Z Z Z Z Z Z Z Z

>  <atom.prop.IS_HEAVY_ATOM>  (905) 
1 0 0 0 1 1 1 1 0 0 0 1 1 0 1 0 1 0 1 0 1 0

>  <DIFUSE_FUNC_ATOM>  (905) 
atom 6   atom 7   

>  <FINAL_SINGLE_POINT_ENERGY>  (905) 
0

>  <NONCOV_INTER_ENERGY_QM>  (905) 
0

>  <FF_Energy>  (905) 
-0.95

>  <QM_Energy>  (905) 
-7.78

>  <source>  (905) 
ACET_MBZ_00

>  <Index>  (905) 
32788

$$$$
ACET-pdb2wv7-A-GLU-298:MBZ-pdb2wv7-A-PHE-293
     RDKit          3D

 22 21  0  0  0  0  0  0  0  0999 V2000
    3.2928    5.3734    0.9303 C   0  0  0  0  0  0  0  0  0  0  0  0
    2.4324    5.8688    0.9212 H   0  0  0  0  0  0  0  0  0  0  0  0
    4.0545    5.9989    1.0546 H   0  0  0  0  0  0  0  0  0  0  0  0
    3.2803    4.6646    1.7582 H   0  0  0  0  0  0  0  0  0  0  0  0
    3.4591    4.7584   -0.4839 C   0  0  0  0  0  0  0  0  0  0  0  0
    4.0934    5.4439   -1.3082 O   0  0  0  0  0  1  0  0  0  0  0  0
    2.9288    3.6652   -0.8056 O   0  0  0  0  0  0  0  0  0  0  0  0
    0.0039    2.8770    0.0016 C   0  0  0  0  0  0  0  0  0  0  0  0
    0.9182    3.1834    0.2375 H   0  0  0  0  0  0  0  0  0  0  0  0
   -0.6555    3.1902    0.6734 H   0  0  0  0  0  0  0  0  0  0  0  0
   -0.2599    3.3253   -0.9563 H   0  0  0  0  0  0  0  0  0  0  0  0
   -0.0054    1.3978   -0.0079 C   0  0  0  0  0  0  0  0  0  0  0  0
   -1.1946    0.7083    0.0004 C   0  0  0  0  0  0  0  0  0  0  0  0
   -2.0627    1.1939    0.0058 H   0  0  0  0  0  0  0  0  0  0  0  0
   -1.2011   -0.6874    0.0000 C   0  0  0  0  0  0  0  0  0  0  0  0
   -2.0787   -1.1784   -0.0108 H   0  0  0  0  0  0  0  0  0  0  0  0
    0.0017   -1.3942    0.0158 C   0  0  0  0  0  0  0  0  0  0  0  0
   -0.0120   -2.3910    0.0375 H   0  0  0  0  0  0  0  0  0  0  0  0
    1.2011   -0.7044    0.0000 C   0  0  0  0  0  0  0  0  0  0  0  0
    2.0814   -1.2053   -0.0035 H   0  0  0  0  0  0  0  0  0  0  0  0
    1.1983    0.6798   -0.0083 C   0  0  0  0  0  0  0  0  0  0  0  0
    2.0640    1.1811   -0.0158 H   0  0  0  0  0  0  0  0  0  0  0  0
  1  5  1  0
  5  6  1  0
  5  7  2  0
  1  2  1  0
  1  3  1  0
  1  4  1  0
  8 12  1  0
 12 13  2  0
 13 15  1  0
 15 17  2  0
 17 19  1  0
 19 21  2  0
 21 12  1  0
  8  9  1  0
  8 10  1  0
  8 11  1  0
 13 14  1  0
 15 16  1  0
 17 18  1  0
 19 20  1  0
 21 22  1  0
M  CHG  1   6  -1
M  END
>  <PDB_ID>  (906) 
pdb2wv7

>  <RESIDUE_NAME>  (906) 
GLU   PHE

>  <FRAG_NAME>  (906) 
ACET   MBZ

>  <FRAG_ATOM_NUM>  (906) 
fragi: 7  fragj: 15

>  <atom.prop.CHAIN_ID>  (906) 
A A A A A A A Z Z Z Z Z Z Z Z Z Z Z Z Z Z Z

>  <atom.prop.IS_HEAVY_ATOM>  (906) 
1 0 0 0 1 1 1 1 0 0 0 1 1 0 1 0 1 0 1 0 1 0

>  <DIFUSE_FUNC_ATOM>  (906) 
atom 6   atom 7   

>  <FINAL_SINGLE_POINT_ENERGY>  (906) 
0

>  <NONCOV_INTER_ENERGY_QM>  (906) 
0

>  <FF_Energy>  (906) 
-1.13

>  <QM_Energy>  (906) 
-6.83

>  <source>  (906) 
ACET_MBZ_00

>  <Index>  (906) 
32797

$$$$
ACET-pdb1qo7-A-GLU-296:MBZ-pdb1qo7-A-PHE-77
     RDKit          3D

 22 21  0  0  0  0  0  0  0  0999 V2000
   -1.0056    1.4188   -3.8444 C   0  0  0  0  0  0  0  0  0  0  0  0
   -0.3472    2.0965   -3.5767 H   0  0  0  0  0  0  0  0  0  0  0  0
   -1.2639    1.5013   -4.7884 H   0  0  0  0  0  0  0  0  0  0  0  0
   -0.5634    0.4340   -3.6935 H   0  0  0  0  0  0  0  0  0  0  0  0
   -2.2556    1.6373   -3.0069 C   0  0  0  0  0  0  0  0  0  0  0  0
   -3.0542    0.6882   -2.8505 O   0  0  0  0  0  1  0  0  0  0  0  0
   -2.4515    2.7658   -2.5153 O   0  0  0  0  0  0  0  0  0  0  0  0
    0.0004    2.9017    0.0136 C   0  0  0  0  0  0  0  0  0  0  0  0
   -0.5071    3.2162   -0.7753 H   0  0  0  0  0  0  0  0  0  0  0  0
    0.9407    3.2077   -0.0184 H   0  0  0  0  0  0  0  0  0  0  0  0
   -0.4606    3.3363    0.9005 H   0  0  0  0  0  0  0  0  0  0  0  0
   -0.0012    1.3996    0.0008 C   0  0  0  0  0  0  0  0  0  0  0  0
   -1.1968    0.6911   -0.0003 C   0  0  0  0  0  0  0  0  0  0  0  0
   -2.0637    1.1821   -0.0024 H   0  0  0  0  0  0  0  0  0  0  0  0
   -1.2019   -0.6966   -0.0000 C   0  0  0  0  0  0  0  0  0  0  0  0
   -2.0768   -1.1926    0.0021 H   0  0  0  0  0  0  0  0  0  0  0  0
    0.0017   -1.3927   -0.0000 C   0  0  0  0  0  0  0  0  0  0  0  0
   -0.0028   -2.3917   -0.0004 H   0  0  0  0  0  0  0  0  0  0  0  0
    1.2019   -0.6967   -0.0000 C   0  0  0  0  0  0  0  0  0  0  0  0
    2.0836   -1.1929    0.0022 H   0  0  0  0  0  0  0  0  0  0  0  0
    1.1963    0.6953   -0.0004 C   0  0  0  0  0  0  0  0  0  0  0  0
    2.0635    1.1919   -0.0024 H   0  0  0  0  0  0  0  0  0  0  0  0
  1  5  1  0
  5  6  1  0
  5  7  2  0
  1  2  1  0
  1  3  1  0
  1  4  1  0
  8 12  1  0
 12 13  2  0
 13 15  1  0
 15 17  2  0
 17 19  1  0
 19 21  2  0
 21 12  1  0
  8  9  1  0
  8 10  1  0
  8 11  1  0
 13 14  1  0
 15 16  1  0
 17 18  1  0
 19 20  1  0
 21 22  1  0
M  CHG  1   6  -1
M  END
>  <PDB_ID>  (907) 
pdb1qo7

>  <RESIDUE_NAME>  (907) 
GLU   PHE

>  <FRAG_NAME>  (907) 
ACET   MBZ

>  <FRAG_ATOM_NUM>  (907) 
fragi: 7  fragj: 15

>  <atom.prop.CHAIN_ID>  (907) 
A A A A A A A Z Z Z Z Z Z Z Z Z Z Z Z Z Z Z

>  <atom.prop.IS_HEAVY_ATOM>  (907) 
1 0 0 0 1 1 1 1 0 0 0 1 1 0 1 0 1 0 1 0 1 0

>  <DIFUSE_FUNC_ATOM>  (907) 
atom 6   atom 7   

>  <FINAL_SINGLE_POINT_ENERGY>  (907) 
0

>  <NONCOV_INTER_ENERGY_QM>  (907) 
0

>  <FF_Energy>  (907) 
-1.38

>  <QM_Energy>  (907) 
-6.94

>  <source>  (907) 
ACET_MBZ_00

>  <Index>  (907) 
32853

$$$$
ACET-pdb1qo8-A-GLU-434:MBZ-pdb1qo8-A-PHE-53
     RDKit          3D

 22 21  0  0  0  0  0  0  0  0999 V2000
    1.2825   -4.6475    0.9540 C   0  0  0  0  0  0  0  0  0  0  0  0
    1.4648   -5.2811    0.2331 H   0  0  0  0  0  0  0  0  0  0  0  0
    0.4883   -4.1000    0.7973 H   0  0  0  0  0  0  0  0  0  0  0  0
    1.1302   -5.2137    1.8729 H   0  0  0  0  0  0  0  0  0  0  0  0
    2.4819   -3.7040    1.0551 C   0  0  0  0  0  0  0  0  0  0  0  0
    3.3660   -3.6907    1.9317 O   0  0  0  0  0  1  0  0  0  0  0  0
    2.6837   -2.9010    0.1562 O   0  0  0  0  0  0  0  0  0  0  0  0
   -0.0265    2.9075   -0.0603 C   0  0  0  0  0  0  0  0  0  0  0  0
    0.8712    3.2211   -0.1601 H   0  0  0  0  0  0  0  0  0  0  0  0
   -0.5263    3.2392    0.6838 H   0  0  0  0  0  0  0  0  0  0  0  0
   -0.5715    3.1656   -0.9683 H   0  0  0  0  0  0  0  0  0  0  0  0
   -0.0057    1.3990    0.0060 C   0  0  0  0  0  0  0  0  0  0  0  0
   -1.1919    0.6831   -0.0146 C   0  0  0  0  0  0  0  0  0  0  0  0
   -2.0634    1.1689   -0.0420 H   0  0  0  0  0  0  0  0  0  0  0  0
   -1.1878   -0.7007    0.0000 C   0  0  0  0  0  0  0  0  0  0  0  0
   -2.0654   -1.2014    0.0068 H   0  0  0  0  0  0  0  0  0  0  0  0
    0.0135   -1.4034    0.0069 C   0  0  0  0  0  0  0  0  0  0  0  0
    0.0156   -2.3898    0.0159 H   0  0  0  0  0  0  0  0  0  0  0  0
    1.1878   -0.6782   -0.0000 C   0  0  0  0  0  0  0  0  0  0  0  0
    2.0877   -1.1727   -0.0054 H   0  0  0  0  0  0  0  0  0  0  0  0
    1.1840    0.7001    0.0018 C   0  0  0  0  0  0  0  0  0  0  0  0
    2.0532    1.1990   -0.0010 H   0  0  0  0  0  0  0  0  0  0  0  0
  1  5  1  0
  5  6  1  0
  5  7  2  0
  1  2  1  0
  1  3  1  0
  1  4  1  0
  8 12  1  0
 12 13  2  0
 13 15  1  0
 15 17  2  0
 17 19  1  0
 19 21  2  0
 21 12  1  0
  8  9  1  0
  8 10  1  0
  8 11  1  0
 13 14  1  0
 15 16  1  0
 17 18  1  0
 19 20  1  0
 21 22  1  0
M  CHG  1   6  -1
M  END
>  <PDB_ID>  (908) 
pdb1qo8

>  <RESIDUE_NAME>  (908) 
GLU   PHE

>  <FRAG_NAME>  (908) 
ACET   MBZ

>  <FRAG_ATOM_NUM>  (908) 
fragi: 7  fragj: 15

>  <atom.prop.CHAIN_ID>  (908) 
A A A A A A A Z Z Z Z Z Z Z Z Z Z Z Z Z Z Z

>  <atom.prop.IS_HEAVY_ATOM>  (908) 
1 0 0 0 1 1 1 1 0 0 0 1 1 0 1 0 1 0 1 0 1 0

>  <DIFUSE_FUNC_ATOM>  (908) 
atom 6   atom 7   

>  <FINAL_SINGLE_POINT_ENERGY>  (908) 
0

>  <NONCOV_INTER_ENERGY_QM>  (908) 
0

>  <FF_Energy>  (908) 
25.6

>  <QM_Energy>  (908) 
-2.07

>  <source>  (908) 
ACET_MBZ_00

>  <Index>  (908) 
32976

$$$$
ACET-pdb2wxy-C-ASP-331:MBZ-pdb2wxy-C-PHE-82
     RDKit          3D

 22 21  0  0  0  0  0  0  0  0999 V2000
    5.0580    0.9509    2.3681 C   0  0  0  0  0  0  0  0  0  0  0  0
    5.4689    0.9955    3.2694 H   0  0  0  0  0  0  0  0  0  0  0  0
    5.7325    0.6989    1.6868 H   0  0  0  0  0  0  0  0  0  0  0  0
    4.2864    0.1812    2.3844 H   0  0  0  0  0  0  0  0  0  0  0  0
    4.5070    2.3354    2.0175 C   0  0  0  0  0  0  0  0  0  0  0  0
    3.6550    2.4177    1.1236 O   0  0  0  0  0  1  0  0  0  0  0  0
    4.9338    3.3477    2.6120 O   0  0  0  0  0  0  0  0  0  0  0  0
    0.0200    2.9167    0.0409 C   0  0  0  0  0  0  0  0  0  0  0  0
    0.9215    3.2174   -0.2346 H   0  0  0  0  0  0  0  0  0  0  0  0
   -0.1828    3.1967    0.9681 H   0  0  0  0  0  0  0  0  0  0  0  0
   -0.7069    3.3909   -0.6187 H   0  0  0  0  0  0  0  0  0  0  0  0
    0.0052    1.4034    0.0019 C   0  0  0  0  0  0  0  0  0  0  0  0
   -1.1825    0.6973   -0.0021 C   0  0  0  0  0  0  0  0  0  0  0  0
   -2.0541    1.1852   -0.0079 H   0  0  0  0  0  0  0  0  0  0  0  0
   -1.1892   -0.6938   -0.0000 C   0  0  0  0  0  0  0  0  0  0  0  0
   -2.0785   -1.1786    0.0060 H   0  0  0  0  0  0  0  0  0  0  0  0
   -0.0100   -1.3937   -0.0041 C   0  0  0  0  0  0  0  0  0  0  0  0
   -0.0153   -2.3938   -0.0106 H   0  0  0  0  0  0  0  0  0  0  0  0
    1.1892   -0.7057   -0.0000 C   0  0  0  0  0  0  0  0  0  0  0  0
    2.0705   -1.1998    0.0016 H   0  0  0  0  0  0  0  0  0  0  0  0
    1.1873    0.6924    0.0042 C   0  0  0  0  0  0  0  0  0  0  0  0
    2.0643    1.1787    0.0084 H   0  0  0  0  0  0  0  0  0  0  0  0
  1  5  1  0
  5  6  1  0
  5  7  2  0
  1  2  1  0
  1  3  1  0
  1  4  1  0
  8 12  1  0
 12 13  2  0
 13 15  1  0
 15 17  2  0
 17 19  1  0
 19 21  2  0
 21 12  1  0
  8  9  1  0
  8 10  1  0
  8 11  1  0
 13 14  1  0
 15 16  1  0
 17 18  1  0
 19 20  1  0
 21 22  1  0
M  CHG  1   6  -1
M  END
>  <PDB_ID>  (909) 
pdb2wxy

>  <RESIDUE_NAME>  (909) 
ASP   PHE

>  <FRAG_NAME>  (909) 
ACET   MBZ

>  <FRAG_ATOM_NUM>  (909) 
fragi: 7  fragj: 15

>  <atom.prop.CHAIN_ID>  (909) 
A A A A A A A Z Z Z Z Z Z Z Z Z Z Z Z Z Z Z

>  <atom.prop.IS_HEAVY_ATOM>  (909) 
1 0 0 0 1 1 1 1 0 0 0 1 1 0 1 0 1 0 1 0 1 0

>  <DIFUSE_FUNC_ATOM>  (909) 
atom 6   atom 7   

>  <FINAL_SINGLE_POINT_ENERGY>  (909) 
0

>  <NONCOV_INTER_ENERGY_QM>  (909) 
0

>  <FF_Energy>  (909) 
-1.31

>  <QM_Energy>  (909) 
-6.87

>  <source>  (909) 
ACET_MBZ_00

>  <Index>  (909) 
32988

$$$$
ACET-pdb2wqd-A-ASP-155:MBZ-pdb2wqd-A-PHE-177
     RDKit          3D

 22 21  0  0  0  0  0  0  0  0999 V2000
    4.4660   -0.8548   -2.8842 C   0  0  0  0  0  0  0  0  0  0  0  0
    4.6120   -1.1399   -3.8302 H   0  0  0  0  0  0  0  0  0  0  0  0
    5.3254   -0.5276   -2.4966 H   0  0  0  0  0  0  0  0  0  0  0  0
    3.7620   -0.0227   -2.8897 H   0  0  0  0  0  0  0  0  0  0  0  0
    3.9972   -2.0555   -2.0831 C   0  0  0  0  0  0  0  0  0  0  0  0
    2.8919   -2.0297   -1.5041 O   0  0  0  0  0  1  0  0  0  0  0  0
    4.7565   -3.0381   -2.0566 O   0  0  0  0  0  0  0  0  0  0  0  0
   -0.0013    2.9012   -0.0015 C   0  0  0  0  0  0  0  0  0  0  0  0
   -0.8413    3.2058   -0.4249 H   0  0  0  0  0  0  0  0  0  0  0  0
    0.7898    3.2066   -0.5087 H   0  0  0  0  0  0  0  0  0  0  0  0
    0.0501    3.3433    0.9935 H   0  0  0  0  0  0  0  0  0  0  0  0
   -0.0003    1.3970    0.0002 C   0  0  0  0  0  0  0  0  0  0  0  0
   -1.1934    0.6903   -0.0003 C   0  0  0  0  0  0  0  0  0  0  0  0
   -2.0617    1.1807   -0.0021 H   0  0  0  0  0  0  0  0  0  0  0  0
   -1.1968   -0.6957   -0.0000 C   0  0  0  0  0  0  0  0  0  0  0  0
   -2.0740   -1.1904    0.0009 H   0  0  0  0  0  0  0  0  0  0  0  0
    0.0009   -1.3883    0.0006 C   0  0  0  0  0  0  0  0  0  0  0  0
   -0.0025   -2.3883    0.0013 H   0  0  0  0  0  0  0  0  0  0  0  0
    1.1968   -0.6938    0.0000 C   0  0  0  0  0  0  0  0  0  0  0  0
    2.0798   -1.1930    0.0014 H   0  0  0  0  0  0  0  0  0  0  0  0
    1.1928    0.6904   -0.0005 C   0  0  0  0  0  0  0  0  0  0  0  0
    2.0620    1.1885   -0.0022 H   0  0  0  0  0  0  0  0  0  0  0  0
  1  5  1  0
  5  6  1  0
  5  7  2  0
  1  2  1  0
  1  3  1  0
  1  4  1  0
  8 12  1  0
 12 13  2  0
 13 15  1  0
 15 17  2  0
 17 19  1  0
 19 21  2  0
 21 12  1  0
  8  9  1  0
  8 10  1  0
  8 11  1  0
 13 14  1  0
 15 16  1  0
 17 18  1  0
 19 20  1  0
 21 22  1  0
M  CHG  1   6  -1
M  END
>  <PDB_ID>  (910) 
pdb2wqd

>  <RESIDUE_NAME>  (910) 
ASP   PHE

>  <FRAG_NAME>  (910) 
ACET   MBZ

>  <FRAG_ATOM_NUM>  (910) 
fragi: 7  fragj: 15

>  <atom.prop.CHAIN_ID>  (910) 
A A A A A A A Z Z Z Z Z Z Z Z Z Z Z Z Z Z Z

>  <atom.prop.IS_HEAVY_ATOM>  (910) 
1 0 0 0 1 1 1 1 0 0 0 1 1 0 1 0 1 0 1 0 1 0

>  <DIFUSE_FUNC_ATOM>  (910) 
atom 6   atom 7   

>  <FINAL_SINGLE_POINT_ENERGY>  (910) 
0

>  <NONCOV_INTER_ENERGY_QM>  (910) 
0

>  <FF_Energy>  (910) 
16.72

>  <QM_Energy>  (910) 
-1.54

>  <source>  (910) 
ACET_MBZ_00

>  <Index>  (910) 
33029

$$$$
ACET-pdb2wyh-B-GLU-164:MBZ-pdb2wyh-B-PHE-708
     RDKit          3D

 22 21  0  0  0  0  0  0  0  0999 V2000
    1.2377   -4.5473    0.7731 C   0  0  0  0  0  0  0  0  0  0  0  0
    1.5186   -3.6211    0.5164 H   0  0  0  0  0  0  0  0  0  0  0  0
    1.5707   -5.1960    0.0867 H   0  0  0  0  0  0  0  0  0  0  0  0
    1.7226   -4.7880    1.7192 H   0  0  0  0  0  0  0  0  0  0  0  0
   -0.2572   -4.5931    0.7575 C   0  0  0  0  0  0  0  0  0  0  0  0
   -0.9409   -4.8790    1.7311 O   0  0  0  0  0  1  0  0  0  0  0  0
   -0.7299   -4.3180   -0.3646 O   0  0  0  0  0  0  0  0  0  0  0  0
   -0.0032    2.9122   -0.0059 C   0  0  0  0  0  0  0  0  0  0  0  0
    0.8403    3.2185    0.4070 H   0  0  0  0  0  0  0  0  0  0  0  0
   -0.7889    3.2177    0.5098 H   0  0  0  0  0  0  0  0  0  0  0  0
   -0.0667    3.3529   -1.0008 H   0  0  0  0  0  0  0  0  0  0  0  0
   -0.0019    1.4044   -0.0035 C   0  0  0  0  0  0  0  0  0  0  0  0
   -1.2023    0.6938   -0.0005 C   0  0  0  0  0  0  0  0  0  0  0  0
   -2.0679    1.1842   -0.0002 H   0  0  0  0  0  0  0  0  0  0  0  0
   -1.2091   -0.7019    0.0000 C   0  0  0  0  0  0  0  0  0  0  0  0
   -2.0798   -1.1967   -0.0007 H   0  0  0  0  0  0  0  0  0  0  0  0
    0.0043   -1.3981    0.0028 C   0  0  0  0  0  0  0  0  0  0  0  0
    0.0015   -2.3947    0.0065 H   0  0  0  0  0  0  0  0  0  0  0  0
    1.2091   -0.6958    0.0000 C   0  0  0  0  0  0  0  0  0  0  0  0
    2.0889   -1.1916   -0.0010 H   0  0  0  0  0  0  0  0  0  0  0  0
    1.1998    0.6976    0.0012 C   0  0  0  0  0  0  0  0  0  0  0  0
    2.0652    1.1971    0.0050 H   0  0  0  0  0  0  0  0  0  0  0  0
  1  5  1  0
  5  6  1  0
  5  7  2  0
  1  2  1  0
  1  3  1  0
  1  4  1  0
  8 12  1  0
 12 13  2  0
 13 15  1  0
 15 17  2  0
 17 19  1  0
 19 21  2  0
 21 12  1  0
  8  9  1  0
  8 10  1  0
  8 11  1  0
 13 14  1  0
 15 16  1  0
 17 18  1  0
 19 20  1  0
 21 22  1  0
M  CHG  1   6  -1
M  END
>  <PDB_ID>  (911) 
pdb2wyh

>  <RESIDUE_NAME>  (911) 
GLU   PHE

>  <FRAG_NAME>  (911) 
ACET   MBZ

>  <FRAG_ATOM_NUM>  (911) 
fragi: 7  fragj: 15

>  <atom.prop.CHAIN_ID>  (911) 
A A A A A A A Z Z Z Z Z Z Z Z Z Z Z Z Z Z Z

>  <atom.prop.IS_HEAVY_ATOM>  (911) 
1 0 0 0 1 1 1 1 0 0 0 1 1 0 1 0 1 0 1 0 1 0

>  <DIFUSE_FUNC_ATOM>  (911) 
atom 6   atom 7   

>  <FINAL_SINGLE_POINT_ENERGY>  (911) 
0

>  <NONCOV_INTER_ENERGY_QM>  (911) 
0

>  <FF_Energy>  (911) 
5.99

>  <QM_Energy>  (911) 
-4.08

>  <source>  (911) 
ACET_MBZ_00

>  <Index>  (911) 
33055

$$$$
ACET-pdb1qv9-B-GLU-34:MBZ-pdb1qv9-B-PHE-63
     RDKit          3D

 22 21  0  0  0  0  0  0  0  0999 V2000
   -2.4413   -4.0360    0.4412 C   0  0  0  0  0  0  0  0  0  0  0  0
   -1.6845   -3.5974   -0.0166 H   0  0  0  0  0  0  0  0  0  0  0  0
   -2.9200   -4.6542   -0.1609 H   0  0  0  0  0  0  0  0  0  0  0  0
   -2.0427   -4.6151    1.2742 H   0  0  0  0  0  0  0  0  0  0  0  0
   -3.4135   -2.9572    0.8600 C   0  0  0  0  0  0  0  0  0  0  0  0
   -3.9843   -2.3027   -0.0418 O   0  0  0  0  0  1  0  0  0  0  0  0
   -3.6060   -2.7632    2.0781 O   0  0  0  0  0  0  0  0  0  0  0  0
   -0.0012    2.8973   -0.0358 C   0  0  0  0  0  0  0  0  0  0  0  0
   -0.4710    3.1879   -0.8572 H   0  0  0  0  0  0  0  0  0  0  0  0
    0.9398    3.2049   -0.0346 H   0  0  0  0  0  0  0  0  0  0  0  0
   -0.5026    3.3592    0.8146 H   0  0  0  0  0  0  0  0  0  0  0  0
   -0.0038    1.4016   -0.0003 C   0  0  0  0  0  0  0  0  0  0  0  0
   -1.1995    0.6933    0.0008 C   0  0  0  0  0  0  0  0  0  0  0  0
   -2.0669    1.1826    0.0008 H   0  0  0  0  0  0  0  0  0  0  0  0
   -1.2031   -0.6976    0.0000 C   0  0  0  0  0  0  0  0  0  0  0  0
   -2.0747   -1.1948    0.0020 H   0  0  0  0  0  0  0  0  0  0  0  0
    0.0074   -1.3954   -0.0013 C   0  0  0  0  0  0  0  0  0  0  0  0
   -0.0002   -2.3929   -0.0032 H   0  0  0  0  0  0  0  0  0  0  0  0
    1.2031   -0.6975    0.0000 C   0  0  0  0  0  0  0  0  0  0  0  0
    2.0880   -1.1907    0.0013 H   0  0  0  0  0  0  0  0  0  0  0  0
    1.1958    0.6956    0.0008 C   0  0  0  0  0  0  0  0  0  0  0  0
    2.0625    1.1931    0.0015 H   0  0  0  0  0  0  0  0  0  0  0  0
  1  5  1  0
  5  6  1  0
  5  7  2  0
  1  2  1  0
  1  3  1  0
  1  4  1  0
  8 12  1  0
 12 13  2  0
 13 15  1  0
 15 17  2  0
 17 19  1  0
 19 21  2  0
 21 12  1  0
  8  9  1  0
  8 10  1  0
  8 11  1  0
 13 14  1  0
 15 16  1  0
 17 18  1  0
 19 20  1  0
 21 22  1  0
M  CHG  1   6  -1
M  END
>  <PDB_ID>  (912) 
pdb1qv9

>  <RESIDUE_NAME>  (912) 
GLU   PHE

>  <FRAG_NAME>  (912) 
ACET   MBZ

>  <FRAG_ATOM_NUM>  (912) 
fragi: 7  fragj: 15

>  <atom.prop.CHAIN_ID>  (912) 
A A A A A A A Z Z Z Z Z Z Z Z Z Z Z Z Z Z Z

>  <atom.prop.IS_HEAVY_ATOM>  (912) 
1 0 0 0 1 1 1 1 0 0 0 1 1 0 1 0 1 0 1 0 1 0

>  <DIFUSE_FUNC_ATOM>  (912) 
atom 6   atom 7   

>  <FINAL_SINGLE_POINT_ENERGY>  (912) 
0

>  <NONCOV_INTER_ENERGY_QM>  (912) 
0

>  <FF_Energy>  (912) 
2.29

>  <QM_Energy>  (912) 
-4.71

>  <source>  (912) 
ACET_MBZ_00

>  <Index>  (912) 
33170

$$$$
ACET-pdb2wy3-D-ASP-89:MBZ-pdb2wy3-D-PHE-102
     RDKit          3D

 22 21  0  0  0  0  0  0  0  0999 V2000
   -3.3601    0.8164    2.9887 C   0  0  0  0  0  0  0  0  0  0  0  0
   -3.2336    0.8065    3.9742 H   0  0  0  0  0  0  0  0  0  0  0  0
   -2.7448    0.1692    2.5531 H   0  0  0  0  0  0  0  0  0  0  0  0
   -4.3845    0.5134    2.7722 H   0  0  0  0  0  0  0  0  0  0  0  0
   -3.0162    2.2276    2.4757 C   0  0  0  0  0  0  0  0  0  0  0  0
   -3.7592    2.7906    1.6335 O   0  0  0  0  0  1  0  0  0  0  0  0
   -1.9913    2.7760    2.9505 O   0  0  0  0  0  0  0  0  0  0  0  0
    0.0301    2.9325    0.0496 C   0  0  0  0  0  0  0  0  0  0  0  0
    0.8670    3.2299   -0.3907 H   0  0  0  0  0  0  0  0  0  0  0  0
    0.0183    3.1982    1.0041 H   0  0  0  0  0  0  0  0  0  0  0  0
   -0.8062    3.4234   -0.4481 H   0  0  0  0  0  0  0  0  0  0  0  0
    0.0015    1.4118   -0.0013 C   0  0  0  0  0  0  0  0  0  0  0  0
   -1.1975    0.7036    0.0117 C   0  0  0  0  0  0  0  0  0  0  0  0
   -2.0644    1.1805    0.0284 H   0  0  0  0  0  0  0  0  0  0  0  0
   -1.1958   -0.7101    0.0000 C   0  0  0  0  0  0  0  0  0  0  0  0
   -2.0759   -1.1939   -0.0037 H   0  0  0  0  0  0  0  0  0  0  0  0
    0.0013   -1.3985   -0.0042 C   0  0  0  0  0  0  0  0  0  0  0  0
    0.0003   -2.4001   -0.0103 H   0  0  0  0  0  0  0  0  0  0  0  0
    1.1958   -0.7043    0.0000 C   0  0  0  0  0  0  0  0  0  0  0  0
    2.0809   -1.1955    0.0091 H   0  0  0  0  0  0  0  0  0  0  0  0
    1.1947    0.6975   -0.0063 C   0  0  0  0  0  0  0  0  0  0  0  0
    2.0662    1.1853   -0.0154 H   0  0  0  0  0  0  0  0  0  0  0  0
  1  5  1  0
  5  6  1  0
  5  7  2  0
  1  2  1  0
  1  3  1  0
  1  4  1  0
  8 12  1  0
 12 13  2  0
 13 15  1  0
 15 17  2  0
 17 19  1  0
 19 21  2  0
 21 12  1  0
  8  9  1  0
  8 10  1  0
  8 11  1  0
 13 14  1  0
 15 16  1  0
 17 18  1  0
 19 20  1  0
 21 22  1  0
M  CHG  1   6  -1
M  END
>  <PDB_ID>  (913) 
pdb2wy3

>  <RESIDUE_NAME>  (913) 
ASP   PHE

>  <FRAG_NAME>  (913) 
ACET   MBZ

>  <FRAG_ATOM_NUM>  (913) 
fragi: 7  fragj: 15

>  <atom.prop.CHAIN_ID>  (913) 
A A A A A A A Z Z Z Z Z Z Z Z Z Z Z Z Z Z Z

>  <atom.prop.IS_HEAVY_ATOM>  (913) 
1 0 0 0 1 1 1 1 0 0 0 1 1 0 1 0 1 0 1 0 1 0

>  <DIFUSE_FUNC_ATOM>  (913) 
atom 6   atom 7   

>  <FINAL_SINGLE_POINT_ENERGY>  (913) 
0

>  <NONCOV_INTER_ENERGY_QM>  (913) 
0

>  <FF_Energy>  (913) 
-1.49

>  <QM_Energy>  (913) 
-7.07

>  <source>  (913) 
ACET_MBZ_00

>  <Index>  (913) 
33294

$$$$
ACET-pdb1qyc-B-GLU-192:MBZ-pdb1qyc-B-PHE-156
     RDKit          3D

 22 21  0  0  0  0  0  0  0  0999 V2000
   -3.2782    1.8975    3.1464 C   0  0  0  0  0  0  0  0  0  0  0  0
   -2.7077    1.4383    3.8481 H   0  0  0  0  0  0  0  0  0  0  0  0
   -3.0690    1.4605    2.2554 H   0  0  0  0  0  0  0  0  0  0  0  0
   -4.3205    1.6815    3.3811 H   0  0  0  0  0  0  0  0  0  0  0  0
   -2.7787    3.3467    3.0518 C   0  0  0  0  0  0  0  0  0  0  0  0
   -3.5279    4.3149    3.1508 O   0  0  0  0  0  1  0  0  0  0  0  0
   -1.5882    3.5220    2.8690 O   0  0  0  0  0  0  0  0  0  0  0  0
    0.0244    2.9176    0.1020 C   0  0  0  0  0  0  0  0  0  0  0  0
    0.9874    3.1997   -0.0280 H   0  0  0  0  0  0  0  0  0  0  0  0
   -0.2369    3.1490    1.0515 H   0  0  0  0  0  0  0  0  0  0  0  0
   -0.5977    3.5025   -0.5755 H   0  0  0  0  0  0  0  0  0  0  0  0
   -0.0005    1.3979    0.0019 C   0  0  0  0  0  0  0  0  0  0  0  0
   -1.2072    0.7027   -0.0023 C   0  0  0  0  0  0  0  0  0  0  0  0
   -2.0657    1.1906   -0.0079 H   0  0  0  0  0  0  0  0  0  0  0  0
   -1.2059   -0.6934   -0.0000 C   0  0  0  0  0  0  0  0  0  0  0  0
   -2.0824   -1.1880    0.0021 H   0  0  0  0  0  0  0  0  0  0  0  0
   -0.0014   -1.3924    0.0017 C   0  0  0  0  0  0  0  0  0  0  0  0
   -0.0103   -2.3924    0.0036 H   0  0  0  0  0  0  0  0  0  0  0  0
    1.2059   -0.7029   -0.0000 C   0  0  0  0  0  0  0  0  0  0  0  0
    2.0830   -1.2058    0.0013 H   0  0  0  0  0  0  0  0  0  0  0  0
    1.2090    0.6881   -0.0013 C   0  0  0  0  0  0  0  0  0  0  0  0
    2.0701    1.1855   -0.0059 H   0  0  0  0  0  0  0  0  0  0  0  0
  1  5  1  0
  5  6  1  0
  5  7  2  0
  1  2  1  0
  1  3  1  0
  1  4  1  0
  8 12  1  0
 12 13  2  0
 13 15  1  0
 15 17  2  0
 17 19  1  0
 19 21  2  0
 21 12  1  0
  8  9  1  0
  8 10  1  0
  8 11  1  0
 13 14  1  0
 15 16  1  0
 17 18  1  0
 19 20  1  0
 21 22  1  0
M  CHG  1   6  -1
M  END
>  <PDB_ID>  (914) 
pdb1qyc

>  <RESIDUE_NAME>  (914) 
GLU   PHE

>  <FRAG_NAME>  (914) 
ACET   MBZ

>  <FRAG_ATOM_NUM>  (914) 
fragi: 7  fragj: 15

>  <atom.prop.CHAIN_ID>  (914) 
A A A A A A A Z Z Z Z Z Z Z Z Z Z Z Z Z Z Z

>  <atom.prop.IS_HEAVY_ATOM>  (914) 
1 0 0 0 1 1 1 1 0 0 0 1 1 0 1 0 1 0 1 0 1 0

>  <DIFUSE_FUNC_ATOM>  (914) 
atom 6   atom 7   

>  <FINAL_SINGLE_POINT_ENERGY>  (914) 
0

>  <NONCOV_INTER_ENERGY_QM>  (914) 
0

>  <FF_Energy>  (914) 
-0.36

>  <QM_Energy>  (914) 
-5.66

>  <source>  (914) 
ACET_MBZ_00

>  <Index>  (914) 
33397

$$$$
ACET-pdb1qy0-A-ASP-27:MBZ-pdb1qy0-A-PHE-114
     RDKit          3D

 22 21  0  0  0  0  0  0  0  0999 V2000
   -4.5337    5.7784   -1.2794 C   0  0  0  0  0  0  0  0  0  0  0  0
   -4.1380    6.5993   -1.6635 H   0  0  0  0  0  0  0  0  0  0  0  0
   -5.3914    5.9712   -0.8281 H   0  0  0  0  0  0  0  0  0  0  0  0
   -4.7058    5.0585   -2.0796 H   0  0  0  0  0  0  0  0  0  0  0  0
   -3.5406    5.2451   -0.1912 C   0  0  0  0  0  0  0  0  0  0  0  0
   -2.7450    4.3226   -0.4783 O   0  0  0  0  0  1  0  0  0  0  0  0
   -3.6326    5.8190    0.9217 O   0  0  0  0  0  0  0  0  0  0  0  0
   -0.0331    2.9009    0.0302 C   0  0  0  0  0  0  0  0  0  0  0  0
   -0.8237    3.2089   -0.4810 H   0  0  0  0  0  0  0  0  0  0  0  0
    0.8058    3.2401   -0.3737 H   0  0  0  0  0  0  0  0  0  0  0  0
   -0.1069    3.3422    1.0242 H   0  0  0  0  0  0  0  0  0  0  0  0
   -0.0027    1.3975    0.0001 C   0  0  0  0  0  0  0  0  0  0  0  0
   -1.1927    0.6781    0.0001 C   0  0  0  0  0  0  0  0  0  0  0  0
   -2.0637    1.1615   -0.0012 H   0  0  0  0  0  0  0  0  0  0  0  0
   -1.1860   -0.7111    0.0000 C   0  0  0  0  0  0  0  0  0  0  0  0
   -2.0682   -1.2042   -0.0038 H   0  0  0  0  0  0  0  0  0  0  0  0
   -0.0021   -1.3840    0.0074 C   0  0  0  0  0  0  0  0  0  0  0  0
    0.0073   -2.3908    0.0181 H   0  0  0  0  0  0  0  0  0  0  0  0
    1.1860   -0.6890    0.0000 C   0  0  0  0  0  0  0  0  0  0  0  0
    2.0752   -1.1861    0.0017 H   0  0  0  0  0  0  0  0  0  0  0  0
    1.1976    0.7084   -0.0076 C   0  0  0  0  0  0  0  0  0  0  0  0
    2.0598    1.1952   -0.0188 H   0  0  0  0  0  0  0  0  0  0  0  0
  1  5  1  0
  5  6  1  0
  5  7  2  0
  1  2  1  0
  1  3  1  0
  1  4  1  0
  8 12  1  0
 12 13  2  0
 13 15  1  0
 15 17  2  0
 17 19  1  0
 19 21  2  0
 21 12  1  0
  8  9  1  0
  8 10  1  0
  8 11  1  0
 13 14  1  0
 15 16  1  0
 17 18  1  0
 19 20  1  0
 21 22  1  0
M  CHG  1   6  -1
M  END
>  <PDB_ID>  (915) 
pdb1qy0

>  <RESIDUE_NAME>  (915) 
ASP   PHE

>  <FRAG_NAME>  (915) 
ACET   MBZ

>  <FRAG_ATOM_NUM>  (915) 
fragi: 7  fragj: 15

>  <atom.prop.CHAIN_ID>  (915) 
A A A A A A A Z Z Z Z Z Z Z Z Z Z Z Z Z Z Z

>  <atom.prop.IS_HEAVY_ATOM>  (915) 
1 0 0 0 1 1 1 1 0 0 0 1 1 0 1 0 1 0 1 0 1 0

>  <DIFUSE_FUNC_ATOM>  (915) 
atom 6   atom 7   

>  <FINAL_SINGLE_POINT_ENERGY>  (915) 
0

>  <NONCOV_INTER_ENERGY_QM>  (915) 
0

>  <FF_Energy>  (915) 
-0.16

>  <QM_Energy>  (915) 
-6.1

>  <source>  (915) 
ACET_MBZ_00

>  <Index>  (915) 
33422

$$$$
ACET-pdb1qz9-A-ASP-11:MBZ-pdb1qz9-A-PHE-385
     RDKit          3D

 22 21  0  0  0  0  0  0  0  0999 V2000
   -5.1074    3.6952   -0.4559 C   0  0  0  0  0  0  0  0  0  0  0  0
   -5.0839    4.4168   -1.1032 H   0  0  0  0  0  0  0  0  0  0  0  0
   -5.9311    3.7406    0.0555 H   0  0  0  0  0  0  0  0  0  0  0  0
   -5.0678    2.7400   -0.9794 H   0  0  0  0  0  0  0  0  0  0  0  0
   -3.9539    3.8947    0.5154 C   0  0  0  0  0  0  0  0  0  0  0  0
   -3.4618    2.8933    1.0867 O   0  0  0  0  0  1  0  0  0  0  0  0
   -3.4938    5.0304    0.7860 O   0  0  0  0  0  0  0  0  0  0  0  0
   -0.0005    2.9028    0.0308 C   0  0  0  0  0  0  0  0  0  0  0  0
   -0.8529    3.2117   -0.3128 H   0  0  0  0  0  0  0  0  0  0  0  0
    0.7182    3.2117   -0.5429 H   0  0  0  0  0  0  0  0  0  0  0  0
    0.1481    3.3116    1.0302 H   0  0  0  0  0  0  0  0  0  0  0  0
   -0.0010    1.3983   -0.0029 C   0  0  0  0  0  0  0  0  0  0  0  0
   -1.1970    0.6856    0.0032 C   0  0  0  0  0  0  0  0  0  0  0  0
   -2.0057    1.1422    0.0052 H   0  0  0  0  0  0  0  0  0  0  0  0
   -1.1966   -0.6941    0.0000 C   0  0  0  0  0  0  0  0  0  0  0  0
   -2.0029   -1.1584   -0.0109 H   0  0  0  0  0  0  0  0  0  0  0  0
    0.0024   -1.3879   -0.0101 C   0  0  0  0  0  0  0  0  0  0  0  0
    0.0039   -2.3176   -0.0161 H   0  0  0  0  0  0  0  0  0  0  0  0
    1.1966   -0.6933    0.0000 C   0  0  0  0  0  0  0  0  0  0  0  0
    2.0036   -1.1561   -0.0037 H   0  0  0  0  0  0  0  0  0  0  0  0
    1.1956    0.6913    0.0098 C   0  0  0  0  0  0  0  0  0  0  0  0
    2.0032    1.1514    0.0138 H   0  0  0  0  0  0  0  0  0  0  0  0
  1  5  1  0
  5  6  1  0
  5  7  2  0
  1  2  1  0
  1  3  1  0
  1  4  1  0
  8 12  1  0
 12 13  2  0
 13 15  1  0
 15 17  2  0
 17 19  1  0
 19 21  2  0
 21 12  1  0
  8  9  1  0
  8 10  1  0
  8 11  1  0
 13 14  1  0
 15 16  1  0
 17 18  1  0
 19 20  1  0
 21 22  1  0
M  CHG  1   6  -1
M  END
>  <PDB_ID>  (916) 
pdb1qz9

>  <RESIDUE_NAME>  (916) 
ASP   PHE

>  <FRAG_NAME>  (916) 
ACET   MBZ

>  <FRAG_ATOM_NUM>  (916) 
fragi: 7  fragj: 15

>  <atom.prop.CHAIN_ID>  (916) 
A A A A A A A Z Z Z Z Z Z Z Z Z Z Z Z Z Z Z

>  <atom.prop.IS_HEAVY_ATOM>  (916) 
1 0 0 0 1 1 1 1 0 0 0 1 1 0 1 0 1 0 1 0 1 0

>  <DIFUSE_FUNC_ATOM>  (916) 
atom 6   atom 7   

>  <FINAL_SINGLE_POINT_ENERGY>  (916) 
0

>  <NONCOV_INTER_ENERGY_QM>  (916) 
0

>  <FF_Energy>  (916) 
-2.07

>  <QM_Energy>  (916) 
-7.08

>  <source>  (916) 
ACET_MBZ_00

>  <Index>  (916) 
33430

$$$$
ACET-pdb2x5c-A-GLU-117:MBZ-pdb2x5c-A-PHE-124
     RDKit          3D

 22 21  0  0  0  0  0  0  0  0999 V2000
    4.3371    0.5262   -0.6826 C   0  0  0  0  0  0  0  0  0  0  0  0
    3.6708    0.9970   -1.4208 H   0  0  0  0  0  0  0  0  0  0  0  0
    3.7891   -0.2360   -0.1088 H   0  0  0  0  0  0  0  0  0  0  0  0
    5.1695    0.0521   -1.2025 H   0  0  0  0  0  0  0  0  0  0  0  0
    4.8114    1.6206    0.3047 C   0  0  0  0  0  0  0  0  0  0  0  0
    5.8200    1.3998    0.9743 O   0  0  0  0  0  1  0  0  0  0  0  0
    4.1948    2.6974    0.3948 O   0  0  0  0  0  0  0  0  0  0  0  0
    0.0010    2.8676   -0.0370 C   0  0  0  0  0  0  0  0  0  0  0  0
    0.9782    3.2195    0.3261 H   0  0  0  0  0  0  0  0  0  0  0  0
   -0.7986    3.2255    0.6287 H   0  0  0  0  0  0  0  0  0  0  0  0
   -0.1697    3.2616   -1.0389 H   0  0  0  0  0  0  0  0  0  0  0  0
    0.0023    1.3937    0.0063 C   0  0  0  0  0  0  0  0  0  0  0  0
   -1.1987    0.7107    0.0111 C   0  0  0  0  0  0  0  0  0  0  0  0
   -2.1473    1.2677    0.0010 H   0  0  0  0  0  0  0  0  0  0  0  0
   -1.2131   -0.6791   -0.0000 C   0  0  0  0  0  0  0  0  0  0  0  0
   -2.1730   -1.2156    0.0223 H   0  0  0  0  0  0  0  0  0  0  0  0
   -0.0037   -1.4065    0.0031 C   0  0  0  0  0  0  0  0  0  0  0  0
   -0.0152   -2.5065    0.0155 H   0  0  0  0  0  0  0  0  0  0  0  0
    1.2131   -0.7072    0.0000 C   0  0  0  0  0  0  0  0  0  0  0  0
    2.1683   -1.2537   -0.0089 H   0  0  0  0  0  0  0  0  0  0  0  0
    1.2001    0.6884   -0.0205 C   0  0  0  0  0  0  0  0  0  0  0  0
    2.1531    1.2386   -0.0244 H   0  0  0  0  0  0  0  0  0  0  0  0
  1  5  1  0
  5  6  1  0
  5  7  2  0
  1  2  1  0
  1  3  1  0
  1  4  1  0
  8 12  1  0
 12 13  2  0
 13 15  1  0
 15 17  2  0
 17 19  1  0
 19 21  2  0
 21 12  1  0
  8  9  1  0
  8 10  1  0
  8 11  1  0
 13 14  1  0
 15 16  1  0
 17 18  1  0
 19 20  1  0
 21 22  1  0
M  CHG  1   6  -1
M  END
>  <PDB_ID>  (917) 
pdb2x5c

>  <RESIDUE_NAME>  (917) 
GLU   PHE

>  <FRAG_NAME>  (917) 
ACET   MBZ

>  <FRAG_ATOM_NUM>  (917) 
fragi: 7  fragj: 15

>  <atom.prop.CHAIN_ID>  (917) 
A A A A A A A Z Z Z Z Z Z Z Z Z Z Z Z Z Z Z

>  <atom.prop.IS_HEAVY_ATOM>  (917) 
1 0 0 0 1 1 1 1 0 0 0 1 1 0 1 0 1 0 1 0 1 0

>  <DIFUSE_FUNC_ATOM>  (917) 
atom 6   atom 7   

>  <FINAL_SINGLE_POINT_ENERGY>  (917) 
0

>  <NONCOV_INTER_ENERGY_QM>  (917) 
0

>  <FF_Energy>  (917) 
3.08

>  <QM_Energy>  (917) 
-4.22

>  <source>  (917) 
ACET_MBZ_00

>  <Index>  (917) 
33459

$$$$
ACET-pdb1r1n-I-GLU-183:MBZ-pdb1r1n-I-PHE-200
     RDKit          3D

 22 21  0  0  0  0  0  0  0  0999 V2000
   -3.4159   -2.2714    1.6770 C   0  0  0  0  0  0  0  0  0  0  0  0
   -3.9497   -1.6386    2.2041 H   0  0  0  0  0  0  0  0  0  0  0  0
   -2.5230   -1.9236    1.4650 H   0  0  0  0  0  0  0  0  0  0  0  0
   -3.3037   -3.1914    2.2507 H   0  0  0  0  0  0  0  0  0  0  0  0
   -4.1405   -2.4979    0.3646 C   0  0  0  0  0  0  0  0  0  0  0  0
   -3.5890   -3.2014   -0.5065 O   0  0  0  0  0  1  0  0  0  0  0  0
   -5.2648   -1.9782    0.2014 O   0  0  0  0  0  0  0  0  0  0  0  0
   -0.0022    2.9000    0.0724 C   0  0  0  0  0  0  0  0  0  0  0  0
    0.2482    3.1638    0.9936 H   0  0  0  0  0  0  0  0  0  0  0  0
   -0.9122    3.2163   -0.1552 H   0  0  0  0  0  0  0  0  0  0  0  0
    0.6980    3.3760   -0.6140 H   0  0  0  0  0  0  0  0  0  0  0  0
    0.0009    1.4031    0.0013 C   0  0  0  0  0  0  0  0  0  0  0  0
   -1.1952    0.6916   -0.0006 C   0  0  0  0  0  0  0  0  0  0  0  0
   -2.0627    1.1812   -0.0039 H   0  0  0  0  0  0  0  0  0  0  0  0
   -1.1999   -0.7005    0.0000 C   0  0  0  0  0  0  0  0  0  0  0  0
   -2.0781   -1.1919    0.0003 H   0  0  0  0  0  0  0  0  0  0  0  0
   -0.0015   -1.3953    0.0021 C   0  0  0  0  0  0  0  0  0  0  0  0
   -0.0024   -2.3940    0.0045 H   0  0  0  0  0  0  0  0  0  0  0  0
    1.1999   -0.6967   -0.0000 C   0  0  0  0  0  0  0  0  0  0  0  0
    2.0818   -1.1924    0.0023 H   0  0  0  0  0  0  0  0  0  0  0  0
    1.1958    0.6978   -0.0028 C   0  0  0  0  0  0  0  0  0  0  0  0
    2.0643    1.1912   -0.0085 H   0  0  0  0  0  0  0  0  0  0  0  0
  1  5  1  0
  5  6  1  0
  5  7  2  0
  1  2  1  0
  1  3  1  0
  1  4  1  0
  8 12  1  0
 12 13  2  0
 13 15  1  0
 15 17  2  0
 17 19  1  0
 19 21  2  0
 21 12  1  0
  8  9  1  0
  8 10  1  0
  8 11  1  0
 13 14  1  0
 15 16  1  0
 17 18  1  0
 19 20  1  0
 21 22  1  0
M  CHG  1   6  -1
M  END
>  <PDB_ID>  (918) 
pdb1r1n

>  <RESIDUE_NAME>  (918) 
GLU   PHE

>  <FRAG_NAME>  (918) 
ACET   MBZ

>  <FRAG_ATOM_NUM>  (918) 
fragi: 7  fragj: 15

>  <atom.prop.CHAIN_ID>  (918) 
A A A A A A A Z Z Z Z Z Z Z Z Z Z Z Z Z Z Z

>  <atom.prop.IS_HEAVY_ATOM>  (918) 
1 0 0 0 1 1 1 1 0 0 0 1 1 0 1 0 1 0 1 0 1 0

>  <DIFUSE_FUNC_ATOM>  (918) 
atom 6   atom 7   

>  <FINAL_SINGLE_POINT_ENERGY>  (918) 
0

>  <NONCOV_INTER_ENERGY_QM>  (918) 
0

>  <FF_Energy>  (918) 
9.94

>  <QM_Energy>  (918) 
-1.14

>  <source>  (918) 
ACET_MBZ_00

>  <Index>  (918) 
33529

$$$$
ACET-pdb1r42-A-GLU-457:MBZ-pdb1r42-A-PHE-512
     RDKit          3D

 22 21  0  0  0  0  0  0  0  0999 V2000
   -2.5985    5.0980    0.5146 C   0  0  0  0  0  0  0  0  0  0  0  0
   -2.3003    4.1960    0.7783 H   0  0  0  0  0  0  0  0  0  0  0  0
   -2.6864    5.1811   -0.4646 H   0  0  0  0  0  0  0  0  0  0  0  0
   -3.5687    5.2929    0.9715 H   0  0  0  0  0  0  0  0  0  0  0  0
   -1.4947    6.0772    0.9481 C   0  0  0  0  0  0  0  0  0  0  0  0
   -0.9315    6.7525    0.0658 O   0  0  0  0  0  1  0  0  0  0  0  0
   -1.1829    6.1566    2.1544 O   0  0  0  0  0  0  0  0  0  0  0  0
   -0.0061    2.9172    0.0726 C   0  0  0  0  0  0  0  0  0  0  0  0
    0.5601    3.1893    0.8391 H   0  0  0  0  0  0  0  0  0  0  0  0
   -0.9438    3.2102    0.2032 H   0  0  0  0  0  0  0  0  0  0  0  0
    0.3772    3.4163   -0.8174 H   0  0  0  0  0  0  0  0  0  0  0  0
    0.0020    1.4101    0.0013 C   0  0  0  0  0  0  0  0  0  0  0  0
   -1.1967    0.6941   -0.0006 C   0  0  0  0  0  0  0  0  0  0  0  0
   -2.0655    1.1776   -0.0038 H   0  0  0  0  0  0  0  0  0  0  0  0
   -1.2047   -0.7161   -0.0000 C   0  0  0  0  0  0  0  0  0  0  0  0
   -2.0815   -1.1988   -0.0006 H   0  0  0  0  0  0  0  0  0  0  0  0
   -0.0029   -1.4057    0.0025 C   0  0  0  0  0  0  0  0  0  0  0  0
    0.0089   -2.4003    0.0054 H   0  0  0  0  0  0  0  0  0  0  0  0
    1.2047   -0.6901    0.0000 C   0  0  0  0  0  0  0  0  0  0  0  0
    2.0864   -1.1858    0.0026 H   0  0  0  0  0  0  0  0  0  0  0  0
    1.1977    0.7077   -0.0032 C   0  0  0  0  0  0  0  0  0  0  0  0
    2.0666    1.2012   -0.0094 H   0  0  0  0  0  0  0  0  0  0  0  0
  1  5  1  0
  5  6  1  0
  5  7  2  0
  1  2  1  0
  1  3  1  0
  1  4  1  0
  8 12  1  0
 12 13  2  0
 13 15  1  0
 15 17  2  0
 17 19  1  0
 19 21  2  0
 21 12  1  0
  8  9  1  0
  8 10  1  0
  8 11  1  0
 13 14  1  0
 15 16  1  0
 17 18  1  0
 19 20  1  0
 21 22  1  0
M  CHG  1   6  -1
M  END
>  <PDB_ID>  (919) 
pdb1r42

>  <RESIDUE_NAME>  (919) 
GLU   PHE

>  <FRAG_NAME>  (919) 
ACET   MBZ

>  <FRAG_ATOM_NUM>  (919) 
fragi: 7  fragj: 15

>  <atom.prop.CHAIN_ID>  (919) 
A A A A A A A Z Z Z Z Z Z Z Z Z Z Z Z Z Z Z

>  <atom.prop.IS_HEAVY_ATOM>  (919) 
1 0 0 0 1 1 1 1 0 0 0 1 1 0 1 0 1 0 1 0 1 0

>  <DIFUSE_FUNC_ATOM>  (919) 
atom 6   atom 7   

>  <FINAL_SINGLE_POINT_ENERGY>  (919) 
0

>  <NONCOV_INTER_ENERGY_QM>  (919) 
0

>  <FF_Energy>  (919) 
2.75

>  <QM_Energy>  (919) 
-2.27

>  <source>  (919) 
ACET_MBZ_00

>  <Index>  (919) 
33644

$$$$
ACET-pdb2x7p-A-GLU-226:MBZ-pdb2x7p-A-PHE-19
     RDKit          3D

 22 21  0  0  0  0  0  0  0  0999 V2000
   -2.5363   -3.6228    1.4452 C   0  0  0  0  0  0  0  0  0  0  0  0
   -1.9018   -3.2924    0.7716 H   0  0  0  0  0  0  0  0  0  0  0  0
   -3.1383   -4.3113    1.0843 H   0  0  0  0  0  0  0  0  0  0  0  0
   -1.9672   -4.0603    2.2654 H   0  0  0  0  0  0  0  0  0  0  0  0
   -3.3910   -2.4510    1.8846 C   0  0  0  0  0  0  0  0  0  0  0  0
   -3.5232   -2.2337    3.1069 O   0  0  0  0  0  1  0  0  0  0  0  0
   -3.9332   -1.7478    1.0055 O   0  0  0  0  0  0  0  0  0  0  0  0
   -0.0054    2.8958    0.0002 C   0  0  0  0  0  0  0  0  0  0  0  0
    0.9298    3.2055    0.0775 H   0  0  0  0  0  0  0  0  0  0  0  0
   -0.5521    3.2025    0.7641 H   0  0  0  0  0  0  0  0  0  0  0  0
   -0.4264    3.3314   -0.9060 H   0  0  0  0  0  0  0  0  0  0  0  0
   -0.0008    1.3947    0.0022 C   0  0  0  0  0  0  0  0  0  0  0  0
   -1.1904    0.6867    0.0007 C   0  0  0  0  0  0  0  0  0  0  0  0
   -2.0601    1.1780   -0.0010 H   0  0  0  0  0  0  0  0  0  0  0  0
   -1.1930   -0.6940   -0.0000 C   0  0  0  0  0  0  0  0  0  0  0  0
   -2.0718   -1.1903    0.0012 H   0  0  0  0  0  0  0  0  0  0  0  0
    0.0007   -1.3846   -0.0012 C   0  0  0  0  0  0  0  0  0  0  0  0
   -0.0030   -2.3866   -0.0038 H   0  0  0  0  0  0  0  0  0  0  0  0
    1.1930   -0.6929    0.0000 C   0  0  0  0  0  0  0  0  0  0  0  0
    2.0776   -1.1923    0.0036 H   0  0  0  0  0  0  0  0  0  0  0  0
    1.1906    0.6901   -0.0018 C   0  0  0  0  0  0  0  0  0  0  0  0
    2.0604    1.1873   -0.0069 H   0  0  0  0  0  0  0  0  0  0  0  0
  1  5  1  0
  5  6  1  0
  5  7  2  0
  1  2  1  0
  1  3  1  0
  1  4  1  0
  8 12  1  0
 12 13  2  0
 13 15  1  0
 15 17  2  0
 17 19  1  0
 19 21  2  0
 21 12  1  0
  8  9  1  0
  8 10  1  0
  8 11  1  0
 13 14  1  0
 15 16  1  0
 17 18  1  0
 19 20  1  0
 21 22  1  0
M  CHG  1   6  -1
M  END
>  <PDB_ID>  (920) 
pdb2x7p

>  <RESIDUE_NAME>  (920) 
GLU   PHE

>  <FRAG_NAME>  (920) 
ACET   MBZ

>  <FRAG_ATOM_NUM>  (920) 
fragi: 7  fragj: 15

>  <atom.prop.CHAIN_ID>  (920) 
A A A A A A A Z Z Z Z Z Z Z Z Z Z Z Z Z Z Z

>  <atom.prop.IS_HEAVY_ATOM>  (920) 
1 0 0 0 1 1 1 1 0 0 0 1 1 0 1 0 1 0 1 0 1 0

>  <DIFUSE_FUNC_ATOM>  (920) 
atom 6   atom 7   

>  <FINAL_SINGLE_POINT_ENERGY>  (920) 
0

>  <NONCOV_INTER_ENERGY_QM>  (920) 
0

>  <FF_Energy>  (920) 
1.11

>  <QM_Energy>  (920) 
-4.8

>  <source>  (920) 
ACET_MBZ_00

>  <Index>  (920) 
33689

$$$$
ACET-pdb1r53-A-GLU-256:MBZ-pdb1r53-A-PHE-261
     RDKit          3D

 22 21  0  0  0  0  0  0  0  0999 V2000
    5.4756    1.9840   -1.1787 C   0  0  0  0  0  0  0  0  0  0  0  0
    5.7273    1.5480   -0.3275 H   0  0  0  0  0  0  0  0  0  0  0  0
    6.2681    2.3643   -1.6332 H   0  0  0  0  0  0  0  0  0  0  0  0
    5.0122    1.2445   -1.8317 H   0  0  0  0  0  0  0  0  0  0  0  0
    4.5634    3.1423   -0.8322 C   0  0  0  0  0  0  0  0  0  0  0  0
    3.3526    2.9492   -0.6646 O   0  0  0  0  0  1  0  0  0  0  0  0
    5.0908    4.2495   -0.7177 O   0  0  0  0  0  0  0  0  0  0  0  0
    0.0218    2.8849   -0.0514 C   0  0  0  0  0  0  0  0  0  0  0  0
    0.9043    3.2089    0.2274 H   0  0  0  0  0  0  0  0  0  0  0  0
   -0.7032    3.2300    0.5123 H   0  0  0  0  0  0  0  0  0  0  0  0
   -0.1517    3.2604   -1.0598 H   0  0  0  0  0  0  0  0  0  0  0  0
    0.0130    1.3916    0.0108 C   0  0  0  0  0  0  0  0  0  0  0  0
   -1.1734    0.6877   -0.0082 C   0  0  0  0  0  0  0  0  0  0  0  0
   -2.0436    1.1809   -0.0296 H   0  0  0  0  0  0  0  0  0  0  0  0
   -1.1771   -0.6889    0.0000 C   0  0  0  0  0  0  0  0  0  0  0  0
   -2.0778   -1.1704    0.0036 H   0  0  0  0  0  0  0  0  0  0  0  0
   -0.0269   -1.3739    0.0047 C   0  0  0  0  0  0  0  0  0  0  0  0
   -0.0209   -2.3811    0.0110 H   0  0  0  0  0  0  0  0  0  0  0  0
    1.1771   -0.6923   -0.0000 C   0  0  0  0  0  0  0  0  0  0  0  0
    2.0526   -1.2094    0.0033 H   0  0  0  0  0  0  0  0  0  0  0  0
    1.1873    0.6759   -0.0074 C   0  0  0  0  0  0  0  0  0  0  0  0
    2.0655    1.1685   -0.0273 H   0  0  0  0  0  0  0  0  0  0  0  0
  1  5  1  0
  5  6  1  0
  5  7  2  0
  1  2  1  0
  1  3  1  0
  1  4  1  0
  8 12  1  0
 12 13  2  0
 13 15  1  0
 15 17  2  0
 17 19  1  0
 19 21  2  0
 21 12  1  0
  8  9  1  0
  8 10  1  0
  8 11  1  0
 13 14  1  0
 15 16  1  0
 17 18  1  0
 19 20  1  0
 21 22  1  0
M  CHG  1   6  -1
M  END
>  <PDB_ID>  (921) 
pdb1r53

>  <RESIDUE_NAME>  (921) 
GLU   PHE

>  <FRAG_NAME>  (921) 
ACET   MBZ

>  <FRAG_ATOM_NUM>  (921) 
fragi: 7  fragj: 15

>  <atom.prop.CHAIN_ID>  (921) 
A A A A A A A Z Z Z Z Z Z Z Z Z Z Z Z Z Z Z

>  <atom.prop.IS_HEAVY_ATOM>  (921) 
1 0 0 0 1 1 1 1 0 0 0 1 1 0 1 0 1 0 1 0 1 0

>  <DIFUSE_FUNC_ATOM>  (921) 
atom 6   atom 7   

>  <FINAL_SINGLE_POINT_ENERGY>  (921) 
0

>  <NONCOV_INTER_ENERGY_QM>  (921) 
0

>  <FF_Energy>  (921) 
-1.29

>  <QM_Energy>  (921) 
-8.03

>  <source>  (921) 
ACET_MBZ_00

>  <Index>  (921) 
33703

$$$$
ACET-pdb1r5z-A-ASP-197:MBZ-pdb1r5z-A-PHE-224
     RDKit          3D

 22 21  0  0  0  0  0  0  0  0999 V2000
    4.4990    4.9197   -0.5598 C   0  0  0  0  0  0  0  0  0  0  0  0
    5.1507    4.2188   -0.2989 H   0  0  0  0  0  0  0  0  0  0  0  0
    4.0463    5.2933    0.2398 H   0  0  0  0  0  0  0  0  0  0  0  0
    5.0680    5.7315   -1.0131 H   0  0  0  0  0  0  0  0  0  0  0  0
    3.4653    4.3237   -1.4908 C   0  0  0  0  0  0  0  0  0  0  0  0
    3.1358    4.9548   -2.5417 O   0  0  0  0  0  1  0  0  0  0  0  0
    2.9680    3.1760   -1.2657 O   0  0  0  0  0  0  0  0  0  0  0  0
   -0.0055    2.9420   -0.0382 C   0  0  0  0  0  0  0  0  0  0  0  0
    0.9045    3.2665    0.1299 H   0  0  0  0  0  0  0  0  0  0  0  0
   -0.6513    3.2592    0.6275 H   0  0  0  0  0  0  0  0  0  0  0  0
   -0.3193    3.3128   -1.0140 H   0  0  0  0  0  0  0  0  0  0  0  0
    0.0266    1.4088    0.0402 C   0  0  0  0  0  0  0  0  0  0  0  0
   -1.1815    0.7021   -0.0215 C   0  0  0  0  0  0  0  0  0  0  0  0
   -2.0430    1.2101   -0.0843 H   0  0  0  0  0  0  0  0  0  0  0  0
   -1.2288   -0.6981    0.0000 C   0  0  0  0  0  0  0  0  0  0  0  0
   -2.1273   -1.1519    0.0231 H   0  0  0  0  0  0  0  0  0  0  0  0
   -0.0672   -1.4153   -0.0087 C   0  0  0  0  0  0  0  0  0  0  0  0
   -0.0427   -2.4020   -0.0211 H   0  0  0  0  0  0  0  0  0  0  0  0
    1.2288   -0.7041    0.0000 C   0  0  0  0  0  0  0  0  0  0  0  0
    2.0634   -1.2247    0.0141 H   0  0  0  0  0  0  0  0  0  0  0  0
    1.2221    0.7066   -0.0099 C   0  0  0  0  0  0  0  0  0  0  0  0
    2.0903    1.1934   -0.0544 H   0  0  0  0  0  0  0  0  0  0  0  0
  1  5  1  0
  5  6  1  0
  5  7  2  0
  1  2  1  0
  1  3  1  0
  1  4  1  0
  8 12  1  0
 12 13  2  0
 13 15  1  0
 15 17  2  0
 17 19  1  0
 19 21  2  0
 21 12  1  0
  8  9  1  0
  8 10  1  0
  8 11  1  0
 13 14  1  0
 15 16  1  0
 17 18  1  0
 19 20  1  0
 21 22  1  0
M  CHG  1   6  -1
M  END
>  <PDB_ID>  (922) 
pdb1r5z

>  <RESIDUE_NAME>  (922) 
ASP   PHE

>  <FRAG_NAME>  (922) 
ACET   MBZ

>  <FRAG_ATOM_NUM>  (922) 
fragi: 7  fragj: 15

>  <atom.prop.CHAIN_ID>  (922) 
A A A A A A A Z Z Z Z Z Z Z Z Z Z Z Z Z Z Z

>  <atom.prop.IS_HEAVY_ATOM>  (922) 
1 0 0 0 1 1 1 1 0 0 0 1 1 0 1 0 1 0 1 0 1 0

>  <DIFUSE_FUNC_ATOM>  (922) 
atom 6   atom 7   

>  <FINAL_SINGLE_POINT_ENERGY>  (922) 
0

>  <NONCOV_INTER_ENERGY_QM>  (922) 
0

>  <FF_Energy>  (922) 
-1.18

>  <QM_Energy>  (922) 
-7.55

>  <source>  (922) 
ACET_MBZ_00

>  <Index>  (922) 
33765

$$$$
ACET-pdb1r5z-B-ASP-197:MBZ-pdb1r5z-B-PHE-224
     RDKit          3D

 22 21  0  0  0  0  0  0  0  0999 V2000
    4.7445    4.5042   -0.9806 C   0  0  0  0  0  0  0  0  0  0  0  0
    5.3374    3.7409   -0.7581 H   0  0  0  0  0  0  0  0  0  0  0  0
    4.3315    4.8801   -0.1621 H   0  0  0  0  0  0  0  0  0  0  0  0
    5.3456    5.2812   -1.4531 H   0  0  0  0  0  0  0  0  0  0  0  0
    3.6036    3.9721   -1.8893 C   0  0  0  0  0  0  0  0  0  0  0  0
    3.2282    4.6526   -2.9104 O   0  0  0  0  0  1  0  0  0  0  0  0
    3.0429    2.9107   -1.5805 O   0  0  0  0  0  0  0  0  0  0  0  0
    0.0160    2.9325   -0.0225 C   0  0  0  0  0  0  0  0  0  0  0  0
    0.9211    3.2423    0.1946 H   0  0  0  0  0  0  0  0  0  0  0  0
   -0.6545    3.2399    0.6238 H   0  0  0  0  0  0  0  0  0  0  0  0
   -0.2509    3.3387   -0.9981 H   0  0  0  0  0  0  0  0  0  0  0  0
    0.0250    1.4085    0.0019 C   0  0  0  0  0  0  0  0  0  0  0  0
   -1.1868    0.7167   -0.0117 C   0  0  0  0  0  0  0  0  0  0  0  0
   -2.0420    1.2209   -0.0315 H   0  0  0  0  0  0  0  0  0  0  0  0
   -1.2020   -0.6662   -0.0000 C   0  0  0  0  0  0  0  0  0  0  0  0
   -2.1098   -1.1415    0.0050 H   0  0  0  0  0  0  0  0  0  0  0  0
   -0.0490   -1.4015    0.0063 C   0  0  0  0  0  0  0  0  0  0  0  0
   -0.0691   -2.3974    0.0147 H   0  0  0  0  0  0  0  0  0  0  0  0
    1.2020   -0.7378   -0.0000 C   0  0  0  0  0  0  0  0  0  0  0  0
    2.0537   -1.2456   -0.0057 H   0  0  0  0  0  0  0  0  0  0  0  0
    1.2108    0.6802    0.0035 C   0  0  0  0  0  0  0  0  0  0  0  0
    2.0891    1.1538    0.0059 H   0  0  0  0  0  0  0  0  0  0  0  0
  1  5  1  0
  5  6  1  0
  5  7  2  0
  1  2  1  0
  1  3  1  0
  1  4  1  0
  8 12  1  0
 12 13  2  0
 13 15  1  0
 15 17  2  0
 17 19  1  0
 19 21  2  0
 21 12  1  0
  8  9  1  0
  8 10  1  0
  8 11  1  0
 13 14  1  0
 15 16  1  0
 17 18  1  0
 19 20  1  0
 21 22  1  0
M  CHG  1   6  -1
M  END
>  <PDB_ID>  (923) 
pdb1r5z

>  <RESIDUE_NAME>  (923) 
ASP   PHE

>  <FRAG_NAME>  (923) 
ACET   MBZ

>  <FRAG_ATOM_NUM>  (923) 
fragi: 7  fragj: 15

>  <atom.prop.CHAIN_ID>  (923) 
A A A A A A A Z Z Z Z Z Z Z Z Z Z Z Z Z Z Z

>  <atom.prop.IS_HEAVY_ATOM>  (923) 
1 0 0 0 1 1 1 1 0 0 0 1 1 0 1 0 1 0 1 0 1 0

>  <DIFUSE_FUNC_ATOM>  (923) 
atom 6   atom 7   

>  <FINAL_SINGLE_POINT_ENERGY>  (923) 
0

>  <NONCOV_INTER_ENERGY_QM>  (923) 
0

>  <FF_Energy>  (923) 
-1.14

>  <QM_Energy>  (923) 
-6.24

>  <source>  (923) 
ACET_MBZ_00

>  <Index>  (923) 
33768

$$$$
ACET-pdb2xam-B-GLU-202:MBZ-pdb2xam-B-PHE-429
     RDKit          3D

 22 21  0  0  0  0  0  0  0  0999 V2000
   -1.0744   -3.5438   -2.4247 C   0  0  0  0  0  0  0  0  0  0  0  0
   -1.5005   -2.7655   -2.0137 H   0  0  0  0  0  0  0  0  0  0  0  0
   -1.6867   -4.0725   -2.9742 H   0  0  0  0  0  0  0  0  0  0  0  0
   -0.2629   -3.1905   -3.0611 H   0  0  0  0  0  0  0  0  0  0  0  0
   -0.5665   -4.4385   -1.3062 C   0  0  0  0  0  0  0  0  0  0  0  0
   -0.0049   -5.5087   -1.6085 O   0  0  0  0  0  1  0  0  0  0  0  0
   -0.7210   -4.0748   -0.1198 O   0  0  0  0  0  0  0  0  0  0  0  0
   -0.0047    2.9019    0.0131 C   0  0  0  0  0  0  0  0  0  0  0  0
   -0.7103    3.2140   -0.6013 H   0  0  0  0  0  0  0  0  0  0  0  0
    0.8887    3.2139   -0.2659 H   0  0  0  0  0  0  0  0  0  0  0  0
   -0.2111    3.3207    0.9980 H   0  0  0  0  0  0  0  0  0  0  0  0
   -0.0011    1.3984   -0.0048 C   0  0  0  0  0  0  0  0  0  0  0  0
   -1.1956    0.6901    0.0021 C   0  0  0  0  0  0  0  0  0  0  0  0
   -2.0630    1.1837    0.0075 H   0  0  0  0  0  0  0  0  0  0  0  0
   -1.2006   -0.6923   -0.0000 C   0  0  0  0  0  0  0  0  0  0  0  0
   -2.0766   -1.1901    0.0014 H   0  0  0  0  0  0  0  0  0  0  0  0
    0.0017   -1.3902   -0.0020 C   0  0  0  0  0  0  0  0  0  0  0  0
   -0.0063   -2.3898   -0.0055 H   0  0  0  0  0  0  0  0  0  0  0  0
    1.2006   -0.6983    0.0000 C   0  0  0  0  0  0  0  0  0  0  0  0
    2.0823   -1.1951    0.0001 H   0  0  0  0  0  0  0  0  0  0  0  0
    1.1950    0.6923    0.0047 C   0  0  0  0  0  0  0  0  0  0  0  0
    2.0631    1.1893    0.0147 H   0  0  0  0  0  0  0  0  0  0  0  0
  1  5  1  0
  5  6  1  0
  5  7  2  0
  1  2  1  0
  1  3  1  0
  1  4  1  0
  8 12  1  0
 12 13  2  0
 13 15  1  0
 15 17  2  0
 17 19  1  0
 19 21  2  0
 21 12  1  0
  8  9  1  0
  8 10  1  0
  8 11  1  0
 13 14  1  0
 15 16  1  0
 17 18  1  0
 19 20  1  0
 21 22  1  0
M  CHG  1   6  -1
M  END
>  <PDB_ID>  (924) 
pdb2xam

>  <RESIDUE_NAME>  (924) 
GLU   PHE

>  <FRAG_NAME>  (924) 
ACET   MBZ

>  <FRAG_ATOM_NUM>  (924) 
fragi: 7  fragj: 15

>  <atom.prop.CHAIN_ID>  (924) 
A A A A A A A Z Z Z Z Z Z Z Z Z Z Z Z Z Z Z

>  <atom.prop.IS_HEAVY_ATOM>  (924) 
1 0 0 0 1 1 1 1 0 0 0 1 1 0 1 0 1 0 1 0 1 0

>  <DIFUSE_FUNC_ATOM>  (924) 
atom 6   atom 7   

>  <FINAL_SINGLE_POINT_ENERGY>  (924) 
0

>  <NONCOV_INTER_ENERGY_QM>  (924) 
0

>  <FF_Energy>  (924) 
23.74

>  <QM_Energy>  (924) 
-3.11

>  <source>  (924) 
ACET_MBZ_00

>  <Index>  (924) 
33779

$$$$
ACET-pdb2xdq-A-ASP-277:MBZ-pdb2xdq-A-PHE-335
     RDKit          3D

 22 21  0  0  0  0  0  0  0  0999 V2000
   -6.3933    2.6743   -0.4085 C   0  0  0  0  0  0  0  0  0  0  0  0
   -6.7900    3.5771   -0.2807 H   0  0  0  0  0  0  0  0  0  0  0  0
   -6.7219    2.0500    0.2904 H   0  0  0  0  0  0  0  0  0  0  0  0
   -6.7195    2.2974   -1.3778 H   0  0  0  0  0  0  0  0  0  0  0  0
   -4.8662    2.7926   -0.2746 C   0  0  0  0  0  0  0  0  0  0  0  0
   -4.0792    2.0837   -0.9756 O   0  0  0  0  0  1  0  0  0  0  0  0
   -4.4432    3.6122    0.5732 O   0  0  0  0  0  0  0  0  0  0  0  0
   -0.0048    2.8846    0.0056 C   0  0  0  0  0  0  0  0  0  0  0  0
   -0.4830    3.1964   -0.8046 H   0  0  0  0  0  0  0  0  0  0  0  0
    0.9368    3.1942    0.0016 H   0  0  0  0  0  0  0  0  0  0  0  0
   -0.4956    3.3307    0.8706 H   0  0  0  0  0  0  0  0  0  0  0  0
   -0.0096    1.3997    0.0106 C   0  0  0  0  0  0  0  0  0  0  0  0
   -1.2020    0.6958    0.0016 C   0  0  0  0  0  0  0  0  0  0  0  0
   -2.0698    1.1945   -0.0051 H   0  0  0  0  0  0  0  0  0  0  0  0
   -1.2158   -0.6834    0.0000 C   0  0  0  0  0  0  0  0  0  0  0  0
   -2.0849   -1.1844    0.0061 H   0  0  0  0  0  0  0  0  0  0  0  0
    0.0012   -1.3939   -0.0081 C   0  0  0  0  0  0  0  0  0  0  0  0
   -0.0104   -2.3870   -0.0201 H   0  0  0  0  0  0  0  0  0  0  0  0
    1.2158   -0.6969   -0.0000 C   0  0  0  0  0  0  0  0  0  0  0  0
    2.0883   -1.2065    0.0098 H   0  0  0  0  0  0  0  0  0  0  0  0
    1.2104    0.6787   -0.0041 C   0  0  0  0  0  0  0  0  0  0  0  0
    2.0665    1.1920   -0.0187 H   0  0  0  0  0  0  0  0  0  0  0  0
  1  5  1  0
  5  6  1  0
  5  7  2  0
  1  2  1  0
  1  3  1  0
  1  4  1  0
  8 12  1  0
 12 13  2  0
 13 15  1  0
 15 17  2  0
 17 19  1  0
 19 21  2  0
 21 12  1  0
  8  9  1  0
  8 10  1  0
  8 11  1  0
 13 14  1  0
 15 16  1  0
 17 18  1  0
 19 20  1  0
 21 22  1  0
M  CHG  1   6  -1
M  END
>  <PDB_ID>  (925) 
pdb2xdq

>  <RESIDUE_NAME>  (925) 
ASP   PHE

>  <FRAG_NAME>  (925) 
ACET   MBZ

>  <FRAG_ATOM_NUM>  (925) 
fragi: 7  fragj: 15

>  <atom.prop.CHAIN_ID>  (925) 
A A A A A A A Z Z Z Z Z Z Z Z Z Z Z Z Z Z Z

>  <atom.prop.IS_HEAVY_ATOM>  (925) 
1 0 0 0 1 1 1 1 0 0 0 1 1 0 1 0 1 0 1 0 1 0

>  <DIFUSE_FUNC_ATOM>  (925) 
atom 6   atom 7   

>  <FINAL_SINGLE_POINT_ENERGY>  (925) 
0

>  <NONCOV_INTER_ENERGY_QM>  (925) 
0

>  <FF_Energy>  (925) 
-2.09

>  <QM_Energy>  (925) 
-7.44

>  <source>  (925) 
ACET_MBZ_00

>  <Index>  (925) 
33949

$$$$
ACET-pdb2xem-B-GLU-42:MBZ-pdb2xem-A-PHE-19
     RDKit          3D

 22 21  0  0  0  0  0  0  0  0999 V2000
   -1.4537    1.3188   -4.2010 C   0  0  0  0  0  0  0  0  0  0  0  0
   -1.0317    0.5938   -3.6651 H   0  0  0  0  0  0  0  0  0  0  0  0
   -1.0286    1.3716   -5.1001 H   0  0  0  0  0  0  0  0  0  0  0  0
   -2.5064    1.0709   -4.3361 H   0  0  0  0  0  0  0  0  0  0  0  0
   -1.1677    2.6304   -3.4904 C   0  0  0  0  0  0  0  0  0  0  0  0
   -0.1116    3.2467   -3.7782 O   0  0  0  0  0  1  0  0  0  0  0  0
   -1.9891    3.0330   -2.6374 O   0  0  0  0  0  0  0  0  0  0  0  0
    0.0034    2.9230   -0.0942 C   0  0  0  0  0  0  0  0  0  0  0  0
   -0.2338    3.1486   -1.0367 H   0  0  0  0  0  0  0  0  0  0  0  0
    0.9292    3.2346    0.1065 H   0  0  0  0  0  0  0  0  0  0  0  0
   -0.6864    3.4456    0.5686 H   0  0  0  0  0  0  0  0  0  0  0  0
    0.0020    1.4158    0.0200 C   0  0  0  0  0  0  0  0  0  0  0  0
   -1.1883    0.6924   -0.0295 C   0  0  0  0  0  0  0  0  0  0  0  0
   -2.0595    1.1718   -0.0878 H   0  0  0  0  0  0  0  0  0  0  0  0
   -1.1894   -0.7110   -0.0000 C   0  0  0  0  0  0  0  0  0  0  0  0
   -2.0729   -1.1954   -0.0147 H   0  0  0  0  0  0  0  0  0  0  0  0
   -0.0031   -1.3976    0.0498 C   0  0  0  0  0  0  0  0  0  0  0  0
   -0.0018   -2.3966    0.1210 H   0  0  0  0  0  0  0  0  0  0  0  0
    1.1894   -0.7043    0.0000 C   0  0  0  0  0  0  0  0  0  0  0  0
    2.0761   -1.1927   -0.0071 H   0  0  0  0  0  0  0  0  0  0  0  0
    1.1894    0.7048   -0.0403 C   0  0  0  0  0  0  0  0  0  0  0  0
    2.0607    1.1852   -0.1141 H   0  0  0  0  0  0  0  0  0  0  0  0
  1  5  1  0
  5  6  1  0
  5  7  2  0
  1  2  1  0
  1  3  1  0
  1  4  1  0
  8 12  1  0
 12 13  2  0
 13 15  1  0
 15 17  2  0
 17 19  1  0
 19 21  2  0
 21 12  1  0
  8  9  1  0
  8 10  1  0
  8 11  1  0
 13 14  1  0
 15 16  1  0
 17 18  1  0
 19 20  1  0
 21 22  1  0
M  CHG  1   6  -1
M  END
>  <PDB_ID>  (926) 
pdb2xem

>  <RESIDUE_NAME>  (926) 
GLU   PHE

>  <FRAG_NAME>  (926) 
ACET   MBZ

>  <FRAG_ATOM_NUM>  (926) 
fragi: 7  fragj: 15

>  <atom.prop.CHAIN_ID>  (926) 
A A A A A A A Z Z Z Z Z Z Z Z Z Z Z Z Z Z Z

>  <atom.prop.IS_HEAVY_ATOM>  (926) 
1 0 0 0 1 1 1 1 0 0 0 1 1 0 1 0 1 0 1 0 1 0

>  <DIFUSE_FUNC_ATOM>  (926) 
atom 6   atom 7   

>  <FINAL_SINGLE_POINT_ENERGY>  (926) 
0

>  <NONCOV_INTER_ENERGY_QM>  (926) 
0

>  <FF_Energy>  (926) 
-0.36

>  <QM_Energy>  (926) 
-7.26

>  <source>  (926) 
ACET_MBZ_00

>  <Index>  (926) 
34013

$$$$
ACET-pdb1r9n-B-ASP-133:MBZ-pdb1r9n-B-PHE-98
     RDKit          3D

 22 21  0  0  0  0  0  0  0  0999 V2000
   -2.3990   -3.9382   -2.1464 C   0  0  0  0  0  0  0  0  0  0  0  0
   -1.4929   -3.5575   -2.2787 H   0  0  0  0  0  0  0  0  0  0  0  0
   -3.0937   -3.3249   -2.4973 H   0  0  0  0  0  0  0  0  0  0  0  0
   -2.4588   -4.8738   -2.7023 H   0  0  0  0  0  0  0  0  0  0  0  0
   -2.6313   -4.1295   -0.6481 C   0  0  0  0  0  0  0  0  0  0  0  0
   -3.5125   -4.9288   -0.2555 O   0  0  0  0  0  1  0  0  0  0  0  0
   -1.9396   -3.4756    0.1522 O   0  0  0  0  0  0  0  0  0  0  0  0
    0.0075    2.8878    0.0061 C   0  0  0  0  0  0  0  0  0  0  0  0
   -0.4428    3.2031   -0.8182 H   0  0  0  0  0  0  0  0  0  0  0  0
    0.9491    3.1964    0.0364 H   0  0  0  0  0  0  0  0  0  0  0  0
   -0.5104    3.3364    0.8539 H   0  0  0  0  0  0  0  0  0  0  0  0
    0.0006    1.3969    0.0048 C   0  0  0  0  0  0  0  0  0  0  0  0
   -1.1990    0.6915   -0.0044 C   0  0  0  0  0  0  0  0  0  0  0  0
   -2.0629    1.1845   -0.0152 H   0  0  0  0  0  0  0  0  0  0  0  0
   -1.2038   -0.6946    0.0000 C   0  0  0  0  0  0  0  0  0  0  0  0
   -2.0790   -1.1916    0.0063 H   0  0  0  0  0  0  0  0  0  0  0  0
   -0.0001   -1.3901   -0.0029 C   0  0  0  0  0  0  0  0  0  0  0  0
   -0.0045   -2.3893   -0.0079 H   0  0  0  0  0  0  0  0  0  0  0  0
    1.2038   -0.6959   -0.0000 C   0  0  0  0  0  0  0  0  0  0  0  0
    2.0828   -1.1956    0.0013 H   0  0  0  0  0  0  0  0  0  0  0  0
    1.1985    0.6921    0.0025 C   0  0  0  0  0  0  0  0  0  0  0  0
    2.0650    1.1902    0.0021 H   0  0  0  0  0  0  0  0  0  0  0  0
  1  5  1  0
  5  6  1  0
  5  7  2  0
  1  2  1  0
  1  3  1  0
  1  4  1  0
  8 12  1  0
 12 13  2  0
 13 15  1  0
 15 17  2  0
 17 19  1  0
 19 21  2  0
 21 12  1  0
  8  9  1  0
  8 10  1  0
  8 11  1  0
 13 14  1  0
 15 16  1  0
 17 18  1  0
 19 20  1  0
 21 22  1  0
M  CHG  1   6  -1
M  END
>  <PDB_ID>  (927) 
pdb1r9n

>  <RESIDUE_NAME>  (927) 
ASP   PHE

>  <FRAG_NAME>  (927) 
ACET   MBZ

>  <FRAG_ATOM_NUM>  (927) 
fragi: 7  fragj: 15

>  <atom.prop.CHAIN_ID>  (927) 
A A A A A A A Z Z Z Z Z Z Z Z Z Z Z Z Z Z Z

>  <atom.prop.IS_HEAVY_ATOM>  (927) 
1 0 0 0 1 1 1 1 0 0 0 1 1 0 1 0 1 0 1 0 1 0

>  <DIFUSE_FUNC_ATOM>  (927) 
atom 6   atom 7   

>  <FINAL_SINGLE_POINT_ENERGY>  (927) 
0

>  <NONCOV_INTER_ENERGY_QM>  (927) 
0

>  <FF_Energy>  (927) 
1.52

>  <QM_Energy>  (927) 
-4.96

>  <source>  (927) 
ACET_MBZ_00

>  <Index>  (927) 
34051

$$$$
ACET-pdb2xhy-B-ASP-76:MBZ-pdb2xhy-B-PHE-69
     RDKit          3D

 22 21  0  0  0  0  0  0  0  0999 V2000
   -4.7773   -0.7687    0.4253 C   0  0  0  0  0  0  0  0  0  0  0  0
   -3.9987   -1.0050    0.9958 H   0  0  0  0  0  0  0  0  0  0  0  0
   -4.5985   -1.0039   -0.5228 H   0  0  0  0  0  0  0  0  0  0  0  0
   -5.6328   -1.3535    0.7632 H   0  0  0  0  0  0  0  0  0  0  0  0
   -5.0118    0.7321    0.5200 C   0  0  0  0  0  0  0  0  0  0  0  0
   -6.1642    1.1515    0.7561 O   0  0  0  0  0  1  0  0  0  0  0  0
   -4.0361    1.4961    0.3494 O   0  0  0  0  0  0  0  0  0  0  0  0
    0.0022    2.9017   -0.0044 C   0  0  0  0  0  0  0  0  0  0  0  0
   -0.4896    3.2043   -0.8080 H   0  0  0  0  0  0  0  0  0  0  0  0
    0.9432    3.2058   -0.0238 H   0  0  0  0  0  0  0  0  0  0  0  0
   -0.4749    3.3517    0.8662 H   0  0  0  0  0  0  0  0  0  0  0  0
   -0.0007    1.3982    0.0047 C   0  0  0  0  0  0  0  0  0  0  0  0
   -1.1914    0.6930   -0.0026 C   0  0  0  0  0  0  0  0  0  0  0  0
   -2.0608    1.1833   -0.0110 H   0  0  0  0  0  0  0  0  0  0  0  0
   -1.1955   -0.6927    0.0000 C   0  0  0  0  0  0  0  0  0  0  0  0
   -2.0742   -1.1870    0.0036 H   0  0  0  0  0  0  0  0  0  0  0  0
    0.0007   -1.3892   -0.0009 C   0  0  0  0  0  0  0  0  0  0  0  0
   -0.0065   -2.3897   -0.0027 H   0  0  0  0  0  0  0  0  0  0  0  0
    1.1955   -0.6987   -0.0000 C   0  0  0  0  0  0  0  0  0  0  0  0
    2.0786   -1.1951    0.0027 H   0  0  0  0  0  0  0  0  0  0  0  0
    1.1914    0.6894   -0.0012 C   0  0  0  0  0  0  0  0  0  0  0  0
    2.0616    1.1854   -0.0078 H   0  0  0  0  0  0  0  0  0  0  0  0
  1  5  1  0
  5  6  1  0
  5  7  2  0
  1  2  1  0
  1  3  1  0
  1  4  1  0
  8 12  1  0
 12 13  2  0
 13 15  1  0
 15 17  2  0
 17 19  1  0
 19 21  2  0
 21 12  1  0
  8  9  1  0
  8 10  1  0
  8 11  1  0
 13 14  1  0
 15 16  1  0
 17 18  1  0
 19 20  1  0
 21 22  1  0
M  CHG  1   6  -1
M  END
>  <PDB_ID>  (928) 
pdb2xhy

>  <RESIDUE_NAME>  (928) 
ASP   PHE

>  <FRAG_NAME>  (928) 
ACET   MBZ

>  <FRAG_ATOM_NUM>  (928) 
fragi: 7  fragj: 15

>  <atom.prop.CHAIN_ID>  (928) 
A A A A A A A Z Z Z Z Z Z Z Z Z Z Z Z Z Z Z

>  <atom.prop.IS_HEAVY_ATOM>  (928) 
1 0 0 0 1 1 1 1 0 0 0 1 1 0 1 0 1 0 1 0 1 0

>  <DIFUSE_FUNC_ATOM>  (928) 
atom 6   atom 7   

>  <FINAL_SINGLE_POINT_ENERGY>  (928) 
0

>  <NONCOV_INTER_ENERGY_QM>  (928) 
0

>  <FF_Energy>  (928) 
3.96

>  <QM_Energy>  (928) 
-6.07

>  <source>  (928) 
ACET_MBZ_00

>  <Index>  (928) 
34153

$$$$
ACET-pdb2xhy-D-ASP-76:MBZ-pdb2xhy-D-PHE-69
     RDKit          3D

 22 21  0  0  0  0  0  0  0  0999 V2000
   -4.7039   -0.9330    0.4215 C   0  0  0  0  0  0  0  0  0  0  0  0
   -3.9197   -1.0958    1.0112 H   0  0  0  0  0  0  0  0  0  0  0  0
   -4.4993   -1.2088   -0.5113 H   0  0  0  0  0  0  0  0  0  0  0  0
   -5.5295   -1.5468    0.7816 H   0  0  0  0  0  0  0  0  0  0  0  0
   -5.0253    0.5462    0.4350 C   0  0  0  0  0  0  0  0  0  0  0  0
   -6.2229    0.9011    0.5235 O   0  0  0  0  0  1  0  0  0  0  0  0
   -4.0743    1.3541    0.3505 O   0  0  0  0  0  0  0  0  0  0  0  0
   -0.0018    2.9031   -0.0072 C   0  0  0  0  0  0  0  0  0  0  0  0
   -0.4415    3.2017   -0.8412 H   0  0  0  0  0  0  0  0  0  0  0  0
    0.9388    3.2100    0.0315 H   0  0  0  0  0  0  0  0  0  0  0  0
   -0.5341    3.3545    0.8300 H   0  0  0  0  0  0  0  0  0  0  0  0
   -0.0002    1.3976    0.0040 C   0  0  0  0  0  0  0  0  0  0  0  0
   -1.1925    0.6894   -0.0054 C   0  0  0  0  0  0  0  0  0  0  0  0
   -2.0606    1.1809   -0.0173 H   0  0  0  0  0  0  0  0  0  0  0  0
   -1.1974   -0.6959   -0.0000 C   0  0  0  0  0  0  0  0  0  0  0  0
   -2.0750   -1.1907    0.0048 H   0  0  0  0  0  0  0  0  0  0  0  0
   -0.0009   -1.3877    0.0007 C   0  0  0  0  0  0  0  0  0  0  0  0
   -0.0034   -2.3889    0.0007 H   0  0  0  0  0  0  0  0  0  0  0  0
    1.1974   -0.6940    0.0000 C   0  0  0  0  0  0  0  0  0  0  0  0
    2.0786   -1.1941    0.0004 H   0  0  0  0  0  0  0  0  0  0  0  0
    1.1936    0.6906    0.0007 C   0  0  0  0  0  0  0  0  0  0  0  0
    2.0621    1.1883   -0.0021 H   0  0  0  0  0  0  0  0  0  0  0  0
  1  5  1  0
  5  6  1  0
  5  7  2  0
  1  2  1  0
  1  3  1  0
  1  4  1  0
  8 12  1  0
 12 13  2  0
 13 15  1  0
 15 17  2  0
 17 19  1  0
 19 21  2  0
 21 12  1  0
  8  9  1  0
  8 10  1  0
  8 11  1  0
 13 14  1  0
 15 16  1  0
 17 18  1  0
 19 20  1  0
 21 22  1  0
M  CHG  1   6  -1
M  END
>  <PDB_ID>  (929) 
pdb2xhy

>  <RESIDUE_NAME>  (929) 
ASP   PHE

>  <FRAG_NAME>  (929) 
ACET   MBZ

>  <FRAG_ATOM_NUM>  (929) 
fragi: 7  fragj: 15

>  <atom.prop.CHAIN_ID>  (929) 
A A A A A A A Z Z Z Z Z Z Z Z Z Z Z Z Z Z Z

>  <atom.prop.IS_HEAVY_ATOM>  (929) 
1 0 0 0 1 1 1 1 0 0 0 1 1 0 1 0 1 0 1 0 1 0

>  <DIFUSE_FUNC_ATOM>  (929) 
atom 6   atom 7   

>  <FINAL_SINGLE_POINT_ENERGY>  (929) 
0

>  <NONCOV_INTER_ENERGY_QM>  (929) 
0

>  <FF_Energy>  (929) 
3.5

>  <QM_Energy>  (929) 
-5.77

>  <source>  (929) 
ACET_MBZ_00

>  <Index>  (929) 
34177

$$$$
ACET-pdb1rdt-D-GLU-291:MBZ-pdb1rdt-D-PHE-287
     RDKit          3D

 22 21  0  0  0  0  0  0  0  0999 V2000
   -2.7991   -1.3672   -3.5873 C   0  0  0  0  0  0  0  0  0  0  0  0
   -2.5145   -2.2058   -4.0062 H   0  0  0  0  0  0  0  0  0  0  0  0
   -2.0475   -0.7809   -3.3593 H   0  0  0  0  0  0  0  0  0  0  0  0
   -3.4538   -0.8392   -4.2807 H   0  0  0  0  0  0  0  0  0  0  0  0
   -3.5105   -1.7220   -2.2917 C   0  0  0  0  0  0  0  0  0  0  0  0
   -2.9331   -2.4747   -1.4768 O   0  0  0  0  0  1  0  0  0  0  0  0
   -4.6484   -1.2447   -2.0870 O   0  0  0  0  0  0  0  0  0  0  0  0
    0.0030    2.9063   -0.0277 C   0  0  0  0  0  0  0  0  0  0  0  0
    0.8762    3.2169    0.3135 H   0  0  0  0  0  0  0  0  0  0  0  0
   -0.7409    3.2242    0.5404 H   0  0  0  0  0  0  0  0  0  0  0  0
   -0.1347    3.3283   -1.0232 H   0  0  0  0  0  0  0  0  0  0  0  0
   -0.0001    1.4029   -0.0011 C   0  0  0  0  0  0  0  0  0  0  0  0
   -1.1975    0.6940    0.0002 C   0  0  0  0  0  0  0  0  0  0  0  0
   -2.0645    1.1841   -0.0002 H   0  0  0  0  0  0  0  0  0  0  0  0
   -1.2023   -0.6977   -0.0000 C   0  0  0  0  0  0  0  0  0  0  0  0
   -2.0787   -1.1915    0.0015 H   0  0  0  0  0  0  0  0  0  0  0  0
   -0.0001   -1.3947    0.0000 C   0  0  0  0  0  0  0  0  0  0  0  0
   -0.0041   -2.3938   -0.0004 H   0  0  0  0  0  0  0  0  0  0  0  0
    1.2023   -0.6985    0.0000 C   0  0  0  0  0  0  0  0  0  0  0  0
    2.0834   -1.1959    0.0011 H   0  0  0  0  0  0  0  0  0  0  0  0
    1.1977    0.6941    0.0009 C   0  0  0  0  0  0  0  0  0  0  0  0
    2.0651    1.1898    0.0022 H   0  0  0  0  0  0  0  0  0  0  0  0
  1  5  1  0
  5  6  1  0
  5  7  2  0
  1  2  1  0
  1  3  1  0
  1  4  1  0
  8 12  1  0
 12 13  2  0
 13 15  1  0
 15 17  2  0
 17 19  1  0
 19 21  2  0
 21 12  1  0
  8  9  1  0
  8 10  1  0
  8 11  1  0
 13 14  1  0
 15 16  1  0
 17 18  1  0
 19 20  1  0
 21 22  1  0
M  CHG  1   6  -1
M  END
>  <PDB_ID>  (930) 
pdb1rdt

>  <RESIDUE_NAME>  (930) 
GLU   PHE

>  <FRAG_NAME>  (930) 
ACET   MBZ

>  <FRAG_ATOM_NUM>  (930) 
fragi: 7  fragj: 15

>  <atom.prop.CHAIN_ID>  (930) 
A A A A A A A Z Z Z Z Z Z Z Z Z Z Z Z Z Z Z

>  <atom.prop.IS_HEAVY_ATOM>  (930) 
1 0 0 0 1 1 1 1 0 0 0 1 1 0 1 0 1 0 1 0 1 0

>  <DIFUSE_FUNC_ATOM>  (930) 
atom 6   atom 7   

>  <FINAL_SINGLE_POINT_ENERGY>  (930) 
0

>  <NONCOV_INTER_ENERGY_QM>  (930) 
0

>  <FF_Energy>  (930) 
1.3

>  <QM_Energy>  (930) 
-5.07

>  <source>  (930) 
ACET_MBZ_00

>  <Index>  (930) 
34270

$$$$
ACET-pdb1req-B-GLU-424:MBZ-pdb1req-A-PHE-7
     RDKit          3D

 22 21  0  0  0  0  0  0  0  0999 V2000
   -3.1110    5.3212   -0.7918 C   0  0  0  0  0  0  0  0  0  0  0  0
   -3.5356    5.5933   -1.6600 H   0  0  0  0  0  0  0  0  0  0  0  0
   -2.1784    4.9980   -0.9749 H   0  0  0  0  0  0  0  0  0  0  0  0
   -3.0392    6.2097   -0.1644 H   0  0  0  0  0  0  0  0  0  0  0  0
   -3.8963    4.1486   -0.2553 C   0  0  0  0  0  0  0  0  0  0  0  0
   -3.2619    3.3183    0.4352 O   0  0  0  0  0  1  0  0  0  0  0  0
   -5.1152    3.9949   -0.5237 O   0  0  0  0  0  0  0  0  0  0  0  0
    0.1163    2.8883    0.0304 C   0  0  0  0  0  0  0  0  0  0  0  0
   -0.6627    3.2457   -0.4576 H   0  0  0  0  0  0  0  0  0  0  0  0
    0.9662    3.1516   -0.3949 H   0  0  0  0  0  0  0  0  0  0  0  0
    0.1022    3.3079    1.0364 H   0  0  0  0  0  0  0  0  0  0  0  0
    0.0300    1.3896    0.0141 C   0  0  0  0  0  0  0  0  0  0  0  0
   -1.1858    0.7317    0.0117 C   0  0  0  0  0  0  0  0  0  0  0  0
   -2.0322    1.2387    0.0172 H   0  0  0  0  0  0  0  0  0  0  0  0
   -1.1993   -0.6460   -0.0000 C   0  0  0  0  0  0  0  0  0  0  0  0
   -2.1019   -1.1290    0.0240 H   0  0  0  0  0  0  0  0  0  0  0  0
   -0.0352   -1.3904   -0.0408 C   0  0  0  0  0  0  0  0  0  0  0  0
   -0.0723   -2.3837   -0.0991 H   0  0  0  0  0  0  0  0  0  0  0  0
    1.1993   -0.7366    0.0000 C   0  0  0  0  0  0  0  0  0  0  0  0
    2.0529   -1.2456    0.0191 H   0  0  0  0  0  0  0  0  0  0  0  0
    1.1911    0.6518    0.0151 C   0  0  0  0  0  0  0  0  0  0  0  0
    2.0842    1.1381    0.0264 H   0  0  0  0  0  0  0  0  0  0  0  0
  1  5  1  0
  5  6  1  0
  5  7  2  0
  1  2  1  0
  1  3  1  0
  1  4  1  0
  8 12  1  0
 12 13  2  0
 13 15  1  0
 15 17  2  0
 17 19  1  0
 19 21  2  0
 21 12  1  0
  8  9  1  0
  8 10  1  0
  8 11  1  0
 13 14  1  0
 15 16  1  0
 17 18  1  0
 19 20  1  0
 21 22  1  0
M  CHG  1   6  -1
M  END
>  <PDB_ID>  (931) 
pdb1req

>  <RESIDUE_NAME>  (931) 
GLU   PHE

>  <FRAG_NAME>  (931) 
ACET   MBZ

>  <FRAG_ATOM_NUM>  (931) 
fragi: 7  fragj: 15

>  <atom.prop.CHAIN_ID>  (931) 
A A A A A A A Z Z Z Z Z Z Z Z Z Z Z Z Z Z Z

>  <atom.prop.IS_HEAVY_ATOM>  (931) 
1 0 0 0 1 1 1 1 0 0 0 1 1 0 1 0 1 0 1 0 1 0

>  <DIFUSE_FUNC_ATOM>  (931) 
atom 6   atom 7   

>  <FINAL_SINGLE_POINT_ENERGY>  (931) 
0

>  <NONCOV_INTER_ENERGY_QM>  (931) 
0

>  <FF_Energy>  (931) 
-2.18

>  <QM_Energy>  (931) 
-7.53

>  <source>  (931) 
ACET_MBZ_00

>  <Index>  (931) 
34307

$$$$
ACET-pdb1req-D-GLU-275:MBZ-pdb1req-D-PHE-271
     RDKit          3D

 22 21  0  0  0  0  0  0  0  0999 V2000
   -4.6656    3.2931    1.5573 C   0  0  0  0  0  0  0  0  0  0  0  0
   -5.1428    2.5016    1.9119 H   0  0  0  0  0  0  0  0  0  0  0  0
   -5.2411    4.0987    1.5861 H   0  0  0  0  0  0  0  0  0  0  0  0
   -3.7869    3.4719    2.1771 H   0  0  0  0  0  0  0  0  0  0  0  0
   -4.3573    3.0137    0.0924 C   0  0  0  0  0  0  0  0  0  0  0  0
   -3.2183    3.2118   -0.3718 O   0  0  0  0  0  1  0  0  0  0  0  0
   -5.2619    2.5750   -0.6626 O   0  0  0  0  0  0  0  0  0  0  0  0
   -0.0295    2.8945    0.0260 C   0  0  0  0  0  0  0  0  0  0  0  0
    0.8562    3.1945    0.4401 H   0  0  0  0  0  0  0  0  0  0  0  0
   -0.7582    3.1747    0.6864 H   0  0  0  0  0  0  0  0  0  0  0  0
   -0.1756    3.4741   -0.8854 H   0  0  0  0  0  0  0  0  0  0  0  0
   -0.0156    1.3954   -0.0038 C   0  0  0  0  0  0  0  0  0  0  0  0
   -1.1825    0.6694    0.0137 C   0  0  0  0  0  0  0  0  0  0  0  0
   -2.0667    1.1521    0.0355 H   0  0  0  0  0  0  0  0  0  0  0  0
   -1.1816   -0.7091    0.0000 C   0  0  0  0  0  0  0  0  0  0  0  0
   -2.0548   -1.2117   -0.0163 H   0  0  0  0  0  0  0  0  0  0  0  0
    0.0224   -1.3986    0.0103 C   0  0  0  0  0  0  0  0  0  0  0  0
    0.0334   -2.3867    0.0244 H   0  0  0  0  0  0  0  0  0  0  0  0
    1.1816   -0.6635   -0.0000 C   0  0  0  0  0  0  0  0  0  0  0  0
    2.0907   -1.1548    0.0091 H   0  0  0  0  0  0  0  0  0  0  0  0
    1.1757    0.7064   -0.0203 C   0  0  0  0  0  0  0  0  0  0  0  0
    2.0404    1.2115   -0.0483 H   0  0  0  0  0  0  0  0  0  0  0  0
  1  5  1  0
  5  6  1  0
  5  7  2  0
  1  2  1  0
  1  3  1  0
  1  4  1  0
  8 12  1  0
 12 13  2  0
 13 15  1  0
 15 17  2  0
 17 19  1  0
 19 21  2  0
 21 12  1  0
  8  9  1  0
  8 10  1  0
  8 11  1  0
 13 14  1  0
 15 16  1  0
 17 18  1  0
 19 20  1  0
 21 22  1  0
M  CHG  1   6  -1
M  END
>  <PDB_ID>  (932) 
pdb1req

>  <RESIDUE_NAME>  (932) 
GLU   PHE

>  <FRAG_NAME>  (932) 
ACET   MBZ

>  <FRAG_ATOM_NUM>  (932) 
fragi: 7  fragj: 15

>  <atom.prop.CHAIN_ID>  (932) 
A A A A A A A Z Z Z Z Z Z Z Z Z Z Z Z Z Z Z

>  <atom.prop.IS_HEAVY_ATOM>  (932) 
1 0 0 0 1 1 1 1 0 0 0 1 1 0 1 0 1 0 1 0 1 0

>  <DIFUSE_FUNC_ATOM>  (932) 
atom 6   atom 7   

>  <FINAL_SINGLE_POINT_ENERGY>  (932) 
0

>  <NONCOV_INTER_ENERGY_QM>  (932) 
0

>  <FF_Energy>  (932) 
-1.59

>  <QM_Energy>  (932) 
-7.03

>  <source>  (932) 
ACET_MBZ_00

>  <Index>  (932) 
34337

$$$$
ACET-pdb1req-D-GLU-610:MBZ-pdb1req-D-PHE-599
     RDKit          3D

 22 21  0  0  0  0  0  0  0  0999 V2000
    0.3696    1.1949    3.1861 C   0  0  0  0  0  0  0  0  0  0  0  0
    0.3594    0.8226    2.2598 H   0  0  0  0  0  0  0  0  0  0  0  0
   -0.3453    1.8872    3.2766 H   0  0  0  0  0  0  0  0  0  0  0  0
    0.1340    0.3815    3.8725 H   0  0  0  0  0  0  0  0  0  0  0  0
    1.6904    1.8738    3.3924 C   0  0  0  0  0  0  0  0  0  0  0  0
    2.4881    1.5662    4.2651 O   0  0  0  0  0  1  0  0  0  0  0  0
    1.8777    2.8002    2.5765 O   0  0  0  0  0  0  0  0  0  0  0  0
    0.0145    2.9086   -0.0184 C   0  0  0  0  0  0  0  0  0  0  0  0
    0.9580    3.1923   -0.1828 H   0  0  0  0  0  0  0  0  0  0  0  0
   -0.2739    3.2112    0.8880 H   0  0  0  0  0  0  0  0  0  0  0  0
   -0.6164    3.4097   -0.7524 H   0  0  0  0  0  0  0  0  0  0  0  0
   -0.0152    1.3955   -0.0255 C   0  0  0  0  0  0  0  0  0  0  0  0
   -1.1770    0.6767   -0.0071 C   0  0  0  0  0  0  0  0  0  0  0  0
   -2.0641    1.1715    0.0008 H   0  0  0  0  0  0  0  0  0  0  0  0
   -1.1993   -0.6960    0.0000 C   0  0  0  0  0  0  0  0  0  0  0  0
   -2.0684   -1.1930   -0.0067 H   0  0  0  0  0  0  0  0  0  0  0  0
    0.0086   -1.3901    0.0188 C   0  0  0  0  0  0  0  0  0  0  0  0
    0.0047   -2.3874    0.0453 H   0  0  0  0  0  0  0  0  0  0  0  0
    1.1993   -0.6892   -0.0000 C   0  0  0  0  0  0  0  0  0  0  0  0
    2.0866   -1.1774   -0.0221 H   0  0  0  0  0  0  0  0  0  0  0  0
    1.1837    0.7031    0.0138 C   0  0  0  0  0  0  0  0  0  0  0  0
    2.0477    1.2042    0.0512 H   0  0  0  0  0  0  0  0  0  0  0  0
  1  5  1  0
  5  6  1  0
  5  7  2  0
  1  2  1  0
  1  3  1  0
  1  4  1  0
  8 12  1  0
 12 13  2  0
 13 15  1  0
 15 17  2  0
 17 19  1  0
 19 21  2  0
 21 12  1  0
  8  9  1  0
  8 10  1  0
  8 11  1  0
 13 14  1  0
 15 16  1  0
 17 18  1  0
 19 20  1  0
 21 22  1  0
M  CHG  1   6  -1
M  END
>  <PDB_ID>  (933) 
pdb1req

>  <RESIDUE_NAME>  (933) 
GLU   PHE

>  <FRAG_NAME>  (933) 
ACET   MBZ

>  <FRAG_ATOM_NUM>  (933) 
fragi: 7  fragj: 15

>  <atom.prop.CHAIN_ID>  (933) 
A A A A A A A Z Z Z Z Z Z Z Z Z Z Z Z Z Z Z

>  <atom.prop.IS_HEAVY_ATOM>  (933) 
1 0 0 0 1 1 1 1 0 0 0 1 1 0 1 0 1 0 1 0 1 0

>  <DIFUSE_FUNC_ATOM>  (933) 
atom 6   atom 7   

>  <FINAL_SINGLE_POINT_ENERGY>  (933) 
0

>  <NONCOV_INTER_ENERGY_QM>  (933) 
0

>  <FF_Energy>  (933) 
3.4

>  <QM_Energy>  (933) 
-3.89

>  <source>  (933) 
ACET_MBZ_00

>  <Index>  (933) 
34340

$$$$
ACET-pdb2xli-A-ASP-12:MBZ-pdb2xli-A-PHE-15
     RDKit          3D

 22 21  0  0  0  0  0  0  0  0999 V2000
    4.7111    4.0010   -1.3420 C   0  0  0  0  0  0  0  0  0  0  0  0
    5.5007    4.0478   -0.7406 H   0  0  0  0  0  0  0  0  0  0  0  0
    3.9031    4.3499   -0.8814 H   0  0  0  0  0  0  0  0  0  0  0  0
    4.9074    4.6363   -2.2056 H   0  0  0  0  0  0  0  0  0  0  0  0
    4.4720    2.5542   -1.7223 C   0  0  0  0  0  0  0  0  0  0  0  0
    3.9929    1.7935   -0.8598 O   0  0  0  0  0  1  0  0  0  0  0  0
    4.7572    2.1802   -2.8801 O   0  0  0  0  0  0  0  0  0  0  0  0
    0.0079    2.8982    0.0007 C   0  0  0  0  0  0  0  0  0  0  0  0
    0.9002    3.2007    0.2998 H   0  0  0  0  0  0  0  0  0  0  0  0
   -0.7022    3.2084    0.6159 H   0  0  0  0  0  0  0  0  0  0  0  0
   -0.1833    3.3395   -0.9774 H   0  0  0  0  0  0  0  0  0  0  0  0
    0.0012    1.3975    0.0000 C   0  0  0  0  0  0  0  0  0  0  0  0
   -1.1912    0.6939    0.0020 C   0  0  0  0  0  0  0  0  0  0  0  0
   -2.0588    1.1828    0.0034 H   0  0  0  0  0  0  0  0  0  0  0  0
   -1.1942   -0.6952   -0.0000 C   0  0  0  0  0  0  0  0  0  0  0  0
   -2.0752   -1.1874    0.0023 H   0  0  0  0  0  0  0  0  0  0  0  0
   -0.0009   -1.3899   -0.0031 C   0  0  0  0  0  0  0  0  0  0  0  0
   -0.0041   -2.3896   -0.0080 H   0  0  0  0  0  0  0  0  0  0  0  0
    1.1942   -0.6950    0.0000 C   0  0  0  0  0  0  0  0  0  0  0  0
    2.0775   -1.1942    0.0031 H   0  0  0  0  0  0  0  0  0  0  0  0
    1.1909    0.6887    0.0010 C   0  0  0  0  0  0  0  0  0  0  0  0
    2.0619    1.1858    0.0015 H   0  0  0  0  0  0  0  0  0  0  0  0
  1  5  1  0
  5  6  1  0
  5  7  2  0
  1  2  1  0
  1  3  1  0
  1  4  1  0
  8 12  1  0
 12 13  2  0
 13 15  1  0
 15 17  2  0
 17 19  1  0
 19 21  2  0
 21 12  1  0
  8  9  1  0
  8 10  1  0
  8 11  1  0
 13 14  1  0
 15 16  1  0
 17 18  1  0
 19 20  1  0
 21 22  1  0
M  CHG  1   6  -1
M  END
>  <PDB_ID>  (934) 
pdb2xli

>  <RESIDUE_NAME>  (934) 
ASP   PHE

>  <FRAG_NAME>  (934) 
ACET   MBZ

>  <FRAG_ATOM_NUM>  (934) 
fragi: 7  fragj: 15

>  <atom.prop.CHAIN_ID>  (934) 
A A A A A A A Z Z Z Z Z Z Z Z Z Z Z Z Z Z Z

>  <atom.prop.IS_HEAVY_ATOM>  (934) 
1 0 0 0 1 1 1 1 0 0 0 1 1 0 1 0 1 0 1 0 1 0

>  <DIFUSE_FUNC_ATOM>  (934) 
atom 6   atom 7   

>  <FINAL_SINGLE_POINT_ENERGY>  (934) 
0

>  <NONCOV_INTER_ENERGY_QM>  (934) 
0

>  <FF_Energy>  (934) 
-0.29

>  <QM_Energy>  (934) 
-6.27

>  <source>  (934) 
ACET_MBZ_00

>  <Index>  (934) 
34446

$$$$
ACET-pdb1reo-A-ASP-181:MBZ-pdb1reo-A-PHE-438
     RDKit          3D

 22 21  0  0  0  0  0  0  0  0999 V2000
   -3.7183    3.8479    1.6455 C   0  0  0  0  0  0  0  0  0  0  0  0
   -3.2374    3.0963    2.0835 H   0  0  0  0  0  0  0  0  0  0  0  0
   -4.4404    3.5032    1.0571 H   0  0  0  0  0  0  0  0  0  0  0  0
   -4.1800    4.4515    2.4270 H   0  0  0  0  0  0  0  0  0  0  0  0
   -2.7339    4.6337    0.8037 C   0  0  0  0  0  0  0  0  0  0  0  0
   -1.7915    5.2193    1.3737 O   0  0  0  0  0  1  0  0  0  0  0  0
   -2.9020    4.6622   -0.4329 O   0  0  0  0  0  0  0  0  0  0  0  0
    0.0001    2.9022   -0.0434 C   0  0  0  0  0  0  0  0  0  0  0  0
    0.6104    3.2307    0.6600 H   0  0  0  0  0  0  0  0  0  0  0  0
   -0.9255    3.2139    0.1045 H   0  0  0  0  0  0  0  0  0  0  0  0
    0.3406    3.3083   -0.9959 H   0  0  0  0  0  0  0  0  0  0  0  0
    0.0009    1.4050   -0.0004 C   0  0  0  0  0  0  0  0  0  0  0  0
   -1.1987    0.6956   -0.0006 C   0  0  0  0  0  0  0  0  0  0  0  0
   -2.0648    1.1861   -0.0022 H   0  0  0  0  0  0  0  0  0  0  0  0
   -1.2048   -0.6984    0.0000 C   0  0  0  0  0  0  0  0  0  0  0  0
   -2.0808   -1.1908    0.0021 H   0  0  0  0  0  0  0  0  0  0  0  0
   -0.0010   -1.3991   -0.0004 C   0  0  0  0  0  0  0  0  0  0  0  0
   -0.0061   -2.3961   -0.0014 H   0  0  0  0  0  0  0  0  0  0  0  0
    1.2048   -0.7012   -0.0000 C   0  0  0  0  0  0  0  0  0  0  0  0
    2.0846   -1.1957    0.0006 H   0  0  0  0  0  0  0  0  0  0  0  0
    1.1988    0.6982    0.0014 C   0  0  0  0  0  0  0  0  0  0  0  0
    2.0670    1.1914    0.0028 H   0  0  0  0  0  0  0  0  0  0  0  0
  1  5  1  0
  5  6  1  0
  5  7  2  0
  1  2  1  0
  1  3  1  0
  1  4  1  0
  8 12  1  0
 12 13  2  0
 13 15  1  0
 15 17  2  0
 17 19  1  0
 19 21  2  0
 21 12  1  0
  8  9  1  0
  8 10  1  0
  8 11  1  0
 13 14  1  0
 15 16  1  0
 17 18  1  0
 19 20  1  0
 21 22  1  0
M  CHG  1   6  -1
M  END
>  <PDB_ID>  (935) 
pdb1reo

>  <RESIDUE_NAME>  (935) 
ASP   PHE

>  <FRAG_NAME>  (935) 
ACET   MBZ

>  <FRAG_ATOM_NUM>  (935) 
fragi: 7  fragj: 15

>  <atom.prop.CHAIN_ID>  (935) 
A A A A A A A Z Z Z Z Z Z Z Z Z Z Z Z Z Z Z

>  <atom.prop.IS_HEAVY_ATOM>  (935) 
1 0 0 0 1 1 1 1 0 0 0 1 1 0 1 0 1 0 1 0 1 0

>  <DIFUSE_FUNC_ATOM>  (935) 
atom 6   atom 7   

>  <FINAL_SINGLE_POINT_ENERGY>  (935) 
0

>  <NONCOV_INTER_ENERGY_QM>  (935) 
0

>  <FF_Energy>  (935) 
-0.01

>  <QM_Energy>  (935) 
-6.0

>  <source>  (935) 
ACET_MBZ_00

>  <Index>  (935) 
34494

$$$$
ACET-pdb2xmo-B-ASP-355:MBZ-pdb2xmo-B-PHE-309
     RDKit          3D

 22 21  0  0  0  0  0  0  0  0999 V2000
   -5.1939    2.8520   -1.1039 C   0  0  0  0  0  0  0  0  0  0  0  0
   -6.0274    3.2938   -0.7942 H   0  0  0  0  0  0  0  0  0  0  0  0
   -5.1917    1.8926   -0.8479 H   0  0  0  0  0  0  0  0  0  0  0  0
   -5.1696    2.9091   -2.1920 H   0  0  0  0  0  0  0  0  0  0  0  0
   -4.0090    3.5344   -0.4632 C   0  0  0  0  0  0  0  0  0  0  0  0
   -3.7489    4.7069   -0.8085 O   0  0  0  0  0  1  0  0  0  0  0  0
   -3.3476    2.9050    0.3870 O   0  0  0  0  0  0  0  0  0  0  0  0
    0.0045    2.9004    0.0357 C   0  0  0  0  0  0  0  0  0  0  0  0
   -0.7462    3.2237   -0.5199 H   0  0  0  0  0  0  0  0  0  0  0  0
    0.8735    3.2139   -0.3166 H   0  0  0  0  0  0  0  0  0  0  0  0
   -0.1186    3.3183    1.0348 H   0  0  0  0  0  0  0  0  0  0  0  0
   -0.0002    1.4011    0.0005 C   0  0  0  0  0  0  0  0  0  0  0  0
   -1.1987    0.6947   -0.0003 C   0  0  0  0  0  0  0  0  0  0  0  0
   -2.0644    1.1848   -0.0027 H   0  0  0  0  0  0  0  0  0  0  0  0
   -1.2044   -0.6991    0.0000 C   0  0  0  0  0  0  0  0  0  0  0  0
   -2.0782   -1.1924    0.0013 H   0  0  0  0  0  0  0  0  0  0  0  0
    0.0018   -1.3931    0.0002 C   0  0  0  0  0  0  0  0  0  0  0  0
   -0.0009   -2.3917   -0.0001 H   0  0  0  0  0  0  0  0  0  0  0  0
    1.2044   -0.6953    0.0000 C   0  0  0  0  0  0  0  0  0  0  0  0
    2.0841   -1.1941    0.0012 H   0  0  0  0  0  0  0  0  0  0  0  0
    1.1971    0.6917   -0.0004 C   0  0  0  0  0  0  0  0  0  0  0  0
    2.0648    1.1916   -0.0022 H   0  0  0  0  0  0  0  0  0  0  0  0
  1  5  1  0
  5  6  1  0
  5  7  2  0
  1  2  1  0
  1  3  1  0
  1  4  1  0
  8 12  1  0
 12 13  2  0
 13 15  1  0
 15 17  2  0
 17 19  1  0
 19 21  2  0
 21 12  1  0
  8  9  1  0
  8 10  1  0
  8 11  1  0
 13 14  1  0
 15 16  1  0
 17 18  1  0
 19 20  1  0
 21 22  1  0
M  CHG  1   6  -1
M  END
>  <PDB_ID>  (936) 
pdb2xmo

>  <RESIDUE_NAME>  (936) 
ASP   PHE

>  <FRAG_NAME>  (936) 
ACET   MBZ

>  <FRAG_ATOM_NUM>  (936) 
fragi: 7  fragj: 15

>  <atom.prop.CHAIN_ID>  (936) 
A A A A A A A Z Z Z Z Z Z Z Z Z Z Z Z Z Z Z

>  <atom.prop.IS_HEAVY_ATOM>  (936) 
1 0 0 0 1 1 1 1 0 0 0 1 1 0 1 0 1 0 1 0 1 0

>  <DIFUSE_FUNC_ATOM>  (936) 
atom 6   atom 7   

>  <FINAL_SINGLE_POINT_ENERGY>  (936) 
0

>  <NONCOV_INTER_ENERGY_QM>  (936) 
0

>  <FF_Energy>  (936) 
-0.26

>  <QM_Energy>  (936) 
-8.16

>  <source>  (936) 
ACET_MBZ_00

>  <Index>  (936) 
34546

$$$$
ACET-pdb1rlm-B-ASP-155:MBZ-pdb1rlm-B-PHE-180
     RDKit          3D

 22 21  0  0  0  0  0  0  0  0999 V2000
   -2.4141   -0.6591    2.9264 C   0  0  0  0  0  0  0  0  0  0  0  0
   -1.4988   -0.2754    2.9370 H   0  0  0  0  0  0  0  0  0  0  0  0
   -2.4226   -1.5327    2.4578 H   0  0  0  0  0  0  0  0  0  0  0  0
   -2.7228   -0.8256    3.9584 H   0  0  0  0  0  0  0  0  0  0  0  0
   -3.3359    0.2993    2.1895 C   0  0  0  0  0  0  0  0  0  0  0  0
   -4.4266   -0.1279    1.7572 O   0  0  0  0  0  1  0  0  0  0  0  0
   -2.9685    1.4871    2.0516 O   0  0  0  0  0  0  0  0  0  0  0  0
    0.0281    2.8601   -0.0357 C   0  0  0  0  0  0  0  0  0  0  0  0
   -0.7376    3.1797   -0.5886 H   0  0  0  0  0  0  0  0  0  0  0  0
    0.8893    3.1546   -0.4429 H   0  0  0  0  0  0  0  0  0  0  0  0
   -0.0516    3.3444    0.9376 H   0  0  0  0  0  0  0  0  0  0  0  0
    0.0018    1.3880   -0.0011 C   0  0  0  0  0  0  0  0  0  0  0  0
   -1.1981    0.6911    0.0006 C   0  0  0  0  0  0  0  0  0  0  0  0
   -2.0609    1.1844    0.0010 H   0  0  0  0  0  0  0  0  0  0  0  0
   -1.2024   -0.6956    0.0000 C   0  0  0  0  0  0  0  0  0  0  0  0
   -2.0751   -1.1931    0.0006 H   0  0  0  0  0  0  0  0  0  0  0  0
    0.0037   -1.3845    0.0001 C   0  0  0  0  0  0  0  0  0  0  0  0
    0.0027   -2.3852   -0.0006 H   0  0  0  0  0  0  0  0  0  0  0  0
    1.2024   -0.6865    0.0000 C   0  0  0  0  0  0  0  0  0  0  0  0
    2.0830   -1.1894    0.0008 H   0  0  0  0  0  0  0  0  0  0  0  0
    1.1926    0.6874    0.0004 C   0  0  0  0  0  0  0  0  0  0  0  0
    2.0615    1.1922    0.0007 H   0  0  0  0  0  0  0  0  0  0  0  0
  1  5  1  0
  5  6  1  0
  5  7  2  0
  1  2  1  0
  1  3  1  0
  1  4  1  0
  8 12  1  0
 12 13  2  0
 13 15  1  0
 15 17  2  0
 17 19  1  0
 19 21  2  0
 21 12  1  0
  8  9  1  0
  8 10  1  0
  8 11  1  0
 13 14  1  0
 15 16  1  0
 17 18  1  0
 19 20  1  0
 21 22  1  0
M  CHG  1   6  -1
M  END
>  <PDB_ID>  (937) 
pdb1rlm

>  <RESIDUE_NAME>  (937) 
ASP   PHE

>  <FRAG_NAME>  (937) 
ACET   MBZ

>  <FRAG_ATOM_NUM>  (937) 
fragi: 7  fragj: 15

>  <atom.prop.CHAIN_ID>  (937) 
A A A A A A A Z Z Z Z Z Z Z Z Z Z Z Z Z Z Z

>  <atom.prop.IS_HEAVY_ATOM>  (937) 
1 0 0 0 1 1 1 1 0 0 0 1 1 0 1 0 1 0 1 0 1 0

>  <DIFUSE_FUNC_ATOM>  (937) 
atom 6   atom 7   

>  <FINAL_SINGLE_POINT_ENERGY>  (937) 
0

>  <NONCOV_INTER_ENERGY_QM>  (937) 
0

>  <FF_Energy>  (937) 
3.2

>  <QM_Energy>  (937) 
-4.78

>  <source>  (937) 
ACET_MBZ_00

>  <Index>  (937) 
34708

$$$$
ACET-pdb1rm8-A-ASP-223:MBZ-pdb1rm8-A-PHE-199
     RDKit          3D

 22 21  0  0  0  0  0  0  0  0999 V2000
   -0.6278    0.9741    3.6153 C   0  0  0  0  0  0  0  0  0  0  0  0
   -1.1411    0.6025    2.8445 H   0  0  0  0  0  0  0  0  0  0  0  0
   -1.1273    0.8129    4.4626 H   0  0  0  0  0  0  0  0  0  0  0  0
    0.3197    0.4388    3.6769 H   0  0  0  0  0  0  0  0  0  0  0  0
   -0.4510    2.4446    3.4222 C   0  0  0  0  0  0  0  0  0  0  0  0
   -1.4450    3.1309    3.0427 O   0  0  0  0  0  1  0  0  0  0  0  0
    0.6647    2.9755    3.6097 O   0  0  0  0  0  0  0  0  0  0  0  0
   -0.0220    2.9123   -0.0298 C   0  0  0  0  0  0  0  0  0  0  0  0
    0.9068    3.2226   -0.1210 H   0  0  0  0  0  0  0  0  0  0  0  0
   -0.4369    3.2228    0.8073 H   0  0  0  0  0  0  0  0  0  0  0  0
   -0.5976    3.3159   -0.8629 H   0  0  0  0  0  0  0  0  0  0  0  0
   -0.0023    1.3971   -0.0014 C   0  0  0  0  0  0  0  0  0  0  0  0
   -1.1969    0.6880   -0.0027 C   0  0  0  0  0  0  0  0  0  0  0  0
   -2.0643    1.1773   -0.0065 H   0  0  0  0  0  0  0  0  0  0  0  0
   -1.1993   -0.7001    0.0000 C   0  0  0  0  0  0  0  0  0  0  0  0
   -2.0734   -1.1956   -0.0059 H   0  0  0  0  0  0  0  0  0  0  0  0
    0.0002   -1.3791    0.0126 C   0  0  0  0  0  0  0  0  0  0  0  0
    0.0029   -2.3849    0.0302 H   0  0  0  0  0  0  0  0  0  0  0  0
    1.1993   -0.6884   -0.0000 C   0  0  0  0  0  0  0  0  0  0  0  0
    2.0791   -1.1970   -0.0011 H   0  0  0  0  0  0  0  0  0  0  0  0
    1.1990    0.6824   -0.0084 C   0  0  0  0  0  0  0  0  0  0  0  0
    2.0636    1.1888   -0.0203 H   0  0  0  0  0  0  0  0  0  0  0  0
  1  5  1  0
  5  6  1  0
  5  7  2  0
  1  2  1  0
  1  3  1  0
  1  4  1  0
  8 12  1  0
 12 13  2  0
 13 15  1  0
 15 17  2  0
 17 19  1  0
 19 21  2  0
 21 12  1  0
  8  9  1  0
  8 10  1  0
  8 11  1  0
 13 14  1  0
 15 16  1  0
 17 18  1  0
 19 20  1  0
 21 22  1  0
M  CHG  1   6  -1
M  END
>  <PDB_ID>  (938) 
pdb1rm8

>  <RESIDUE_NAME>  (938) 
ASP   PHE

>  <FRAG_NAME>  (938) 
ACET   MBZ

>  <FRAG_ATOM_NUM>  (938) 
fragi: 7  fragj: 15

>  <atom.prop.CHAIN_ID>  (938) 
A A A A A A A Z Z Z Z Z Z Z Z Z Z Z Z Z Z Z

>  <atom.prop.IS_HEAVY_ATOM>  (938) 
1 0 0 0 1 1 1 1 0 0 0 1 1 0 1 0 1 0 1 0 1 0

>  <DIFUSE_FUNC_ATOM>  (938) 
atom 6   atom 7   

>  <FINAL_SINGLE_POINT_ENERGY>  (938) 
0

>  <NONCOV_INTER_ENERGY_QM>  (938) 
0

>  <FF_Energy>  (938) 
-0.33

>  <QM_Energy>  (938) 
-6.6

>  <source>  (938) 
ACET_MBZ_00

>  <Index>  (938) 
34775

$$$$
ACET-pdb2xsp-A-ASP-257:MBZ-pdb2xsp-A-PHE-351
     RDKit          3D

 22 21  0  0  0  0  0  0  0  0999 V2000
   -4.3904    4.4430    1.5914 C   0  0  0  0  0  0  0  0  0  0  0  0
   -3.7282    4.8265    2.2280 H   0  0  0  0  0  0  0  0  0  0  0  0
   -4.6573    3.5295    1.8816 H   0  0  0  0  0  0  0  0  0  0  0  0
   -5.2802    5.0718    1.6255 H   0  0  0  0  0  0  0  0  0  0  0  0
   -3.7747    4.3691    0.2222 C   0  0  0  0  0  0  0  0  0  0  0  0
   -3.3663    3.2437   -0.1319 O   0  0  0  0  0  1  0  0  0  0  0  0
   -3.7415    5.3977   -0.5009 O   0  0  0  0  0  0  0  0  0  0  0  0
   -0.0115    2.8547    0.0135 C   0  0  0  0  0  0  0  0  0  0  0  0
   -0.6967    3.1525   -0.6364 H   0  0  0  0  0  0  0  0  0  0  0  0
    0.8903    3.1667   -0.2527 H   0  0  0  0  0  0  0  0  0  0  0  0
   -0.2493    3.2970    0.9809 H   0  0  0  0  0  0  0  0  0  0  0  0
    0.0025    1.3507    0.0111 C   0  0  0  0  0  0  0  0  0  0  0  0
   -1.1555    0.6526   -0.0063 C   0  0  0  0  0  0  0  0  0  0  0  0
   -2.0353    1.1480   -0.0249 H   0  0  0  0  0  0  0  0  0  0  0  0
   -1.1461   -0.6846    0.0000 C   0  0  0  0  0  0  0  0  0  0  0  0
   -2.0381   -1.1903    0.0114 H   0  0  0  0  0  0  0  0  0  0  0  0
   -0.0000   -1.3256   -0.0064 C   0  0  0  0  0  0  0  0  0  0  0  0
    0.0160   -2.3495   -0.0171 H   0  0  0  0  0  0  0  0  0  0  0  0
    1.1461   -0.6508    0.0000 C   0  0  0  0  0  0  0  0  0  0  0  0
    2.0464   -1.1734    0.0051 H   0  0  0  0  0  0  0  0  0  0  0  0
    1.1530    0.6577    0.0016 C   0  0  0  0  0  0  0  0  0  0  0  0
    2.0354    1.1716   -0.0053 H   0  0  0  0  0  0  0  0  0  0  0  0
  1  5  1  0
  5  6  1  0
  5  7  2  0
  1  2  1  0
  1  3  1  0
  1  4  1  0
  8 12  1  0
 12 13  2  0
 13 15  1  0
 15 17  2  0
 17 19  1  0
 19 21  2  0
 21 12  1  0
  8  9  1  0
  8 10  1  0
  8 11  1  0
 13 14  1  0
 15 16  1  0
 17 18  1  0
 19 20  1  0
 21 22  1  0
M  CHG  1   6  -1
M  END
>  <PDB_ID>  (939) 
pdb2xsp

>  <RESIDUE_NAME>  (939) 
ASP   PHE

>  <FRAG_NAME>  (939) 
ACET   MBZ

>  <FRAG_ATOM_NUM>  (939) 
fragi: 7  fragj: 15

>  <atom.prop.CHAIN_ID>  (939) 
A A A A A A A Z Z Z Z Z Z Z Z Z Z Z Z Z Z Z

>  <atom.prop.IS_HEAVY_ATOM>  (939) 
1 0 0 0 1 1 1 1 0 0 0 1 1 0 1 0 1 0 1 0 1 0

>  <DIFUSE_FUNC_ATOM>  (939) 
atom 6   atom 7   

>  <FINAL_SINGLE_POINT_ENERGY>  (939) 
0

>  <NONCOV_INTER_ENERGY_QM>  (939) 
0

>  <FF_Energy>  (939) 
-2.19

>  <QM_Energy>  (939) 
-7.37

>  <source>  (939) 
ACET_MBZ_00

>  <Index>  (939) 
34859

$$$$
ACET-pdb1rpx-C-ASP-38:MBZ-pdb1rpx-C-PHE-6
     RDKit          3D

 22 21  0  0  0  0  0  0  0  0999 V2000
    3.7883   -1.5741   -1.7823 C   0  0  0  0  0  0  0  0  0  0  0  0
    4.0631   -1.3360   -2.7065 H   0  0  0  0  0  0  0  0  0  0  0  0
    2.9481   -1.1058   -1.5375 H   0  0  0  0  0  0  0  0  0  0  0  0
    3.5947   -2.6465   -1.7558 H   0  0  0  0  0  0  0  0  0  0  0  0
    4.8784   -1.1616   -0.8245 C   0  0  0  0  0  0  0  0  0  0  0  0
    4.5362   -0.8717    0.3384 O   0  0  0  0  0  1  0  0  0  0  0  0
    6.0683   -1.1479   -1.2244 O   0  0  0  0  0  0  0  0  0  0  0  0
    0.0003    2.8957   -0.0167 C   0  0  0  0  0  0  0  0  0  0  0  0
   -0.5975    3.1957   -0.7455 H   0  0  0  0  0  0  0  0  0  0  0  0
    0.9286    3.2026   -0.1656 H   0  0  0  0  0  0  0  0  0  0  0  0
   -0.3545    3.3433    0.9117 H   0  0  0  0  0  0  0  0  0  0  0  0
    0.0012    1.4010   -0.0007 C   0  0  0  0  0  0  0  0  0  0  0  0
   -1.2030    0.6887    0.0002 C   0  0  0  0  0  0  0  0  0  0  0  0
   -2.0660    1.1815   -0.0002 H   0  0  0  0  0  0  0  0  0  0  0  0
   -1.2070   -0.7017   -0.0000 C   0  0  0  0  0  0  0  0  0  0  0  0
   -2.0796   -1.1978    0.0020 H   0  0  0  0  0  0  0  0  0  0  0  0
   -0.0001   -1.3951   -0.0011 C   0  0  0  0  0  0  0  0  0  0  0  0
    0.0017   -2.3922   -0.0032 H   0  0  0  0  0  0  0  0  0  0  0  0
    1.2070   -0.6918   -0.0000 C   0  0  0  0  0  0  0  0  0  0  0  0
    2.0867   -1.1910    0.0011 H   0  0  0  0  0  0  0  0  0  0  0  0
    1.2019    0.6989    0.0017 C   0  0  0  0  0  0  0  0  0  0  0  0
    2.0665    1.1965    0.0038 H   0  0  0  0  0  0  0  0  0  0  0  0
  1  5  1  0
  5  6  1  0
  5  7  2  0
  1  2  1  0
  1  3  1  0
  1  4  1  0
  8 12  1  0
 12 13  2  0
 13 15  1  0
 15 17  2  0
 17 19  1  0
 19 21  2  0
 21 12  1  0
  8  9  1  0
  8 10  1  0
  8 11  1  0
 13 14  1  0
 15 16  1  0
 17 18  1  0
 19 20  1  0
 21 22  1  0
M  CHG  1   6  -1
M  END
>  <PDB_ID>  (940) 
pdb1rpx

>  <RESIDUE_NAME>  (940) 
ASP   PHE

>  <FRAG_NAME>  (940) 
ACET   MBZ

>  <FRAG_ATOM_NUM>  (940) 
fragi: 7  fragj: 15

>  <atom.prop.CHAIN_ID>  (940) 
A A A A A A A Z Z Z Z Z Z Z Z Z Z Z Z Z Z Z

>  <atom.prop.IS_HEAVY_ATOM>  (940) 
1 0 0 0 1 1 1 1 0 0 0 1 1 0 1 0 1 0 1 0 1 0

>  <DIFUSE_FUNC_ATOM>  (940) 
atom 6   atom 7   

>  <FINAL_SINGLE_POINT_ENERGY>  (940) 
0

>  <NONCOV_INTER_ENERGY_QM>  (940) 
0

>  <FF_Energy>  (940) 
4.68

>  <QM_Energy>  (940) 
-2.88

>  <source>  (940) 
ACET_MBZ_00

>  <Index>  (940) 
34870

$$$$
ACET-pdb2xt2-A-GLU-19:MBZ-pdb2xt2-A-PHE-16
     RDKit          3D

 22 21  0  0  0  0  0  0  0  0999 V2000
   -4.2625    5.1224    0.5262 C   0  0  0  0  0  0  0  0  0  0  0  0
   -5.2174    5.2061    0.3041 H   0  0  0  0  0  0  0  0  0  0  0  0
   -3.6993    5.7044   -0.0326 H   0  0  0  0  0  0  0  0  0  0  0  0
   -4.1351    5.4318    1.5636 H   0  0  0  0  0  0  0  0  0  0  0  0
   -3.8484    3.6911    0.2739 C   0  0  0  0  0  0  0  0  0  0  0  0
   -3.2564    3.0586    1.1720 O   0  0  0  0  0  1  0  0  0  0  0  0
   -4.1245    3.1920   -0.8296 O   0  0  0  0  0  0  0  0  0  0  0  0
    0.0028    2.9036    0.0009 C   0  0  0  0  0  0  0  0  0  0  0  0
    0.8200    3.2132    0.4557 H   0  0  0  0  0  0  0  0  0  0  0  0
   -0.8127    3.2149    0.4589 H   0  0  0  0  0  0  0  0  0  0  0  0
    0.0012    3.3289   -1.0027 H   0  0  0  0  0  0  0  0  0  0  0  0
    0.0016    1.3990    0.0102 C   0  0  0  0  0  0  0  0  0  0  0  0
   -1.1974    0.6893   -0.0067 C   0  0  0  0  0  0  0  0  0  0  0  0
   -2.0628    1.1832   -0.0250 H   0  0  0  0  0  0  0  0  0  0  0  0
   -1.2038   -0.6972   -0.0000 C   0  0  0  0  0  0  0  0  0  0  0  0
   -2.0797   -1.1922    0.0086 H   0  0  0  0  0  0  0  0  0  0  0  0
   -0.0021   -1.3928   -0.0031 C   0  0  0  0  0  0  0  0  0  0  0  0
   -0.0011   -2.3897   -0.0082 H   0  0  0  0  0  0  0  0  0  0  0  0
    1.2038   -0.6907    0.0000 C   0  0  0  0  0  0  0  0  0  0  0  0
    2.0824   -1.1932    0.0042 H   0  0  0  0  0  0  0  0  0  0  0  0
    1.1979    0.6922   -0.0003 C   0  0  0  0  0  0  0  0  0  0  0  0
    2.0659    1.1930   -0.0091 H   0  0  0  0  0  0  0  0  0  0  0  0
  1  5  1  0
  5  6  1  0
  5  7  2  0
  1  2  1  0
  1  3  1  0
  1  4  1  0
  8 12  1  0
 12 13  2  0
 13 15  1  0
 15 17  2  0
 17 19  1  0
 19 21  2  0
 21 12  1  0
  8  9  1  0
  8 10  1  0
  8 11  1  0
 13 14  1  0
 15 16  1  0
 17 18  1  0
 19 20  1  0
 21 22  1  0
M  CHG  1   6  -1
M  END
>  <PDB_ID>  (941) 
pdb2xt2

>  <RESIDUE_NAME>  (941) 
GLU   PHE

>  <FRAG_NAME>  (941) 
ACET   MBZ

>  <FRAG_ATOM_NUM>  (941) 
fragi: 7  fragj: 15

>  <atom.prop.CHAIN_ID>  (941) 
A A A A A A A Z Z Z Z Z Z Z Z Z Z Z Z Z Z Z

>  <atom.prop.IS_HEAVY_ATOM>  (941) 
1 0 0 0 1 1 1 1 0 0 0 1 1 0 1 0 1 0 1 0 1 0

>  <DIFUSE_FUNC_ATOM>  (941) 
atom 6   atom 7   

>  <FINAL_SINGLE_POINT_ENERGY>  (941) 
0

>  <NONCOV_INTER_ENERGY_QM>  (941) 
0

>  <FF_Energy>  (941) 
-2.43

>  <QM_Energy>  (941) 
-8.82

>  <source>  (941) 
ACET_MBZ_00

>  <Index>  (941) 
34873

$$$$
ACET-pdb1rpn-C-GLU-188:MBZ-pdb1rpn-C-PHE-86
     RDKit          3D

 22 21  0  0  0  0  0  0  0  0999 V2000
    1.2072    0.5040   -3.9791 C   0  0  0  0  0  0  0  0  0  0  0  0
    1.8155   -0.1146   -3.5276 H   0  0  0  0  0  0  0  0  0  0  0  0
    1.3252    0.5200   -4.9495 H   0  0  0  0  0  0  0  0  0  0  0  0
    0.1809    0.2137   -3.7541 H   0  0  0  0  0  0  0  0  0  0  0  0
    1.5103    1.8985   -3.4613 C   0  0  0  0  0  0  0  0  0  0  0  0
    2.6738    2.1681   -3.1067 O   0  0  0  0  0  1  0  0  0  0  0  0
    0.5773    2.7292   -3.4207 O   0  0  0  0  0  0  0  0  0  0  0  0
   -0.0067    2.8987   -0.0421 C   0  0  0  0  0  0  0  0  0  0  0  0
   -0.2601    3.1809   -0.9552 H   0  0  0  0  0  0  0  0  0  0  0  0
    0.8996    3.2172    0.1932 H   0  0  0  0  0  0  0  0  0  0  0  0
   -0.7108    3.3542    0.6542 H   0  0  0  0  0  0  0  0  0  0  0  0
   -0.0003    1.4016   -0.0007 C   0  0  0  0  0  0  0  0  0  0  0  0
   -1.1987    0.6930    0.0009 C   0  0  0  0  0  0  0  0  0  0  0  0
   -2.0649    1.1846    0.0014 H   0  0  0  0  0  0  0  0  0  0  0  0
   -1.2044   -0.6982    0.0000 C   0  0  0  0  0  0  0  0  0  0  0  0
   -2.0791   -1.1920    0.0022 H   0  0  0  0  0  0  0  0  0  0  0  0
   -0.0004   -1.3946   -0.0024 C   0  0  0  0  0  0  0  0  0  0  0  0
   -0.0040   -2.3933   -0.0060 H   0  0  0  0  0  0  0  0  0  0  0  0
    1.2044   -0.6976   -0.0000 C   0  0  0  0  0  0  0  0  0  0  0  0
    2.0838   -1.1952    0.0018 H   0  0  0  0  0  0  0  0  0  0  0  0
    1.1993    0.6957    0.0022 C   0  0  0  0  0  0  0  0  0  0  0  0
    2.0653    1.1925    0.0049 H   0  0  0  0  0  0  0  0  0  0  0  0
  1  5  1  0
  5  6  1  0
  5  7  2  0
  1  2  1  0
  1  3  1  0
  1  4  1  0
  8 12  1  0
 12 13  2  0
 13 15  1  0
 15 17  2  0
 17 19  1  0
 19 21  2  0
 21 12  1  0
  8  9  1  0
  8 10  1  0
  8 11  1  0
 13 14  1  0
 15 16  1  0
 17 18  1  0
 19 20  1  0
 21 22  1  0
M  CHG  1   6  -1
M  END
>  <PDB_ID>  (942) 
pdb1rpn

>  <RESIDUE_NAME>  (942) 
GLU   PHE

>  <FRAG_NAME>  (942) 
ACET   MBZ

>  <FRAG_ATOM_NUM>  (942) 
fragi: 7  fragj: 15

>  <atom.prop.CHAIN_ID>  (942) 
A A A A A A A Z Z Z Z Z Z Z Z Z Z Z Z Z Z Z

>  <atom.prop.IS_HEAVY_ATOM>  (942) 
1 0 0 0 1 1 1 1 0 0 0 1 1 0 1 0 1 0 1 0 1 0

>  <DIFUSE_FUNC_ATOM>  (942) 
atom 6   atom 7   

>  <FINAL_SINGLE_POINT_ENERGY>  (942) 
0

>  <NONCOV_INTER_ENERGY_QM>  (942) 
0

>  <FF_Energy>  (942) 
-0.56

>  <QM_Energy>  (942) 
-5.95

>  <source>  (942) 
ACET_MBZ_00

>  <Index>  (942) 
34876

$$$$
ACET-pdb1rql-A-GLU-172:MBZ-pdb1rql-A-PHE-149
     RDKit          3D

 22 21  0  0  0  0  0  0  0  0999 V2000
   -1.1543   -1.4044   -2.9797 C   0  0  0  0  0  0  0  0  0  0  0  0
   -1.0716   -1.4036   -1.9983 H   0  0  0  0  0  0  0  0  0  0  0  0
   -2.0617   -1.1592   -3.2737 H   0  0  0  0  0  0  0  0  0  0  0  0
   -0.4557   -0.6697   -3.3801 H   0  0  0  0  0  0  0  0  0  0  0  0
   -0.8839   -2.8192   -3.4616 C   0  0  0  0  0  0  0  0  0  0  0  0
    0.2464   -3.3242   -3.2710 O   0  0  0  0  0  1  0  0  0  0  0  0
   -1.8069   -3.4355   -4.0315 O   0  0  0  0  0  0  0  0  0  0  0  0
   -0.0048    2.9007    0.0587 C   0  0  0  0  0  0  0  0  0  0  0  0
   -0.6283    3.2328   -0.6306 H   0  0  0  0  0  0  0  0  0  0  0  0
    0.9159    3.2169   -0.1002 H   0  0  0  0  0  0  0  0  0  0  0  0
   -0.3306    3.2955    1.0210 H   0  0  0  0  0  0  0  0  0  0  0  0
   -0.0003    1.3992    0.0006 C   0  0  0  0  0  0  0  0  0  0  0  0
   -1.1939    0.6927   -0.0015 C   0  0  0  0  0  0  0  0  0  0  0  0
   -2.0616    1.1816   -0.0051 H   0  0  0  0  0  0  0  0  0  0  0  0
   -1.1975   -0.6973    0.0000 C   0  0  0  0  0  0  0  0  0  0  0  0
   -2.0752   -1.1899    0.0002 H   0  0  0  0  0  0  0  0  0  0  0  0
    0.0004   -1.3894    0.0030 C   0  0  0  0  0  0  0  0  0  0  0  0
   -0.0028   -2.3900    0.0069 H   0  0  0  0  0  0  0  0  0  0  0  0
    1.1975   -0.6953    0.0000 C   0  0  0  0  0  0  0  0  0  0  0  0
    2.0799   -1.1946    0.0008 H   0  0  0  0  0  0  0  0  0  0  0  0
    1.1938    0.6901   -0.0020 C   0  0  0  0  0  0  0  0  0  0  0  0
    2.0625    1.1881   -0.0058 H   0  0  0  0  0  0  0  0  0  0  0  0
  1  5  1  0
  5  6  1  0
  5  7  2  0
  1  2  1  0
  1  3  1  0
  1  4  1  0
  8 12  1  0
 12 13  2  0
 13 15  1  0
 15 17  2  0
 17 19  1  0
 19 21  2  0
 21 12  1  0
  8  9  1  0
  8 10  1  0
  8 11  1  0
 13 14  1  0
 15 16  1  0
 17 18  1  0
 19 20  1  0
 21 22  1  0
M  CHG  1   6  -1
M  END
>  <PDB_ID>  (943) 
pdb1rql

>  <RESIDUE_NAME>  (943) 
GLU   PHE

>  <FRAG_NAME>  (943) 
ACET   MBZ

>  <FRAG_ATOM_NUM>  (943) 
fragi: 7  fragj: 15

>  <atom.prop.CHAIN_ID>  (943) 
A A A A A A A Z Z Z Z Z Z Z Z Z Z Z Z Z Z Z

>  <atom.prop.IS_HEAVY_ATOM>  (943) 
1 0 0 0 1 1 1 1 0 0 0 1 1 0 1 0 1 0 1 0 1 0

>  <DIFUSE_FUNC_ATOM>  (943) 
atom 6   atom 7   

>  <FINAL_SINGLE_POINT_ENERGY>  (943) 
0

>  <NONCOV_INTER_ENERGY_QM>  (943) 
0

>  <FF_Energy>  (943) 
12.01

>  <QM_Energy>  (943) 
3.5

>  <source>  (943) 
ACET_MBZ_00

>  <Index>  (943) 
34917

$$$$
ACET-pdb1rqx-C-ASP-134:MBZ-pdb1rqx-C-PHE-137
     RDKit          3D

 22 21  0  0  0  0  0  0  0  0999 V2000
    2.0799    4.9440   -1.5754 C   0  0  0  0  0  0  0  0  0  0  0  0
    2.5504    4.5830   -2.3686 H   0  0  0  0  0  0  0  0  0  0  0  0
    1.9835    4.2518   -0.8740 H   0  0  0  0  0  0  0  0  0  0  0  0
    2.6817    5.7561   -1.1673 H   0  0  0  0  0  0  0  0  0  0  0  0
    0.6765    5.3986   -2.0079 C   0  0  0  0  0  0  0  0  0  0  0  0
   -0.0364    6.0487   -1.2080 O   0  0  0  0  0  1  0  0  0  0  0  0
    0.2861    5.0984   -3.1580 O   0  0  0  0  0  0  0  0  0  0  0  0
   -0.0070    2.9068    0.0447 C   0  0  0  0  0  0  0  0  0  0  0  0
   -0.5771    3.2319   -0.6930 H   0  0  0  0  0  0  0  0  0  0  0  0
    0.9242    3.2193   -0.0516 H   0  0  0  0  0  0  0  0  0  0  0  0
   -0.4021    3.3098    0.9771 H   0  0  0  0  0  0  0  0  0  0  0  0
   -0.0003    1.4056    0.0006 C   0  0  0  0  0  0  0  0  0  0  0  0
   -1.1996    0.6956   -0.0020 C   0  0  0  0  0  0  0  0  0  0  0  0
   -2.0655    1.1859   -0.0068 H   0  0  0  0  0  0  0  0  0  0  0  0
   -1.2062   -0.6992   -0.0000 C   0  0  0  0  0  0  0  0  0  0  0  0
   -2.0805   -1.1924    0.0016 H   0  0  0  0  0  0  0  0  0  0  0  0
    0.0012   -1.3997    0.0016 C   0  0  0  0  0  0  0  0  0  0  0  0
   -0.0042   -2.3961    0.0028 H   0  0  0  0  0  0  0  0  0  0  0  0
    1.2062   -0.7013   -0.0000 C   0  0  0  0  0  0  0  0  0  0  0  0
    2.0859   -1.1941    0.0002 H   0  0  0  0  0  0  0  0  0  0  0  0
    1.1987    0.6990   -0.0001 C   0  0  0  0  0  0  0  0  0  0  0  0
    2.0661    1.1932   -0.0012 H   0  0  0  0  0  0  0  0  0  0  0  0
  1  5  1  0
  5  6  1  0
  5  7  2  0
  1  2  1  0
  1  3  1  0
  1  4  1  0
  8 12  1  0
 12 13  2  0
 13 15  1  0
 15 17  2  0
 17 19  1  0
 19 21  2  0
 21 12  1  0
  8  9  1  0
  8 10  1  0
  8 11  1  0
 13 14  1  0
 15 16  1  0
 17 18  1  0
 19 20  1  0
 21 22  1  0
M  CHG  1   6  -1
M  END
>  <PDB_ID>  (944) 
pdb1rqx

>  <RESIDUE_NAME>  (944) 
ASP   PHE

>  <FRAG_NAME>  (944) 
ACET   MBZ

>  <FRAG_ATOM_NUM>  (944) 
fragi: 7  fragj: 15

>  <atom.prop.CHAIN_ID>  (944) 
A A A A A A A Z Z Z Z Z Z Z Z Z Z Z Z Z Z Z

>  <atom.prop.IS_HEAVY_ATOM>  (944) 
1 0 0 0 1 1 1 1 0 0 0 1 1 0 1 0 1 0 1 0 1 0

>  <DIFUSE_FUNC_ATOM>  (944) 
atom 6   atom 7   

>  <FINAL_SINGLE_POINT_ENERGY>  (944) 
0

>  <NONCOV_INTER_ENERGY_QM>  (944) 
0

>  <FF_Energy>  (944) 
6.15

>  <QM_Energy>  (944) 
-2.06

>  <source>  (944) 
ACET_MBZ_00

>  <Index>  (944) 
34932

$$$$
ACET-pdb2xta-A-ASP-902:MBZ-pdb2xta-B-PHE-682
     RDKit          3D

 22 21  0  0  0  0  0  0  0  0999 V2000
    1.1362    1.1134    4.4372 C   0  0  0  0  0  0  0  0  0  0  0  0
    1.8324    0.4720    4.1723 H   0  0  0  0  0  0  0  0  0  0  0  0
    0.2479    0.6964    4.4952 H   0  0  0  0  0  0  0  0  0  0  0  0
    1.3916    1.4882    5.4284 H   0  0  0  0  0  0  0  0  0  0  0  0
    1.0893    2.2470    3.4176 C   0  0  0  0  0  0  0  0  0  0  0  0
    0.1414    3.0661    3.4798 O   0  0  0  0  0  1  0  0  0  0  0  0
    2.0748    2.4071    2.6657 O   0  0  0  0  0  0  0  0  0  0  0  0
   -0.0073    2.9385    0.0215 C   0  0  0  0  0  0  0  0  0  0  0  0
    0.7451    3.2548   -0.5561 H   0  0  0  0  0  0  0  0  0  0  0  0
    0.1546    3.2213    0.9667 H   0  0  0  0  0  0  0  0  0  0  0  0
   -0.9088    3.4494   -0.3167 H   0  0  0  0  0  0  0  0  0  0  0  0
   -0.0023    1.4095   -0.0104 C   0  0  0  0  0  0  0  0  0  0  0  0
   -1.1905    0.6865   -0.0031 C   0  0  0  0  0  0  0  0  0  0  0  0
   -2.0640    1.1698   -0.0012 H   0  0  0  0  0  0  0  0  0  0  0  0
   -1.1881   -0.7060    0.0000 C   0  0  0  0  0  0  0  0  0  0  0  0
   -2.0695   -1.1977   -0.0036 H   0  0  0  0  0  0  0  0  0  0  0  0
    0.0017   -1.3880    0.0093 C   0  0  0  0  0  0  0  0  0  0  0  0
   -0.0014   -2.3952    0.0218 H   0  0  0  0  0  0  0  0  0  0  0  0
    1.1881   -0.7028   -0.0000 C   0  0  0  0  0  0  0  0  0  0  0  0
    2.0764   -1.1921   -0.0088 H   0  0  0  0  0  0  0  0  0  0  0  0
    1.1912    0.7008    0.0042 C   0  0  0  0  0  0  0  0  0  0  0  0
    2.0617    1.1863    0.0177 H   0  0  0  0  0  0  0  0  0  0  0  0
  1  5  1  0
  5  6  1  0
  5  7  2  0
  1  2  1  0
  1  3  1  0
  1  4  1  0
  8 12  1  0
 12 13  2  0
 13 15  1  0
 15 17  2  0
 17 19  1  0
 19 21  2  0
 21 12  1  0
  8  9  1  0
  8 10  1  0
  8 11  1  0
 13 14  1  0
 15 16  1  0
 17 18  1  0
 19 20  1  0
 21 22  1  0
M  CHG  1   6  -1
M  END
>  <PDB_ID>  (945) 
pdb2xta

>  <RESIDUE_NAME>  (945) 
ASP   PHE

>  <FRAG_NAME>  (945) 
ACET   MBZ

>  <FRAG_ATOM_NUM>  (945) 
fragi: 7  fragj: 15

>  <atom.prop.CHAIN_ID>  (945) 
A A A A A A A Z Z Z Z Z Z Z Z Z Z Z Z Z Z Z

>  <atom.prop.IS_HEAVY_ATOM>  (945) 
1 0 0 0 1 1 1 1 0 0 0 1 1 0 1 0 1 0 1 0 1 0

>  <DIFUSE_FUNC_ATOM>  (945) 
atom 6   atom 7   

>  <FINAL_SINGLE_POINT_ENERGY>  (945) 
0

>  <NONCOV_INTER_ENERGY_QM>  (945) 
0

>  <FF_Energy>  (945) 
-0.02

>  <QM_Energy>  (945) 
-7.11

>  <source>  (945) 
ACET_MBZ_00

>  <Index>  (945) 
34972

$$$$
ACET-pdb1rrm-B-GLU-123:MBZ-pdb1rrm-B-PHE-163
     RDKit          3D

 22 21  0  0  0  0  0  0  0  0999 V2000
   -2.4633    4.3651   -2.0319 C   0  0  0  0  0  0  0  0  0  0  0  0
   -3.2167    4.9895   -2.1278 H   0  0  0  0  0  0  0  0  0  0  0  0
   -2.2375    4.1975   -1.0896 H   0  0  0  0  0  0  0  0  0  0  0  0
   -2.7486    3.4168   -2.4873 H   0  0  0  0  0  0  0  0  0  0  0  0
   -1.2523    5.0011   -2.6895 C   0  0  0  0  0  0  0  0  0  0  0  0
   -0.3070    4.2666   -3.0399 O   0  0  0  0  0  1  0  0  0  0  0  0
   -1.2433    6.2382   -2.8451 O   0  0  0  0  0  0  0  0  0  0  0  0
    0.0046    2.9022   -0.0451 C   0  0  0  0  0  0  0  0  0  0  0  0
   -0.8235    3.1978   -0.5001 H   0  0  0  0  0  0  0  0  0  0  0  0
    0.8090    3.1930   -0.5454 H   0  0  0  0  0  0  0  0  0  0  0  0
    0.0329    3.3805    0.9340 H   0  0  0  0  0  0  0  0  0  0  0  0
    0.0013    1.4008   -0.0010 C   0  0  0  0  0  0  0  0  0  0  0  0
   -1.1987    0.6945    0.0020 C   0  0  0  0  0  0  0  0  0  0  0  0
   -2.0639    1.1862    0.0046 H   0  0  0  0  0  0  0  0  0  0  0  0
   -1.2052   -0.6969   -0.0000 C   0  0  0  0  0  0  0  0  0  0  0  0
   -2.0812   -1.1902    0.0005 H   0  0  0  0  0  0  0  0  0  0  0  0
   -0.0018   -1.3945   -0.0011 C   0  0  0  0  0  0  0  0  0  0  0  0
   -0.0049   -2.3923   -0.0036 H   0  0  0  0  0  0  0  0  0  0  0  0
    1.2052   -0.6971    0.0000 C   0  0  0  0  0  0  0  0  0  0  0  0
    2.0828   -1.1965    0.0023 H   0  0  0  0  0  0  0  0  0  0  0  0
    1.1992    0.6932    0.0000 C   0  0  0  0  0  0  0  0  0  0  0  0
    2.0666    1.1913    0.0002 H   0  0  0  0  0  0  0  0  0  0  0  0
  1  5  1  0
  5  6  1  0
  5  7  2  0
  1  2  1  0
  1  3  1  0
  1  4  1  0
  8 12  1  0
 12 13  2  0
 13 15  1  0
 15 17  2  0
 17 19  1  0
 19 21  2  0
 21 12  1  0
  8  9  1  0
  8 10  1  0
  8 11  1  0
 13 14  1  0
 15 16  1  0
 17 18  1  0
 19 20  1  0
 21 22  1  0
M  CHG  1   6  -1
M  END
>  <PDB_ID>  (946) 
pdb1rrm

>  <RESIDUE_NAME>  (946) 
GLU   PHE

>  <FRAG_NAME>  (946) 
ACET   MBZ

>  <FRAG_ATOM_NUM>  (946) 
fragi: 7  fragj: 15

>  <atom.prop.CHAIN_ID>  (946) 
A A A A A A A Z Z Z Z Z Z Z Z Z Z Z Z Z Z Z

>  <atom.prop.IS_HEAVY_ATOM>  (946) 
1 0 0 0 1 1 1 1 0 0 0 1 1 0 1 0 1 0 1 0 1 0

>  <DIFUSE_FUNC_ATOM>  (946) 
atom 6   atom 7   

>  <FINAL_SINGLE_POINT_ENERGY>  (946) 
0

>  <NONCOV_INTER_ENERGY_QM>  (946) 
0

>  <FF_Energy>  (946) 
2.46

>  <QM_Energy>  (946) 
-2.69

>  <source>  (946) 
ACET_MBZ_00

>  <Index>  (946) 
34981

$$$$
ACET-pdb1rrq-A-GLU-192:MBZ-pdb1rrq-A-PHE-21
     RDKit          3D

 22 21  0  0  0  0  0  0  0  0999 V2000
   -4.2726   -1.1375   -0.2342 C   0  0  0  0  0  0  0  0  0  0  0  0
   -3.6916   -1.7539   -0.7499 H   0  0  0  0  0  0  0  0  0  0  0  0
   -3.7600   -0.6929    0.4884 H   0  0  0  0  0  0  0  0  0  0  0  0
   -4.6421   -0.3697   -0.9141 H   0  0  0  0  0  0  0  0  0  0  0  0
   -5.3506   -1.9647    0.4162 C   0  0  0  0  0  0  0  0  0  0  0  0
   -5.8491   -2.8755   -0.2593 O   0  0  0  0  0  1  0  0  0  0  0  0
   -5.6933   -1.7258    1.5952 O   0  0  0  0  0  0  0  0  0  0  0  0
    0.0007    2.8964    0.0094 C   0  0  0  0  0  0  0  0  0  0  0  0
   -0.4460    3.2073   -0.8169 H   0  0  0  0  0  0  0  0  0  0  0  0
    0.9403    3.2032    0.0459 H   0  0  0  0  0  0  0  0  0  0  0  0
   -0.5258    3.3312    0.8590 H   0  0  0  0  0  0  0  0  0  0  0  0
    0.0012    1.3966    0.0008 C   0  0  0  0  0  0  0  0  0  0  0  0
   -1.1987    0.6871   -0.0006 C   0  0  0  0  0  0  0  0  0  0  0  0
   -2.0622    1.1827   -0.0033 H   0  0  0  0  0  0  0  0  0  0  0  0
   -1.2017   -0.6933   -0.0000 C   0  0  0  0  0  0  0  0  0  0  0  0
   -2.0770   -1.1932    0.0020 H   0  0  0  0  0  0  0  0  0  0  0  0
    0.0004   -1.3882   -0.0006 C   0  0  0  0  0  0  0  0  0  0  0  0
   -0.0034   -2.3874   -0.0015 H   0  0  0  0  0  0  0  0  0  0  0  0
    1.2017   -0.6922   -0.0000 C   0  0  0  0  0  0  0  0  0  0  0  0
    2.0816   -1.1942    0.0015 H   0  0  0  0  0  0  0  0  0  0  0  0
    1.1971    0.6900    0.0004 C   0  0  0  0  0  0  0  0  0  0  0  0
    2.0646    1.1902   -0.0003 H   0  0  0  0  0  0  0  0  0  0  0  0
  1  5  1  0
  5  6  1  0
  5  7  2  0
  1  2  1  0
  1  3  1  0
  1  4  1  0
  8 12  1  0
 12 13  2  0
 13 15  1  0
 15 17  2  0
 17 19  1  0
 19 21  2  0
 21 12  1  0
  8  9  1  0
  8 10  1  0
  8 11  1  0
 13 14  1  0
 15 16  1  0
 17 18  1  0
 19 20  1  0
 21 22  1  0
M  CHG  1   6  -1
M  END
>  <PDB_ID>  (947) 
pdb1rrq

>  <RESIDUE_NAME>  (947) 
GLU   PHE

>  <FRAG_NAME>  (947) 
ACET   MBZ

>  <FRAG_ATOM_NUM>  (947) 
fragi: 7  fragj: 15

>  <atom.prop.CHAIN_ID>  (947) 
A A A A A A A Z Z Z Z Z Z Z Z Z Z Z Z Z Z Z

>  <atom.prop.IS_HEAVY_ATOM>  (947) 
1 0 0 0 1 1 1 1 0 0 0 1 1 0 1 0 1 0 1 0 1 0

>  <DIFUSE_FUNC_ATOM>  (947) 
atom 6   atom 7   

>  <FINAL_SINGLE_POINT_ENERGY>  (947) 
0

>  <NONCOV_INTER_ENERGY_QM>  (947) 
0

>  <FF_Energy>  (947) 
11.1

>  <QM_Energy>  (947) 
1.18

>  <source>  (947) 
ACET_MBZ_00

>  <Index>  (947) 
34994

$$$$
ACET-pdb1rt8-A-ASP-147:MBZ-pdb1rt8-A-PHE-143
     RDKit          3D

 22 21  0  0  0  0  0  0  0  0999 V2000
    4.6732   -0.2929   -2.0651 C   0  0  0  0  0  0  0  0  0  0  0  0
    4.9084    0.6381   -1.8053 H   0  0  0  0  0  0  0  0  0  0  0  0
    5.2259   -0.5867   -2.8369 H   0  0  0  0  0  0  0  0  0  0  0  0
    4.8991   -0.9450   -1.2214 H   0  0  0  0  0  0  0  0  0  0  0  0
    3.2170   -0.3371   -2.4604 C   0  0  0  0  0  0  0  0  0  0  0  0
    2.6923   -1.4530   -2.6774 O   0  0  0  0  0  1  0  0  0  0  0  0
    2.5984    0.7438   -2.5624 O   0  0  0  0  0  0  0  0  0  0  0  0
   -0.0063    2.9658    0.0071 C   0  0  0  0  0  0  0  0  0  0  0  0
   -0.9417    3.2557    0.1298 H   0  0  0  0  0  0  0  0  0  0  0  0
    0.3578    3.2668   -0.8595 H   0  0  0  0  0  0  0  0  0  0  0  0
    0.5899    3.4265    0.7948 H   0  0  0  0  0  0  0  0  0  0  0  0
    0.0042    1.4288    0.0041 C   0  0  0  0  0  0  0  0  0  0  0  0
   -1.2063    0.7017   -0.0017 C   0  0  0  0  0  0  0  0  0  0  0  0
   -2.0708    1.1823   -0.0082 H   0  0  0  0  0  0  0  0  0  0  0  0
   -1.2046   -0.7137    0.0000 C   0  0  0  0  0  0  0  0  0  0  0  0
   -2.0816   -1.2005    0.0028 H   0  0  0  0  0  0  0  0  0  0  0  0
    0.0030   -1.4165   -0.0008 C   0  0  0  0  0  0  0  0  0  0  0  0
   -0.0014   -2.4109   -0.0023 H   0  0  0  0  0  0  0  0  0  0  0  0
    1.2046   -0.7123   -0.0000 C   0  0  0  0  0  0  0  0  0  0  0  0
    2.0893   -1.1933    0.0032 H   0  0  0  0  0  0  0  0  0  0  0  0
    1.1991    0.7119   -0.0016 C   0  0  0  0  0  0  0  0  0  0  0  0
    2.0726    1.1923   -0.0081 H   0  0  0  0  0  0  0  0  0  0  0  0
  1  5  1  0
  5  6  1  0
  5  7  2  0
  1  2  1  0
  1  3  1  0
  1  4  1  0
  8 12  1  0
 12 13  2  0
 13 15  1  0
 15 17  2  0
 17 19  1  0
 19 21  2  0
 21 12  1  0
  8  9  1  0
  8 10  1  0
  8 11  1  0
 13 14  1  0
 15 16  1  0
 17 18  1  0
 19 20  1  0
 21 22  1  0
M  CHG  1   6  -1
M  END
>  <PDB_ID>  (948) 
pdb1rt8

>  <RESIDUE_NAME>  (948) 
ASP   PHE

>  <FRAG_NAME>  (948) 
ACET   MBZ

>  <FRAG_ATOM_NUM>  (948) 
fragi: 7  fragj: 15

>  <atom.prop.CHAIN_ID>  (948) 
A A A A A A A Z Z Z Z Z Z Z Z Z Z Z Z Z Z Z

>  <atom.prop.IS_HEAVY_ATOM>  (948) 
1 0 0 0 1 1 1 1 0 0 0 1 1 0 1 0 1 0 1 0 1 0

>  <DIFUSE_FUNC_ATOM>  (948) 
atom 6   atom 7   

>  <FINAL_SINGLE_POINT_ENERGY>  (948) 
0

>  <NONCOV_INTER_ENERGY_QM>  (948) 
0

>  <FF_Energy>  (948) 
2.89

>  <QM_Energy>  (948) 
-2.51

>  <source>  (948) 
ACET_MBZ_00

>  <Index>  (948) 
35007

$$$$
ACET-pdb2xvk-A-ASP-688:MBZ-pdb2xvk-A-PHE-692
     RDKit          3D

 22 21  0  0  0  0  0  0  0  0999 V2000
   -3.9674    5.3821   -0.3832 C   0  0  0  0  0  0  0  0  0  0  0  0
   -3.1084    5.8541   -0.5569 H   0  0  0  0  0  0  0  0  0  0  0  0
   -4.0413    5.1447    0.5803 H   0  0  0  0  0  0  0  0  0  0  0  0
   -4.7826    6.0631   -0.6275 H   0  0  0  0  0  0  0  0  0  0  0  0
   -3.9942    4.1060   -1.2016 C   0  0  0  0  0  0  0  0  0  0  0  0
   -5.0036    3.8539   -1.8866 O   0  0  0  0  0  1  0  0  0  0  0  0
   -3.0026    3.3523   -1.1478 O   0  0  0  0  0  0  0  0  0  0  0  0
   -0.0008    2.9280    0.0023 C   0  0  0  0  0  0  0  0  0  0  0  0
   -0.6511    3.2277   -0.6750 H   0  0  0  0  0  0  0  0  0  0  0  0
    0.9139    3.2289   -0.2097 H   0  0  0  0  0  0  0  0  0  0  0  0
   -0.2851    3.3699    0.9573 H   0  0  0  0  0  0  0  0  0  0  0  0
   -0.0002    1.4058    0.0027 C   0  0  0  0  0  0  0  0  0  0  0  0
   -1.1914    0.6918   -0.0033 C   0  0  0  0  0  0  0  0  0  0  0  0
   -2.0616    1.1774   -0.0119 H   0  0  0  0  0  0  0  0  0  0  0  0
   -1.1929   -0.7008    0.0000 C   0  0  0  0  0  0  0  0  0  0  0  0
   -2.0747   -1.1905    0.0029 H   0  0  0  0  0  0  0  0  0  0  0  0
   -0.0026   -1.3911    0.0015 C   0  0  0  0  0  0  0  0  0  0  0  0
   -0.0026   -2.3926    0.0036 H   0  0  0  0  0  0  0  0  0  0  0  0
    1.1929   -0.6960   -0.0000 C   0  0  0  0  0  0  0  0  0  0  0  0
    2.0772   -1.1964    0.0014 H   0  0  0  0  0  0  0  0  0  0  0  0
    1.1942    0.6903   -0.0009 C   0  0  0  0  0  0  0  0  0  0  0  0
    2.0639    1.1856   -0.0053 H   0  0  0  0  0  0  0  0  0  0  0  0
  1  5  1  0
  5  6  1  0
  5  7  2  0
  1  2  1  0
  1  3  1  0
  1  4  1  0
  8 12  1  0
 12 13  2  0
 13 15  1  0
 15 17  2  0
 17 19  1  0
 19 21  2  0
 21 12  1  0
  8  9  1  0
  8 10  1  0
  8 11  1  0
 13 14  1  0
 15 16  1  0
 17 18  1  0
 19 20  1  0
 21 22  1  0
M  CHG  1   6  -1
M  END
>  <PDB_ID>  (949) 
pdb2xvk

>  <RESIDUE_NAME>  (949) 
ASP   PHE

>  <FRAG_NAME>  (949) 
ACET   MBZ

>  <FRAG_ATOM_NUM>  (949) 
fragi: 7  fragj: 15

>  <atom.prop.CHAIN_ID>  (949) 
A A A A A A A Z Z Z Z Z Z Z Z Z Z Z Z Z Z Z

>  <atom.prop.IS_HEAVY_ATOM>  (949) 
1 0 0 0 1 1 1 1 0 0 0 1 1 0 1 0 1 0 1 0 1 0

>  <DIFUSE_FUNC_ATOM>  (949) 
atom 6   atom 7   

>  <FINAL_SINGLE_POINT_ENERGY>  (949) 
0

>  <NONCOV_INTER_ENERGY_QM>  (949) 
0

>  <FF_Energy>  (949) 
-1.37

>  <QM_Energy>  (949) 
-7.29

>  <source>  (949) 
ACET_MBZ_00

>  <Index>  (949) 
35044

$$$$
ACET-pdb2xvk-A-GLU-288:MBZ-pdb2xvk-A-PHE-280
     RDKit          3D

 22 21  0  0  0  0  0  0  0  0999 V2000
    3.4013    6.4535    1.2029 C   0  0  0  0  0  0  0  0  0  0  0  0
    4.3173    6.7727    1.0658 H   0  0  0  0  0  0  0  0  0  0  0  0
    2.9512    6.8971    1.9516 H   0  0  0  0  0  0  0  0  0  0  0  0
    2.8304    6.6425    0.2938 H   0  0  0  0  0  0  0  0  0  0  0  0
    3.4670    4.9829    1.5125 C   0  0  0  0  0  0  0  0  0  0  0  0
    3.0375    4.1928    0.6454 O   0  0  0  0  0  1  0  0  0  0  0  0
    3.9416    4.6178    2.6102 O   0  0  0  0  0  0  0  0  0  0  0  0
    0.0031    2.8952    0.0009 C   0  0  0  0  0  0  0  0  0  0  0  0
    0.9387    3.2018    0.1069 H   0  0  0  0  0  0  0  0  0  0  0  0
   -0.5597    3.2011    0.7551 H   0  0  0  0  0  0  0  0  0  0  0  0
   -0.3911    3.3480   -0.9088 H   0  0  0  0  0  0  0  0  0  0  0  0
    0.0003    1.3939   -0.0060 C   0  0  0  0  0  0  0  0  0  0  0  0
   -1.1916    0.6910    0.0046 C   0  0  0  0  0  0  0  0  0  0  0  0
   -2.0595    1.1823    0.0141 H   0  0  0  0  0  0  0  0  0  0  0  0
   -1.1959   -0.6933    0.0000 C   0  0  0  0  0  0  0  0  0  0  0  0
   -2.0756   -1.1879   -0.0030 H   0  0  0  0  0  0  0  0  0  0  0  0
   -0.0017   -1.3861    0.0011 C   0  0  0  0  0  0  0  0  0  0  0  0
   -0.0050   -2.3875    0.0021 H   0  0  0  0  0  0  0  0  0  0  0  0
    1.1959   -0.6933   -0.0000 C   0  0  0  0  0  0  0  0  0  0  0  0
    2.0779   -1.1953    0.0003 H   0  0  0  0  0  0  0  0  0  0  0  0
    1.1930    0.6880    0.0003 C   0  0  0  0  0  0  0  0  0  0  0  0
    2.0621    1.1866    0.0043 H   0  0  0  0  0  0  0  0  0  0  0  0
  1  5  1  0
  5  6  1  0
  5  7  2  0
  1  2  1  0
  1  3  1  0
  1  4  1  0
  8 12  1  0
 12 13  2  0
 13 15  1  0
 15 17  2  0
 17 19  1  0
 19 21  2  0
 21 12  1  0
  8  9  1  0
  8 10  1  0
  8 11  1  0
 13 14  1  0
 15 16  1  0
 17 18  1  0
 19 20  1  0
 21 22  1  0
M  CHG  1   6  -1
M  END
>  <PDB_ID>  (950) 
pdb2xvk

>  <RESIDUE_NAME>  (950) 
GLU   PHE

>  <FRAG_NAME>  (950) 
ACET   MBZ

>  <FRAG_ATOM_NUM>  (950) 
fragi: 7  fragj: 15

>  <atom.prop.CHAIN_ID>  (950) 
A A A A A A A Z Z Z Z Z Z Z Z Z Z Z Z Z Z Z

>  <atom.prop.IS_HEAVY_ATOM>  (950) 
1 0 0 0 1 1 1 1 0 0 0 1 1 0 1 0 1 0 1 0 1 0

>  <DIFUSE_FUNC_ATOM>  (950) 
atom 6   atom 7   

>  <FINAL_SINGLE_POINT_ENERGY>  (950) 
0

>  <NONCOV_INTER_ENERGY_QM>  (950) 
0

>  <FF_Energy>  (950) 
-1.35

>  <QM_Energy>  (950) 
-6.42

>  <source>  (950) 
ACET_MBZ_00

>  <Index>  (950) 
35057

$$$$
ACET-pdb1ru3-A-ASP-8:MBZ-pdb1ru3-A-PHE-11
     RDKit          3D

 22 21  0  0  0  0  0  0  0  0999 V2000
    4.9500    2.0963   -1.0768 C   0  0  0  0  0  0  0  0  0  0  0  0
    5.8607    2.3463   -1.3655 H   0  0  0  0  0  0  0  0  0  0  0  0
    4.4782    2.8608   -0.6687 H   0  0  0  0  0  0  0  0  0  0  0  0
    4.3891    1.7792   -1.9560 H   0  0  0  0  0  0  0  0  0  0  0  0
    5.0585    0.9783   -0.0362 C   0  0  0  0  0  0  0  0  0  0  0  0
    4.1116    0.1606    0.0078 O   0  0  0  0  0  1  0  0  0  0  0  0
    6.0550    0.9147    0.7178 O   0  0  0  0  0  0  0  0  0  0  0  0
   -0.0114    2.8910   -0.0489 C   0  0  0  0  0  0  0  0  0  0  0  0
    0.9196    3.2088   -0.1249 H   0  0  0  0  0  0  0  0  0  0  0  0
   -0.4463    3.2301    0.7693 H   0  0  0  0  0  0  0  0  0  0  0  0
   -0.5618    3.2952   -0.8986 H   0  0  0  0  0  0  0  0  0  0  0  0
   -0.0036    1.4001   -0.0006 C   0  0  0  0  0  0  0  0  0  0  0  0
   -1.2051    0.6907   -0.0008 C   0  0  0  0  0  0  0  0  0  0  0  0
   -2.0699    1.1875   -0.0025 H   0  0  0  0  0  0  0  0  0  0  0  0
   -1.2219   -0.7024    0.0000 C   0  0  0  0  0  0  0  0  0  0  0  0
   -2.0873   -1.1967    0.0039 H   0  0  0  0  0  0  0  0  0  0  0  0
   -0.0006   -1.4023   -0.0027 C   0  0  0  0  0  0  0  0  0  0  0  0
    0.0042   -2.3929   -0.0074 H   0  0  0  0  0  0  0  0  0  0  0  0
    1.2219   -0.6861    0.0000 C   0  0  0  0  0  0  0  0  0  0  0  0
    2.0936   -1.1901    0.0006 H   0  0  0  0  0  0  0  0  0  0  0  0
    1.2093    0.6999    0.0041 C   0  0  0  0  0  0  0  0  0  0  0  0
    2.0677    1.2077    0.0095 H   0  0  0  0  0  0  0  0  0  0  0  0
  1  5  1  0
  5  6  1  0
  5  7  2  0
  1  2  1  0
  1  3  1  0
  1  4  1  0
  8 12  1  0
 12 13  2  0
 13 15  1  0
 15 17  2  0
 17 19  1  0
 19 21  2  0
 21 12  1  0
  8  9  1  0
  8 10  1  0
  8 11  1  0
 13 14  1  0
 15 16  1  0
 17 18  1  0
 19 20  1  0
 21 22  1  0
M  CHG  1   6  -1
M  END
>  <PDB_ID>  (951) 
pdb1ru3

>  <RESIDUE_NAME>  (951) 
ASP   PHE

>  <FRAG_NAME>  (951) 
ACET   MBZ

>  <FRAG_ATOM_NUM>  (951) 
fragi: 7  fragj: 15

>  <atom.prop.CHAIN_ID>  (951) 
A A A A A A A Z Z Z Z Z Z Z Z Z Z Z Z Z Z Z

>  <atom.prop.IS_HEAVY_ATOM>  (951) 
1 0 0 0 1 1 1 1 0 0 0 1 1 0 1 0 1 0 1 0 1 0

>  <DIFUSE_FUNC_ATOM>  (951) 
atom 6   atom 7   

>  <FINAL_SINGLE_POINT_ENERGY>  (951) 
0

>  <NONCOV_INTER_ENERGY_QM>  (951) 
0

>  <FF_Energy>  (951) 
-0.54

>  <QM_Energy>  (951) 
-6.56

>  <source>  (951) 
ACET_MBZ_00

>  <Index>  (951) 
35067

$$$$
ACET-pdb1ru3-A-GLU-458:MBZ-pdb1ru3-A-PHE-413
     RDKit          3D

 22 21  0  0  0  0  0  0  0  0999 V2000
   -2.9714   -4.3631    0.9799 C   0  0  0  0  0  0  0  0  0  0  0  0
   -3.8525   -4.7608    1.1763 H   0  0  0  0  0  0  0  0  0  0  0  0
   -2.5436   -4.0032    1.7930 H   0  0  0  0  0  0  0  0  0  0  0  0
   -2.3300   -5.1510    0.5852 H   0  0  0  0  0  0  0  0  0  0  0  0
   -3.1871   -3.2110    0.0218 C   0  0  0  0  0  0  0  0  0  0  0  0
   -2.4018   -3.0924   -0.9490 O   0  0  0  0  0  1  0  0  0  0  0  0
   -4.1405   -2.4237    0.2477 O   0  0  0  0  0  0  0  0  0  0  0  0
    0.0262    2.9485    0.1017 C   0  0  0  0  0  0  0  0  0  0  0  0
    0.6868    3.2792   -0.5560 H   0  0  0  0  0  0  0  0  0  0  0  0
    0.2901    3.1817    1.0259 H   0  0  0  0  0  0  0  0  0  0  0  0
   -0.9248    3.4388   -0.1064 H   0  0  0  0  0  0  0  0  0  0  0  0
    0.0001    1.4207    0.0014 C   0  0  0  0  0  0  0  0  0  0  0  0
   -1.2044    0.7081   -0.0020 C   0  0  0  0  0  0  0  0  0  0  0  0
   -2.0692    1.1930   -0.0072 H   0  0  0  0  0  0  0  0  0  0  0  0
   -1.2086   -0.6995    0.0000 C   0  0  0  0  0  0  0  0  0  0  0  0
   -2.0846   -1.1882    0.0012 H   0  0  0  0  0  0  0  0  0  0  0  0
    0.0008   -1.4104    0.0027 C   0  0  0  0  0  0  0  0  0  0  0  0
   -0.0117   -2.4041    0.0059 H   0  0  0  0  0  0  0  0  0  0  0  0
    1.2086   -0.7141   -0.0000 C   0  0  0  0  0  0  0  0  0  0  0  0
    2.0881   -1.2050    0.0008 H   0  0  0  0  0  0  0  0  0  0  0  0
    1.2035    0.6952   -0.0020 C   0  0  0  0  0  0  0  0  0  0  0  0
    2.0729    1.1855   -0.0066 H   0  0  0  0  0  0  0  0  0  0  0  0
  1  5  1  0
  5  6  1  0
  5  7  2  0
  1  2  1  0
  1  3  1  0
  1  4  1  0
  8 12  1  0
 12 13  2  0
 13 15  1  0
 15 17  2  0
 17 19  1  0
 19 21  2  0
 21 12  1  0
  8  9  1  0
  8 10  1  0
  8 11  1  0
 13 14  1  0
 15 16  1  0
 17 18  1  0
 19 20  1  0
 21 22  1  0
M  CHG  1   6  -1
M  END
>  <PDB_ID>  (952) 
pdb1ru3

>  <RESIDUE_NAME>  (952) 
GLU   PHE

>  <FRAG_NAME>  (952) 
ACET   MBZ

>  <FRAG_ATOM_NUM>  (952) 
fragi: 7  fragj: 15

>  <atom.prop.CHAIN_ID>  (952) 
A A A A A A A Z Z Z Z Z Z Z Z Z Z Z Z Z Z Z

>  <atom.prop.IS_HEAVY_ATOM>  (952) 
1 0 0 0 1 1 1 1 0 0 0 1 1 0 1 0 1 0 1 0 1 0

>  <DIFUSE_FUNC_ATOM>  (952) 
atom 6   atom 7   

>  <FINAL_SINGLE_POINT_ENERGY>  (952) 
0

>  <NONCOV_INTER_ENERGY_QM>  (952) 
0

>  <FF_Energy>  (952) 
5.24

>  <QM_Energy>  (952) 
-5.37

>  <source>  (952) 
ACET_MBZ_00

>  <Index>  (952) 
35071

$$$$
ACET-pdb1ru7-B-GLU-632:MBZ-pdb1ru7-B-PHE-638
     RDKit          3D

 22 21  0  0  0  0  0  0  0  0999 V2000
    4.3194   -1.4447    0.5766 C   0  0  0  0  0  0  0  0  0  0  0  0
    3.3601   -1.2832    0.6976 H   0  0  0  0  0  0  0  0  0  0  0  0
    4.6474   -1.1372   -0.2946 H   0  0  0  0  0  0  0  0  0  0  0  0
    4.8602   -0.9119    1.3587 H   0  0  0  0  0  0  0  0  0  0  0  0
    4.5424   -2.9472    0.6439 C   0  0  0  0  0  0  0  0  0  0  0  0
    5.6987   -3.3860    0.4515 O   0  0  0  0  0  1  0  0  0  0  0  0
    3.5650   -3.6896    0.8960 O   0  0  0  0  0  0  0  0  0  0  0  0
   -0.0037    2.9101   -0.0379 C   0  0  0  0  0  0  0  0  0  0  0  0
   -0.9351    3.2165    0.0910 H   0  0  0  0  0  0  0  0  0  0  0  0
    0.3495    3.1941   -0.9166 H   0  0  0  0  0  0  0  0  0  0  0  0
    0.6099    3.3745    0.7342 H   0  0  0  0  0  0  0  0  0  0  0  0
   -0.0001    1.4052   -0.0004 C   0  0  0  0  0  0  0  0  0  0  0  0
   -1.1979    0.6946    0.0004 C   0  0  0  0  0  0  0  0  0  0  0  0
   -2.0641    1.1834   -0.0003 H   0  0  0  0  0  0  0  0  0  0  0  0
   -1.2014   -0.6983   -0.0000 C   0  0  0  0  0  0  0  0  0  0  0  0
   -2.0784   -1.1908    0.0019 H   0  0  0  0  0  0  0  0  0  0  0  0
   -0.0004   -1.3952   -0.0008 C   0  0  0  0  0  0  0  0  0  0  0  0
   -0.0052   -2.3948   -0.0027 H   0  0  0  0  0  0  0  0  0  0  0  0
    1.2014   -0.7006    0.0000 C   0  0  0  0  0  0  0  0  0  0  0  0
    2.0824   -1.1971    0.0011 H   0  0  0  0  0  0  0  0  0  0  0  0
    1.1984    0.6943    0.0009 C   0  0  0  0  0  0  0  0  0  0  0  0
    2.0664    1.1880    0.0015 H   0  0  0  0  0  0  0  0  0  0  0  0
  1  5  1  0
  5  6  1  0
  5  7  2  0
  1  2  1  0
  1  3  1  0
  1  4  1  0
  8 12  1  0
 12 13  2  0
 13 15  1  0
 15 17  2  0
 17 19  1  0
 19 21  2  0
 21 12  1  0
  8  9  1  0
  8 10  1  0
  8 11  1  0
 13 14  1  0
 15 16  1  0
 17 18  1  0
 19 20  1  0
 21 22  1  0
M  CHG  1   6  -1
M  END
>  <PDB_ID>  (953) 
pdb1ru7

>  <RESIDUE_NAME>  (953) 
GLU   PHE

>  <FRAG_NAME>  (953) 
ACET   MBZ

>  <FRAG_ATOM_NUM>  (953) 
fragi: 7  fragj: 15

>  <atom.prop.CHAIN_ID>  (953) 
A A A A A A A Z Z Z Z Z Z Z Z Z Z Z Z Z Z Z

>  <atom.prop.IS_HEAVY_ATOM>  (953) 
1 0 0 0 1 1 1 1 0 0 0 1 1 0 1 0 1 0 1 0 1 0

>  <DIFUSE_FUNC_ATOM>  (953) 
atom 6   atom 7   

>  <FINAL_SINGLE_POINT_ENERGY>  (953) 
0

>  <NONCOV_INTER_ENERGY_QM>  (953) 
0

>  <FF_Energy>  (953) 
45.0

>  <QM_Energy>  (953) 
2.4

>  <source>  (953) 
ACET_MBZ_00

>  <Index>  (953) 
35085

$$$$
ACET-pdb1rv0-M-GLU-632:MBZ-pdb1rv0-M-PHE-638
     RDKit          3D

 22 21  0  0  0  0  0  0  0  0999 V2000
    3.8913   -1.9717   -1.5919 C   0  0  0  0  0  0  0  0  0  0  0  0
    3.0305   -1.6425   -1.2533 H   0  0  0  0  0  0  0  0  0  0  0  0
    4.0101   -1.7930   -2.5496 H   0  0  0  0  0  0  0  0  0  0  0  0
    4.6880   -1.4656   -1.0468 H   0  0  0  0  0  0  0  0  0  0  0  0
    3.9138   -3.4808   -1.4008 C   0  0  0  0  0  0  0  0  0  0  0  0
    4.9896   -4.0903   -1.5877 O   0  0  0  0  0  1  0  0  0  0  0  0
    2.8546   -4.0585   -1.0693 O   0  0  0  0  0  0  0  0  0  0  0  0
   -0.0032    2.8969   -0.0487 C   0  0  0  0  0  0  0  0  0  0  0  0
   -0.7496    3.2213    0.5132 H   0  0  0  0  0  0  0  0  0  0  0  0
   -0.1173    3.1745   -0.9911 H   0  0  0  0  0  0  0  0  0  0  0  0
    0.9157    3.3502    0.3231 H   0  0  0  0  0  0  0  0  0  0  0  0
   -0.0004    1.3998   -0.0011 C   0  0  0  0  0  0  0  0  0  0  0  0
   -1.1954    0.6931    0.0004 C   0  0  0  0  0  0  0  0  0  0  0  0
   -2.0630    1.1832    0.0002 H   0  0  0  0  0  0  0  0  0  0  0  0
   -1.2014   -0.6971    0.0000 C   0  0  0  0  0  0  0  0  0  0  0  0
   -2.0775   -1.1904    0.0011 H   0  0  0  0  0  0  0  0  0  0  0  0
    0.0001   -1.3933   -0.0004 C   0  0  0  0  0  0  0  0  0  0  0  0
   -0.0026   -2.3916   -0.0019 H   0  0  0  0  0  0  0  0  0  0  0  0
    1.2014   -0.6957    0.0000 C   0  0  0  0  0  0  0  0  0  0  0  0
    2.0820   -1.1940    0.0013 H   0  0  0  0  0  0  0  0  0  0  0  0
    1.1957    0.6932    0.0011 C   0  0  0  0  0  0  0  0  0  0  0  0
    2.0638    1.1903    0.0027 H   0  0  0  0  0  0  0  0  0  0  0  0
  1  5  1  0
  5  6  1  0
  5  7  2  0
  1  2  1  0
  1  3  1  0
  1  4  1  0
  8 12  1  0
 12 13  2  0
 13 15  1  0
 15 17  2  0
 17 19  1  0
 19 21  2  0
 21 12  1  0
  8  9  1  0
  8 10  1  0
  8 11  1  0
 13 14  1  0
 15 16  1  0
 17 18  1  0
 19 20  1  0
 21 22  1  0
M  CHG  1   6  -1
M  END
>  <PDB_ID>  (954) 
pdb1rv0

>  <RESIDUE_NAME>  (954) 
GLU   PHE

>  <FRAG_NAME>  (954) 
ACET   MBZ

>  <FRAG_ATOM_NUM>  (954) 
fragi: 7  fragj: 15

>  <atom.prop.CHAIN_ID>  (954) 
A A A A A A A Z Z Z Z Z Z Z Z Z Z Z Z Z Z Z

>  <atom.prop.IS_HEAVY_ATOM>  (954) 
1 0 0 0 1 1 1 1 0 0 0 1 1 0 1 0 1 0 1 0 1 0

>  <DIFUSE_FUNC_ATOM>  (954) 
atom 6   atom 7   

>  <FINAL_SINGLE_POINT_ENERGY>  (954) 
0

>  <NONCOV_INTER_ENERGY_QM>  (954) 
0

>  <FF_Energy>  (954) 
10.25

>  <QM_Energy>  (954) 
-0.32

>  <source>  (954) 
ACET_MBZ_00

>  <Index>  (954) 
35114

$$$$
ACET-pdb1ry2-A-GLU-82:MBZ-pdb1ry2-A-PHE-90
     RDKit          3D

 22 21  0  0  0  0  0  0  0  0999 V2000
   -3.6215    3.8492   -1.2787 C   0  0  0  0  0  0  0  0  0  0  0  0
   -2.6551    3.9786   -1.1499 H   0  0  0  0  0  0  0  0  0  0  0  0
   -4.0923    4.6997   -1.4297 H   0  0  0  0  0  0  0  0  0  0  0  0
   -3.7631    3.2228   -2.1594 H   0  0  0  0  0  0  0  0  0  0  0  0
   -4.1796    3.2363    0.0023 C   0  0  0  0  0  0  0  0  0  0  0  0
   -3.7567    2.1210    0.3754 O   0  0  0  0  0  1  0  0  0  0  0  0
   -5.0369    3.8762    0.6450 O   0  0  0  0  0  0  0  0  0  0  0  0
    0.0077    2.9027    0.1122 C   0  0  0  0  0  0  0  0  0  0  0  0
   -0.7445    3.2546   -0.4212 H   0  0  0  0  0  0  0  0  0  0  0  0
    0.8766    3.2309   -0.2207 H   0  0  0  0  0  0  0  0  0  0  0  0
   -0.1131    3.2616    1.1343 H   0  0  0  0  0  0  0  0  0  0  0  0
   -0.0001    1.4045    0.0007 C   0  0  0  0  0  0  0  0  0  0  0  0
   -1.1992    0.7014   -0.0026 C   0  0  0  0  0  0  0  0  0  0  0  0
   -2.0641    1.1911   -0.0087 H   0  0  0  0  0  0  0  0  0  0  0  0
   -1.2050   -0.6933    0.0000 C   0  0  0  0  0  0  0  0  0  0  0  0
   -2.0809   -1.1864   -0.0009 H   0  0  0  0  0  0  0  0  0  0  0  0
    0.0008   -1.3980    0.0051 C   0  0  0  0  0  0  0  0  0  0  0  0
   -0.0098   -2.3946    0.0122 H   0  0  0  0  0  0  0  0  0  0  0  0
    1.2050   -0.7044   -0.0000 C   0  0  0  0  0  0  0  0  0  0  0  0
    2.0839   -1.2003    0.0003 H   0  0  0  0  0  0  0  0  0  0  0  0
    1.1986    0.6898   -0.0031 C   0  0  0  0  0  0  0  0  0  0  0  0
    2.0676    1.1866   -0.0089 H   0  0  0  0  0  0  0  0  0  0  0  0
  1  5  1  0
  5  6  1  0
  5  7  2  0
  1  2  1  0
  1  3  1  0
  1  4  1  0
  8 12  1  0
 12 13  2  0
 13 15  1  0
 15 17  2  0
 17 19  1  0
 19 21  2  0
 21 12  1  0
  8  9  1  0
  8 10  1  0
  8 11  1  0
 13 14  1  0
 15 16  1  0
 17 18  1  0
 19 20  1  0
 21 22  1  0
M  CHG  1   6  -1
M  END
>  <PDB_ID>  (955) 
pdb1ry2

>  <RESIDUE_NAME>  (955) 
GLU   PHE

>  <FRAG_NAME>  (955) 
ACET   MBZ

>  <FRAG_ATOM_NUM>  (955) 
fragi: 7  fragj: 15

>  <atom.prop.CHAIN_ID>  (955) 
A A A A A A A Z Z Z Z Z Z Z Z Z Z Z Z Z Z Z

>  <atom.prop.IS_HEAVY_ATOM>  (955) 
1 0 0 0 1 1 1 1 0 0 0 1 1 0 1 0 1 0 1 0 1 0

>  <DIFUSE_FUNC_ATOM>  (955) 
atom 6   atom 7   

>  <FINAL_SINGLE_POINT_ENERGY>  (955) 
0

>  <NONCOV_INTER_ENERGY_QM>  (955) 
0

>  <FF_Energy>  (955) 
6.98

>  <QM_Energy>  (955) 
-6.64

>  <source>  (955) 
ACET_MBZ_00

>  <Index>  (955) 
35233

$$$$
ACET-pdb1rz4-A-GLU-110:MBZ-pdb1rz4-A-PHE-82
     RDKit          3D

 22 21  0  0  0  0  0  0  0  0999 V2000
    4.8607    0.5529   -1.7212 C   0  0  0  0  0  0  0  0  0  0  0  0
    4.6973    1.5194   -1.7469 H   0  0  0  0  0  0  0  0  0  0  0  0
    4.2254    0.0481   -2.2717 H   0  0  0  0  0  0  0  0  0  0  0  0
    5.8692    0.3619   -2.0880 H   0  0  0  0  0  0  0  0  0  0  0  0
    4.6805    0.0975   -0.2849 C   0  0  0  0  0  0  0  0  0  0  0  0
    4.9748   -1.0839    0.0066 O   0  0  0  0  0  1  0  0  0  0  0  0
    4.2439    0.9139    0.5521 O   0  0  0  0  0  0  0  0  0  0  0  0
    0.0046    2.9120   -0.0215 C   0  0  0  0  0  0  0  0  0  0  0  0
   -0.4184    3.2070   -0.8645 H   0  0  0  0  0  0  0  0  0  0  0  0
    0.9431    3.2153    0.0364 H   0  0  0  0  0  0  0  0  0  0  0  0
   -0.5432    3.3683    0.8031 H   0  0  0  0  0  0  0  0  0  0  0  0
   -0.0000    1.4041   -0.0003 C   0  0  0  0  0  0  0  0  0  0  0  0
   -1.1975    0.6960   -0.0001 C   0  0  0  0  0  0  0  0  0  0  0  0
   -2.0641    1.1866   -0.0015 H   0  0  0  0  0  0  0  0  0  0  0  0
   -1.2022   -0.6948    0.0000 C   0  0  0  0  0  0  0  0  0  0  0  0
   -2.0794   -1.1888    0.0017 H   0  0  0  0  0  0  0  0  0  0  0  0
    0.0005   -1.3953   -0.0000 C   0  0  0  0  0  0  0  0  0  0  0  0
   -0.0080   -2.3936   -0.0007 H   0  0  0  0  0  0  0  0  0  0  0  0
    1.2022   -0.7031   -0.0000 C   0  0  0  0  0  0  0  0  0  0  0  0
    2.0826   -1.1983    0.0015 H   0  0  0  0  0  0  0  0  0  0  0  0
    1.1971    0.6930    0.0004 C   0  0  0  0  0  0  0  0  0  0  0  0
    2.0656    1.1872    0.0002 H   0  0  0  0  0  0  0  0  0  0  0  0
  1  5  1  0
  5  6  1  0
  5  7  2  0
  1  2  1  0
  1  3  1  0
  1  4  1  0
  8 12  1  0
 12 13  2  0
 13 15  1  0
 15 17  2  0
 17 19  1  0
 19 21  2  0
 21 12  1  0
  8  9  1  0
  8 10  1  0
  8 11  1  0
 13 14  1  0
 15 16  1  0
 17 18  1  0
 19 20  1  0
 21 22  1  0
M  CHG  1   6  -1
M  END
>  <PDB_ID>  (956) 
pdb1rz4

>  <RESIDUE_NAME>  (956) 
GLU   PHE

>  <FRAG_NAME>  (956) 
ACET   MBZ

>  <FRAG_ATOM_NUM>  (956) 
fragi: 7  fragj: 15

>  <atom.prop.CHAIN_ID>  (956) 
A A A A A A A Z Z Z Z Z Z Z Z Z Z Z Z Z Z Z

>  <atom.prop.IS_HEAVY_ATOM>  (956) 
1 0 0 0 1 1 1 1 0 0 0 1 1 0 1 0 1 0 1 0 1 0

>  <DIFUSE_FUNC_ATOM>  (956) 
atom 6   atom 7   

>  <FINAL_SINGLE_POINT_ENERGY>  (956) 
0

>  <NONCOV_INTER_ENERGY_QM>  (956) 
0

>  <FF_Energy>  (956) 
-1.99

>  <QM_Energy>  (956) 
-7.43

>  <source>  (956) 
ACET_MBZ_00

>  <Index>  (956) 
35277

$$$$
ACET-pdb1s1m-B-ASP-206:MBZ-pdb1s1m-B-PHE-171
     RDKit          3D

 22 21  0  0  0  0  0  0  0  0999 V2000
   -3.9244    5.6973    0.1614 C   0  0  0  0  0  0  0  0  0  0  0  0
   -3.2765    5.7741    0.9184 H   0  0  0  0  0  0  0  0  0  0  0  0
   -4.7788    6.1536    0.4048 H   0  0  0  0  0  0  0  0  0  0  0  0
   -3.4990    6.2298   -0.6893 H   0  0  0  0  0  0  0  0  0  0  0  0
   -4.2033    4.2358   -0.1002 C   0  0  0  0  0  0  0  0  0  0  0  0
   -5.1805    3.8674   -0.7130 O   0  0  0  0  0  1  0  0  0  0  0  0
   -3.3211    3.4038    0.4237 O   0  0  0  0  0  0  0  0  0  0  0  0
    0.0187    2.9314   -0.0442 C   0  0  0  0  0  0  0  0  0  0  0  0
   -0.7752    3.2284   -0.5419 H   0  0  0  0  0  0  0  0  0  0  0  0
    0.8557    3.2185   -0.4718 H   0  0  0  0  0  0  0  0  0  0  0  0
   -0.0211    3.3812    0.9479 H   0  0  0  0  0  0  0  0  0  0  0  0
    0.0080    1.4186   -0.0072 C   0  0  0  0  0  0  0  0  0  0  0  0
   -1.1938    0.7095   -0.0162 C   0  0  0  0  0  0  0  0  0  0  0  0
   -2.0582    1.2008   -0.0360 H   0  0  0  0  0  0  0  0  0  0  0  0
   -1.2034   -0.6869   -0.0000 C   0  0  0  0  0  0  0  0  0  0  0  0
   -2.0875   -1.1729    0.0084 H   0  0  0  0  0  0  0  0  0  0  0  0
   -0.0086   -1.4052    0.0067 C   0  0  0  0  0  0  0  0  0  0  0  0
   -0.0249   -2.3992    0.0154 H   0  0  0  0  0  0  0  0  0  0  0  0
    1.2034   -0.7170    0.0000 C   0  0  0  0  0  0  0  0  0  0  0  0
    2.0772   -1.2129   -0.0151 H   0  0  0  0  0  0  0  0  0  0  0  0
    1.1944    0.6810    0.0167 C   0  0  0  0  0  0  0  0  0  0  0  0
    2.0734    1.1721    0.0465 H   0  0  0  0  0  0  0  0  0  0  0  0
  1  5  1  0
  5  6  1  0
  5  7  2  0
  1  2  1  0
  1  3  1  0
  1  4  1  0
  8 12  1  0
 12 13  2  0
 13 15  1  0
 15 17  2  0
 17 19  1  0
 19 21  2  0
 21 12  1  0
  8  9  1  0
  8 10  1  0
  8 11  1  0
 13 14  1  0
 15 16  1  0
 17 18  1  0
 19 20  1  0
 21 22  1  0
M  CHG  1   6  -1
M  END
>  <PDB_ID>  (957) 
pdb1s1m

>  <RESIDUE_NAME>  (957) 
ASP   PHE

>  <FRAG_NAME>  (957) 
ACET   MBZ

>  <FRAG_ATOM_NUM>  (957) 
fragi: 7  fragj: 15

>  <atom.prop.CHAIN_ID>  (957) 
A A A A A A A Z Z Z Z Z Z Z Z Z Z Z Z Z Z Z

>  <atom.prop.IS_HEAVY_ATOM>  (957) 
1 0 0 0 1 1 1 1 0 0 0 1 1 0 1 0 1 0 1 0 1 0

>  <DIFUSE_FUNC_ATOM>  (957) 
atom 6   atom 7   

>  <FINAL_SINGLE_POINT_ENERGY>  (957) 
0

>  <NONCOV_INTER_ENERGY_QM>  (957) 
0

>  <FF_Energy>  (957) 
-2.18

>  <QM_Energy>  (957) 
-7.9

>  <source>  (957) 
ACET_MBZ_00

>  <Index>  (957) 
35370

$$$$
ACET-pdb1s2d-A-ASP-46:MBZ-pdb1s2d-A-PHE-43
     RDKit          3D

 22 21  0  0  0  0  0  0  0  0999 V2000
    4.3290    4.0360    1.3066 C   0  0  0  0  0  0  0  0  0  0  0  0
    3.5362    4.4451    1.7452 H   0  0  0  0  0  0  0  0  0  0  0  0
    5.0397    4.7171    1.1724 H   0  0  0  0  0  0  0  0  0  0  0  0
    4.7213    3.2681    1.9733 H   0  0  0  0  0  0  0  0  0  0  0  0
    3.9112    3.4914   -0.0491 C   0  0  0  0  0  0  0  0  0  0  0  0
    4.1739    2.3057   -0.3331 O   0  0  0  0  0  1  0  0  0  0  0  0
    3.3242    4.2631   -0.8427 O   0  0  0  0  0  0  0  0  0  0  0  0
   -0.0113    2.9131    0.0075 C   0  0  0  0  0  0  0  0  0  0  0  0
   -0.4562    3.2181   -0.8180 H   0  0  0  0  0  0  0  0  0  0  0  0
    0.9242    3.2233    0.0546 H   0  0  0  0  0  0  0  0  0  0  0  0
   -0.5486    3.3395    0.8546 H   0  0  0  0  0  0  0  0  0  0  0  0
   -0.0014    1.4052   -0.0000 C   0  0  0  0  0  0  0  0  0  0  0  0
   -1.1989    0.6915   -0.0005 C   0  0  0  0  0  0  0  0  0  0  0  0
   -2.0664    1.1817   -0.0028 H   0  0  0  0  0  0  0  0  0  0  0  0
   -1.2053   -0.7010   -0.0000 C   0  0  0  0  0  0  0  0  0  0  0  0
   -2.0797   -1.1953    0.0018 H   0  0  0  0  0  0  0  0  0  0  0  0
    0.0013   -1.3990   -0.0005 C   0  0  0  0  0  0  0  0  0  0  0  0
   -0.0009   -2.3957   -0.0022 H   0  0  0  0  0  0  0  0  0  0  0  0
    1.2053   -0.6970    0.0000 C   0  0  0  0  0  0  0  0  0  0  0  0
    2.0867   -1.1925    0.0014 H   0  0  0  0  0  0  0  0  0  0  0  0
    1.1989    0.7002    0.0010 C   0  0  0  0  0  0  0  0  0  0  0  0
    2.0651    1.1950    0.0014 H   0  0  0  0  0  0  0  0  0  0  0  0
  1  5  1  0
  5  6  1  0
  5  7  2  0
  1  2  1  0
  1  3  1  0
  1  4  1  0
  8 12  1  0
 12 13  2  0
 13 15  1  0
 15 17  2  0
 17 19  1  0
 19 21  2  0
 21 12  1  0
  8  9  1  0
  8 10  1  0
  8 11  1  0
 13 14  1  0
 15 16  1  0
 17 18  1  0
 19 20  1  0
 21 22  1  0
M  CHG  1   6  -1
M  END
>  <PDB_ID>  (958) 
pdb1s2d

>  <RESIDUE_NAME>  (958) 
ASP   PHE

>  <FRAG_NAME>  (958) 
ACET   MBZ

>  <FRAG_ATOM_NUM>  (958) 
fragi: 7  fragj: 15

>  <atom.prop.CHAIN_ID>  (958) 
A A A A A A A Z Z Z Z Z Z Z Z Z Z Z Z Z Z Z

>  <atom.prop.IS_HEAVY_ATOM>  (958) 
1 0 0 0 1 1 1 1 0 0 0 1 1 0 1 0 1 0 1 0 1 0

>  <DIFUSE_FUNC_ATOM>  (958) 
atom 6   atom 7   

>  <FINAL_SINGLE_POINT_ENERGY>  (958) 
0

>  <NONCOV_INTER_ENERGY_QM>  (958) 
0

>  <FF_Energy>  (958) 
-2.67

>  <QM_Energy>  (958) 
-8.17

>  <source>  (958) 
ACET_MBZ_00

>  <Index>  (958) 
35391

$$$$
ACET-pdb1s2d-C-ASP-46:MBZ-pdb1s2d-C-PHE-43
     RDKit          3D

 22 21  0  0  0  0  0  0  0  0999 V2000
    4.3868    4.0190    1.2637 C   0  0  0  0  0  0  0  0  0  0  0  0
    3.7366    4.3994    1.9116 H   0  0  0  0  0  0  0  0  0  0  0  0
    5.1362    4.6528    1.1099 H   0  0  0  0  0  0  0  0  0  0  0  0
    4.7999    3.1084    1.6975 H   0  0  0  0  0  0  0  0  0  0  0  0
    3.6763    3.7725   -0.0526 C   0  0  0  0  0  0  0  0  0  0  0  0
    3.8201    2.6639   -0.6171 O   0  0  0  0  0  1  0  0  0  0  0  0
    2.9839    4.6958   -0.5290 O   0  0  0  0  0  0  0  0  0  0  0  0
   -0.0093    2.9066    0.0006 C   0  0  0  0  0  0  0  0  0  0  0  0
   -0.5023    3.2096   -0.8006 H   0  0  0  0  0  0  0  0  0  0  0  0
    0.9285    3.2164   -0.0120 H   0  0  0  0  0  0  0  0  0  0  0  0
   -0.4937    3.3382    0.8765 H   0  0  0  0  0  0  0  0  0  0  0  0
   -0.0011    1.4043   -0.0005 C   0  0  0  0  0  0  0  0  0  0  0  0
   -1.1957    0.6963   -0.0011 C   0  0  0  0  0  0  0  0  0  0  0  0
   -2.0639    1.1843   -0.0037 H   0  0  0  0  0  0  0  0  0  0  0  0
   -1.2036   -0.7005    0.0000 C   0  0  0  0  0  0  0  0  0  0  0  0
   -2.0796   -1.1901    0.0016 H   0  0  0  0  0  0  0  0  0  0  0  0
    0.0006   -1.3985    0.0004 C   0  0  0  0  0  0  0  0  0  0  0  0
   -0.0024   -2.3951    0.0006 H   0  0  0  0  0  0  0  0  0  0  0  0
    1.2036   -0.6978   -0.0000 C   0  0  0  0  0  0  0  0  0  0  0  0
    2.0843   -1.1938    0.0006 H   0  0  0  0  0  0  0  0  0  0  0  0
    1.1963    0.6961    0.0011 C   0  0  0  0  0  0  0  0  0  0  0  0
    2.0648    1.1927    0.0023 H   0  0  0  0  0  0  0  0  0  0  0  0
  1  5  1  0
  5  6  1  0
  5  7  2  0
  1  2  1  0
  1  3  1  0
  1  4  1  0
  8 12  1  0
 12 13  2  0
 13 15  1  0
 15 17  2  0
 17 19  1  0
 19 21  2  0
 21 12  1  0
  8  9  1  0
  8 10  1  0
  8 11  1  0
 13 14  1  0
 15 16  1  0
 17 18  1  0
 19 20  1  0
 21 22  1  0
M  CHG  1   6  -1
M  END
>  <PDB_ID>  (959) 
pdb1s2d

>  <RESIDUE_NAME>  (959) 
ASP   PHE

>  <FRAG_NAME>  (959) 
ACET   MBZ

>  <FRAG_ATOM_NUM>  (959) 
fragi: 7  fragj: 15

>  <atom.prop.CHAIN_ID>  (959) 
A A A A A A A Z Z Z Z Z Z Z Z Z Z Z Z Z Z Z

>  <atom.prop.IS_HEAVY_ATOM>  (959) 
1 0 0 0 1 1 1 1 0 0 0 1 1 0 1 0 1 0 1 0 1 0

>  <DIFUSE_FUNC_ATOM>  (959) 
atom 6   atom 7   

>  <FINAL_SINGLE_POINT_ENERGY>  (959) 
0

>  <NONCOV_INTER_ENERGY_QM>  (959) 
0

>  <FF_Energy>  (959) 
-2.35

>  <QM_Energy>  (959) 
-8.53

>  <source>  (959) 
ACET_MBZ_00

>  <Index>  (959) 
35393

$$$$
ACET-pdb2y7j-C-ASP-153:MBZ-pdb2y7j-C-PHE-174
     RDKit          3D

 22 21  0  0  0  0  0  0  0  0999 V2000
    4.1988    2.5197    0.2758 C   0  0  0  0  0  0  0  0  0  0  0  0
    3.2390    2.4750    0.5684 H   0  0  0  0  0  0  0  0  0  0  0  0
    4.2463    3.0029   -0.6025 H   0  0  0  0  0  0  0  0  0  0  0  0
    4.7338    3.1236    1.0087 H   0  0  0  0  0  0  0  0  0  0  0  0
    4.7203    1.1137    0.0907 C   0  0  0  0  0  0  0  0  0  0  0  0
    5.1739    0.5081    1.0952 O   0  0  0  0  0  1  0  0  0  0  0  0
    4.6815    0.6175   -1.0584 O   0  0  0  0  0  0  0  0  0  0  0  0
   -0.0021    2.9084    0.0132 C   0  0  0  0  0  0  0  0  0  0  0  0
    0.9047    3.2194   -0.2209 H   0  0  0  0  0  0  0  0  0  0  0  0
   -0.2669    3.2026    0.9177 H   0  0  0  0  0  0  0  0  0  0  0  0
   -0.6995    3.3508   -0.6981 H   0  0  0  0  0  0  0  0  0  0  0  0
   -0.0002    1.4058   -0.0068 C   0  0  0  0  0  0  0  0  0  0  0  0
   -1.1931    0.6912    0.0193 C   0  0  0  0  0  0  0  0  0  0  0  0
   -2.0622    1.1741    0.0510 H   0  0  0  0  0  0  0  0  0  0  0  0
   -1.1932   -0.7069   -0.0000 C   0  0  0  0  0  0  0  0  0  0  0  0
   -2.0721   -1.1960   -0.0112 H   0  0  0  0  0  0  0  0  0  0  0  0
    0.0008   -1.3905   -0.0011 C   0  0  0  0  0  0  0  0  0  0  0  0
    0.0018   -2.3944   -0.0031 H   0  0  0  0  0  0  0  0  0  0  0  0
    1.1932   -0.6967    0.0000 C   0  0  0  0  0  0  0  0  0  0  0  0
    2.0792   -1.1913    0.0098 H   0  0  0  0  0  0  0  0  0  0  0  0
    1.1925    0.6972   -0.0114 C   0  0  0  0  0  0  0  0  0  0  0  0
    2.0627    1.1881   -0.0237 H   0  0  0  0  0  0  0  0  0  0  0  0
  1  5  1  0
  5  6  1  0
  5  7  2  0
  1  2  1  0
  1  3  1  0
  1  4  1  0
  8 12  1  0
 12 13  2  0
 13 15  1  0
 15 17  2  0
 17 19  1  0
 19 21  2  0
 21 12  1  0
  8  9  1  0
  8 10  1  0
  8 11  1  0
 13 14  1  0
 15 16  1  0
 17 18  1  0
 19 20  1  0
 21 22  1  0
M  CHG  1   6  -1
M  END
>  <PDB_ID>  (960) 
pdb2y7j

>  <RESIDUE_NAME>  (960) 
ASP   PHE

>  <FRAG_NAME>  (960) 
ACET   MBZ

>  <FRAG_ATOM_NUM>  (960) 
fragi: 7  fragj: 15

>  <atom.prop.CHAIN_ID>  (960) 
A A A A A A A Z Z Z Z Z Z Z Z Z Z Z Z Z Z Z

>  <atom.prop.IS_HEAVY_ATOM>  (960) 
1 0 0 0 1 1 1 1 0 0 0 1 1 0 1 0 1 0 1 0 1 0

>  <DIFUSE_FUNC_ATOM>  (960) 
atom 6   atom 7   

>  <FINAL_SINGLE_POINT_ENERGY>  (960) 
0

>  <NONCOV_INTER_ENERGY_QM>  (960) 
0

>  <FF_Energy>  (960) 
1.0

>  <QM_Energy>  (960) 
-4.02

>  <source>  (960) 
ACET_MBZ_00

>  <Index>  (960) 
35475

$$$$
ACET-pdb2y7j-D-GLU-56:MBZ-pdb2y7j-D-PHE-102
     RDKit          3D

 22 21  0  0  0  0  0  0  0  0999 V2000
   -5.5911    0.4270   -0.8771 C   0  0  0  0  0  0  0  0  0  0  0  0
   -6.5314    0.0915   -0.7541 H   0  0  0  0  0  0  0  0  0  0  0  0
   -5.4817    0.7298   -1.8300 H   0  0  0  0  0  0  0  0  0  0  0  0
   -5.4639    1.2985   -0.2349 H   0  0  0  0  0  0  0  0  0  0  0  0
   -4.6638   -0.7524   -0.6724 C   0  0  0  0  0  0  0  0  0  0  0  0
   -4.2869   -1.0156    0.4932 O   0  0  0  0  0  1  0  0  0  0  0  0
   -4.3860   -1.4662   -1.6652 O   0  0  0  0  0  0  0  0  0  0  0  0
    0.0052    2.8918   -0.0042 C   0  0  0  0  0  0  0  0  0  0  0  0
    0.9637    3.1962    0.0586 H   0  0  0  0  0  0  0  0  0  0  0  0
   -0.4773    3.1956    0.8259 H   0  0  0  0  0  0  0  0  0  0  0  0
   -0.4456    3.4121   -0.8493 H   0  0  0  0  0  0  0  0  0  0  0  0
    0.0001    1.3962   -0.0145 C   0  0  0  0  0  0  0  0  0  0  0  0
   -1.1951    0.6898    0.0257 C   0  0  0  0  0  0  0  0  0  0  0  0
   -2.0596    1.1765    0.0721 H   0  0  0  0  0  0  0  0  0  0  0  0
   -1.1919   -0.6991   -0.0000 C   0  0  0  0  0  0  0  0  0  0  0  0
   -2.0702   -1.1949   -0.0119 H   0  0  0  0  0  0  0  0  0  0  0  0
    0.0032   -1.3807   -0.0070 C   0  0  0  0  0  0  0  0  0  0  0  0
    0.0005   -2.3871   -0.0175 H   0  0  0  0  0  0  0  0  0  0  0  0
    1.1919   -0.6945    0.0000 C   0  0  0  0  0  0  0  0  0  0  0  0
    2.0775   -1.1936    0.0098 H   0  0  0  0  0  0  0  0  0  0  0  0
    1.1918    0.6883   -0.0041 C   0  0  0  0  0  0  0  0  0  0  0  0
    2.0616    1.1848   -0.0005 H   0  0  0  0  0  0  0  0  0  0  0  0
  1  5  1  0
  5  6  1  0
  5  7  2  0
  1  2  1  0
  1  3  1  0
  1  4  1  0
  8 12  1  0
 12 13  2  0
 13 15  1  0
 15 17  2  0
 17 19  1  0
 19 21  2  0
 21 12  1  0
  8  9  1  0
  8 10  1  0
  8 11  1  0
 13 14  1  0
 15 16  1  0
 17 18  1  0
 19 20  1  0
 21 22  1  0
M  CHG  1   6  -1
M  END
>  <PDB_ID>  (961) 
pdb2y7j

>  <RESIDUE_NAME>  (961) 
GLU   PHE

>  <FRAG_NAME>  (961) 
ACET   MBZ

>  <FRAG_ATOM_NUM>  (961) 
fragi: 7  fragj: 15

>  <atom.prop.CHAIN_ID>  (961) 
A A A A A A A Z Z Z Z Z Z Z Z Z Z Z Z Z Z Z

>  <atom.prop.IS_HEAVY_ATOM>  (961) 
1 0 0 0 1 1 1 1 0 0 0 1 1 0 1 0 1 0 1 0 1 0

>  <DIFUSE_FUNC_ATOM>  (961) 
atom 6   atom 7   

>  <FINAL_SINGLE_POINT_ENERGY>  (961) 
0

>  <NONCOV_INTER_ENERGY_QM>  (961) 
0

>  <FF_Energy>  (961) 
-1.56

>  <QM_Energy>  (961) 
-6.9

>  <source>  (961) 
ACET_MBZ_00

>  <Index>  (961) 
35512

$$$$
ACET-pdb2y8o-A-GLU-286:MBZ-pdb2y8o-A-PHE-270
     RDKit          3D

 22 21  0  0  0  0  0  0  0  0999 V2000
    1.1662    1.7990   -3.4854 C   0  0  0  0  0  0  0  0  0  0  0  0
    1.5168    1.7875   -2.5702 H   0  0  0  0  0  0  0  0  0  0  0  0
    1.3280    2.6501   -3.9437 H   0  0  0  0  0  0  0  0  0  0  0  0
    1.6563    1.0058   -4.0499 H   0  0  0  0  0  0  0  0  0  0  0  0
   -0.3522    1.6108   -3.3959 C   0  0  0  0  0  0  0  0  0  0  0  0
   -0.8198    0.4603   -3.5658 O   0  0  0  0  0  1  0  0  0  0  0  0
   -1.0790    2.6066   -3.1555 O   0  0  0  0  0  0  0  0  0  0  0  0
    0.0101    2.9120   -0.0047 C   0  0  0  0  0  0  0  0  0  0  0  0
    0.0615    3.2083   -0.9493 H   0  0  0  0  0  0  0  0  0  0  0  0
    0.8056    3.2143    0.5043 H   0  0  0  0  0  0  0  0  0  0  0  0
   -0.8660    3.3826    0.4415 H   0  0  0  0  0  0  0  0  0  0  0  0
   -0.0074    1.4064    0.0116 C   0  0  0  0  0  0  0  0  0  0  0  0
   -1.1972    0.6993   -0.0058 C   0  0  0  0  0  0  0  0  0  0  0  0
   -2.0678    1.1823   -0.0236 H   0  0  0  0  0  0  0  0  0  0  0  0
   -1.2015   -0.7005   -0.0000 C   0  0  0  0  0  0  0  0  0  0  0  0
   -2.0745   -1.1926    0.0084 H   0  0  0  0  0  0  0  0  0  0  0  0
    0.0086   -1.3983   -0.0043 C   0  0  0  0  0  0  0  0  0  0  0  0
    0.0003   -2.3958   -0.0107 H   0  0  0  0  0  0  0  0  0  0  0  0
    1.2015   -0.7004    0.0000 C   0  0  0  0  0  0  0  0  0  0  0  0
    2.0872   -1.1933    0.0053 H   0  0  0  0  0  0  0  0  0  0  0  0
    1.1960    0.6935   -0.0015 C   0  0  0  0  0  0  0  0  0  0  0  0
    2.0613    1.1917   -0.0130 H   0  0  0  0  0  0  0  0  0  0  0  0
  1  5  1  0
  5  6  1  0
  5  7  2  0
  1  2  1  0
  1  3  1  0
  1  4  1  0
  8 12  1  0
 12 13  2  0
 13 15  1  0
 15 17  2  0
 17 19  1  0
 19 21  2  0
 21 12  1  0
  8  9  1  0
  8 10  1  0
  8 11  1  0
 13 14  1  0
 15 16  1  0
 17 18  1  0
 19 20  1  0
 21 22  1  0
M  CHG  1   6  -1
M  END
>  <PDB_ID>  (962) 
pdb2y8o

>  <RESIDUE_NAME>  (962) 
GLU   PHE

>  <FRAG_NAME>  (962) 
ACET   MBZ

>  <FRAG_ATOM_NUM>  (962) 
fragi: 7  fragj: 15

>  <atom.prop.CHAIN_ID>  (962) 
A A A A A A A Z Z Z Z Z Z Z Z Z Z Z Z Z Z Z

>  <atom.prop.IS_HEAVY_ATOM>  (962) 
1 0 0 0 1 1 1 1 0 0 0 1 1 0 1 0 1 0 1 0 1 0

>  <DIFUSE_FUNC_ATOM>  (962) 
atom 6   atom 7   

>  <FINAL_SINGLE_POINT_ENERGY>  (962) 
0

>  <NONCOV_INTER_ENERGY_QM>  (962) 
0

>  <FF_Energy>  (962) 
1.78

>  <QM_Energy>  (962) 
-3.91

>  <source>  (962) 
ACET_MBZ_00

>  <Index>  (962) 
35535

$$$$
ACET-pdb2y7i-A-GLU-196:MBZ-pdb2y7i-A-PHE-124
     RDKit          3D

 22 21  0  0  0  0  0  0  0  0999 V2000
    4.3681    0.9726   -2.2029 C   0  0  0  0  0  0  0  0  0  0  0  0
    4.0172    0.1463   -1.7850 H   0  0  0  0  0  0  0  0  0  0  0  0
    5.3546    0.9445   -2.2746 H   0  0  0  0  0  0  0  0  0  0  0  0
    3.9639    1.0273   -3.2137 H   0  0  0  0  0  0  0  0  0  0  0  0
    4.0027    2.1378   -1.3050 C   0  0  0  0  0  0  0  0  0  0  0  0
    3.2477    3.0489   -1.7238 O   0  0  0  0  0  1  0  0  0  0  0  0
    4.4754    2.1359   -0.1496 O   0  0  0  0  0  0  0  0  0  0  0  0
    0.0068    2.9201   -0.0092 C   0  0  0  0  0  0  0  0  0  0  0  0
    0.9393    3.2196    0.1027 H   0  0  0  0  0  0  0  0  0  0  0  0
   -0.5660    3.2242    0.7338 H   0  0  0  0  0  0  0  0  0  0  0  0
   -0.3793    3.3520   -0.9326 H   0  0  0  0  0  0  0  0  0  0  0  0
    0.0049    1.4051   -0.0036 C   0  0  0  0  0  0  0  0  0  0  0  0
   -1.1989    0.6958    0.0008 C   0  0  0  0  0  0  0  0  0  0  0  0
   -2.0624    1.1907    0.0033 H   0  0  0  0  0  0  0  0  0  0  0  0
   -1.2069   -0.6943    0.0000 C   0  0  0  0  0  0  0  0  0  0  0  0
   -2.0857   -1.1863    0.0009 H   0  0  0  0  0  0  0  0  0  0  0  0
   -0.0072   -1.3995   -0.0001 C   0  0  0  0  0  0  0  0  0  0  0  0
   -0.0118   -2.3948   -0.0006 H   0  0  0  0  0  0  0  0  0  0  0  0
    1.2069   -0.7019    0.0000 C   0  0  0  0  0  0  0  0  0  0  0  0
    2.0813   -1.2012   -0.0005 H   0  0  0  0  0  0  0  0  0  0  0  0
    1.2011    0.6947    0.0030 C   0  0  0  0  0  0  0  0  0  0  0  0
    2.0705    1.1887    0.0089 H   0  0  0  0  0  0  0  0  0  0  0  0
  1  5  1  0
  5  6  1  0
  5  7  2  0
  1  2  1  0
  1  3  1  0
  1  4  1  0
  8 12  1  0
 12 13  2  0
 13 15  1  0
 15 17  2  0
 17 19  1  0
 19 21  2  0
 21 12  1  0
  8  9  1  0
  8 10  1  0
  8 11  1  0
 13 14  1  0
 15 16  1  0
 17 18  1  0
 19 20  1  0
 21 22  1  0
M  CHG  1   6  -1
M  END
>  <PDB_ID>  (963) 
pdb2y7i

>  <RESIDUE_NAME>  (963) 
GLU   PHE

>  <FRAG_NAME>  (963) 
ACET   MBZ

>  <FRAG_ATOM_NUM>  (963) 
fragi: 7  fragj: 15

>  <atom.prop.CHAIN_ID>  (963) 
A A A A A A A Z Z Z Z Z Z Z Z Z Z Z Z Z Z Z

>  <atom.prop.IS_HEAVY_ATOM>  (963) 
1 0 0 0 1 1 1 1 0 0 0 1 1 0 1 0 1 0 1 0 1 0

>  <DIFUSE_FUNC_ATOM>  (963) 
atom 6   atom 7   

>  <FINAL_SINGLE_POINT_ENERGY>  (963) 
0

>  <NONCOV_INTER_ENERGY_QM>  (963) 
0

>  <FF_Energy>  (963) 
-1.86

>  <QM_Energy>  (963) 
-7.73

>  <source>  (963) 
ACET_MBZ_00

>  <Index>  (963) 
35553

$$$$
ACET-pdb2y8u-A-ASP-47:MBZ-pdb2y8u-A-PHE-71
     RDKit          3D

 22 21  0  0  0  0  0  0  0  0999 V2000
    3.5980    5.3423    2.2024 C   0  0  0  0  0  0  0  0  0  0  0  0
    4.5006    5.5480    2.5684 H   0  0  0  0  0  0  0  0  0  0  0  0
    2.9182    5.9480    2.6018 H   0  0  0  0  0  0  0  0  0  0  0  0
    3.6160    5.5036    1.1246 H   0  0  0  0  0  0  0  0  0  0  0  0
    3.2421    3.9012    2.5952 C   0  0  0  0  0  0  0  0  0  0  0  0
    3.0150    3.0782    1.6730 O   0  0  0  0  0  1  0  0  0  0  0  0
    3.2575    3.6073    3.8530 O   0  0  0  0  0  0  0  0  0  0  0  0
    0.0233    2.9039    0.0410 C   0  0  0  0  0  0  0  0  0  0  0  0
    0.9189    3.1995    0.3383 H   0  0  0  0  0  0  0  0  0  0  0  0
   -0.6799    3.2025    0.6693 H   0  0  0  0  0  0  0  0  0  0  0  0
   -0.1760    3.3658   -0.9259 H   0  0  0  0  0  0  0  0  0  0  0  0
    0.0120    1.4169   -0.0018 C   0  0  0  0  0  0  0  0  0  0  0  0
   -1.2116    0.7017    0.0145 C   0  0  0  0  0  0  0  0  0  0  0  0
   -2.0650    1.2079    0.0351 H   0  0  0  0  0  0  0  0  0  0  0  0
   -1.2233   -0.6821   -0.0000 C   0  0  0  0  0  0  0  0  0  0  0  0
   -2.1040   -1.1755    0.0060 H   0  0  0  0  0  0  0  0  0  0  0  0
   -0.0243   -1.4002   -0.0212 C   0  0  0  0  0  0  0  0  0  0  0  0
   -0.0470   -2.4019   -0.0523 H   0  0  0  0  0  0  0  0  0  0  0  0
    1.2233   -0.7381    0.0000 C   0  0  0  0  0  0  0  0  0  0  0  0
    2.0776   -1.2307    0.0106 H   0  0  0  0  0  0  0  0  0  0  0  0
    1.2239    0.7018    0.0085 C   0  0  0  0  0  0  0  0  0  0  0  0
    2.0888    1.1777    0.0209 H   0  0  0  0  0  0  0  0  0  0  0  0
  1  5  1  0
  5  6  1  0
  5  7  2  0
  1  2  1  0
  1  3  1  0
  1  4  1  0
  8 12  1  0
 12 13  2  0
 13 15  1  0
 15 17  2  0
 17 19  1  0
 19 21  2  0
 21 12  1  0
  8  9  1  0
  8 10  1  0
  8 11  1  0
 13 14  1  0
 15 16  1  0
 17 18  1  0
 19 20  1  0
 21 22  1  0
M  CHG  1   6  -1
M  END
>  <PDB_ID>  (964) 
pdb2y8u

>  <RESIDUE_NAME>  (964) 
ASP   PHE

>  <FRAG_NAME>  (964) 
ACET   MBZ

>  <FRAG_ATOM_NUM>  (964) 
fragi: 7  fragj: 15

>  <atom.prop.CHAIN_ID>  (964) 
A A A A A A A Z Z Z Z Z Z Z Z Z Z Z Z Z Z Z

>  <atom.prop.IS_HEAVY_ATOM>  (964) 
1 0 0 0 1 1 1 1 0 0 0 1 1 0 1 0 1 0 1 0 1 0

>  <DIFUSE_FUNC_ATOM>  (964) 
atom 6   atom 7   

>  <FINAL_SINGLE_POINT_ENERGY>  (964) 
0

>  <NONCOV_INTER_ENERGY_QM>  (964) 
0

>  <FF_Energy>  (964) 
-1.1

>  <QM_Energy>  (964) 
-6.42

>  <source>  (964) 
ACET_MBZ_00

>  <Index>  (964) 
35563

$$$$
ACET-pdb2y7i-B-GLU-196:MBZ-pdb2y7i-B-PHE-124
     RDKit          3D

 22 21  0  0  0  0  0  0  0  0999 V2000
    4.6504    0.7436   -2.0722 C   0  0  0  0  0  0  0  0  0  0  0  0
    4.3939   -0.0880   -1.6122 H   0  0  0  0  0  0  0  0  0  0  0  0
    5.6243    0.8058   -2.2055 H   0  0  0  0  0  0  0  0  0  0  0  0
    4.1768    0.7414   -3.0540 H   0  0  0  0  0  0  0  0  0  0  0  0
    4.2289    1.9084   -1.1939 C   0  0  0  0  0  0  0  0  0  0  0  0
    3.4272    2.7576   -1.6375 O   0  0  0  0  0  1  0  0  0  0  0  0
    4.7043    1.9749   -0.0425 O   0  0  0  0  0  0  0  0  0  0  0  0
    0.0014    2.9035    0.0009 C   0  0  0  0  0  0  0  0  0  0  0  0
    0.9218    3.2098    0.1918 H   0  0  0  0  0  0  0  0  0  0  0  0
   -0.6300    3.2096    0.6970 H   0  0  0  0  0  0  0  0  0  0  0  0
   -0.3077    3.3435   -0.9472 H   0  0  0  0  0  0  0  0  0  0  0  0
    0.0009    1.4037   -0.0012 C   0  0  0  0  0  0  0  0  0  0  0  0
   -1.1975    0.6969   -0.0009 C   0  0  0  0  0  0  0  0  0  0  0  0
   -2.0643    1.1860   -0.0022 H   0  0  0  0  0  0  0  0  0  0  0  0
   -1.2061   -0.7008    0.0000 C   0  0  0  0  0  0  0  0  0  0  0  0
   -2.0820   -1.1902    0.0012 H   0  0  0  0  0  0  0  0  0  0  0  0
   -0.0012   -1.3994    0.0010 C   0  0  0  0  0  0  0  0  0  0  0  0
   -0.0024   -2.3950    0.0025 H   0  0  0  0  0  0  0  0  0  0  0  0
    1.2061   -0.6975   -0.0000 C   0  0  0  0  0  0  0  0  0  0  0  0
    2.0854   -1.1936   -0.0002 H   0  0  0  0  0  0  0  0  0  0  0  0
    1.1978    0.6970    0.0010 C   0  0  0  0  0  0  0  0  0  0  0  0
    2.0660    1.1938    0.0027 H   0  0  0  0  0  0  0  0  0  0  0  0
  1  5  1  0
  5  6  1  0
  5  7  2  0
  1  2  1  0
  1  3  1  0
  1  4  1  0
  8 12  1  0
 12 13  2  0
 13 15  1  0
 15 17  2  0
 17 19  1  0
 19 21  2  0
 21 12  1  0
  8  9  1  0
  8 10  1  0
  8 11  1  0
 13 14  1  0
 15 16  1  0
 17 18  1  0
 19 20  1  0
 21 22  1  0
M  CHG  1   6  -1
M  END
>  <PDB_ID>  (965) 
pdb2y7i

>  <RESIDUE_NAME>  (965) 
GLU   PHE

>  <FRAG_NAME>  (965) 
ACET   MBZ

>  <FRAG_ATOM_NUM>  (965) 
fragi: 7  fragj: 15

>  <atom.prop.CHAIN_ID>  (965) 
A A A A A A A Z Z Z Z Z Z Z Z Z Z Z Z Z Z Z

>  <atom.prop.IS_HEAVY_ATOM>  (965) 
1 0 0 0 1 1 1 1 0 0 0 1 1 0 1 0 1 0 1 0 1 0

>  <DIFUSE_FUNC_ATOM>  (965) 
atom 6   atom 7   

>  <FINAL_SINGLE_POINT_ENERGY>  (965) 
0

>  <NONCOV_INTER_ENERGY_QM>  (965) 
0

>  <FF_Energy>  (965) 
-2.04

>  <QM_Energy>  (965) 
-7.26

>  <source>  (965) 
ACET_MBZ_00

>  <Index>  (965) 
35677

$$$$
ACET-pdb1s6b-A-ASP-94:MBZ-pdb1s6b-A-PHE-5
     RDKit          3D

 22 21  0  0  0  0  0  0  0  0999 V2000
   -3.2486    1.9911   -2.6042 C   0  0  0  0  0  0  0  0  0  0  0  0
   -3.9343    2.5764   -3.0290 H   0  0  0  0  0  0  0  0  0  0  0  0
   -3.3025    2.0679   -1.6131 H   0  0  0  0  0  0  0  0  0  0  0  0
   -3.4740    0.9594   -2.8741 H   0  0  0  0  0  0  0  0  0  0  0  0
   -1.8859    2.4279   -3.0562 C   0  0  0  0  0  0  0  0  0  0  0  0
   -1.1376    1.5545   -3.5556 O   0  0  0  0  0  1  0  0  0  0  0  0
   -1.5216    3.6240   -2.9452 O   0  0  0  0  0  0  0  0  0  0  0  0
    0.0601    2.8970   -0.0193 C   0  0  0  0  0  0  0  0  0  0  0  0
   -0.1902    3.2014   -0.9271 H   0  0  0  0  0  0  0  0  0  0  0  0
    0.9808    3.1775    0.2111 H   0  0  0  0  0  0  0  0  0  0  0  0
   -0.6157    3.3797    0.6867 H   0  0  0  0  0  0  0  0  0  0  0  0
    0.0100    1.3928    0.0009 C   0  0  0  0  0  0  0  0  0  0  0  0
   -1.1846    0.6878   -0.0007 C   0  0  0  0  0  0  0  0  0  0  0  0
   -2.0502    1.1818   -0.0040 H   0  0  0  0  0  0  0  0  0  0  0  0
   -1.1857   -0.6901   -0.0000 C   0  0  0  0  0  0  0  0  0  0  0  0
   -2.0763   -1.1801   -0.0079 H   0  0  0  0  0  0  0  0  0  0  0  0
   -0.0146   -1.3795    0.0127 C   0  0  0  0  0  0  0  0  0  0  0  0
   -0.0135   -2.3842    0.0306 H   0  0  0  0  0  0  0  0  0  0  0  0
    1.1857   -0.6935    0.0000 C   0  0  0  0  0  0  0  0  0  0  0  0
    2.0648   -1.2017    0.0016 H   0  0  0  0  0  0  0  0  0  0  0  0
    1.1891    0.6825   -0.0129 C   0  0  0  0  0  0  0  0  0  0  0  0
    2.0649    1.1754   -0.0340 H   0  0  0  0  0  0  0  0  0  0  0  0
  1  5  1  0
  5  6  1  0
  5  7  2  0
  1  2  1  0
  1  3  1  0
  1  4  1  0
  8 12  1  0
 12 13  2  0
 13 15  1  0
 15 17  2  0
 17 19  1  0
 19 21  2  0
 21 12  1  0
  8  9  1  0
  8 10  1  0
  8 11  1  0
 13 14  1  0
 15 16  1  0
 17 18  1  0
 19 20  1  0
 21 22  1  0
M  CHG  1   6  -1
M  END
>  <PDB_ID>  (966) 
pdb1s6b

>  <RESIDUE_NAME>  (966) 
ASP   PHE

>  <FRAG_NAME>  (966) 
ACET   MBZ

>  <FRAG_ATOM_NUM>  (966) 
fragi: 7  fragj: 15

>  <atom.prop.CHAIN_ID>  (966) 
A A A A A A A Z Z Z Z Z Z Z Z Z Z Z Z Z Z Z

>  <atom.prop.IS_HEAVY_ATOM>  (966) 
1 0 0 0 1 1 1 1 0 0 0 1 1 0 1 0 1 0 1 0 1 0

>  <DIFUSE_FUNC_ATOM>  (966) 
atom 6   atom 7   

>  <FINAL_SINGLE_POINT_ENERGY>  (966) 
0

>  <NONCOV_INTER_ENERGY_QM>  (966) 
0

>  <FF_Energy>  (966) 
1.06

>  <QM_Energy>  (966) 
-4.48

>  <source>  (966) 
ACET_MBZ_00

>  <Index>  (966) 
35691

$$$$
ACET-pdb1s6b-B-ASP-94:MBZ-pdb1s6b-B-PHE-5
     RDKit          3D

 22 21  0  0  0  0  0  0  0  0999 V2000
   -2.8602    1.7088   -3.1460 C   0  0  0  0  0  0  0  0  0  0  0  0
   -3.4448    2.2208   -3.7663 H   0  0  0  0  0  0  0  0  0  0  0  0
   -3.1307    1.8695   -2.2032 H   0  0  0  0  0  0  0  0  0  0  0  0
   -2.9957    0.6481   -3.3574 H   0  0  0  0  0  0  0  0  0  0  0  0
   -1.4363    2.1573   -3.3319 C   0  0  0  0  0  0  0  0  0  0  0  0
   -0.5714    1.3330   -3.6843 O   0  0  0  0  0  1  0  0  0  0  0  0
   -1.1113    3.3490   -3.1356 O   0  0  0  0  0  0  0  0  0  0  0  0
    0.0134    2.9107   -0.0298 C   0  0  0  0  0  0  0  0  0  0  0  0
   -0.0366    3.1879   -0.9816 H   0  0  0  0  0  0  0  0  0  0  0  0
    0.8677    3.2106    0.3785 H   0  0  0  0  0  0  0  0  0  0  0  0
   -0.8044    3.3923    0.5060 H   0  0  0  0  0  0  0  0  0  0  0  0
   -0.0016    1.3946    0.0050 C   0  0  0  0  0  0  0  0  0  0  0  0
   -1.1821    0.6823   -0.0060 C   0  0  0  0  0  0  0  0  0  0  0  0
   -2.0558    1.1750   -0.0200 H   0  0  0  0  0  0  0  0  0  0  0  0
   -1.1799   -0.6854   -0.0000 C   0  0  0  0  0  0  0  0  0  0  0  0
   -2.0620   -1.1890   -0.0030 H   0  0  0  0  0  0  0  0  0  0  0  0
    0.0093   -1.3850    0.0110 C   0  0  0  0  0  0  0  0  0  0  0  0
   -0.0130   -2.3902    0.0268 H   0  0  0  0  0  0  0  0  0  0  0  0
    1.1799   -0.7107    0.0000 C   0  0  0  0  0  0  0  0  0  0  0  0
    2.0763   -1.1847    0.0002 H   0  0  0  0  0  0  0  0  0  0  0  0
    1.1743    0.7042   -0.0100 C   0  0  0  0  0  0  0  0  0  0  0  0
    2.0529    1.1811   -0.0290 H   0  0  0  0  0  0  0  0  0  0  0  0
  1  5  1  0
  5  6  1  0
  5  7  2  0
  1  2  1  0
  1  3  1  0
  1  4  1  0
  8 12  1  0
 12 13  2  0
 13 15  1  0
 15 17  2  0
 17 19  1  0
 19 21  2  0
 21 12  1  0
  8  9  1  0
  8 10  1  0
  8 11  1  0
 13 14  1  0
 15 16  1  0
 17 18  1  0
 19 20  1  0
 21 22  1  0
M  CHG  1   6  -1
M  END
>  <PDB_ID>  (967) 
pdb1s6b

>  <RESIDUE_NAME>  (967) 
ASP   PHE

>  <FRAG_NAME>  (967) 
ACET   MBZ

>  <FRAG_ATOM_NUM>  (967) 
fragi: 7  fragj: 15

>  <atom.prop.CHAIN_ID>  (967) 
A A A A A A A Z Z Z Z Z Z Z Z Z Z Z Z Z Z Z

>  <atom.prop.IS_HEAVY_ATOM>  (967) 
1 0 0 0 1 1 1 1 0 0 0 1 1 0 1 0 1 0 1 0 1 0

>  <DIFUSE_FUNC_ATOM>  (967) 
atom 6   atom 7   

>  <FINAL_SINGLE_POINT_ENERGY>  (967) 
0

>  <NONCOV_INTER_ENERGY_QM>  (967) 
0

>  <FF_Energy>  (967) 
1.22

>  <QM_Energy>  (967) 
-4.6

>  <source>  (967) 
ACET_MBZ_00

>  <Index>  (967) 
35692

$$$$
ACET-pdb2ybv-C-ASP-302:MBZ-pdb2ybv-C-PHE-311
     RDKit          3D

 22 21  0  0  0  0  0  0  0  0999 V2000
   -3.4076    5.4067   -0.8777 C   0  0  0  0  0  0  0  0  0  0  0  0
   -2.6001    5.5556   -0.3273 H   0  0  0  0  0  0  0  0  0  0  0  0
   -4.0829    4.8748   -0.3916 H   0  0  0  0  0  0  0  0  0  0  0  0
   -3.8439    6.3791   -1.1058 H   0  0  0  0  0  0  0  0  0  0  0  0
   -3.0053    4.6490   -2.1433 C   0  0  0  0  0  0  0  0  0  0  0  0
   -3.1175    5.2631   -3.2251 O   0  0  0  0  0  1  0  0  0  0  0  0
   -2.5763    3.4545   -2.0969 O   0  0  0  0  0  0  0  0  0  0  0  0
    0.0140    2.9167    0.0586 C   0  0  0  0  0  0  0  0  0  0  0  0
   -0.6068    3.2493   -0.6276 H   0  0  0  0  0  0  0  0  0  0  0  0
    0.9346    3.2298   -0.0881 H   0  0  0  0  0  0  0  0  0  0  0  0
   -0.3194    3.2973    1.0241 H   0  0  0  0  0  0  0  0  0  0  0  0
    0.0139    1.4197    0.0052 C   0  0  0  0  0  0  0  0  0  0  0  0
   -1.1931    0.7260   -0.0128 C   0  0  0  0  0  0  0  0  0  0  0  0
   -2.0551    1.2270   -0.0363 H   0  0  0  0  0  0  0  0  0  0  0  0
   -1.2280   -0.6766    0.0000 C   0  0  0  0  0  0  0  0  0  0  0  0
   -2.1281   -1.1398    0.0256 H   0  0  0  0  0  0  0  0  0  0  0  0
   -0.0575   -1.4216   -0.0200 C   0  0  0  0  0  0  0  0  0  0  0  0
   -0.0637   -2.4049   -0.0483 H   0  0  0  0  0  0  0  0  0  0  0  0
    1.2280   -0.7317   -0.0000 C   0  0  0  0  0  0  0  0  0  0  0  0
    2.0651   -1.2528   -0.0040 H   0  0  0  0  0  0  0  0  0  0  0  0
    1.2367    0.6842    0.0277 C   0  0  0  0  0  0  0  0  0  0  0  0
    2.0958    1.1719    0.0624 H   0  0  0  0  0  0  0  0  0  0  0  0
  1  5  1  0
  5  6  1  0
  5  7  2  0
  1  2  1  0
  1  3  1  0
  1  4  1  0
  8 12  1  0
 12 13  2  0
 13 15  1  0
 15 17  2  0
 17 19  1  0
 19 21  2  0
 21 12  1  0
  8  9  1  0
  8 10  1  0
  8 11  1  0
 13 14  1  0
 15 16  1  0
 17 18  1  0
 19 20  1  0
 21 22  1  0
M  CHG  1   6  -1
M  END
>  <PDB_ID>  (968) 
pdb2ybv

>  <RESIDUE_NAME>  (968) 
ASP   PHE

>  <FRAG_NAME>  (968) 
ACET   MBZ

>  <FRAG_ATOM_NUM>  (968) 
fragi: 7  fragj: 15

>  <atom.prop.CHAIN_ID>  (968) 
A A A A A A A Z Z Z Z Z Z Z Z Z Z Z Z Z Z Z

>  <atom.prop.IS_HEAVY_ATOM>  (968) 
1 0 0 0 1 1 1 1 0 0 0 1 1 0 1 0 1 0 1 0 1 0

>  <DIFUSE_FUNC_ATOM>  (968) 
atom 6   atom 7   

>  <FINAL_SINGLE_POINT_ENERGY>  (968) 
0

>  <NONCOV_INTER_ENERGY_QM>  (968) 
0

>  <FF_Energy>  (968) 
-0.99

>  <QM_Energy>  (968) 
-6.31

>  <source>  (968) 
ACET_MBZ_00

>  <Index>  (968) 
35724

$$$$
ACET-pdb2ybv-E-ASP-302:MBZ-pdb2ybv-E-PHE-311
     RDKit          3D

 22 21  0  0  0  0  0  0  0  0999 V2000
   -3.4158    5.4027   -1.0866 C   0  0  0  0  0  0  0  0  0  0  0  0
   -2.6692    5.5707   -0.4604 H   0  0  0  0  0  0  0  0  0  0  0  0
   -4.1297    4.8695   -0.6596 H   0  0  0  0  0  0  0  0  0  0  0  0
   -3.8440    6.3698   -1.3503 H   0  0  0  0  0  0  0  0  0  0  0  0
   -2.8947    4.6629   -2.2991 C   0  0  0  0  0  0  0  0  0  0  0  0
   -2.8879    5.2825   -3.4151 O   0  0  0  0  0  1  0  0  0  0  0  0
   -2.5077    3.4639   -2.1735 O   0  0  0  0  0  0  0  0  0  0  0  0
   -0.0040    2.9296    0.0632 C   0  0  0  0  0  0  0  0  0  0  0  0
   -0.5669    3.2556   -0.6711 H   0  0  0  0  0  0  0  0  0  0  0  0
    0.9212    3.2481    0.0001 H   0  0  0  0  0  0  0  0  0  0  0  0
   -0.4233    3.3029    0.9976 H   0  0  0  0  0  0  0  0  0  0  0  0
    0.0121    1.4255    0.0112 C   0  0  0  0  0  0  0  0  0  0  0  0
   -1.2071    0.7131   -0.0031 C   0  0  0  0  0  0  0  0  0  0  0  0
   -2.0663    1.2224   -0.0171 H   0  0  0  0  0  0  0  0  0  0  0  0
   -1.2528   -0.6915   -0.0000 C   0  0  0  0  0  0  0  0  0  0  0  0
   -2.1348   -1.1593    0.0344 H   0  0  0  0  0  0  0  0  0  0  0  0
   -0.0546   -1.4292   -0.0445 C   0  0  0  0  0  0  0  0  0  0  0  0
   -0.0484   -2.4074   -0.1053 H   0  0  0  0  0  0  0  0  0  0  0  0
    1.2528   -0.7218    0.0000 C   0  0  0  0  0  0  0  0  0  0  0  0
    2.0822   -1.2411    0.0048 H   0  0  0  0  0  0  0  0  0  0  0  0
    1.2496    0.7039    0.0365 C   0  0  0  0  0  0  0  0  0  0  0  0
    2.0999    1.1964    0.0787 H   0  0  0  0  0  0  0  0  0  0  0  0
  1  5  1  0
  5  6  1  0
  5  7  2  0
  1  2  1  0
  1  3  1  0
  1  4  1  0
  8 12  1  0
 12 13  2  0
 13 15  1  0
 15 17  2  0
 17 19  1  0
 19 21  2  0
 21 12  1  0
  8  9  1  0
  8 10  1  0
  8 11  1  0
 13 14  1  0
 15 16  1  0
 17 18  1  0
 19 20  1  0
 21 22  1  0
M  CHG  1   6  -1
M  END
>  <PDB_ID>  (969) 
pdb2ybv

>  <RESIDUE_NAME>  (969) 
ASP   PHE

>  <FRAG_NAME>  (969) 
ACET   MBZ

>  <FRAG_ATOM_NUM>  (969) 
fragi: 7  fragj: 15

>  <atom.prop.CHAIN_ID>  (969) 
A A A A A A A Z Z Z Z Z Z Z Z Z Z Z Z Z Z Z

>  <atom.prop.IS_HEAVY_ATOM>  (969) 
1 0 0 0 1 1 1 1 0 0 0 1 1 0 1 0 1 0 1 0 1 0

>  <DIFUSE_FUNC_ATOM>  (969) 
atom 6   atom 7   

>  <FINAL_SINGLE_POINT_ENERGY>  (969) 
0

>  <NONCOV_INTER_ENERGY_QM>  (969) 
0

>  <FF_Energy>  (969) 
-0.84

>  <QM_Energy>  (969) 
-5.99

>  <source>  (969) 
ACET_MBZ_00

>  <Index>  (969) 
35729

$$$$
ACET-pdb2ybv-G-ASP-302:MBZ-pdb2ybv-G-PHE-311
     RDKit          3D

 22 21  0  0  0  0  0  0  0  0999 V2000
   -3.4437    5.3497   -0.8878 C   0  0  0  0  0  0  0  0  0  0  0  0
   -2.6568    5.5229   -0.3192 H   0  0  0  0  0  0  0  0  0  0  0  0
   -4.1069    4.7827   -0.4279 H   0  0  0  0  0  0  0  0  0  0  0  0
   -3.9118    6.3036   -1.1308 H   0  0  0  0  0  0  0  0  0  0  0  0
   -2.9612    4.5921   -2.1565 C   0  0  0  0  0  0  0  0  0  0  0  0
   -3.0217    5.1774   -3.2769 O   0  0  0  0  0  1  0  0  0  0  0  0
   -2.5105    3.4197   -2.0540 O   0  0  0  0  0  0  0  0  0  0  0  0
    0.0105    2.9117    0.0745 C   0  0  0  0  0  0  0  0  0  0  0  0
   -0.5987    3.2603   -0.6104 H   0  0  0  0  0  0  0  0  0  0  0  0
    0.9310    3.2300   -0.0398 H   0  0  0  0  0  0  0  0  0  0  0  0
   -0.3411    3.2849    1.0364 H   0  0  0  0  0  0  0  0  0  0  0  0
    0.0075    1.4145    0.0052 C   0  0  0  0  0  0  0  0  0  0  0  0
   -1.2110    0.7098   -0.0036 C   0  0  0  0  0  0  0  0  0  0  0  0
   -2.0700    1.1979   -0.0135 H   0  0  0  0  0  0  0  0  0  0  0  0
   -1.2347   -0.7176   -0.0000 C   0  0  0  0  0  0  0  0  0  0  0  0
   -2.1106   -1.1854    0.0274 H   0  0  0  0  0  0  0  0  0  0  0  0
   -0.0312   -1.4122   -0.0327 C   0  0  0  0  0  0  0  0  0  0  0  0
   -0.0039   -2.3997   -0.0786 H   0  0  0  0  0  0  0  0  0  0  0  0
    1.2347   -0.6860    0.0000 C   0  0  0  0  0  0  0  0  0  0  0  0
    2.0853   -1.2160    0.0005 H   0  0  0  0  0  0  0  0  0  0  0  0
    1.2348    0.6915    0.0312 C   0  0  0  0  0  0  0  0  0  0  0  0
    2.0866    1.2031    0.0711 H   0  0  0  0  0  0  0  0  0  0  0  0
  1  5  1  0
  5  6  1  0
  5  7  2  0
  1  2  1  0
  1  3  1  0
  1  4  1  0
  8 12  1  0
 12 13  2  0
 13 15  1  0
 15 17  2  0
 17 19  1  0
 19 21  2  0
 21 12  1  0
  8  9  1  0
  8 10  1  0
  8 11  1  0
 13 14  1  0
 15 16  1  0
 17 18  1  0
 19 20  1  0
 21 22  1  0
M  CHG  1   6  -1
M  END
>  <PDB_ID>  (970) 
pdb2ybv

>  <RESIDUE_NAME>  (970) 
ASP   PHE

>  <FRAG_NAME>  (970) 
ACET   MBZ

>  <FRAG_ATOM_NUM>  (970) 
fragi: 7  fragj: 15

>  <atom.prop.CHAIN_ID>  (970) 
A A A A A A A Z Z Z Z Z Z Z Z Z Z Z Z Z Z Z

>  <atom.prop.IS_HEAVY_ATOM>  (970) 
1 0 0 0 1 1 1 1 0 0 0 1 1 0 1 0 1 0 1 0 1 0

>  <DIFUSE_FUNC_ATOM>  (970) 
atom 6   atom 7   

>  <FINAL_SINGLE_POINT_ENERGY>  (970) 
0

>  <NONCOV_INTER_ENERGY_QM>  (970) 
0

>  <FF_Energy>  (970) 
-0.65

>  <QM_Energy>  (970) 
-6.15

>  <source>  (970) 
ACET_MBZ_00

>  <Index>  (970) 
35736

$$$$
ACET-pdb1s6r-A-GLU-61:MBZ-pdb1s6r-A-PHE-322
     RDKit          3D

 22 21  0  0  0  0  0  0  0  0999 V2000
   -1.9179    0.5770   -3.8619 C   0  0  0  0  0  0  0  0  0  0  0  0
   -2.2497    1.1182   -4.6187 H   0  0  0  0  0  0  0  0  0  0  0  0
   -1.5823   -0.3010   -4.1647 H   0  0  0  0  0  0  0  0  0  0  0  0
   -1.0945    1.1157   -3.3929 H   0  0  0  0  0  0  0  0  0  0  0  0
   -3.0862    0.3234   -2.9352 C   0  0  0  0  0  0  0  0  0  0  0  0
   -3.2238    1.0056   -1.8987 O   0  0  0  0  0  1  0  0  0  0  0  0
   -3.8934   -0.5779   -3.2466 O   0  0  0  0  0  0  0  0  0  0  0  0
   -0.0015    2.9129   -0.0114 C   0  0  0  0  0  0  0  0  0  0  0  0
   -0.7740    3.2073   -0.5537 H   0  0  0  0  0  0  0  0  0  0  0  0
    0.8526    3.2105   -0.4107 H   0  0  0  0  0  0  0  0  0  0  0  0
   -0.0894    3.3659    0.9761 H   0  0  0  0  0  0  0  0  0  0  0  0
    0.0005    1.3946   -0.0022 C   0  0  0  0  0  0  0  0  0  0  0  0
   -1.1904    0.6903    0.0000 C   0  0  0  0  0  0  0  0  0  0  0  0
   -2.0589    1.1831    0.0006 H   0  0  0  0  0  0  0  0  0  0  0  0
   -1.1962   -0.6926   -0.0000 C   0  0  0  0  0  0  0  0  0  0  0  0
   -2.0756   -1.1869   -0.0004 H   0  0  0  0  0  0  0  0  0  0  0  0
   -0.0014   -1.3890    0.0020 C   0  0  0  0  0  0  0  0  0  0  0  0
   -0.0053   -2.3882    0.0047 H   0  0  0  0  0  0  0  0  0  0  0  0
    1.1962   -0.6938    0.0000 C   0  0  0  0  0  0  0  0  0  0  0  0
    2.0783   -1.1930   -0.0001 H   0  0  0  0  0  0  0  0  0  0  0  0
    1.1913    0.6905    0.0002 C   0  0  0  0  0  0  0  0  0  0  0  0
    2.0611    1.1882    0.0009 H   0  0  0  0  0  0  0  0  0  0  0  0
  1  5  1  0
  5  6  1  0
  5  7  2  0
  1  2  1  0
  1  3  1  0
  1  4  1  0
  8 12  1  0
 12 13  2  0
 13 15  1  0
 15 17  2  0
 17 19  1  0
 19 21  2  0
 21 12  1  0
  8  9  1  0
  8 10  1  0
  8 11  1  0
 13 14  1  0
 15 16  1  0
 17 18  1  0
 19 20  1  0
 21 22  1  0
M  CHG  1   6  -1
M  END
>  <PDB_ID>  (971) 
pdb1s6r

>  <RESIDUE_NAME>  (971) 
GLU   PHE

>  <FRAG_NAME>  (971) 
ACET   MBZ

>  <FRAG_ATOM_NUM>  (971) 
fragi: 7  fragj: 15

>  <atom.prop.CHAIN_ID>  (971) 
A A A A A A A Z Z Z Z Z Z Z Z Z Z Z Z Z Z Z

>  <atom.prop.IS_HEAVY_ATOM>  (971) 
1 0 0 0 1 1 1 1 0 0 0 1 1 0 1 0 1 0 1 0 1 0

>  <DIFUSE_FUNC_ATOM>  (971) 
atom 6   atom 7   

>  <FINAL_SINGLE_POINT_ENERGY>  (971) 
0

>  <NONCOV_INTER_ENERGY_QM>  (971) 
0

>  <FF_Energy>  (971) 
1.3

>  <QM_Energy>  (971) 
-4.75

>  <source>  (971) 
ACET_MBZ_00

>  <Index>  (971) 
35738

$$$$
ACET-pdb2ybv-I-ASP-302:MBZ-pdb2ybv-I-PHE-311
     RDKit          3D

 22 21  0  0  0  0  0  0  0  0999 V2000
   -3.3006    5.4617   -1.1531 C   0  0  0  0  0  0  0  0  0  0  0  0
   -2.5238    5.6170   -0.5491 H   0  0  0  0  0  0  0  0  0  0  0  0
   -4.0079    4.9486   -0.6751 H   0  0  0  0  0  0  0  0  0  0  0  0
   -3.7194    6.4386   -1.3945 H   0  0  0  0  0  0  0  0  0  0  0  0
   -2.8624    4.7162   -2.3553 C   0  0  0  0  0  0  0  0  0  0  0  0
   -2.8417    5.3372   -3.4527 O   0  0  0  0  0  1  0  0  0  0  0  0
   -2.4994    3.5154   -2.2224 O   0  0  0  0  0  0  0  0  0  0  0  0
   -0.0441    2.9194    0.0401 C   0  0  0  0  0  0  0  0  0  0  0  0
   -0.6061    3.2202   -0.7043 H   0  0  0  0  0  0  0  0  0  0  0  0
    0.8765    3.2505   -0.0202 H   0  0  0  0  0  0  0  0  0  0  0  0
   -0.4791    3.2916    0.9676 H   0  0  0  0  0  0  0  0  0  0  0  0
    0.0055    1.4014   -0.0016 C   0  0  0  0  0  0  0  0  0  0  0  0
   -1.1892    0.6927   -0.0048 C   0  0  0  0  0  0  0  0  0  0  0  0
   -2.0577    1.2058   -0.0118 H   0  0  0  0  0  0  0  0  0  0  0  0
   -1.2241   -0.6780    0.0000 C   0  0  0  0  0  0  0  0  0  0  0  0
   -2.1104   -1.1632    0.0154 H   0  0  0  0  0  0  0  0  0  0  0  0
   -0.0353   -1.4143   -0.0146 C   0  0  0  0  0  0  0  0  0  0  0  0
   -0.0348   -2.3931   -0.0343 H   0  0  0  0  0  0  0  0  0  0  0  0
    1.2241   -0.7003   -0.0000 C   0  0  0  0  0  0  0  0  0  0  0  0
    2.0775   -1.2147   -0.0036 H   0  0  0  0  0  0  0  0  0  0  0  0
    1.2190    0.6984    0.0210 C   0  0  0  0  0  0  0  0  0  0  0  0
    2.0770    1.1965    0.0506 H   0  0  0  0  0  0  0  0  0  0  0  0
  1  5  1  0
  5  6  1  0
  5  7  2  0
  1  2  1  0
  1  3  1  0
  1  4  1  0
  8 12  1  0
 12 13  2  0
 13 15  1  0
 15 17  2  0
 17 19  1  0
 19 21  2  0
 21 12  1  0
  8  9  1  0
  8 10  1  0
  8 11  1  0
 13 14  1  0
 15 16  1  0
 17 18  1  0
 19 20  1  0
 21 22  1  0
M  CHG  1   6  -1
M  END
>  <PDB_ID>  (972) 
pdb2ybv

>  <RESIDUE_NAME>  (972) 
ASP   PHE

>  <FRAG_NAME>  (972) 
ACET   MBZ

>  <FRAG_ATOM_NUM>  (972) 
fragi: 7  fragj: 15

>  <atom.prop.CHAIN_ID>  (972) 
A A A A A A A Z Z Z Z Z Z Z Z Z Z Z Z Z Z Z

>  <atom.prop.IS_HEAVY_ATOM>  (972) 
1 0 0 0 1 1 1 1 0 0 0 1 1 0 1 0 1 0 1 0 1 0

>  <DIFUSE_FUNC_ATOM>  (972) 
atom 6   atom 7   

>  <FINAL_SINGLE_POINT_ENERGY>  (972) 
0

>  <NONCOV_INTER_ENERGY_QM>  (972) 
0

>  <FF_Energy>  (972) 
-0.82

>  <QM_Energy>  (972) 
-5.88

>  <source>  (972) 
ACET_MBZ_00

>  <Index>  (972) 
35744

$$$$
ACET-pdb2ybv-K-ASP-302:MBZ-pdb2ybv-K-PHE-311
     RDKit          3D

 22 21  0  0  0  0  0  0  0  0999 V2000
   -3.3108    5.4316   -1.0313 C   0  0  0  0  0  0  0  0  0  0  0  0
   -2.5230    5.5795   -0.4456 H   0  0  0  0  0  0  0  0  0  0  0  0
   -3.9988    4.8923   -0.5614 H   0  0  0  0  0  0  0  0  0  0  0  0
   -3.7468    6.4052   -1.2549 H   0  0  0  0  0  0  0  0  0  0  0  0
   -2.8610    4.6784   -2.2770 C   0  0  0  0  0  0  0  0  0  0  0  0
   -2.8592    5.3190   -3.3653 O   0  0  0  0  0  1  0  0  0  0  0  0
   -2.5462    3.4356   -2.2189 O   0  0  0  0  0  0  0  0  0  0  0  0
    0.0084    2.9007    0.0595 C   0  0  0  0  0  0  0  0  0  0  0  0
   -0.5406    3.2441   -0.6778 H   0  0  0  0  0  0  0  0  0  0  0  0
    0.9354    3.2215    0.0205 H   0  0  0  0  0  0  0  0  0  0  0  0
   -0.4253    3.2720    0.9880 H   0  0  0  0  0  0  0  0  0  0  0  0
    0.0132    1.4126    0.0011 C   0  0  0  0  0  0  0  0  0  0  0  0
   -1.2149    0.7183   -0.0021 C   0  0  0  0  0  0  0  0  0  0  0  0
   -2.0623    1.2284   -0.0072 H   0  0  0  0  0  0  0  0  0  0  0  0
   -1.2350   -0.6688   -0.0000 C   0  0  0  0  0  0  0  0  0  0  0  0
   -2.1169   -1.1599    0.0157 H   0  0  0  0  0  0  0  0  0  0  0  0
   -0.0297   -1.4149   -0.0172 C   0  0  0  0  0  0  0  0  0  0  0  0
   -0.0525   -2.3992   -0.0413 H   0  0  0  0  0  0  0  0  0  0  0  0
    1.2350   -0.7295    0.0000 C   0  0  0  0  0  0  0  0  0  0  0  0
    2.0817   -1.2403    0.0007 H   0  0  0  0  0  0  0  0  0  0  0  0
    1.2314    0.6822    0.0183 C   0  0  0  0  0  0  0  0  0  0  0  0
    2.0925    1.1761    0.0426 H   0  0  0  0  0  0  0  0  0  0  0  0
  1  5  1  0
  5  6  1  0
  5  7  2  0
  1  2  1  0
  1  3  1  0
  1  4  1  0
  8 12  1  0
 12 13  2  0
 13 15  1  0
 15 17  2  0
 17 19  1  0
 19 21  2  0
 21 12  1  0
  8  9  1  0
  8 10  1  0
  8 11  1  0
 13 14  1  0
 15 16  1  0
 17 18  1  0
 19 20  1  0
 21 22  1  0
M  CHG  1   6  -1
M  END
>  <PDB_ID>  (973) 
pdb2ybv

>  <RESIDUE_NAME>  (973) 
ASP   PHE

>  <FRAG_NAME>  (973) 
ACET   MBZ

>  <FRAG_ATOM_NUM>  (973) 
fragi: 7  fragj: 15

>  <atom.prop.CHAIN_ID>  (973) 
A A A A A A A Z Z Z Z Z Z Z Z Z Z Z Z Z Z Z

>  <atom.prop.IS_HEAVY_ATOM>  (973) 
1 0 0 0 1 1 1 1 0 0 0 1 1 0 1 0 1 0 1 0 1 0

>  <DIFUSE_FUNC_ATOM>  (973) 
atom 6   atom 7   

>  <FINAL_SINGLE_POINT_ENERGY>  (973) 
0

>  <NONCOV_INTER_ENERGY_QM>  (973) 
0

>  <FF_Energy>  (973) 
-0.93

>  <QM_Energy>  (973) 
-6.02

>  <source>  (973) 
ACET_MBZ_00

>  <Index>  (973) 
35753

$$$$
ACET-pdb2ybv-M-ASP-302:MBZ-pdb2ybv-M-PHE-311
     RDKit          3D

 22 21  0  0  0  0  0  0  0  0999 V2000
   -3.4054    5.3503   -0.7691 C   0  0  0  0  0  0  0  0  0  0  0  0
   -2.5668    5.5193   -0.2653 H   0  0  0  0  0  0  0  0  0  0  0  0
   -4.0255    4.7882   -0.2361 H   0  0  0  0  0  0  0  0  0  0  0  0
   -3.8903    6.3117   -0.9385 H   0  0  0  0  0  0  0  0  0  0  0  0
   -3.0652    4.6206   -2.0597 C   0  0  0  0  0  0  0  0  0  0  0  0
   -3.2263    5.2439   -3.1640 O   0  0  0  0  0  1  0  0  0  0  0  0
   -2.6326    3.4109   -1.9983 O   0  0  0  0  0  0  0  0  0  0  0  0
   -0.0144    2.8790    0.1181 C   0  0  0  0  0  0  0  0  0  0  0  0
   -0.6179    3.2346   -0.5721 H   0  0  0  0  0  0  0  0  0  0  0  0
    0.9051    3.2119    0.0174 H   0  0  0  0  0  0  0  0  0  0  0  0
   -0.3821    3.2304    1.0822 H   0  0  0  0  0  0  0  0  0  0  0  0
   -0.0016    1.4001    0.0285 C   0  0  0  0  0  0  0  0  0  0  0  0
   -1.2107    0.7006   -0.0104 C   0  0  0  0  0  0  0  0  0  0  0  0
   -2.0674    1.2083   -0.0469 H   0  0  0  0  0  0  0  0  0  0  0  0
   -1.2296   -0.6761    0.0000 C   0  0  0  0  0  0  0  0  0  0  0  0
   -2.0943   -1.1805    0.0462 H   0  0  0  0  0  0  0  0  0  0  0  0
   -0.0011   -1.4104   -0.0542 C   0  0  0  0  0  0  0  0  0  0  0  0
   -0.0218   -2.3899   -0.1290 H   0  0  0  0  0  0  0  0  0  0  0  0
    1.2296   -0.7088   -0.0000 C   0  0  0  0  0  0  0  0  0  0  0  0
    2.0958   -1.2063    0.0138 H   0  0  0  0  0  0  0  0  0  0  0  0
    1.2135    0.6945    0.0361 C   0  0  0  0  0  0  0  0  0  0  0  0
    2.0725    1.1958    0.0668 H   0  0  0  0  0  0  0  0  0  0  0  0
  1  5  1  0
  5  6  1  0
  5  7  2  0
  1  2  1  0
  1  3  1  0
  1  4  1  0
  8 12  1  0
 12 13  2  0
 13 15  1  0
 15 17  2  0
 17 19  1  0
 19 21  2  0
 21 12  1  0
  8  9  1  0
  8 10  1  0
  8 11  1  0
 13 14  1  0
 15 16  1  0
 17 18  1  0
 19 20  1  0
 21 22  1  0
M  CHG  1   6  -1
M  END
>  <PDB_ID>  (974) 
pdb2ybv

>  <RESIDUE_NAME>  (974) 
ASP   PHE

>  <FRAG_NAME>  (974) 
ACET   MBZ

>  <FRAG_ATOM_NUM>  (974) 
fragi: 7  fragj: 15

>  <atom.prop.CHAIN_ID>  (974) 
A A A A A A A Z Z Z Z Z Z Z Z Z Z Z Z Z Z Z

>  <atom.prop.IS_HEAVY_ATOM>  (974) 
1 0 0 0 1 1 1 1 0 0 0 1 1 0 1 0 1 0 1 0 1 0

>  <DIFUSE_FUNC_ATOM>  (974) 
atom 6   atom 7   

>  <FINAL_SINGLE_POINT_ENERGY>  (974) 
0

>  <NONCOV_INTER_ENERGY_QM>  (974) 
0

>  <FF_Energy>  (974) 
-1.07

>  <QM_Energy>  (974) 
-6.45

>  <source>  (974) 
ACET_MBZ_00

>  <Index>  (974) 
35760

$$$$
ACET-pdb2ybv-O-ASP-302:MBZ-pdb2ybv-O-PHE-311
     RDKit          3D

 22 21  0  0  0  0  0  0  0  0999 V2000
   -3.3592    5.3676   -0.9368 C   0  0  0  0  0  0  0  0  0  0  0  0
   -2.5706    5.5167   -0.3515 H   0  0  0  0  0  0  0  0  0  0  0  0
   -4.0336    4.8034   -0.4760 H   0  0  0  0  0  0  0  0  0  0  0  0
   -3.8137    6.3373   -1.1401 H   0  0  0  0  0  0  0  0  0  0  0  0
   -2.9082    4.6626   -2.1965 C   0  0  0  0  0  0  0  0  0  0  0  0
   -2.9835    5.3046   -3.2919 O   0  0  0  0  0  1  0  0  0  0  0  0
   -2.5112    3.4641   -2.1290 O   0  0  0  0  0  0  0  0  0  0  0  0
    0.0085    2.8946    0.0780 C   0  0  0  0  0  0  0  0  0  0  0  0
   -0.5792    3.2499   -0.6222 H   0  0  0  0  0  0  0  0  0  0  0  0
    0.9322    3.2139   -0.0052 H   0  0  0  0  0  0  0  0  0  0  0  0
   -0.3734    3.2524    1.0341 H   0  0  0  0  0  0  0  0  0  0  0  0
    0.0062    1.4063   -0.0035 C   0  0  0  0  0  0  0  0  0  0  0  0
   -1.2160    0.7126   -0.0235 C   0  0  0  0  0  0  0  0  0  0  0  0
   -2.0653    1.2184   -0.0563 H   0  0  0  0  0  0  0  0  0  0  0  0
   -1.2284   -0.6706   -0.0000 C   0  0  0  0  0  0  0  0  0  0  0  0
   -2.1090   -1.1661    0.0263 H   0  0  0  0  0  0  0  0  0  0  0  0
   -0.0231   -1.4110   -0.0100 C   0  0  0  0  0  0  0  0  0  0  0  0
   -0.0409   -2.3948   -0.0242 H   0  0  0  0  0  0  0  0  0  0  0  0
    1.2284   -0.7163    0.0000 C   0  0  0  0  0  0  0  0  0  0  0  0
    2.0832   -1.2336   -0.0186 H   0  0  0  0  0  0  0  0  0  0  0  0
    1.2329    0.6789    0.0370 C   0  0  0  0  0  0  0  0  0  0  0  0
    2.0861    1.1792    0.0905 H   0  0  0  0  0  0  0  0  0  0  0  0
  1  5  1  0
  5  6  1  0
  5  7  2  0
  1  2  1  0
  1  3  1  0
  1  4  1  0
  8 12  1  0
 12 13  2  0
 13 15  1  0
 15 17  2  0
 17 19  1  0
 19 21  2  0
 21 12  1  0
  8  9  1  0
  8 10  1  0
  8 11  1  0
 13 14  1  0
 15 16  1  0
 17 18  1  0
 19 20  1  0
 21 22  1  0
M  CHG  1   6  -1
M  END
>  <PDB_ID>  (975) 
pdb2ybv

>  <RESIDUE_NAME>  (975) 
ASP   PHE

>  <FRAG_NAME>  (975) 
ACET   MBZ

>  <FRAG_ATOM_NUM>  (975) 
fragi: 7  fragj: 15

>  <atom.prop.CHAIN_ID>  (975) 
A A A A A A A Z Z Z Z Z Z Z Z Z Z Z Z Z Z Z

>  <atom.prop.IS_HEAVY_ATOM>  (975) 
1 0 0 0 1 1 1 1 0 0 0 1 1 0 1 0 1 0 1 0 1 0

>  <DIFUSE_FUNC_ATOM>  (975) 
atom 6   atom 7   

>  <FINAL_SINGLE_POINT_ENERGY>  (975) 
0

>  <NONCOV_INTER_ENERGY_QM>  (975) 
0

>  <FF_Energy>  (975) 
-0.88

>  <QM_Energy>  (975) 
-6.21

>  <source>  (975) 
ACET_MBZ_00

>  <Index>  (975) 
35766

$$$$
ACET-pdb1sau-A-ASP-14:MBZ-pdb1sau-A-PHE-18
     RDKit          3D

 22 21  0  0  0  0  0  0  0  0999 V2000
   -3.8822    5.5516   -1.8836 C   0  0  0  0  0  0  0  0  0  0  0  0
   -4.5984    5.5149   -2.6025 H   0  0  0  0  0  0  0  0  0  0  0  0
   -3.1441    6.1563   -2.2288 H   0  0  0  0  0  0  0  0  0  0  0  0
   -4.3244    6.0510   -1.0214 H   0  0  0  0  0  0  0  0  0  0  0  0
   -3.3279    4.1736   -1.6783 C   0  0  0  0  0  0  0  0  0  0  0  0
   -3.5684    3.5819   -0.6021 O   0  0  0  0  0  1  0  0  0  0  0  0
   -2.6406    3.7082   -2.6117 O   0  0  0  0  0  0  0  0  0  0  0  0
   -0.0303    2.9005    0.0218 C   0  0  0  0  0  0  0  0  0  0  0  0
   -0.7186    3.2125   -0.6158 H   0  0  0  0  0  0  0  0  0  0  0  0
    0.8686    3.2229   -0.2333 H   0  0  0  0  0  0  0  0  0  0  0  0
   -0.2691    3.3141    1.0017 H   0  0  0  0  0  0  0  0  0  0  0  0
   -0.0117    1.3975   -0.0143 C   0  0  0  0  0  0  0  0  0  0  0  0
   -1.1792    0.6560   -0.0235 C   0  0  0  0  0  0  0  0  0  0  0  0
   -2.0651    1.1406   -0.0498 H   0  0  0  0  0  0  0  0  0  0  0  0
   -1.1757   -0.7164   -0.0000 C   0  0  0  0  0  0  0  0  0  0  0  0
   -2.0437   -1.2235   -0.0071 H   0  0  0  0  0  0  0  0  0  0  0  0
    0.0277   -1.3769    0.0352 C   0  0  0  0  0  0  0  0  0  0  0  0
    0.0357   -2.3826    0.0861 H   0  0  0  0  0  0  0  0  0  0  0  0
    1.1757   -0.6724    0.0000 C   0  0  0  0  0  0  0  0  0  0  0  0
    2.0854   -1.1493   -0.0279 H   0  0  0  0  0  0  0  0  0  0  0  0
    1.1633    0.7123    0.0025 C   0  0  0  0  0  0  0  0  0  0  0  0
    2.0387    1.2066    0.0164 H   0  0  0  0  0  0  0  0  0  0  0  0
  1  5  1  0
  5  6  1  0
  5  7  2  0
  1  2  1  0
  1  3  1  0
  1  4  1  0
  8 12  1  0
 12 13  2  0
 13 15  1  0
 15 17  2  0
 17 19  1  0
 19 21  2  0
 21 12  1  0
  8  9  1  0
  8 10  1  0
  8 11  1  0
 13 14  1  0
 15 16  1  0
 17 18  1  0
 19 20  1  0
 21 22  1  0
M  CHG  1   6  -1
M  END
>  <PDB_ID>  (976) 
pdb1sau

>  <RESIDUE_NAME>  (976) 
ASP   PHE

>  <FRAG_NAME>  (976) 
ACET   MBZ

>  <FRAG_ATOM_NUM>  (976) 
fragi: 7  fragj: 15

>  <atom.prop.CHAIN_ID>  (976) 
A A A A A A A Z Z Z Z Z Z Z Z Z Z Z Z Z Z Z

>  <atom.prop.IS_HEAVY_ATOM>  (976) 
1 0 0 0 1 1 1 1 0 0 0 1 1 0 1 0 1 0 1 0 1 0

>  <DIFUSE_FUNC_ATOM>  (976) 
atom 6   atom 7   

>  <FINAL_SINGLE_POINT_ENERGY>  (976) 
0

>  <NONCOV_INTER_ENERGY_QM>  (976) 
0

>  <FF_Energy>  (976) 
-1.97

>  <QM_Energy>  (976) 
-7.5

>  <source>  (976) 
ACET_MBZ_00

>  <Index>  (976) 
35902

$$$$
ACET-pdb1sbb-B-ASP-48:MBZ-pdb1sbb-B-PHE-44
     RDKit          3D

 22 21  0  0  0  0  0  0  0  0999 V2000
    3.7343    3.8802    3.4454 C   0  0  0  0  0  0  0  0  0  0  0  0
    4.2307    4.4244    2.7782 H   0  0  0  0  0  0  0  0  0  0  0  0
    4.2537    3.0685    3.6862 H   0  0  0  0  0  0  0  0  0  0  0  0
    3.6176    4.4822    4.3465 H   0  0  0  0  0  0  0  0  0  0  0  0
    2.4120    3.4577    2.8484 C   0  0  0  0  0  0  0  0  0  0  0  0
    1.6153    4.3317    2.4573 O   0  0  0  0  0  1  0  0  0  0  0  0
    2.1773    2.2439    2.7506 O   0  0  0  0  0  0  0  0  0  0  0  0
    0.0159    2.9242   -0.0137 C   0  0  0  0  0  0  0  0  0  0  0  0
    0.0034    3.2197   -0.9566 H   0  0  0  0  0  0  0  0  0  0  0  0
    0.8376    3.2240    0.4465 H   0  0  0  0  0  0  0  0  0  0  0  0
   -0.8329    3.3870    0.4897 H   0  0  0  0  0  0  0  0  0  0  0  0
    0.0015    1.4099   -0.0008 C   0  0  0  0  0  0  0  0  0  0  0  0
   -1.2024    0.6973   -0.0003 C   0  0  0  0  0  0  0  0  0  0  0  0
   -2.0667    1.1836   -0.0011 H   0  0  0  0  0  0  0  0  0  0  0  0
   -1.2041   -0.7035   -0.0000 C   0  0  0  0  0  0  0  0  0  0  0  0
   -2.0796   -1.1952    0.0006 H   0  0  0  0  0  0  0  0  0  0  0  0
    0.0009   -1.3991    0.0009 C   0  0  0  0  0  0  0  0  0  0  0  0
   -0.0023   -2.3973    0.0005 H   0  0  0  0  0  0  0  0  0  0  0  0
    1.2041   -0.7008    0.0000 C   0  0  0  0  0  0  0  0  0  0  0  0
    2.0851   -1.1965    0.0018 H   0  0  0  0  0  0  0  0  0  0  0  0
    1.2000    0.6961    0.0003 C   0  0  0  0  0  0  0  0  0  0  0  0
    2.0685    1.1901   -0.0002 H   0  0  0  0  0  0  0  0  0  0  0  0
  1  5  1  0
  5  6  1  0
  5  7  2  0
  1  2  1  0
  1  3  1  0
  1  4  1  0
  8 12  1  0
 12 13  2  0
 13 15  1  0
 15 17  2  0
 17 19  1  0
 19 21  2  0
 21 12  1  0
  8  9  1  0
  8 10  1  0
  8 11  1  0
 13 14  1  0
 15 16  1  0
 17 18  1  0
 19 20  1  0
 21 22  1  0
M  CHG  1   6  -1
M  END
>  <PDB_ID>  (977) 
pdb1sbb

>  <RESIDUE_NAME>  (977) 
ASP   PHE

>  <FRAG_NAME>  (977) 
ACET   MBZ

>  <FRAG_ATOM_NUM>  (977) 
fragi: 7  fragj: 15

>  <atom.prop.CHAIN_ID>  (977) 
A A A A A A A Z Z Z Z Z Z Z Z Z Z Z Z Z Z Z

>  <atom.prop.IS_HEAVY_ATOM>  (977) 
1 0 0 0 1 1 1 1 0 0 0 1 1 0 1 0 1 0 1 0 1 0

>  <DIFUSE_FUNC_ATOM>  (977) 
atom 6   atom 7   

>  <FINAL_SINGLE_POINT_ENERGY>  (977) 
0

>  <NONCOV_INTER_ENERGY_QM>  (977) 
0

>  <FF_Energy>  (977) 
0.48

>  <QM_Energy>  (977) 
-5.79

>  <source>  (977) 
ACET_MBZ_00

>  <Index>  (977) 
35908

$$$$
ACET-pdb1sbb-D-ASP-48:MBZ-pdb1sbb-D-PHE-44
     RDKit          3D

 22 21  0  0  0  0  0  0  0  0999 V2000
    4.1467    5.5212    1.6094 C   0  0  0  0  0  0  0  0  0  0  0  0
    4.4077    5.8752    0.7194 H   0  0  0  0  0  0  0  0  0  0  0  0
    4.8084    4.8544    1.9283 H   0  0  0  0  0  0  0  0  0  0  0  0
    4.1447    6.3541    2.3125 H   0  0  0  0  0  0  0  0  0  0  0  0
    2.7871    4.8415    1.4859 C   0  0  0  0  0  0  0  0  0  0  0  0
    1.8426    5.4754    0.9658 O   0  0  0  0  0  1  0  0  0  0  0  0
    2.6806    3.6527    1.8587 O   0  0  0  0  0  0  0  0  0  0  0  0
    0.0138    2.9058    0.0057 C   0  0  0  0  0  0  0  0  0  0  0  0
   -0.1175    3.2225   -0.9234 H   0  0  0  0  0  0  0  0  0  0  0  0
    0.8868    3.2059    0.3639 H   0  0  0  0  0  0  0  0  0  0  0  0
   -0.7639    3.3617    0.6184 H   0  0  0  0  0  0  0  0  0  0  0  0
   -0.0014    1.4066   -0.0010 C   0  0  0  0  0  0  0  0  0  0  0  0
   -1.2009    0.6981   -0.0001 C   0  0  0  0  0  0  0  0  0  0  0  0
   -2.0667    1.1835   -0.0010 H   0  0  0  0  0  0  0  0  0  0  0  0
   -1.2028   -0.7019   -0.0000 C   0  0  0  0  0  0  0  0  0  0  0  0
   -2.0755   -1.1951    0.0002 H   0  0  0  0  0  0  0  0  0  0  0  0
    0.0069   -1.3979    0.0016 C   0  0  0  0  0  0  0  0  0  0  0  0
    0.0015   -2.3964    0.0031 H   0  0  0  0  0  0  0  0  0  0  0  0
    1.2028   -0.6998    0.0000 C   0  0  0  0  0  0  0  0  0  0  0  0
    2.0872   -1.1926    0.0005 H   0  0  0  0  0  0  0  0  0  0  0  0
    1.1954    0.6949   -0.0006 C   0  0  0  0  0  0  0  0  0  0  0  0
    2.0648    1.1905   -0.0017 H   0  0  0  0  0  0  0  0  0  0  0  0
  1  5  1  0
  5  6  1  0
  5  7  2  0
  1  2  1  0
  1  3  1  0
  1  4  1  0
  8 12  1  0
 12 13  2  0
 13 15  1  0
 15 17  2  0
 17 19  1  0
 19 21  2  0
 21 12  1  0
  8  9  1  0
  8 10  1  0
  8 11  1  0
 13 14  1  0
 15 16  1  0
 17 18  1  0
 19 20  1  0
 21 22  1  0
M  CHG  1   6  -1
M  END
>  <PDB_ID>  (978) 
pdb1sbb

>  <RESIDUE_NAME>  (978) 
ASP   PHE

>  <FRAG_NAME>  (978) 
ACET   MBZ

>  <FRAG_ATOM_NUM>  (978) 
fragi: 7  fragj: 15

>  <atom.prop.CHAIN_ID>  (978) 
A A A A A A A Z Z Z Z Z Z Z Z Z Z Z Z Z Z Z

>  <atom.prop.IS_HEAVY_ATOM>  (978) 
1 0 0 0 1 1 1 1 0 0 0 1 1 0 1 0 1 0 1 0 1 0

>  <DIFUSE_FUNC_ATOM>  (978) 
atom 6   atom 7   

>  <FINAL_SINGLE_POINT_ENERGY>  (978) 
0

>  <NONCOV_INTER_ENERGY_QM>  (978) 
0

>  <FF_Energy>  (978) 
-0.94

>  <QM_Energy>  (978) 
-7.49

>  <source>  (978) 
ACET_MBZ_00

>  <Index>  (978) 
35914

$$$$
ACET-pdb2y8n-A-GLU-665:MBZ-pdb2y8n-A-PHE-661
     RDKit          3D

 22 21  0  0  0  0  0  0  0  0999 V2000
    4.5421    4.7212   -0.2250 C   0  0  0  0  0  0  0  0  0  0  0  0
    5.3534    4.2263   -0.4619 H   0  0  0  0  0  0  0  0  0  0  0  0
    4.7222    5.6470    0.0378 H   0  0  0  0  0  0  0  0  0  0  0  0
    3.8757    4.7271   -1.0875 H   0  0  0  0  0  0  0  0  0  0  0  0
    3.9122    4.0227    0.9674 C   0  0  0  0  0  0  0  0  0  0  0  0
    3.2775    2.9640    0.7811 O   0  0  0  0  0  1  0  0  0  0  0  0
    4.0471    4.5317    2.0953 O   0  0  0  0  0  0  0  0  0  0  0  0
   -0.0045    2.9046    0.0006 C   0  0  0  0  0  0  0  0  0  0  0  0
   -0.8133    3.2070   -0.4815 H   0  0  0  0  0  0  0  0  0  0  0  0
    0.8194    3.2106   -0.4524 H   0  0  0  0  0  0  0  0  0  0  0  0
   -0.0231    3.3494    0.9955 H   0  0  0  0  0  0  0  0  0  0  0  0
   -0.0005    1.3977    0.0017 C   0  0  0  0  0  0  0  0  0  0  0  0
   -1.1888    0.6895   -0.0031 C   0  0  0  0  0  0  0  0  0  0  0  0
   -2.0592    1.1784   -0.0104 H   0  0  0  0  0  0  0  0  0  0  0  0
   -1.1937   -0.6979   -0.0000 C   0  0  0  0  0  0  0  0  0  0  0  0
   -2.0744   -1.1897    0.0029 H   0  0  0  0  0  0  0  0  0  0  0  0
   -0.0021   -1.3891    0.0004 C   0  0  0  0  0  0  0  0  0  0  0  0
   -0.0034   -2.3902    0.0006 H   0  0  0  0  0  0  0  0  0  0  0  0
    1.1937   -0.6945    0.0000 C   0  0  0  0  0  0  0  0  0  0  0  0
    2.0777   -1.1920    0.0005 H   0  0  0  0  0  0  0  0  0  0  0  0
    1.1915    0.6943    0.0011 C   0  0  0  0  0  0  0  0  0  0  0  0
    2.0608    1.1890    0.0008 H   0  0  0  0  0  0  0  0  0  0  0  0
  1  5  1  0
  5  6  1  0
  5  7  2  0
  1  2  1  0
  1  3  1  0
  1  4  1  0
  8 12  1  0
 12 13  2  0
 13 15  1  0
 15 17  2  0
 17 19  1  0
 19 21  2  0
 21 12  1  0
  8  9  1  0
  8 10  1  0
  8 11  1  0
 13 14  1  0
 15 16  1  0
 17 18  1  0
 19 20  1  0
 21 22  1  0
M  CHG  1   6  -1
M  END
>  <PDB_ID>  (979) 
pdb2y8n

>  <RESIDUE_NAME>  (979) 
GLU   PHE

>  <FRAG_NAME>  (979) 
ACET   MBZ

>  <FRAG_ATOM_NUM>  (979) 
fragi: 7  fragj: 15

>  <atom.prop.CHAIN_ID>  (979) 
A A A A A A A Z Z Z Z Z Z Z Z Z Z Z Z Z Z Z

>  <atom.prop.IS_HEAVY_ATOM>  (979) 
1 0 0 0 1 1 1 1 0 0 0 1 1 0 1 0 1 0 1 0 1 0

>  <DIFUSE_FUNC_ATOM>  (979) 
atom 6   atom 7   

>  <FINAL_SINGLE_POINT_ENERGY>  (979) 
0

>  <NONCOV_INTER_ENERGY_QM>  (979) 
0

>  <FF_Energy>  (979) 
-0.99

>  <QM_Energy>  (979) 
-7.56

>  <source>  (979) 
ACET_MBZ_00

>  <Index>  (979) 
35952

$$$$
ACET-pdb1sc6-B-GLU-299:MBZ-pdb1sc6-A-PHE-147
     RDKit          3D

 22 21  0  0  0  0  0  0  0  0999 V2000
    5.0063    3.0569    1.5122 C   0  0  0  0  0  0  0  0  0  0  0  0
    5.2645    3.7444    0.8589 H   0  0  0  0  0  0  0  0  0  0  0  0
    5.1390    2.1459    1.1671 H   0  0  0  0  0  0  0  0  0  0  0  0
    5.6183    3.1824    2.4054 H   0  0  0  0  0  0  0  0  0  0  0  0
    3.5260    3.2269    1.7922 C   0  0  0  0  0  0  0  0  0  0  0  0
    2.7365    3.2337    0.8257 O   0  0  0  0  0  1  0  0  0  0  0  0
    3.1499    3.3563    2.9778 O   0  0  0  0  0  0  0  0  0  0  0  0
    0.0033    2.9094    0.0070 C   0  0  0  0  0  0  0  0  0  0  0  0
   -0.6926    3.2205   -0.6217 H   0  0  0  0  0  0  0  0  0  0  0  0
    0.9022    3.2146   -0.2697 H   0  0  0  0  0  0  0  0  0  0  0  0
   -0.2102    3.3495    0.9811 H   0  0  0  0  0  0  0  0  0  0  0  0
   -0.0005    1.4040    0.0004 C   0  0  0  0  0  0  0  0  0  0  0  0
   -1.1972    0.6942   -0.0004 C   0  0  0  0  0  0  0  0  0  0  0  0
   -2.0645    1.1837   -0.0027 H   0  0  0  0  0  0  0  0  0  0  0  0
   -1.2022   -0.6989   -0.0000 C   0  0  0  0  0  0  0  0  0  0  0  0
   -2.0789   -1.1916    0.0011 H   0  0  0  0  0  0  0  0  0  0  0  0
    0.0002   -1.3963    0.0002 C   0  0  0  0  0  0  0  0  0  0  0  0
   -0.0038   -2.3942   -0.0002 H   0  0  0  0  0  0  0  0  0  0  0  0
    1.2022   -0.6983   -0.0000 C   0  0  0  0  0  0  0  0  0  0  0  0
    2.0834   -1.1950    0.0020 H   0  0  0  0  0  0  0  0  0  0  0  0
    1.1975    0.6953   -0.0001 C   0  0  0  0  0  0  0  0  0  0  0  0
    2.0652    1.1907   -0.0010 H   0  0  0  0  0  0  0  0  0  0  0  0
  1  5  1  0
  5  6  1  0
  5  7  2  0
  1  2  1  0
  1  3  1  0
  1  4  1  0
  8 12  1  0
 12 13  2  0
 13 15  1  0
 15 17  2  0
 17 19  1  0
 19 21  2  0
 21 12  1  0
  8  9  1  0
  8 10  1  0
  8 11  1  0
 13 14  1  0
 15 16  1  0
 17 18  1  0
 19 20  1  0
 21 22  1  0
M  CHG  1   6  -1
M  END
>  <PDB_ID>  (980) 
pdb1sc6

>  <RESIDUE_NAME>  (980) 
GLU   PHE

>  <FRAG_NAME>  (980) 
ACET   MBZ

>  <FRAG_ATOM_NUM>  (980) 
fragi: 7  fragj: 15

>  <atom.prop.CHAIN_ID>  (980) 
A A A A A A A Z Z Z Z Z Z Z Z Z Z Z Z Z Z Z

>  <atom.prop.IS_HEAVY_ATOM>  (980) 
1 0 0 0 1 1 1 1 0 0 0 1 1 0 1 0 1 0 1 0 1 0

>  <DIFUSE_FUNC_ATOM>  (980) 
atom 6   atom 7   

>  <FINAL_SINGLE_POINT_ENERGY>  (980) 
0

>  <NONCOV_INTER_ENERGY_QM>  (980) 
0

>  <FF_Energy>  (980) 
3.51

>  <QM_Energy>  (980) 
-6.29

>  <source>  (980) 
ACET_MBZ_00

>  <Index>  (980) 
35954

$$$$
ACET-pdb1sc6-A-GLU-299:MBZ-pdb1sc6-B-PHE-147
     RDKit          3D

 22 21  0  0  0  0  0  0  0  0999 V2000
    4.5298    3.6191    3.1160 C   0  0  0  0  0  0  0  0  0  0  0  0
    4.5444    2.6684    3.3485 H   0  0  0  0  0  0  0  0  0  0  0  0
    4.0745    4.1698    3.7844 H   0  0  0  0  0  0  0  0  0  0  0  0
    5.5592    3.9662    3.0261 H   0  0  0  0  0  0  0  0  0  0  0  0
    3.7686    3.7616    1.8083 C   0  0  0  0  0  0  0  0  0  0  0  0
    3.8406    4.8475    1.1994 O   0  0  0  0  0  1  0  0  0  0  0  0
    3.1000    2.7943    1.3871 O   0  0  0  0  0  0  0  0  0  0  0  0
    0.0039    2.9059    0.0108 C   0  0  0  0  0  0  0  0  0  0  0  0
   -0.7178    3.2205   -0.5886 H   0  0  0  0  0  0  0  0  0  0  0  0
    0.8902    3.2130   -0.3046 H   0  0  0  0  0  0  0  0  0  0  0  0
   -0.1675    3.3441    0.9940 H   0  0  0  0  0  0  0  0  0  0  0  0
   -0.0009    1.4049   -0.0003 C   0  0  0  0  0  0  0  0  0  0  0  0
   -1.1970    0.6971    0.0002 C   0  0  0  0  0  0  0  0  0  0  0  0
   -2.0640    1.1869   -0.0003 H   0  0  0  0  0  0  0  0  0  0  0  0
   -1.2029   -0.6960   -0.0000 C   0  0  0  0  0  0  0  0  0  0  0  0
   -2.0794   -1.1887    0.0005 H   0  0  0  0  0  0  0  0  0  0  0  0
   -0.0000   -1.3967    0.0007 C   0  0  0  0  0  0  0  0  0  0  0  0
   -0.0080   -2.3944    0.0013 H   0  0  0  0  0  0  0  0  0  0  0  0
    1.2029   -0.7029   -0.0000 C   0  0  0  0  0  0  0  0  0  0  0  0
    2.0832   -1.1980    0.0013 H   0  0  0  0  0  0  0  0  0  0  0  0
    1.1979    0.6936   -0.0005 C   0  0  0  0  0  0  0  0  0  0  0  0
    2.0664    1.1880   -0.0024 H   0  0  0  0  0  0  0  0  0  0  0  0
  1  5  1  0
  5  6  1  0
  5  7  2  0
  1  2  1  0
  1  3  1  0
  1  4  1  0
  8 12  1  0
 12 13  2  0
 13 15  1  0
 15 17  2  0
 17 19  1  0
 19 21  2  0
 21 12  1  0
  8  9  1  0
  8 10  1  0
  8 11  1  0
 13 14  1  0
 15 16  1  0
 17 18  1  0
 19 20  1  0
 21 22  1  0
M  CHG  1   6  -1
M  END
>  <PDB_ID>  (981) 
pdb1sc6

>  <RESIDUE_NAME>  (981) 
GLU   PHE

>  <FRAG_NAME>  (981) 
ACET   MBZ

>  <FRAG_ATOM_NUM>  (981) 
fragi: 7  fragj: 15

>  <atom.prop.CHAIN_ID>  (981) 
A A A A A A A Z Z Z Z Z Z Z Z Z Z Z Z Z Z Z

>  <atom.prop.IS_HEAVY_ATOM>  (981) 
1 0 0 0 1 1 1 1 0 0 0 1 1 0 1 0 1 0 1 0 1 0

>  <DIFUSE_FUNC_ATOM>  (981) 
atom 6   atom 7   

>  <FINAL_SINGLE_POINT_ENERGY>  (981) 
0

>  <NONCOV_INTER_ENERGY_QM>  (981) 
0

>  <FF_Energy>  (981) 
-1.14

>  <QM_Energy>  (981) 
-7.42

>  <source>  (981) 
ACET_MBZ_00

>  <Index>  (981) 
35956

$$$$
ACET-pdb2yjj-G-GLU-161:MBZ-pdb2yjj-L-PHE-102
     RDKit          3D

 22 21  0  0  0  0  0  0  0  0999 V2000
    3.0310    3.5656    4.9361 C   0  0  0  0  0  0  0  0  0  0  0  0
    3.8733    3.1578    4.6299 H   0  0  0  0  0  0  0  0  0  0  0  0
    2.5312    2.9686    5.5387 H   0  0  0  0  0  0  0  0  0  0  0  0
    3.2751    4.4760    5.4835 H   0  0  0  0  0  0  0  0  0  0  0  0
    2.1476    3.7807    3.6777 C   0  0  0  0  0  0  0  0  0  0  0  0
    1.5289    4.8804    3.5085 O   0  0  0  0  0  1  0  0  0  0  0  0
    2.0728    2.8140    2.8737 O   0  0  0  0  0  0  0  0  0  0  0  0
   -0.0359    2.9293    0.0186 C   0  0  0  0  0  0  0  0  0  0  0  0
    0.7894    3.2556   -0.4148 H   0  0  0  0  0  0  0  0  0  0  0  0
   -0.0873    3.2176    0.9626 H   0  0  0  0  0  0  0  0  0  0  0  0
   -0.8838    3.3652   -0.5097 H   0  0  0  0  0  0  0  0  0  0  0  0
   -0.0081    1.4195   -0.0056 C   0  0  0  0  0  0  0  0  0  0  0  0
   -1.2036    0.6694    0.0151 C   0  0  0  0  0  0  0  0  0  0  0  0
   -2.0787    1.1657    0.0406 H   0  0  0  0  0  0  0  0  0  0  0  0
   -1.2205   -0.7219    0.0000 C   0  0  0  0  0  0  0  0  0  0  0  0
   -2.0846   -1.2186   -0.0010 H   0  0  0  0  0  0  0  0  0  0  0  0
    0.0051   -1.4252   -0.0112 C   0  0  0  0  0  0  0  0  0  0  0  0
    0.0235   -2.4030   -0.0269 H   0  0  0  0  0  0  0  0  0  0  0  0
    1.2205   -0.6756    0.0000 C   0  0  0  0  0  0  0  0  0  0  0  0
    2.1038   -1.1659    0.0081 H   0  0  0  0  0  0  0  0  0  0  0  0
    1.2066    0.7337    0.0017 C   0  0  0  0  0  0  0  0  0  0  0  0
    2.0636    1.2312    0.0074 H   0  0  0  0  0  0  0  0  0  0  0  0
  1  5  1  0
  5  6  1  0
  5  7  2  0
  1  2  1  0
  1  3  1  0
  1  4  1  0
  8 12  1  0
 12 13  2  0
 13 15  1  0
 15 17  2  0
 17 19  1  0
 19 21  2  0
 21 12  1  0
  8  9  1  0
  8 10  1  0
  8 11  1  0
 13 14  1  0
 15 16  1  0
 17 18  1  0
 19 20  1  0
 21 22  1  0
M  CHG  1   6  -1
M  END
>  <PDB_ID>  (982) 
pdb2yjj

>  <RESIDUE_NAME>  (982) 
GLU   PHE

>  <FRAG_NAME>  (982) 
ACET   MBZ

>  <FRAG_ATOM_NUM>  (982) 
fragi: 7  fragj: 15

>  <atom.prop.CHAIN_ID>  (982) 
A A A A A A A Z Z Z Z Z Z Z Z Z Z Z Z Z Z Z

>  <atom.prop.IS_HEAVY_ATOM>  (982) 
1 0 0 0 1 1 1 1 0 0 0 1 1 0 1 0 1 0 1 0 1 0

>  <DIFUSE_FUNC_ATOM>  (982) 
atom 6   atom 7   

>  <FINAL_SINGLE_POINT_ENERGY>  (982) 
0

>  <NONCOV_INTER_ENERGY_QM>  (982) 
0

>  <FF_Energy>  (982) 
-0.0

>  <QM_Energy>  (982) 
-5.11

>  <source>  (982) 
ACET_MBZ_00

>  <Index>  (982) 
36050

$$$$
ACET-pdb1sfn-A-GLU-1187:MBZ-pdb1sfn-A-PHE-1050
     RDKit          3D

 22 21  0  0  0  0  0  0  0  0999 V2000
   -4.2022   -1.7971    1.7049 C   0  0  0  0  0  0  0  0  0  0  0  0
   -4.3342   -1.2497    2.5094 H   0  0  0  0  0  0  0  0  0  0  0  0
   -3.2810   -2.1265    1.6224 H   0  0  0  0  0  0  0  0  0  0  0  0
   -4.8737   -2.6542    1.7556 H   0  0  0  0  0  0  0  0  0  0  0  0
   -4.4842   -0.9232    0.5053 C   0  0  0  0  0  0  0  0  0  0  0  0
   -4.7501   -1.4847   -0.5792 O   0  0  0  0  0  1  0  0  0  0  0  0
   -4.4343    0.3204    0.6504 O   0  0  0  0  0  0  0  0  0  0  0  0
    0.0073    2.9239   -0.0176 C   0  0  0  0  0  0  0  0  0  0  0  0
    0.9151    3.2258    0.2247 H   0  0  0  0  0  0  0  0  0  0  0  0
   -0.6667    3.2371    0.6320 H   0  0  0  0  0  0  0  0  0  0  0  0
   -0.2402    3.3508   -0.9895 H   0  0  0  0  0  0  0  0  0  0  0  0
    0.0007    1.4119    0.0003 C   0  0  0  0  0  0  0  0  0  0  0  0
   -1.1972    0.7030   -0.0008 C   0  0  0  0  0  0  0  0  0  0  0  0
   -2.0641    1.1880   -0.0033 H   0  0  0  0  0  0  0  0  0  0  0  0
   -1.2041   -0.7012    0.0000 C   0  0  0  0  0  0  0  0  0  0  0  0
   -2.0825   -1.1877    0.0006 H   0  0  0  0  0  0  0  0  0  0  0  0
   -0.0020   -1.4050    0.0010 C   0  0  0  0  0  0  0  0  0  0  0  0
   -0.0074   -2.4001    0.0019 H   0  0  0  0  0  0  0  0  0  0  0  0
    1.2041   -0.7046    0.0000 C   0  0  0  0  0  0  0  0  0  0  0  0
    2.0842   -1.1988    0.0008 H   0  0  0  0  0  0  0  0  0  0  0  0
    1.1985    0.6960   -0.0005 C   0  0  0  0  0  0  0  0  0  0  0  0
    2.0687    1.1882   -0.0022 H   0  0  0  0  0  0  0  0  0  0  0  0
  1  5  1  0
  5  6  1  0
  5  7  2  0
  1  2  1  0
  1  3  1  0
  1  4  1  0
  8 12  1  0
 12 13  2  0
 13 15  1  0
 15 17  2  0
 17 19  1  0
 19 21  2  0
 21 12  1  0
  8  9  1  0
  8 10  1  0
  8 11  1  0
 13 14  1  0
 15 16  1  0
 17 18  1  0
 19 20  1  0
 21 22  1  0
M  CHG  1   6  -1
M  END
>  <PDB_ID>  (983) 
pdb1sfn

>  <RESIDUE_NAME>  (983) 
GLU   PHE

>  <FRAG_NAME>  (983) 
ACET   MBZ

>  <FRAG_ATOM_NUM>  (983) 
fragi: 7  fragj: 15

>  <atom.prop.CHAIN_ID>  (983) 
A A A A A A A Z Z Z Z Z Z Z Z Z Z Z Z Z Z Z

>  <atom.prop.IS_HEAVY_ATOM>  (983) 
1 0 0 0 1 1 1 1 0 0 0 1 1 0 1 0 1 0 1 0 1 0

>  <DIFUSE_FUNC_ATOM>  (983) 
atom 6   atom 7   

>  <FINAL_SINGLE_POINT_ENERGY>  (983) 
0

>  <NONCOV_INTER_ENERGY_QM>  (983) 
0

>  <FF_Energy>  (983) 
-1.34

>  <QM_Energy>  (983) 
-6.5

>  <source>  (983) 
ACET_MBZ_00

>  <Index>  (983) 
36092

$$$$
ACET-pdb2ynn-A-ASP-117:MBZ-pdb2ynn-A-PHE-142
     RDKit          3D

 22 21  0  0  0  0  0  0  0  0999 V2000
   -1.6197    0.8481    3.4961 C   0  0  0  0  0  0  0  0  0  0  0  0
   -1.8508    0.6132    4.4323 H   0  0  0  0  0  0  0  0  0  0  0  0
   -1.8794    0.1172    2.8780 H   0  0  0  0  0  0  0  0  0  0  0  0
   -2.1869    1.7378    3.2229 H   0  0  0  0  0  0  0  0  0  0  0  0
   -0.1214    1.0605    3.4011 C   0  0  0  0  0  0  0  0  0  0  0  0
    0.3197    2.2203    3.2569 O   0  0  0  0  0  1  0  0  0  0  0  0
    0.6301    0.0603    3.4676 O   0  0  0  0  0  0  0  0  0  0  0  0
    0.0409    2.9125    0.0083 C   0  0  0  0  0  0  0  0  0  0  0  0
    0.7551    3.2037   -0.6158 H   0  0  0  0  0  0  0  0  0  0  0  0
    0.2438    3.2047    0.9349 H   0  0  0  0  0  0  0  0  0  0  0  0
   -0.8851    3.3991   -0.2977 H   0  0  0  0  0  0  0  0  0  0  0  0
    0.0013    1.4044   -0.0036 C   0  0  0  0  0  0  0  0  0  0  0  0
   -1.1963    0.7004    0.0044 C   0  0  0  0  0  0  0  0  0  0  0  0
   -2.0624    1.1836    0.0115 H   0  0  0  0  0  0  0  0  0  0  0  0
   -1.1982   -0.7021    0.0000 C   0  0  0  0  0  0  0  0  0  0  0  0
   -2.0765   -1.1897    0.0025 H   0  0  0  0  0  0  0  0  0  0  0  0
   -0.0010   -1.3914   -0.0056 C   0  0  0  0  0  0  0  0  0  0  0  0
   -0.0049   -2.3955   -0.0143 H   0  0  0  0  0  0  0  0  0  0  0  0
    1.1982   -0.7029    0.0000 C   0  0  0  0  0  0  0  0  0  0  0  0
    2.0792   -1.1989    0.0022 H   0  0  0  0  0  0  0  0  0  0  0  0
    1.1960    0.6917    0.0048 C   0  0  0  0  0  0  0  0  0  0  0  0
    2.0661    1.1840    0.0137 H   0  0  0  0  0  0  0  0  0  0  0  0
  1  5  1  0
  5  6  1  0
  5  7  2  0
  1  2  1  0
  1  3  1  0
  1  4  1  0
  8 12  1  0
 12 13  2  0
 13 15  1  0
 15 17  2  0
 17 19  1  0
 19 21  2  0
 21 12  1  0
  8  9  1  0
  8 10  1  0
  8 11  1  0
 13 14  1  0
 15 16  1  0
 17 18  1  0
 19 20  1  0
 21 22  1  0
M  CHG  1   6  -1
M  END
>  <PDB_ID>  (984) 
pdb2ynn

>  <RESIDUE_NAME>  (984) 
ASP   PHE

>  <FRAG_NAME>  (984) 
ACET   MBZ

>  <FRAG_ATOM_NUM>  (984) 
fragi: 7  fragj: 15

>  <atom.prop.CHAIN_ID>  (984) 
A A A A A A A Z Z Z Z Z Z Z Z Z Z Z Z Z Z Z

>  <atom.prop.IS_HEAVY_ATOM>  (984) 
1 0 0 0 1 1 1 1 0 0 0 1 1 0 1 0 1 0 1 0 1 0

>  <DIFUSE_FUNC_ATOM>  (984) 
atom 6   atom 7   

>  <FINAL_SINGLE_POINT_ENERGY>  (984) 
0

>  <NONCOV_INTER_ENERGY_QM>  (984) 
0

>  <FF_Energy>  (984) 
2.47

>  <QM_Energy>  (984) 
-3.89

>  <source>  (984) 
ACET_MBZ_00

>  <Index>  (984) 
36212

$$$$
ACET-pdb2yp6-A-ASP-138:MBZ-pdb2yp6-A-PHE-144
     RDKit          3D

 22 21  0  0  0  0  0  0  0  0999 V2000
   -5.2006    0.8754   -0.5785 C   0  0  0  0  0  0  0  0  0  0  0  0
   -5.1231    0.3691    0.2739 H   0  0  0  0  0  0  0  0  0  0  0  0
   -4.5457    0.5342   -1.2440 H   0  0  0  0  0  0  0  0  0  0  0  0
   -6.2030    0.7181   -0.9769 H   0  0  0  0  0  0  0  0  0  0  0  0
   -4.9071    2.3307   -0.3088 C   0  0  0  0  0  0  0  0  0  0  0  0
   -5.8696    3.0837   -0.0680 O   0  0  0  0  0  1  0  0  0  0  0  0
   -3.7211    2.7065   -0.3235 O   0  0  0  0  0  0  0  0  0  0  0  0
   -0.0023    2.9293   -0.0298 C   0  0  0  0  0  0  0  0  0  0  0  0
   -0.6858    3.2127   -0.6837 H   0  0  0  0  0  0  0  0  0  0  0  0
    0.9017    3.2214   -0.3017 H   0  0  0  0  0  0  0  0  0  0  0  0
   -0.2349    3.3974    0.9267 H   0  0  0  0  0  0  0  0  0  0  0  0
   -0.0028    1.4089    0.0046 C   0  0  0  0  0  0  0  0  0  0  0  0
   -1.1919    0.7003   -0.0073 C   0  0  0  0  0  0  0  0  0  0  0  0
   -2.0637    1.1829   -0.0222 H   0  0  0  0  0  0  0  0  0  0  0  0
   -1.1991   -0.7018    0.0000 C   0  0  0  0  0  0  0  0  0  0  0  0
   -2.0784   -1.1877    0.0090 H   0  0  0  0  0  0  0  0  0  0  0  0
    0.0005   -1.4041   -0.0040 C   0  0  0  0  0  0  0  0  0  0  0  0
   -0.0047   -2.3990   -0.0100 H   0  0  0  0  0  0  0  0  0  0  0  0
    1.1991   -0.7029   -0.0000 C   0  0  0  0  0  0  0  0  0  0  0  0
    2.0833   -1.1939   -0.0006 H   0  0  0  0  0  0  0  0  0  0  0  0
    1.1942    0.6996    0.0068 C   0  0  0  0  0  0  0  0  0  0  0  0
    2.0630    1.1907    0.0126 H   0  0  0  0  0  0  0  0  0  0  0  0
  1  5  1  0
  5  6  1  0
  5  7  2  0
  1  2  1  0
  1  3  1  0
  1  4  1  0
  8 12  1  0
 12 13  2  0
 13 15  1  0
 15 17  2  0
 17 19  1  0
 19 21  2  0
 21 12  1  0
  8  9  1  0
  8 10  1  0
  8 11  1  0
 13 14  1  0
 15 16  1  0
 17 18  1  0
 19 20  1  0
 21 22  1  0
M  CHG  1   6  -1
M  END
>  <PDB_ID>  (985) 
pdb2yp6

>  <RESIDUE_NAME>  (985) 
ASP   PHE

>  <FRAG_NAME>  (985) 
ACET   MBZ

>  <FRAG_ATOM_NUM>  (985) 
fragi: 7  fragj: 15

>  <atom.prop.CHAIN_ID>  (985) 
A A A A A A A Z Z Z Z Z Z Z Z Z Z Z Z Z Z Z

>  <atom.prop.IS_HEAVY_ATOM>  (985) 
1 0 0 0 1 1 1 1 0 0 0 1 1 0 1 0 1 0 1 0 1 0

>  <DIFUSE_FUNC_ATOM>  (985) 
atom 6   atom 7   

>  <FINAL_SINGLE_POINT_ENERGY>  (985) 
0

>  <NONCOV_INTER_ENERGY_QM>  (985) 
0

>  <FF_Energy>  (985) 
-1.61

>  <QM_Energy>  (985) 
-7.56

>  <source>  (985) 
ACET_MBZ_00

>  <Index>  (985) 
36332

$$$$
ACET-pdb2yp6-C-ASP-138:MBZ-pdb2yp6-C-PHE-144
     RDKit          3D

 22 21  0  0  0  0  0  0  0  0999 V2000
   -5.2001    0.8340   -0.6437 C   0  0  0  0  0  0  0  0  0  0  0  0
   -5.1469    0.3070    0.1962 H   0  0  0  0  0  0  0  0  0  0  0  0
   -4.5257    0.5166   -1.2980 H   0  0  0  0  0  0  0  0  0  0  0  0
   -6.1904    0.6897   -1.0755 H   0  0  0  0  0  0  0  0  0  0  0  0
   -4.8975    2.3006   -0.3121 C   0  0  0  0  0  0  0  0  0  0  0  0
   -5.8519    3.0446   -0.0389 O   0  0  0  0  0  1  0  0  0  0  0  0
   -3.7130    2.7060   -0.3034 O   0  0  0  0  0  0  0  0  0  0  0  0
    0.0040    2.9264   -0.0120 C   0  0  0  0  0  0  0  0  0  0  0  0
   -0.6794    3.2180   -0.6623 H   0  0  0  0  0  0  0  0  0  0  0  0
    0.9085    3.2209   -0.2796 H   0  0  0  0  0  0  0  0  0  0  0  0
   -0.2288    3.3812    0.9508 H   0  0  0  0  0  0  0  0  0  0  0  0
    0.0019    1.4093    0.0068 C   0  0  0  0  0  0  0  0  0  0  0  0
   -1.1869    0.7056   -0.0169 C   0  0  0  0  0  0  0  0  0  0  0  0
   -2.0581    1.1870   -0.0474 H   0  0  0  0  0  0  0  0  0  0  0  0
   -1.1987   -0.7031   -0.0000 C   0  0  0  0  0  0  0  0  0  0  0  0
   -2.0815   -1.1814    0.0111 H   0  0  0  0  0  0  0  0  0  0  0  0
   -0.0054   -1.4034    0.0025 C   0  0  0  0  0  0  0  0  0  0  0  0
   -0.0072   -2.3994    0.0057 H   0  0  0  0  0  0  0  0  0  0  0  0
    1.1987   -0.7037    0.0000 C   0  0  0  0  0  0  0  0  0  0  0  0
    2.0793   -1.1968   -0.0057 H   0  0  0  0  0  0  0  0  0  0  0  0
    1.1904    0.6953    0.0077 C   0  0  0  0  0  0  0  0  0  0  0  0
    2.0649    1.1867    0.0128 H   0  0  0  0  0  0  0  0  0  0  0  0
  1  5  1  0
  5  6  1  0
  5  7  2  0
  1  2  1  0
  1  3  1  0
  1  4  1  0
  8 12  1  0
 12 13  2  0
 13 15  1  0
 15 17  2  0
 17 19  1  0
 19 21  2  0
 21 12  1  0
  8  9  1  0
  8 10  1  0
  8 11  1  0
 13 14  1  0
 15 16  1  0
 17 18  1  0
 19 20  1  0
 21 22  1  0
M  CHG  1   6  -1
M  END
>  <PDB_ID>  (986) 
pdb2yp6

>  <RESIDUE_NAME>  (986) 
ASP   PHE

>  <FRAG_NAME>  (986) 
ACET   MBZ

>  <FRAG_ATOM_NUM>  (986) 
fragi: 7  fragj: 15

>  <atom.prop.CHAIN_ID>  (986) 
A A A A A A A Z Z Z Z Z Z Z Z Z Z Z Z Z Z Z

>  <atom.prop.IS_HEAVY_ATOM>  (986) 
1 0 0 0 1 1 1 1 0 0 0 1 1 0 1 0 1 0 1 0 1 0

>  <DIFUSE_FUNC_ATOM>  (986) 
atom 6   atom 7   

>  <FINAL_SINGLE_POINT_ENERGY>  (986) 
0

>  <NONCOV_INTER_ENERGY_QM>  (986) 
0

>  <FF_Energy>  (986) 
-1.52

>  <QM_Energy>  (986) 
-7.62

>  <source>  (986) 
ACET_MBZ_00

>  <Index>  (986) 
36337

$$$$
ACET-pdb2yp6-D-ASP-138:MBZ-pdb2yp6-D-PHE-144
     RDKit          3D

 22 21  0  0  0  0  0  0  0  0999 V2000
   -5.1418    0.8983   -0.7811 C   0  0  0  0  0  0  0  0  0  0  0  0
   -5.1446    0.4189    0.0913 H   0  0  0  0  0  0  0  0  0  0  0  0
   -4.4305    0.5340   -1.3728 H   0  0  0  0  0  0  0  0  0  0  0  0
   -6.1042    0.7284   -1.2640 H   0  0  0  0  0  0  0  0  0  0  0  0
   -4.8634    2.3631   -0.5300 C   0  0  0  0  0  0  0  0  0  0  0  0
   -5.8448    3.1231   -0.4021 O   0  0  0  0  0  1  0  0  0  0  0  0
   -3.6724    2.7447   -0.4535 O   0  0  0  0  0  0  0  0  0  0  0  0
   -0.0006    2.9198   -0.0197 C   0  0  0  0  0  0  0  0  0  0  0  0
   -0.6739    3.2185   -0.6796 H   0  0  0  0  0  0  0  0  0  0  0  0
    0.9078    3.2178   -0.2742 H   0  0  0  0  0  0  0  0  0  0  0  0
   -0.2442    3.3870    0.9345 H   0  0  0  0  0  0  0  0  0  0  0  0
   -0.0075    1.4069    0.0012 C   0  0  0  0  0  0  0  0  0  0  0  0
   -1.1961    0.6899   -0.0057 C   0  0  0  0  0  0  0  0  0  0  0  0
   -2.0682    1.1712   -0.0164 H   0  0  0  0  0  0  0  0  0  0  0  0
   -1.1914   -0.7059    0.0000 C   0  0  0  0  0  0  0  0  0  0  0  0
   -2.0645   -1.2032    0.0024 H   0  0  0  0  0  0  0  0  0  0  0  0
    0.0157   -1.3905    0.0045 C   0  0  0  0  0  0  0  0  0  0  0  0
    0.0087   -2.3940    0.0107 H   0  0  0  0  0  0  0  0  0  0  0  0
    1.1914   -0.6976   -0.0000 C   0  0  0  0  0  0  0  0  0  0  0  0
    2.0863   -1.1847   -0.0017 H   0  0  0  0  0  0  0  0  0  0  0  0
    1.1880    0.6972    0.0000 C   0  0  0  0  0  0  0  0  0  0  0  0
    2.0570    1.1909   -0.0018 H   0  0  0  0  0  0  0  0  0  0  0  0
  1  5  1  0
  5  6  1  0
  5  7  2  0
  1  2  1  0
  1  3  1  0
  1  4  1  0
  8 12  1  0
 12 13  2  0
 13 15  1  0
 15 17  2  0
 17 19  1  0
 19 21  2  0
 21 12  1  0
  8  9  1  0
  8 10  1  0
  8 11  1  0
 13 14  1  0
 15 16  1  0
 17 18  1  0
 19 20  1  0
 21 22  1  0
M  CHG  1   6  -1
M  END
>  <PDB_ID>  (987) 
pdb2yp6

>  <RESIDUE_NAME>  (987) 
ASP   PHE

>  <FRAG_NAME>  (987) 
ACET   MBZ

>  <FRAG_ATOM_NUM>  (987) 
fragi: 7  fragj: 15

>  <atom.prop.CHAIN_ID>  (987) 
A A A A A A A Z Z Z Z Z Z Z Z Z Z Z Z Z Z Z

>  <atom.prop.IS_HEAVY_ATOM>  (987) 
1 0 0 0 1 1 1 1 0 0 0 1 1 0 1 0 1 0 1 0 1 0

>  <DIFUSE_FUNC_ATOM>  (987) 
atom 6   atom 7   

>  <FINAL_SINGLE_POINT_ENERGY>  (987) 
0

>  <NONCOV_INTER_ENERGY_QM>  (987) 
0

>  <FF_Energy>  (987) 
-1.67

>  <QM_Energy>  (987) 
-7.55

>  <source>  (987) 
ACET_MBZ_00

>  <Index>  (987) 
36339

$$$$
ACET-pdb2ypd-A-ASP-2456:MBZ-pdb2ypd-A-PHE-2453
     RDKit          3D

 22 21  0  0  0  0  0  0  0  0999 V2000
   -4.1332    5.4853    0.1230 C   0  0  0  0  0  0  0  0  0  0  0  0
   -3.6185    5.5082    0.9798 H   0  0  0  0  0  0  0  0  0  0  0  0
   -5.0845    5.2484    0.3102 H   0  0  0  0  0  0  0  0  0  0  0  0
   -4.1039    6.4782   -0.3258 H   0  0  0  0  0  0  0  0  0  0  0  0
   -3.5382    4.4073   -0.7609 C   0  0  0  0  0  0  0  0  0  0  0  0
   -3.1901    4.6879   -1.9340 O   0  0  0  0  0  1  0  0  0  0  0  0
   -3.4156    3.2657   -0.2590 O   0  0  0  0  0  0  0  0  0  0  0  0
    0.0100    2.8784    0.0213 C   0  0  0  0  0  0  0  0  0  0  0  0
   -0.7195    3.2026   -0.5691 H   0  0  0  0  0  0  0  0  0  0  0  0
    0.8933    3.1878   -0.3088 H   0  0  0  0  0  0  0  0  0  0  0  0
   -0.1444    3.3177    1.0068 H   0  0  0  0  0  0  0  0  0  0  0  0
   -0.0022    1.3957    0.0113 C   0  0  0  0  0  0  0  0  0  0  0  0
   -1.1926    0.7024    0.0121 C   0  0  0  0  0  0  0  0  0  0  0  0
   -2.0604    1.1868    0.0196 H   0  0  0  0  0  0  0  0  0  0  0  0
   -1.1972   -0.6954    0.0000 C   0  0  0  0  0  0  0  0  0  0  0  0
   -2.0786   -1.1831   -0.0046 H   0  0  0  0  0  0  0  0  0  0  0  0
   -0.0026   -1.3936   -0.0034 C   0  0  0  0  0  0  0  0  0  0  0  0
   -0.0034   -2.3902   -0.0084 H   0  0  0  0  0  0  0  0  0  0  0  0
    1.1972   -0.6924   -0.0000 C   0  0  0  0  0  0  0  0  0  0  0  0
    2.0788   -1.1988    0.0185 H   0  0  0  0  0  0  0  0  0  0  0  0
    1.1975    0.6833   -0.0200 C   0  0  0  0  0  0  0  0  0  0  0  0
    2.0620    1.1858   -0.0578 H   0  0  0  0  0  0  0  0  0  0  0  0
  1  5  1  0
  5  6  1  0
  5  7  2  0
  1  2  1  0
  1  3  1  0
  1  4  1  0
  8 12  1  0
 12 13  2  0
 13 15  1  0
 15 17  2  0
 17 19  1  0
 19 21  2  0
 21 12  1  0
  8  9  1  0
  8 10  1  0
  8 11  1  0
 13 14  1  0
 15 16  1  0
 17 18  1  0
 19 20  1  0
 21 22  1  0
M  CHG  1   6  -1
M  END
>  <PDB_ID>  (988) 
pdb2ypd

>  <RESIDUE_NAME>  (988) 
ASP   PHE

>  <FRAG_NAME>  (988) 
ACET   MBZ

>  <FRAG_ATOM_NUM>  (988) 
fragi: 7  fragj: 15

>  <atom.prop.CHAIN_ID>  (988) 
A A A A A A A Z Z Z Z Z Z Z Z Z Z Z Z Z Z Z

>  <atom.prop.IS_HEAVY_ATOM>  (988) 
1 0 0 0 1 1 1 1 0 0 0 1 1 0 1 0 1 0 1 0 1 0

>  <DIFUSE_FUNC_ATOM>  (988) 
atom 6   atom 7   

>  <FINAL_SINGLE_POINT_ENERGY>  (988) 
0

>  <NONCOV_INTER_ENERGY_QM>  (988) 
0

>  <FF_Energy>  (988) 
-2.25

>  <QM_Energy>  (988) 
-8.19

>  <source>  (988) 
ACET_MBZ_00

>  <Index>  (988) 
36343

$$$$
ACET-pdb1smk-G-GLU-203:MBZ-pdb1smk-G-PHE-200
     RDKit          3D

 22 21  0  0  0  0  0  0  0  0999 V2000
   -4.8747    3.8123   -0.5977 C   0  0  0  0  0  0  0  0  0  0  0  0
   -5.7962    3.7256   -0.9349 H   0  0  0  0  0  0  0  0  0  0  0  0
   -4.2235    3.9080   -1.3305 H   0  0  0  0  0  0  0  0  0  0  0  0
   -4.8201    4.7008    0.0314 H   0  0  0  0  0  0  0  0  0  0  0  0
   -4.5397    2.5383    0.1461 C   0  0  0  0  0  0  0  0  0  0  0  0
   -3.5193    2.5132    0.8693 O   0  0  0  0  0  1  0  0  0  0  0  0
   -5.2986    1.5582   -0.0085 O   0  0  0  0  0  0  0  0  0  0  0  0
   -0.0008    2.9245   -0.0029 C   0  0  0  0  0  0  0  0  0  0  0  0
    0.8552    3.2280   -0.3866 H   0  0  0  0  0  0  0  0  0  0  0  0
   -0.1125    3.2288    0.9288 H   0  0  0  0  0  0  0  0  0  0  0  0
   -0.8058    3.3594   -0.5952 H   0  0  0  0  0  0  0  0  0  0  0  0
    0.0010    1.4106   -0.0008 C   0  0  0  0  0  0  0  0  0  0  0  0
   -1.2009    0.6957    0.0006 C   0  0  0  0  0  0  0  0  0  0  0  0
   -2.0674    1.1816    0.0010 H   0  0  0  0  0  0  0  0  0  0  0  0
   -1.2071   -0.7100   -0.0000 C   0  0  0  0  0  0  0  0  0  0  0  0
   -2.0823   -1.1968    0.0005 H   0  0  0  0  0  0  0  0  0  0  0  0
   -0.0017   -1.4017    0.0006 C   0  0  0  0  0  0  0  0  0  0  0  0
    0.0027   -2.3988    0.0008 H   0  0  0  0  0  0  0  0  0  0  0  0
    1.2071   -0.6955    0.0000 C   0  0  0  0  0  0  0  0  0  0  0  0
    2.0861   -1.1933    0.0015 H   0  0  0  0  0  0  0  0  0  0  0  0
    1.2017    0.7009   -0.0005 C   0  0  0  0  0  0  0  0  0  0  0  0
    2.0680    1.1962   -0.0014 H   0  0  0  0  0  0  0  0  0  0  0  0
  1  5  1  0
  5  6  1  0
  5  7  2  0
  1  2  1  0
  1  3  1  0
  1  4  1  0
  8 12  1  0
 12 13  2  0
 13 15  1  0
 15 17  2  0
 17 19  1  0
 19 21  2  0
 21 12  1  0
  8  9  1  0
  8 10  1  0
  8 11  1  0
 13 14  1  0
 15 16  1  0
 17 18  1  0
 19 20  1  0
 21 22  1  0
M  CHG  1   6  -1
M  END
>  <PDB_ID>  (989) 
pdb1smk

>  <RESIDUE_NAME>  (989) 
GLU   PHE

>  <FRAG_NAME>  (989) 
ACET   MBZ

>  <FRAG_ATOM_NUM>  (989) 
fragi: 7  fragj: 15

>  <atom.prop.CHAIN_ID>  (989) 
A A A A A A A Z Z Z Z Z Z Z Z Z Z Z Z Z Z Z

>  <atom.prop.IS_HEAVY_ATOM>  (989) 
1 0 0 0 1 1 1 1 0 0 0 1 1 0 1 0 1 0 1 0 1 0

>  <DIFUSE_FUNC_ATOM>  (989) 
atom 6   atom 7   

>  <FINAL_SINGLE_POINT_ENERGY>  (989) 
0

>  <NONCOV_INTER_ENERGY_QM>  (989) 
0

>  <FF_Energy>  (989) 
-1.97

>  <QM_Energy>  (989) 
-7.17

>  <source>  (989) 
ACET_MBZ_00

>  <Index>  (989) 
36410

$$$$
ACET-pdb2yri-A-GLU-134:MBZ-pdb2yri-A-PHE-85
     RDKit          3D

 22 21  0  0  0  0  0  0  0  0999 V2000
   -5.4587    4.3308    0.7840 C   0  0  0  0  0  0  0  0  0  0  0  0
   -5.5733    4.9479    1.5385 H   0  0  0  0  0  0  0  0  0  0  0  0
   -5.9934    3.5132    0.8820 H   0  0  0  0  0  0  0  0  0  0  0  0
   -5.7708    4.8402   -0.1277 H   0  0  0  0  0  0  0  0  0  0  0  0
   -3.9921    3.9161    0.7515 C   0  0  0  0  0  0  0  0  0  0  0  0
   -3.1223    4.7942    0.5681 O   0  0  0  0  0  1  0  0  0  0  0  0
   -3.7116    2.7099    0.9070 O   0  0  0  0  0  0  0  0  0  0  0  0
    0.0122    2.8871    0.1881 C   0  0  0  0  0  0  0  0  0  0  0  0
   -0.8668    3.2404   -0.0749 H   0  0  0  0  0  0  0  0  0  0  0  0
    0.7416    3.2606   -0.3545 H   0  0  0  0  0  0  0  0  0  0  0  0
    0.1893    3.1700    1.2257 H   0  0  0  0  0  0  0  0  0  0  0  0
   -0.0017    1.4050    0.0022 C   0  0  0  0  0  0  0  0  0  0  0  0
   -1.1977    0.6999   -0.0029 C   0  0  0  0  0  0  0  0  0  0  0  0
   -2.0644    1.1864   -0.0093 H   0  0  0  0  0  0  0  0  0  0  0  0
   -1.2022   -0.6976    0.0000 C   0  0  0  0  0  0  0  0  0  0  0  0
   -2.0766   -1.1908   -0.0007 H   0  0  0  0  0  0  0  0  0  0  0  0
    0.0059   -1.3981    0.0049 C   0  0  0  0  0  0  0  0  0  0  0  0
   -0.0039   -2.3955    0.0115 H   0  0  0  0  0  0  0  0  0  0  0  0
    1.2022   -0.7028    0.0000 C   0  0  0  0  0  0  0  0  0  0  0  0
    2.0864   -1.1942    0.0014 H   0  0  0  0  0  0  0  0  0  0  0  0
    1.1935    0.6935   -0.0042 C   0  0  0  0  0  0  0  0  0  0  0  0
    2.0634    1.1889   -0.0131 H   0  0  0  0  0  0  0  0  0  0  0  0
  1  5  1  0
  5  6  1  0
  5  7  2  0
  1  2  1  0
  1  3  1  0
  1  4  1  0
  8 12  1  0
 12 13  2  0
 13 15  1  0
 15 17  2  0
 17 19  1  0
 19 21  2  0
 21 12  1  0
  8  9  1  0
  8 10  1  0
  8 11  1  0
 13 14  1  0
 15 16  1  0
 17 18  1  0
 19 20  1  0
 21 22  1  0
M  CHG  1   6  -1
M  END
>  <PDB_ID>  (990) 
pdb2yri

>  <RESIDUE_NAME>  (990) 
GLU   PHE

>  <FRAG_NAME>  (990) 
ACET   MBZ

>  <FRAG_ATOM_NUM>  (990) 
fragi: 7  fragj: 15

>  <atom.prop.CHAIN_ID>  (990) 
A A A A A A A Z Z Z Z Z Z Z Z Z Z Z Z Z Z Z

>  <atom.prop.IS_HEAVY_ATOM>  (990) 
1 0 0 0 1 1 1 1 0 0 0 1 1 0 1 0 1 0 1 0 1 0

>  <DIFUSE_FUNC_ATOM>  (990) 
atom 6   atom 7   

>  <FINAL_SINGLE_POINT_ENERGY>  (990) 
0

>  <NONCOV_INTER_ENERGY_QM>  (990) 
0

>  <FF_Energy>  (990) 
-2.43

>  <QM_Energy>  (990) 
-8.67

>  <source>  (990) 
ACET_MBZ_00

>  <Index>  (990) 
36448

$$$$
ACET-pdb2yvt-A-GLU-84:MBZ-pdb2yvt-A-PHE-18
     RDKit          3D

 22 21  0  0  0  0  0  0  0  0999 V2000
   -4.7783    1.1215    2.5158 C   0  0  0  0  0  0  0  0  0  0  0  0
   -5.4709    1.4349    3.1491 H   0  0  0  0  0  0  0  0  0  0  0  0
   -4.4258    0.2358    2.7818 H   0  0  0  0  0  0  0  0  0  0  0  0
   -5.2411    1.0207    1.5340 H   0  0  0  0  0  0  0  0  0  0  0  0
   -3.6290    2.1058    2.5684 C   0  0  0  0  0  0  0  0  0  0  0  0
   -3.3640    2.7979    1.5746 O   0  0  0  0  0  1  0  0  0  0  0  0
   -2.9878    2.1789    3.6316 O   0  0  0  0  0  0  0  0  0  0  0  0
   -0.0131    2.9049   -0.0306 C   0  0  0  0  0  0  0  0  0  0  0  0
    0.8537    3.2249    0.3145 H   0  0  0  0  0  0  0  0  0  0  0  0
   -0.7655    3.2147    0.5266 H   0  0  0  0  0  0  0  0  0  0  0  0
   -0.1472    3.3183   -1.0302 H   0  0  0  0  0  0  0  0  0  0  0  0
    0.0001    1.4017   -0.0036 C   0  0  0  0  0  0  0  0  0  0  0  0
   -1.1982    0.6929   -0.0001 C   0  0  0  0  0  0  0  0  0  0  0  0
   -2.0636    1.1890    0.0010 H   0  0  0  0  0  0  0  0  0  0  0  0
   -1.2062   -0.6908    0.0000 C   0  0  0  0  0  0  0  0  0  0  0  0
   -2.0817   -1.1870   -0.0063 H   0  0  0  0  0  0  0  0  0  0  0  0
   -0.0032   -1.3944    0.0111 C   0  0  0  0  0  0  0  0  0  0  0  0
   -0.0135   -2.3930    0.0260 H   0  0  0  0  0  0  0  0  0  0  0  0
    1.2062   -0.7047    0.0000 C   0  0  0  0  0  0  0  0  0  0  0  0
    2.0827   -1.2002   -0.0012 H   0  0  0  0  0  0  0  0  0  0  0  0
    1.2013    0.6953   -0.0074 C   0  0  0  0  0  0  0  0  0  0  0  0
    2.0679    1.1890   -0.0160 H   0  0  0  0  0  0  0  0  0  0  0  0
  1  5  1  0
  5  6  1  0
  5  7  2  0
  1  2  1  0
  1  3  1  0
  1  4  1  0
  8 12  1  0
 12 13  2  0
 13 15  1  0
 15 17  2  0
 17 19  1  0
 19 21  2  0
 21 12  1  0
  8  9  1  0
  8 10  1  0
  8 11  1  0
 13 14  1  0
 15 16  1  0
 17 18  1  0
 19 20  1  0
 21 22  1  0
M  CHG  1   6  -1
M  END
>  <PDB_ID>  (991) 
pdb2yvt

>  <RESIDUE_NAME>  (991) 
GLU   PHE

>  <FRAG_NAME>  (991) 
ACET   MBZ

>  <FRAG_ATOM_NUM>  (991) 
fragi: 7  fragj: 15

>  <atom.prop.CHAIN_ID>  (991) 
A A A A A A A Z Z Z Z Z Z Z Z Z Z Z Z Z Z Z

>  <atom.prop.IS_HEAVY_ATOM>  (991) 
1 0 0 0 1 1 1 1 0 0 0 1 1 0 1 0 1 0 1 0 1 0

>  <DIFUSE_FUNC_ATOM>  (991) 
atom 6   atom 7   

>  <FINAL_SINGLE_POINT_ENERGY>  (991) 
0

>  <NONCOV_INTER_ENERGY_QM>  (991) 
0

>  <FF_Energy>  (991) 
-1.42

>  <QM_Energy>  (991) 
-6.53

>  <source>  (991) 
ACET_MBZ_00

>  <Index>  (991) 
36611

$$$$
ACET-pdb2ywb-A-GLU-87:MBZ-pdb2ywb-A-PHE-68
     RDKit          3D

 22 21  0  0  0  0  0  0  0  0999 V2000
    4.3182   -1.5172    3.0846 C   0  0  0  0  0  0  0  0  0  0  0  0
    5.0750   -0.9667    3.3786 H   0  0  0  0  0  0  0  0  0  0  0  0
    4.3335   -2.4171    3.4760 H   0  0  0  0  0  0  0  0  0  0  0  0
    3.3958   -1.0237    3.3908 H   0  0  0  0  0  0  0  0  0  0  0  0
    4.4088   -1.6638    1.5888 C   0  0  0  0  0  0  0  0  0  0  0  0
    5.1897   -2.5289    1.1295 O   0  0  0  0  0  1  0  0  0  0  0  0
    3.6991   -0.9129    0.8819 O   0  0  0  0  0  0  0  0  0  0  0  0
   -0.0050    2.9068   -0.0590 C   0  0  0  0  0  0  0  0  0  0  0  0
    0.9230    3.2211    0.0575 H   0  0  0  0  0  0  0  0  0  0  0  0
   -0.5955    3.2398    0.6577 H   0  0  0  0  0  0  0  0  0  0  0  0
   -0.3749    3.3002   -1.0059 H   0  0  0  0  0  0  0  0  0  0  0  0
   -0.0005    1.4059   -0.0006 C   0  0  0  0  0  0  0  0  0  0  0  0
   -1.1979    0.6969    0.0017 C   0  0  0  0  0  0  0  0  0  0  0  0
   -2.0647    1.1853    0.0038 H   0  0  0  0  0  0  0  0  0  0  0  0
   -1.2033   -0.6986    0.0000 C   0  0  0  0  0  0  0  0  0  0  0  0
   -2.0800   -1.1902    0.0012 H   0  0  0  0  0  0  0  0  0  0  0  0
    0.0001   -1.3986   -0.0023 C   0  0  0  0  0  0  0  0  0  0  0  0
   -0.0050   -2.3958   -0.0058 H   0  0  0  0  0  0  0  0  0  0  0  0
    1.2033   -0.7012   -0.0000 C   0  0  0  0  0  0  0  0  0  0  0  0
    2.0839   -1.1965    0.0026 H   0  0  0  0  0  0  0  0  0  0  0  0
    1.1983    0.6955    0.0012 C   0  0  0  0  0  0  0  0  0  0  0  0
    2.0666    1.1899    0.0021 H   0  0  0  0  0  0  0  0  0  0  0  0
  1  5  1  0
  5  6  1  0
  5  7  2  0
  1  2  1  0
  1  3  1  0
  1  4  1  0
  8 12  1  0
 12 13  2  0
 13 15  1  0
 15 17  2  0
 17 19  1  0
 19 21  2  0
 21 12  1  0
  8  9  1  0
  8 10  1  0
  8 11  1  0
 13 14  1  0
 15 16  1  0
 17 18  1  0
 19 20  1  0
 21 22  1  0
M  CHG  1   6  -1
M  END
>  <PDB_ID>  (992) 
pdb2ywb

>  <RESIDUE_NAME>  (992) 
GLU   PHE

>  <FRAG_NAME>  (992) 
ACET   MBZ

>  <FRAG_ATOM_NUM>  (992) 
fragi: 7  fragj: 15

>  <atom.prop.CHAIN_ID>  (992) 
A A A A A A A Z Z Z Z Z Z Z Z Z Z Z Z Z Z Z

>  <atom.prop.IS_HEAVY_ATOM>  (992) 
1 0 0 0 1 1 1 1 0 0 0 1 1 0 1 0 1 0 1 0 1 0

>  <DIFUSE_FUNC_ATOM>  (992) 
atom 6   atom 7   

>  <FINAL_SINGLE_POINT_ENERGY>  (992) 
0

>  <NONCOV_INTER_ENERGY_QM>  (992) 
0

>  <FF_Energy>  (992) 
20.81

>  <QM_Energy>  (992) 
-3.22

>  <source>  (992) 
ACET_MBZ_00

>  <Index>  (992) 
36646

$$$$
ACET-pdb2yx6-A-GLU-44:MBZ-pdb2yx6-B-PHE-47
     RDKit          3D

 22 21  0  0  0  0  0  0  0  0999 V2000
    6.5837    0.9883   -0.0619 C   0  0  0  0  0  0  0  0  0  0  0  0
    6.6882    1.3928    0.8220 H   0  0  0  0  0  0  0  0  0  0  0  0
    6.8873    1.5679   -0.7890 H   0  0  0  0  0  0  0  0  0  0  0  0
    7.1111    0.0350   -0.0996 H   0  0  0  0  0  0  0  0  0  0  0  0
    5.0496    0.8044   -0.2717 C   0  0  0  0  0  0  0  0  0  0  0  0
    4.2362    1.0857    0.6685 O   0  0  0  0  0  1  0  0  0  0  0  0
    4.6510    0.3381   -1.3831 O   0  0  0  0  0  0  0  0  0  0  0  0
    0.0109    2.9671   -0.0065 C   0  0  0  0  0  0  0  0  0  0  0  0
   -0.7317    3.2632   -0.5835 H   0  0  0  0  0  0  0  0  0  0  0  0
    0.8859    3.2569   -0.3574 H   0  0  0  0  0  0  0  0  0  0  0  0
   -0.1239    3.4287    0.9718 H   0  0  0  0  0  0  0  0  0  0  0  0
    0.0033    1.4326    0.0077 C   0  0  0  0  0  0  0  0  0  0  0  0
   -1.2054    0.7090   -0.0025 C   0  0  0  0  0  0  0  0  0  0  0  0
   -2.0711    1.1870   -0.0123 H   0  0  0  0  0  0  0  0  0  0  0  0
   -1.2095   -0.7160    0.0000 C   0  0  0  0  0  0  0  0  0  0  0  0
   -2.0889   -1.1937    0.0087 H   0  0  0  0  0  0  0  0  0  0  0  0
   -0.0060   -1.4194   -0.0080 C   0  0  0  0  0  0  0  0  0  0  0  0
   -0.0079   -2.4136   -0.0197 H   0  0  0  0  0  0  0  0  0  0  0  0
    1.2095   -0.7163   -0.0000 C   0  0  0  0  0  0  0  0  0  0  0  0
    2.0875   -1.2036    0.0053 H   0  0  0  0  0  0  0  0  0  0  0  0
    1.2080    0.7101    0.0028 C   0  0  0  0  0  0  0  0  0  0  0  0
    2.0776    1.1907    0.0003 H   0  0  0  0  0  0  0  0  0  0  0  0
  1  5  1  0
  5  6  1  0
  5  7  2  0
  1  2  1  0
  1  3  1  0
  1  4  1  0
  8 12  1  0
 12 13  2  0
 13 15  1  0
 15 17  2  0
 17 19  1  0
 19 21  2  0
 21 12  1  0
  8  9  1  0
  8 10  1  0
  8 11  1  0
 13 14  1  0
 15 16  1  0
 17 18  1  0
 19 20  1  0
 21 22  1  0
M  CHG  1   6  -1
M  END
>  <PDB_ID>  (993) 
pdb2yx6

>  <RESIDUE_NAME>  (993) 
GLU   PHE

>  <FRAG_NAME>  (993) 
ACET   MBZ

>  <FRAG_ATOM_NUM>  (993) 
fragi: 7  fragj: 15

>  <atom.prop.CHAIN_ID>  (993) 
A A A A A A A Z Z Z Z Z Z Z Z Z Z Z Z Z Z Z

>  <atom.prop.IS_HEAVY_ATOM>  (993) 
1 0 0 0 1 1 1 1 0 0 0 1 1 0 1 0 1 0 1 0 1 0

>  <DIFUSE_FUNC_ATOM>  (993) 
atom 6   atom 7   

>  <FINAL_SINGLE_POINT_ENERGY>  (993) 
0

>  <NONCOV_INTER_ENERGY_QM>  (993) 
0

>  <FF_Energy>  (993) 
-1.53

>  <QM_Energy>  (993) 
-7.62

>  <source>  (993) 
ACET_MBZ_00

>  <Index>  (993) 
36730

$$$$
ACET-pdb1suu-A-ASP-612:MBZ-pdb1suu-A-PHE-658
     RDKit          3D

 22 21  0  0  0  0  0  0  0  0999 V2000
   -5.5963    2.2912   -0.5882 C   0  0  0  0  0  0  0  0  0  0  0  0
   -5.2159    3.1827   -0.3668 H   0  0  0  0  0  0  0  0  0  0  0  0
   -6.5558    2.2503   -0.3347 H   0  0  0  0  0  0  0  0  0  0  0  0
   -5.5326    2.1623   -1.6687 H   0  0  0  0  0  0  0  0  0  0  0  0
   -4.8342    1.2239    0.2032 C   0  0  0  0  0  0  0  0  0  0  0  0
   -5.0504    0.0081   -0.0250 O   0  0  0  0  0  1  0  0  0  0  0  0
   -4.0213    1.5235    1.1103 O   0  0  0  0  0  0  0  0  0  0  0  0
    0.0008    2.9051   -0.0464 C   0  0  0  0  0  0  0  0  0  0  0  0
    0.7876    3.2285    0.4483 H   0  0  0  0  0  0  0  0  0  0  0  0
   -0.8430    3.2256    0.3468 H   0  0  0  0  0  0  0  0  0  0  0  0
    0.0634    3.2872   -1.0653 H   0  0  0  0  0  0  0  0  0  0  0  0
    0.0007    1.4031    0.0094 C   0  0  0  0  0  0  0  0  0  0  0  0
   -1.1944    0.6998   -0.0103 C   0  0  0  0  0  0  0  0  0  0  0  0
   -2.0608    1.1883   -0.0334 H   0  0  0  0  0  0  0  0  0  0  0  0
   -1.2017   -0.6949   -0.0000 C   0  0  0  0  0  0  0  0  0  0  0  0
   -2.0803   -1.1848    0.0047 H   0  0  0  0  0  0  0  0  0  0  0  0
   -0.0034   -1.3946    0.0055 C   0  0  0  0  0  0  0  0  0  0  0  0
   -0.0108   -2.3939    0.0123 H   0  0  0  0  0  0  0  0  0  0  0  0
    1.2017   -0.7038    0.0000 C   0  0  0  0  0  0  0  0  0  0  0  0
    2.0797   -1.2006    0.0009 H   0  0  0  0  0  0  0  0  0  0  0  0
    1.1971    0.6904   -0.0045 C   0  0  0  0  0  0  0  0  0  0  0  0
    2.0662    1.1852   -0.0183 H   0  0  0  0  0  0  0  0  0  0  0  0
  1  5  1  0
  5  6  1  0
  5  7  2  0
  1  2  1  0
  1  3  1  0
  1  4  1  0
  8 12  1  0
 12 13  2  0
 13 15  1  0
 15 17  2  0
 17 19  1  0
 19 21  2  0
 21 12  1  0
  8  9  1  0
  8 10  1  0
  8 11  1  0
 13 14  1  0
 15 16  1  0
 17 18  1  0
 19 20  1  0
 21 22  1  0
M  CHG  1   6  -1
M  END
>  <PDB_ID>  (994) 
pdb1suu

>  <RESIDUE_NAME>  (994) 
ASP   PHE

>  <FRAG_NAME>  (994) 
ACET   MBZ

>  <FRAG_ATOM_NUM>  (994) 
fragi: 7  fragj: 15

>  <atom.prop.CHAIN_ID>  (994) 
A A A A A A A Z Z Z Z Z Z Z Z Z Z Z Z Z Z Z

>  <atom.prop.IS_HEAVY_ATOM>  (994) 
1 0 0 0 1 1 1 1 0 0 0 1 1 0 1 0 1 0 1 0 1 0

>  <DIFUSE_FUNC_ATOM>  (994) 
atom 6   atom 7   

>  <FINAL_SINGLE_POINT_ENERGY>  (994) 
0

>  <NONCOV_INTER_ENERGY_QM>  (994) 
0

>  <FF_Energy>  (994) 
-1.72

>  <QM_Energy>  (994) 
-7.2

>  <source>  (994) 
ACET_MBZ_00

>  <Index>  (994) 
36732

$$$$
ACET-pdb1suw-D-GLU-168:MBZ-pdb1suw-D-PHE-238
     RDKit          3D

 22 21  0  0  0  0  0  0  0  0999 V2000
   -4.4618   -0.2005   -0.4584 C   0  0  0  0  0  0  0  0  0  0  0  0
   -4.7668    0.7312   -0.3802 H   0  0  0  0  0  0  0  0  0  0  0  0
   -3.5756   -0.3363   -0.0552 H   0  0  0  0  0  0  0  0  0  0  0  0
   -5.1825   -0.8538    0.0335 H   0  0  0  0  0  0  0  0  0  0  0  0
   -4.3385   -0.5115   -1.9271 C   0  0  0  0  0  0  0  0  0  0  0  0
   -4.1861   -1.6981   -2.2981 O   0  0  0  0  0  1  0  0  0  0  0  0
   -4.3915    0.4502   -2.7088 O   0  0  0  0  0  0  0  0  0  0  0  0
    0.0003    2.9004   -0.0234 C   0  0  0  0  0  0  0  0  0  0  0  0
   -0.6623    3.1963   -0.6961 H   0  0  0  0  0  0  0  0  0  0  0  0
    0.9121    3.2045   -0.2602 H   0  0  0  0  0  0  0  0  0  0  0  0
   -0.2665    3.3533    0.9315 H   0  0  0  0  0  0  0  0  0  0  0  0
    0.0016    1.4022   -0.0008 C   0  0  0  0  0  0  0  0  0  0  0  0
   -1.1950    0.6907    0.0008 C   0  0  0  0  0  0  0  0  0  0  0  0
   -2.0626    1.1803    0.0018 H   0  0  0  0  0  0  0  0  0  0  0  0
   -1.2006   -0.7017   -0.0000 C   0  0  0  0  0  0  0  0  0  0  0  0
   -2.0793   -1.1913    0.0013 H   0  0  0  0  0  0  0  0  0  0  0  0
   -0.0054   -1.3913   -0.0006 C   0  0  0  0  0  0  0  0  0  0  0  0
   -0.0028   -2.3922   -0.0018 H   0  0  0  0  0  0  0  0  0  0  0  0
    1.2006   -0.6948    0.0000 C   0  0  0  0  0  0  0  0  0  0  0  0
    2.0790   -1.1965    0.0012 H   0  0  0  0  0  0  0  0  0  0  0  0
    1.1989    0.6949    0.0007 C   0  0  0  0  0  0  0  0  0  0  0  0
    2.0660    1.1903    0.0012 H   0  0  0  0  0  0  0  0  0  0  0  0
  1  5  1  0
  5  6  1  0
  5  7  2  0
  1  2  1  0
  1  3  1  0
  1  4  1  0
  8 12  1  0
 12 13  2  0
 13 15  1  0
 15 17  2  0
 17 19  1  0
 19 21  2  0
 21 12  1  0
  8  9  1  0
  8 10  1  0
  8 11  1  0
 13 14  1  0
 15 16  1  0
 17 18  1  0
 19 20  1  0
 21 22  1  0
M  CHG  1   6  -1
M  END
>  <PDB_ID>  (995) 
pdb1suw

>  <RESIDUE_NAME>  (995) 
GLU   PHE

>  <FRAG_NAME>  (995) 
ACET   MBZ

>  <FRAG_ATOM_NUM>  (995) 
fragi: 7  fragj: 15

>  <atom.prop.CHAIN_ID>  (995) 
A A A A A A A Z Z Z Z Z Z Z Z Z Z Z Z Z Z Z

>  <atom.prop.IS_HEAVY_ATOM>  (995) 
1 0 0 0 1 1 1 1 0 0 0 1 1 0 1 0 1 0 1 0 1 0

>  <DIFUSE_FUNC_ATOM>  (995) 
atom 6   atom 7   

>  <FINAL_SINGLE_POINT_ENERGY>  (995) 
0

>  <NONCOV_INTER_ENERGY_QM>  (995) 
0

>  <FF_Energy>  (995) 
6.92

>  <QM_Energy>  (995) 
-0.88

>  <source>  (995) 
ACET_MBZ_00

>  <Index>  (995) 
36742

$$$$
ACET-pdb2yxg-B-GLU-263:MBZ-pdb2yxg-B-PHE-13
     RDKit          3D

 22 21  0  0  0  0  0  0  0  0999 V2000
    4.0130    2.8625    2.4112 C   0  0  0  0  0  0  0  0  0  0  0  0
    4.2497    1.9987    1.9969 H   0  0  0  0  0  0  0  0  0  0  0  0
    4.3541    2.9296    3.3344 H   0  0  0  0  0  0  0  0  0  0  0  0
    4.5282    3.6310    1.8349 H   0  0  0  0  0  0  0  0  0  0  0  0
    2.4470    2.9446    2.4771 C   0  0  0  0  0  0  0  0  0  0  0  0
    1.8364    3.3615    1.4539 O   0  0  0  0  0  1  0  0  0  0  0  0
    1.8240    2.5704    3.5381 O   0  0  0  0  0  0  0  0  0  0  0  0
    0.0122    2.8596   -0.0338 C   0  0  0  0  0  0  0  0  0  0  0  0
    0.9506    3.1806   -0.1141 H   0  0  0  0  0  0  0  0  0  0  0  0
   -0.4004    3.2039    0.8030 H   0  0  0  0  0  0  0  0  0  0  0  0
   -0.5446    3.2948   -0.8636 H   0  0  0  0  0  0  0  0  0  0  0  0
    0.0056    1.3999   -0.0067 C   0  0  0  0  0  0  0  0  0  0  0  0
   -1.2104    0.6917    0.0091 C   0  0  0  0  0  0  0  0  0  0  0  0
   -2.0668    1.1922    0.0255 H   0  0  0  0  0  0  0  0  0  0  0  0
   -1.2211   -0.6971   -0.0000 C   0  0  0  0  0  0  0  0  0  0  0  0
   -2.0856   -1.1983   -0.0082 H   0  0  0  0  0  0  0  0  0  0  0  0
    0.0058   -1.4062    0.0051 C   0  0  0  0  0  0  0  0  0  0  0  0
   -0.0003   -2.3962    0.0113 H   0  0  0  0  0  0  0  0  0  0  0  0
    1.2211   -0.6971    0.0000 C   0  0  0  0  0  0  0  0  0  0  0  0
    2.0967   -1.1850    0.0036 H   0  0  0  0  0  0  0  0  0  0  0  0
    1.1990    0.7088   -0.0076 C   0  0  0  0  0  0  0  0  0  0  0  0
    2.0685    1.2045   -0.0142 H   0  0  0  0  0  0  0  0  0  0  0  0
  1  5  1  0
  5  6  1  0
  5  7  2  0
  1  2  1  0
  1  3  1  0
  1  4  1  0
  8 12  1  0
 12 13  2  0
 13 15  1  0
 15 17  2  0
 17 19  1  0
 19 21  2  0
 21 12  1  0
  8  9  1  0
  8 10  1  0
  8 11  1  0
 13 14  1  0
 15 16  1  0
 17 18  1  0
 19 20  1  0
 21 22  1  0
M  CHG  1   6  -1
M  END
>  <PDB_ID>  (996) 
pdb2yxg

>  <RESIDUE_NAME>  (996) 
GLU   PHE

>  <FRAG_NAME>  (996) 
ACET   MBZ

>  <FRAG_ATOM_NUM>  (996) 
fragi: 7  fragj: 15

>  <atom.prop.CHAIN_ID>  (996) 
A A A A A A A Z Z Z Z Z Z Z Z Z Z Z Z Z Z Z

>  <atom.prop.IS_HEAVY_ATOM>  (996) 
1 0 0 0 1 1 1 1 0 0 0 1 1 0 1 0 1 0 1 0 1 0

>  <DIFUSE_FUNC_ATOM>  (996) 
atom 6   atom 7   

>  <FINAL_SINGLE_POINT_ENERGY>  (996) 
0

>  <NONCOV_INTER_ENERGY_QM>  (996) 
0

>  <FF_Energy>  (996) 
42.54

>  <QM_Energy>  (996) 
3.94

>  <source>  (996) 
ACET_MBZ_00

>  <Index>  (996) 
36757

$$$$
ACET-pdb1svd-A-GLU-53:MBZ-pdb1svd-A-PHE-120
     RDKit          3D

 22 21  0  0  0  0  0  0  0  0999 V2000
   -2.2338    0.8275   -5.0032 C   0  0  0  0  0  0  0  0  0  0  0  0
   -3.1227    0.5778   -5.3578 H   0  0  0  0  0  0  0  0  0  0  0  0
   -1.6490    0.0357   -4.9122 H   0  0  0  0  0  0  0  0  0  0  0  0
   -1.7689    1.5082   -5.7165 H   0  0  0  0  0  0  0  0  0  0  0  0
   -2.4518    1.3968   -3.5846 C   0  0  0  0  0  0  0  0  0  0  0  0
   -3.5549    1.1749   -3.0222 O   0  0  0  0  0  1  0  0  0  0  0  0
   -1.5386    2.0568   -3.0116 O   0  0  0  0  0  0  0  0  0  0  0  0
    0.0436    2.9035   -0.0253 C   0  0  0  0  0  0  0  0  0  0  0  0
   -0.1424    3.2013   -0.9578 H   0  0  0  0  0  0  0  0  0  0  0  0
    0.9564    3.1909    0.2510 H   0  0  0  0  0  0  0  0  0  0  0  0
   -0.6715    3.4012    0.6297 H   0  0  0  0  0  0  0  0  0  0  0  0
    0.0041    1.4060   -0.0022 C   0  0  0  0  0  0  0  0  0  0  0  0
   -1.1925    0.7098   -0.0035 C   0  0  0  0  0  0  0  0  0  0  0  0
   -2.0590    1.1906   -0.0082 H   0  0  0  0  0  0  0  0  0  0  0  0
   -1.1976   -0.7000    0.0000 C   0  0  0  0  0  0  0  0  0  0  0  0
   -2.0837   -1.1788   -0.0141 H   0  0  0  0  0  0  0  0  0  0  0  0
   -0.0116   -1.3940    0.0246 C   0  0  0  0  0  0  0  0  0  0  0  0
   -0.0206   -2.3995    0.0600 H   0  0  0  0  0  0  0  0  0  0  0  0
    1.1976   -0.7186    0.0000 C   0  0  0  0  0  0  0  0  0  0  0  0
    2.0729   -1.2099   -0.0029 H   0  0  0  0  0  0  0  0  0  0  0  0
    1.2000    0.6968   -0.0189 C   0  0  0  0  0  0  0  0  0  0  0  0
    2.0702    1.1774   -0.0455 H   0  0  0  0  0  0  0  0  0  0  0  0
  1  5  1  0
  5  6  1  0
  5  7  2  0
  1  2  1  0
  1  3  1  0
  1  4  1  0
  8 12  1  0
 12 13  2  0
 13 15  1  0
 15 17  2  0
 17 19  1  0
 19 21  2  0
 21 12  1  0
  8  9  1  0
  8 10  1  0
  8 11  1  0
 13 14  1  0
 15 16  1  0
 17 18  1  0
 19 20  1  0
 21 22  1  0
M  CHG  1   6  -1
M  END
>  <PDB_ID>  (997) 
pdb1svd

>  <RESIDUE_NAME>  (997) 
GLU   PHE

>  <FRAG_NAME>  (997) 
ACET   MBZ

>  <FRAG_ATOM_NUM>  (997) 
fragi: 7  fragj: 15

>  <atom.prop.CHAIN_ID>  (997) 
A A A A A A A Z Z Z Z Z Z Z Z Z Z Z Z Z Z Z

>  <atom.prop.IS_HEAVY_ATOM>  (997) 
1 0 0 0 1 1 1 1 0 0 0 1 1 0 1 0 1 0 1 0 1 0

>  <DIFUSE_FUNC_ATOM>  (997) 
atom 6   atom 7   

>  <FINAL_SINGLE_POINT_ENERGY>  (997) 
0

>  <NONCOV_INTER_ENERGY_QM>  (997) 
0

>  <FF_Energy>  (997) 
0.68

>  <QM_Energy>  (997) 
-5.17

>  <source>  (997) 
ACET_MBZ_00

>  <Index>  (997) 
36760

$$$$
ACET-pdb1syy-A-GLU-227:MBZ-pdb1syy-A-PHE-197
     RDKit          3D

 22 21  0  0  0  0  0  0  0  0999 V2000
    4.8285    3.1764   -0.1230 C   0  0  0  0  0  0  0  0  0  0  0  0
    3.9541    3.5503   -0.0424 H   0  0  0  0  0  0  0  0  0  0  0  0
    5.2940    3.3185   -0.9441 H   0  0  0  0  0  0  0  0  0  0  0  0
    5.4475    3.4843    0.7197 H   0  0  0  0  0  0  0  0  0  0  0  0
    4.6783    1.6594    0.0419 C   0  0  0  0  0  0  0  0  0  0  0  0
    3.8567    1.2896    0.9037 O   0  0  0  0  0  1  0  0  0  0  0  0
    5.3990    0.8377   -0.5958 O   0  0  0  0  0  0  0  0  0  0  0  0
    0.0220    2.9041    0.1431 C   0  0  0  0  0  0  0  0  0  0  0  0
    0.6280    3.2510   -0.5691 H   0  0  0  0  0  0  0  0  0  0  0  0
    0.4058    3.1040    1.0416 H   0  0  0  0  0  0  0  0  0  0  0  0
   -0.9489    3.3912    0.0531 H   0  0  0  0  0  0  0  0  0  0  0  0
   -0.0014    1.3959    0.0027 C   0  0  0  0  0  0  0  0  0  0  0  0
   -1.1850    0.6850   -0.0016 C   0  0  0  0  0  0  0  0  0  0  0  0
   -2.0557    1.1834   -0.0078 H   0  0  0  0  0  0  0  0  0  0  0  0
   -1.1834   -0.6733    0.0000 C   0  0  0  0  0  0  0  0  0  0  0  0
   -2.0708   -1.1778    0.0020 H   0  0  0  0  0  0  0  0  0  0  0  0
   -0.0035   -1.3792    0.0011 C   0  0  0  0  0  0  0  0  0  0  0  0
   -0.0168   -2.3776    0.0025 H   0  0  0  0  0  0  0  0  0  0  0  0
    1.1834   -0.6926   -0.0000 C   0  0  0  0  0  0  0  0  0  0  0  0
    2.0684   -1.2070    0.0026 H   0  0  0  0  0  0  0  0  0  0  0  0
    1.1899    0.6642   -0.0022 C   0  0  0  0  0  0  0  0  0  0  0  0
    2.0617    1.1704   -0.0086 H   0  0  0  0  0  0  0  0  0  0  0  0
  1  5  1  0
  5  6  1  0
  5  7  2  0
  1  2  1  0
  1  3  1  0
  1  4  1  0
  8 12  1  0
 12 13  2  0
 13 15  1  0
 15 17  2  0
 17 19  1  0
 19 21  2  0
 21 12  1  0
  8  9  1  0
  8 10  1  0
  8 11  1  0
 13 14  1  0
 15 16  1  0
 17 18  1  0
 19 20  1  0
 21 22  1  0
M  CHG  1   6  -1
M  END
>  <PDB_ID>  (998) 
pdb1syy

>  <RESIDUE_NAME>  (998) 
GLU   PHE

>  <FRAG_NAME>  (998) 
ACET   MBZ

>  <FRAG_ATOM_NUM>  (998) 
fragi: 7  fragj: 15

>  <atom.prop.CHAIN_ID>  (998) 
A A A A A A A Z Z Z Z Z Z Z Z Z Z Z Z Z Z Z

>  <atom.prop.IS_HEAVY_ATOM>  (998) 
1 0 0 0 1 1 1 1 0 0 0 1 1 0 1 0 1 0 1 0 1 0

>  <DIFUSE_FUNC_ATOM>  (998) 
atom 6   atom 7   

>  <FINAL_SINGLE_POINT_ENERGY>  (998) 
0

>  <NONCOV_INTER_ENERGY_QM>  (998) 
0

>  <FF_Energy>  (998) 
5.2

>  <QM_Energy>  (998) 
-5.38

>  <source>  (998) 
ACET_MBZ_00

>  <Index>  (998) 
36851

$$$$
ACET-pdb1t06-B-GLU-55:MBZ-pdb1t06-B-PHE-3
     RDKit          3D

 22 21  0  0  0  0  0  0  0  0999 V2000
   -1.5777    0.8300   -3.2076 C   0  0  0  0  0  0  0  0  0  0  0  0
   -1.4921    0.5293   -2.2791 H   0  0  0  0  0  0  0  0  0  0  0  0
   -1.3127    0.1440   -3.8557 H   0  0  0  0  0  0  0  0  0  0  0  0
   -2.6167    1.1035   -3.3913 H   0  0  0  0  0  0  0  0  0  0  0  0
   -0.6417    2.0132   -3.3901 C   0  0  0  0  0  0  0  0  0  0  0  0
   -1.0660    3.1612   -3.1260 O   0  0  0  0  0  1  0  0  0  0  0  0
    0.5176    1.7884   -3.7937 O   0  0  0  0  0  0  0  0  0  0  0  0
   -0.0010    2.8870    0.1022 C   0  0  0  0  0  0  0  0  0  0  0  0
   -0.6871    3.2401   -0.5145 H   0  0  0  0  0  0  0  0  0  0  0  0
    0.9009    3.2160   -0.1333 H   0  0  0  0  0  0  0  0  0  0  0  0
   -0.2350    3.2544    1.1015 H   0  0  0  0  0  0  0  0  0  0  0  0
    0.0002    1.3978    0.0016 C   0  0  0  0  0  0  0  0  0  0  0  0
   -1.1970    0.6896   -0.0010 C   0  0  0  0  0  0  0  0  0  0  0  0
   -2.0627    1.1816   -0.0050 H   0  0  0  0  0  0  0  0  0  0  0  0
   -1.2026   -0.6986    0.0000 C   0  0  0  0  0  0  0  0  0  0  0  0
   -2.0772   -1.1933    0.0001 H   0  0  0  0  0  0  0  0  0  0  0  0
   -0.0008   -1.3902    0.0031 C   0  0  0  0  0  0  0  0  0  0  0  0
   -0.0017   -2.3898    0.0068 H   0  0  0  0  0  0  0  0  0  0  0  0
    1.2026   -0.6932    0.0000 C   0  0  0  0  0  0  0  0  0  0  0  0
    2.0821   -1.1925    0.0019 H   0  0  0  0  0  0  0  0  0  0  0  0
    1.1976    0.6946   -0.0037 C   0  0  0  0  0  0  0  0  0  0  0  0
    2.0638    1.1928   -0.0111 H   0  0  0  0  0  0  0  0  0  0  0  0
  1  5  1  0
  5  6  1  0
  5  7  2  0
  1  2  1  0
  1  3  1  0
  1  4  1  0
  8 12  1  0
 12 13  2  0
 13 15  1  0
 15 17  2  0
 17 19  1  0
 19 21  2  0
 21 12  1  0
  8  9  1  0
  8 10  1  0
  8 11  1  0
 13 14  1  0
 15 16  1  0
 17 18  1  0
 19 20  1  0
 21 22  1  0
M  CHG  1   6  -1
M  END
>  <PDB_ID>  (999) 
pdb1t06

>  <RESIDUE_NAME>  (999) 
GLU   PHE

>  <FRAG_NAME>  (999) 
ACET   MBZ

>  <FRAG_ATOM_NUM>  (999) 
fragi: 7  fragj: 15

>  <atom.prop.CHAIN_ID>  (999) 
A A A A A A A Z Z Z Z Z Z Z Z Z Z Z Z Z Z Z

>  <atom.prop.IS_HEAVY_ATOM>  (999) 
1 0 0 0 1 1 1 1 0 0 0 1 1 0 1 0 1 0 1 0 1 0

>  <DIFUSE_FUNC_ATOM>  (999) 
atom 6   atom 7   

>  <FINAL_SINGLE_POINT_ENERGY>  (999) 
0

>  <NONCOV_INTER_ENERGY_QM>  (999) 
0

>  <FF_Energy>  (999) 
4.01

>  <QM_Energy>  (999) 
-2.67

>  <source>  (999) 
ACET_MBZ_00

>  <Index>  (999) 
36885

$$$$
ACET-pdb2yzb-D-GLU-86:MBZ-pdb2yzb-D-PHE-199
     RDKit          3D

 22 21  0  0  0  0  0  0  0  0999 V2000
   -0.8871    0.7172    3.5013 C   0  0  0  0  0  0  0  0  0  0  0  0
   -1.3846    0.2620    2.7855 H   0  0  0  0  0  0  0  0  0  0  0  0
   -1.2404    0.5006    4.3939 H   0  0  0  0  0  0  0  0  0  0  0  0
    0.1506    0.3863    3.4563 H   0  0  0  0  0  0  0  0  0  0  0  0
   -1.0509    2.2154    3.2942 C   0  0  0  0  0  0  0  0  0  0  0  0
   -0.0881    2.9772    3.5351 O   0  0  0  0  0  1  0  0  0  0  0  0
   -2.1561    2.6340    2.8999 O   0  0  0  0  0  0  0  0  0  0  0  0
   -0.0045    2.9095   -0.0280 C   0  0  0  0  0  0  0  0  0  0  0  0
    0.9293    3.2190    0.0449 H   0  0  0  0  0  0  0  0  0  0  0  0
   -0.5552    3.2272    0.7260 H   0  0  0  0  0  0  0  0  0  0  0  0
   -0.4235    3.3227   -0.9456 H   0  0  0  0  0  0  0  0  0  0  0  0
   -0.0003    1.4054    0.0002 C   0  0  0  0  0  0  0  0  0  0  0  0
   -1.1989    0.6968   -0.0003 C   0  0  0  0  0  0  0  0  0  0  0  0
   -2.0653    1.1854   -0.0016 H   0  0  0  0  0  0  0  0  0  0  0  0
   -1.2051   -0.7004    0.0000 C   0  0  0  0  0  0  0  0  0  0  0  0
   -2.0811   -1.1911    0.0007 H   0  0  0  0  0  0  0  0  0  0  0  0
   -0.0013   -1.3984    0.0005 C   0  0  0  0  0  0  0  0  0  0  0  0
   -0.0039   -2.3960    0.0006 H   0  0  0  0  0  0  0  0  0  0  0  0
    1.2051   -0.7001   -0.0000 C   0  0  0  0  0  0  0  0  0  0  0  0
    2.0842   -1.1972    0.0017 H   0  0  0  0  0  0  0  0  0  0  0  0
    1.2005    0.6965   -0.0005 C   0  0  0  0  0  0  0  0  0  0  0  0
    2.0669    1.1917   -0.0017 H   0  0  0  0  0  0  0  0  0  0  0  0
  1  5  1  0
  5  6  1  0
  5  7  2  0
  1  2  1  0
  1  3  1  0
  1  4  1  0
  8 12  1  0
 12 13  2  0
 13 15  1  0
 15 17  2  0
 17 19  1  0
 19 21  2  0
 21 12  1  0
  8  9  1  0
  8 10  1  0
  8 11  1  0
 13 14  1  0
 15 16  1  0
 17 18  1  0
 19 20  1  0
 21 22  1  0
M  CHG  1   6  -1
M  END
>  <PDB_ID>  (1000) 
pdb2yzb

>  <RESIDUE_NAME>  (1000) 
GLU   PHE

>  <FRAG_NAME>  (1000) 
ACET   MBZ

>  <FRAG_ATOM_NUM>  (1000) 
fragi: 7  fragj: 15

>  <atom.prop.CHAIN_ID>  (1000) 
A A A A A A A Z Z Z Z Z Z Z Z Z Z Z Z Z Z Z

>  <atom.prop.IS_HEAVY_ATOM>  (1000) 
1 0 0 0 1 1 1 1 0 0 0 1 1 0 1 0 1 0 1 0 1 0

>  <DIFUSE_FUNC_ATOM>  (1000) 
atom 6   atom 7   

>  <FINAL_SINGLE_POINT_ENERGY>  (1000) 
0

>  <NONCOV_INTER_ENERGY_QM>  (1000) 
0

>  <FF_Energy>  (1000) 
-0.65

>  <QM_Energy>  (1000) 
-6.6

>  <source>  (1000) 
ACET_MBZ_00

>  <Index>  (1000) 
37034

$$$$
ACET-pdb2yzb-F-GLU-86:MBZ-pdb2yzb-F-PHE-199
     RDKit          3D

 22 21  0  0  0  0  0  0  0  0999 V2000
   -1.3500    0.7521    3.5941 C   0  0  0  0  0  0  0  0  0  0  0  0
   -1.8939    0.2638    2.9342 H   0  0  0  0  0  0  0  0  0  0  0  0
   -1.7067    0.6565    4.5067 H   0  0  0  0  0  0  0  0  0  0  0  0
   -0.3417    0.3384    3.5764 H   0  0  0  0  0  0  0  0  0  0  0  0
   -1.4015    2.2238    3.2336 C   0  0  0  0  0  0  0  0  0  0  0  0
   -0.4133    2.9518    3.4892 O   0  0  0  0  0  1  0  0  0  0  0  0
   -2.4503    2.6553    2.7048 O   0  0  0  0  0  0  0  0  0  0  0  0
   -0.0027    2.9096   -0.0283 C   0  0  0  0  0  0  0  0  0  0  0  0
    0.9226    3.2191    0.1151 H   0  0  0  0  0  0  0  0  0  0  0  0
   -0.6090    3.2269    0.6815 H   0  0  0  0  0  0  0  0  0  0  0  0
   -0.3511    3.3217   -0.9754 H   0  0  0  0  0  0  0  0  0  0  0  0
    0.0005    1.4054    0.0006 C   0  0  0  0  0  0  0  0  0  0  0  0
   -1.1995    0.6939    0.0003 C   0  0  0  0  0  0  0  0  0  0  0  0
   -2.0649    1.1832   -0.0007 H   0  0  0  0  0  0  0  0  0  0  0  0
   -1.2048   -0.7023   -0.0000 C   0  0  0  0  0  0  0  0  0  0  0  0
   -2.0784   -1.1954    0.0015 H   0  0  0  0  0  0  0  0  0  0  0  0
    0.0030   -1.3988   -0.0005 C   0  0  0  0  0  0  0  0  0  0  0  0
    0.0003   -2.3953   -0.0016 H   0  0  0  0  0  0  0  0  0  0  0  0
    1.2048   -0.6972    0.0000 C   0  0  0  0  0  0  0  0  0  0  0  0
    2.0870   -1.1905    0.0020 H   0  0  0  0  0  0  0  0  0  0  0  0
    1.1960    0.6990   -0.0004 C   0  0  0  0  0  0  0  0  0  0  0  0
    2.0646    1.1942   -0.0023 H   0  0  0  0  0  0  0  0  0  0  0  0
  1  5  1  0
  5  6  1  0
  5  7  2  0
  1  2  1  0
  1  3  1  0
  1  4  1  0
  8 12  1  0
 12 13  2  0
 13 15  1  0
 15 17  2  0
 17 19  1  0
 19 21  2  0
 21 12  1  0
  8  9  1  0
  8 10  1  0
  8 11  1  0
 13 14  1  0
 15 16  1  0
 17 18  1  0
 19 20  1  0
 21 22  1  0
M  CHG  1   6  -1
M  END
>  <PDB_ID>  (1001) 
pdb2yzb

>  <RESIDUE_NAME>  (1001) 
GLU   PHE

>  <FRAG_NAME>  (1001) 
ACET   MBZ

>  <FRAG_ATOM_NUM>  (1001) 
fragi: 7  fragj: 15

>  <atom.prop.CHAIN_ID>  (1001) 
A A A A A A A Z Z Z Z Z Z Z Z Z Z Z Z Z Z Z

>  <atom.prop.IS_HEAVY_ATOM>  (1001) 
1 0 0 0 1 1 1 1 0 0 0 1 1 0 1 0 1 0 1 0 1 0

>  <DIFUSE_FUNC_ATOM>  (1001) 
atom 6   atom 7   

>  <FINAL_SINGLE_POINT_ENERGY>  (1001) 
0

>  <NONCOV_INTER_ENERGY_QM>  (1001) 
0

>  <FF_Energy>  (1001) 
-0.96

>  <QM_Energy>  (1001) 
-6.92

>  <source>  (1001) 
ACET_MBZ_00

>  <Index>  (1001) 
37049

$$$$
ACET-pdb2yzb-G-GLU-86:MBZ-pdb2yzb-G-PHE-199
     RDKit          3D

 22 21  0  0  0  0  0  0  0  0999 V2000
   -1.3569    0.6773    3.3897 C   0  0  0  0  0  0  0  0  0  0  0  0
   -1.8133    0.1511    2.6938 H   0  0  0  0  0  0  0  0  0  0  0  0
   -1.7651    0.5488    4.2765 H   0  0  0  0  0  0  0  0  0  0  0  0
   -0.3194    0.3468    3.4398 H   0  0  0  0  0  0  0  0  0  0  0  0
   -1.5125    2.1501    3.0252 C   0  0  0  0  0  0  0  0  0  0  0  0
   -0.5933    2.9550    3.2939 O   0  0  0  0  0  1  0  0  0  0  0  0
   -2.5748    2.5061    2.4773 O   0  0  0  0  0  0  0  0  0  0  0  0
   -0.0030    2.9038   -0.0462 C   0  0  0  0  0  0  0  0  0  0  0  0
    0.9180    3.2185    0.1154 H   0  0  0  0  0  0  0  0  0  0  0  0
   -0.6280    3.2308    0.6438 H   0  0  0  0  0  0  0  0  0  0  0  0
   -0.3284    3.3014   -1.0075 H   0  0  0  0  0  0  0  0  0  0  0  0
    0.0004    1.4060   -0.0010 C   0  0  0  0  0  0  0  0  0  0  0  0
   -1.1987    0.6976    0.0001 C   0  0  0  0  0  0  0  0  0  0  0  0
   -2.0646    1.1857    0.0001 H   0  0  0  0  0  0  0  0  0  0  0  0
   -1.2044   -0.7007   -0.0000 C   0  0  0  0  0  0  0  0  0  0  0  0
   -2.0807   -1.1907    0.0012 H   0  0  0  0  0  0  0  0  0  0  0  0
   -0.0006   -1.3987   -0.0003 C   0  0  0  0  0  0  0  0  0  0  0  0
   -0.0049   -2.3961   -0.0010 H   0  0  0  0  0  0  0  0  0  0  0  0
    1.2044   -0.7016   -0.0000 C   0  0  0  0  0  0  0  0  0  0  0  0
    2.0840   -1.1965    0.0007 H   0  0  0  0  0  0  0  0  0  0  0  0
    1.1989    0.6975    0.0013 C   0  0  0  0  0  0  0  0  0  0  0  0
    2.0668    1.1906    0.0027 H   0  0  0  0  0  0  0  0  0  0  0  0
  1  5  1  0
  5  6  1  0
  5  7  2  0
  1  2  1  0
  1  3  1  0
  1  4  1  0
  8 12  1  0
 12 13  2  0
 13 15  1  0
 15 17  2  0
 17 19  1  0
 19 21  2  0
 21 12  1  0
  8  9  1  0
  8 10  1  0
  8 11  1  0
 13 14  1  0
 15 16  1  0
 17 18  1  0
 19 20  1  0
 21 22  1  0
M  CHG  1   6  -1
M  END
>  <PDB_ID>  (1002) 
pdb2yzb

>  <RESIDUE_NAME>  (1002) 
GLU   PHE

>  <FRAG_NAME>  (1002) 
ACET   MBZ

>  <FRAG_ATOM_NUM>  (1002) 
fragi: 7  fragj: 15

>  <atom.prop.CHAIN_ID>  (1002) 
A A A A A A A Z Z Z Z Z Z Z Z Z Z Z Z Z Z Z

>  <atom.prop.IS_HEAVY_ATOM>  (1002) 
1 0 0 0 1 1 1 1 0 0 0 1 1 0 1 0 1 0 1 0 1 0

>  <DIFUSE_FUNC_ATOM>  (1002) 
atom 6   atom 7   

>  <FINAL_SINGLE_POINT_ENERGY>  (1002) 
0

>  <NONCOV_INTER_ENERGY_QM>  (1002) 
0

>  <FF_Energy>  (1002) 
-0.35

>  <QM_Energy>  (1002) 
-7.35

>  <source>  (1002) 
ACET_MBZ_00

>  <Index>  (1002) 
37054

$$$$
ACET-pdb2z00-A-GLU-330:MBZ-pdb2z00-A-PHE-393
     RDKit          3D

 22 21  0  0  0  0  0  0  0  0999 V2000
   -2.9323    1.8949    4.4244 C   0  0  0  0  0  0  0  0  0  0  0  0
   -3.7545    2.3035    4.7837 H   0  0  0  0  0  0  0  0  0  0  0  0
   -2.2082    1.8787    5.0935 H   0  0  0  0  0  0  0  0  0  0  0  0
   -3.1595    0.8666    4.1435 H   0  0  0  0  0  0  0  0  0  0  0  0
   -2.4621    2.7577    3.2621 C   0  0  0  0  0  0  0  0  0  0  0  0
   -3.3077    3.1743    2.4383 O   0  0  0  0  0  1  0  0  0  0  0  0
   -1.2414    3.0163    3.1769 O   0  0  0  0  0  0  0  0  0  0  0  0
    0.0258    2.9163    0.0517 C   0  0  0  0  0  0  0  0  0  0  0  0
    0.7384    3.2312   -0.5613 H   0  0  0  0  0  0  0  0  0  0  0  0
    0.2162    3.1873    0.9863 H   0  0  0  0  0  0  0  0  0  0  0  0
   -0.9034    3.4009   -0.2478 H   0  0  0  0  0  0  0  0  0  0  0  0
    0.0008    1.4071    0.0004 C   0  0  0  0  0  0  0  0  0  0  0  0
   -1.2005    0.7006    0.0003 C   0  0  0  0  0  0  0  0  0  0  0  0
   -2.0648    1.1902   -0.0007 H   0  0  0  0  0  0  0  0  0  0  0  0
   -1.2052   -0.6959    0.0000 C   0  0  0  0  0  0  0  0  0  0  0  0
   -2.0805   -1.1893    0.0004 H   0  0  0  0  0  0  0  0  0  0  0  0
    0.0015   -1.3998    0.0009 C   0  0  0  0  0  0  0  0  0  0  0  0
   -0.0077   -2.3956    0.0017 H   0  0  0  0  0  0  0  0  0  0  0  0
    1.2052   -0.7037   -0.0000 C   0  0  0  0  0  0  0  0  0  0  0  0
    2.0854   -1.1988    0.0014 H   0  0  0  0  0  0  0  0  0  0  0  0
    1.1983    0.6917   -0.0016 C   0  0  0  0  0  0  0  0  0  0  0  0
    2.0681    1.1876   -0.0049 H   0  0  0  0  0  0  0  0  0  0  0  0
  1  5  1  0
  5  6  1  0
  5  7  2  0
  1  2  1  0
  1  3  1  0
  1  4  1  0
  8 12  1  0
 12 13  2  0
 13 15  1  0
 15 17  2  0
 17 19  1  0
 19 21  2  0
 21 12  1  0
  8  9  1  0
  8 10  1  0
  8 11  1  0
 13 14  1  0
 15 16  1  0
 17 18  1  0
 19 20  1  0
 21 22  1  0
M  CHG  1   6  -1
M  END
>  <PDB_ID>  (1003) 
pdb2z00

>  <RESIDUE_NAME>  (1003) 
GLU   PHE

>  <FRAG_NAME>  (1003) 
ACET   MBZ

>  <FRAG_ATOM_NUM>  (1003) 
fragi: 7  fragj: 15

>  <atom.prop.CHAIN_ID>  (1003) 
A A A A A A A Z Z Z Z Z Z Z Z Z Z Z Z Z Z Z

>  <atom.prop.IS_HEAVY_ATOM>  (1003) 
1 0 0 0 1 1 1 1 0 0 0 1 1 0 1 0 1 0 1 0 1 0

>  <DIFUSE_FUNC_ATOM>  (1003) 
atom 6   atom 7   

>  <FINAL_SINGLE_POINT_ENERGY>  (1003) 
0

>  <NONCOV_INTER_ENERGY_QM>  (1003) 
0

>  <FF_Energy>  (1003) 
-0.52

>  <QM_Energy>  (1003) 
-5.87

>  <source>  (1003) 
ACET_MBZ_00

>  <Index>  (1003) 
37093

$$$$
ACET-pdb1t3n-A-ASP-335:MBZ-pdb1t3n-A-PHE-302
     RDKit          3D

 22 21  0  0  0  0  0  0  0  0999 V2000
   -2.0647   -4.0784   -0.2427 C   0  0  0  0  0  0  0  0  0  0  0  0
   -1.5040   -3.5441   -0.8628 H   0  0  0  0  0  0  0  0  0  0  0  0
   -2.8688   -3.5670    0.0306 H   0  0  0  0  0  0  0  0  0  0  0  0
   -2.3952   -4.9728   -0.7709 H   0  0  0  0  0  0  0  0  0  0  0  0
   -1.2601   -4.4172    0.9773 C   0  0  0  0  0  0  0  0  0  0  0  0
   -1.8148   -5.0653    1.8987 O   0  0  0  0  0  1  0  0  0  0  0  0
   -0.0562   -4.0932    0.9976 O   0  0  0  0  0  0  0  0  0  0  0  0
   -0.0165    2.8640    0.0182 C   0  0  0  0  0  0  0  0  0  0  0  0
   -0.5848    3.1667    0.7735 H   0  0  0  0  0  0  0  0  0  0  0  0
   -0.3814    3.1872   -0.8470 H   0  0  0  0  0  0  0  0  0  0  0  0
    0.9673    3.3153    0.1472 H   0  0  0  0  0  0  0  0  0  0  0  0
   -0.0038    1.3863    0.0011 C   0  0  0  0  0  0  0  0  0  0  0  0
   -1.1953    0.6895   -0.0011 C   0  0  0  0  0  0  0  0  0  0  0  0
   -2.0615    1.1860   -0.0045 H   0  0  0  0  0  0  0  0  0  0  0  0
   -1.2015   -0.6865   -0.0000 C   0  0  0  0  0  0  0  0  0  0  0  0
   -2.0736   -1.1882    0.0007 H   0  0  0  0  0  0  0  0  0  0  0  0
    0.0044   -1.3804    0.0018 C   0  0  0  0  0  0  0  0  0  0  0  0
   -0.0054   -2.3833    0.0038 H   0  0  0  0  0  0  0  0  0  0  0  0
    1.2015   -0.6929   -0.0000 C   0  0  0  0  0  0  0  0  0  0  0  0
    2.0815   -1.1947    0.0013 H   0  0  0  0  0  0  0  0  0  0  0  0
    1.1947    0.6839   -0.0018 C   0  0  0  0  0  0  0  0  0  0  0  0
    2.0599    1.1886   -0.0062 H   0  0  0  0  0  0  0  0  0  0  0  0
  1  5  1  0
  5  6  1  0
  5  7  2  0
  1  2  1  0
  1  3  1  0
  1  4  1  0
  8 12  1  0
 12 13  2  0
 13 15  1  0
 15 17  2  0
 17 19  1  0
 19 21  2  0
 21 12  1  0
  8  9  1  0
  8 10  1  0
  8 11  1  0
 13 14  1  0
 15 16  1  0
 17 18  1  0
 19 20  1  0
 21 22  1  0
M  CHG  1   6  -1
M  END
>  <PDB_ID>  (1004) 
pdb1t3n

>  <RESIDUE_NAME>  (1004) 
ASP   PHE

>  <FRAG_NAME>  (1004) 
ACET   MBZ

>  <FRAG_ATOM_NUM>  (1004) 
fragi: 7  fragj: 15

>  <atom.prop.CHAIN_ID>  (1004) 
A A A A A A A Z Z Z Z Z Z Z Z Z Z Z Z Z Z Z

>  <atom.prop.IS_HEAVY_ATOM>  (1004) 
1 0 0 0 1 1 1 1 0 0 0 1 1 0 1 0 1 0 1 0 1 0

>  <DIFUSE_FUNC_ATOM>  (1004) 
atom 6   atom 7   

>  <FINAL_SINGLE_POINT_ENERGY>  (1004) 
0

>  <NONCOV_INTER_ENERGY_QM>  (1004) 
0

>  <FF_Energy>  (1004) 
8.83

>  <QM_Energy>  (1004) 
-3.31

>  <source>  (1004) 
ACET_MBZ_00

>  <Index>  (1004) 
37149

$$$$
ACET-pdb1t3a-A-ASP-14:MBZ-pdb1t3a-A-PHE-135
     RDKit          3D

 22 21  0  0  0  0  0  0  0  0999 V2000
   -3.6869    1.8162    2.3061 C   0  0  0  0  0  0  0  0  0  0  0  0
   -3.9657    1.7943    3.2575 H   0  0  0  0  0  0  0  0  0  0  0  0
   -2.9890    1.1349    2.1280 H   0  0  0  0  0  0  0  0  0  0  0  0
   -4.5568    1.5734    1.6957 H   0  0  0  0  0  0  0  0  0  0  0  0
   -3.1271    3.1874    1.9904 C   0  0  0  0  0  0  0  0  0  0  0  0
   -2.9821    3.5031    0.7926 O   0  0  0  0  0  1  0  0  0  0  0  0
   -2.8249    3.9446    2.9338 O   0  0  0  0  0  0  0  0  0  0  0  0
   -0.0038    2.9053   -0.0094 C   0  0  0  0  0  0  0  0  0  0  0  0
    0.9339    3.2141    0.0119 H   0  0  0  0  0  0  0  0  0  0  0  0
   -0.5056    3.2140    0.7835 H   0  0  0  0  0  0  0  0  0  0  0  0
   -0.4775    3.3313   -0.8938 H   0  0  0  0  0  0  0  0  0  0  0  0
    0.0014    1.4038   -0.0001 C   0  0  0  0  0  0  0  0  0  0  0  0
   -1.1982    0.6955   -0.0001 C   0  0  0  0  0  0  0  0  0  0  0  0
   -2.0638    1.1853   -0.0010 H   0  0  0  0  0  0  0  0  0  0  0  0
   -1.2057   -0.7000   -0.0000 C   0  0  0  0  0  0  0  0  0  0  0  0
   -2.0814   -1.1913    0.0012 H   0  0  0  0  0  0  0  0  0  0  0  0
   -0.0025   -1.3988    0.0003 C   0  0  0  0  0  0  0  0  0  0  0  0
   -0.0040   -2.3948    0.0008 H   0  0  0  0  0  0  0  0  0  0  0  0
    1.2057   -0.6981    0.0000 C   0  0  0  0  0  0  0  0  0  0  0  0
    2.0845   -1.1949    0.0016 H   0  0  0  0  0  0  0  0  0  0  0  0
    1.1993    0.6977   -0.0001 C   0  0  0  0  0  0  0  0  0  0  0  0
    2.0667    1.1929   -0.0014 H   0  0  0  0  0  0  0  0  0  0  0  0
  1  5  1  0
  5  6  1  0
  5  7  2  0
  1  2  1  0
  1  3  1  0
  1  4  1  0
  8 12  1  0
 12 13  2  0
 13 15  1  0
 15 17  2  0
 17 19  1  0
 19 21  2  0
 21 12  1  0
  8  9  1  0
  8 10  1  0
  8 11  1  0
 13 14  1  0
 15 16  1  0
 17 18  1  0
 19 20  1  0
 21 22  1  0
M  CHG  1   6  -1
M  END
>  <PDB_ID>  (1005) 
pdb1t3a

>  <RESIDUE_NAME>  (1005) 
ASP   PHE

>  <FRAG_NAME>  (1005) 
ACET   MBZ

>  <FRAG_ATOM_NUM>  (1005) 
fragi: 7  fragj: 15

>  <atom.prop.CHAIN_ID>  (1005) 
A A A A A A A Z Z Z Z Z Z Z Z Z Z Z Z Z Z Z

>  <atom.prop.IS_HEAVY_ATOM>  (1005) 
1 0 0 0 1 1 1 1 0 0 0 1 1 0 1 0 1 0 1 0 1 0

>  <DIFUSE_FUNC_ATOM>  (1005) 
atom 6   atom 7   

>  <FINAL_SINGLE_POINT_ENERGY>  (1005) 
0

>  <NONCOV_INTER_ENERGY_QM>  (1005) 
0

>  <FF_Energy>  (1005) 
-1.58

>  <QM_Energy>  (1005) 
-7.61

>  <source>  (1005) 
ACET_MBZ_00

>  <Index>  (1005) 
37177

$$$$
ACET-pdb1t3t-A-ASP-590:MBZ-pdb1t3t-A-PHE-593
     RDKit          3D

 22 21  0  0  0  0  0  0  0  0999 V2000
    4.3926    4.5583   -1.0353 C   0  0  0  0  0  0  0  0  0  0  0  0
    5.1664    4.4778   -0.4171 H   0  0  0  0  0  0  0  0  0  0  0  0
    3.6177    4.9700   -0.5710 H   0  0  0  0  0  0  0  0  0  0  0  0
    4.6832    5.2150   -1.8554 H   0  0  0  0  0  0  0  0  0  0  0  0
    3.9937    3.1562   -1.4978 C   0  0  0  0  0  0  0  0  0  0  0  0
    3.6686    2.9561   -2.6873 O   0  0  0  0  0  1  0  0  0  0  0  0
    3.9934    2.2371   -0.6516 O   0  0  0  0  0  0  0  0  0  0  0  0
   -0.0033    2.9034   -0.0071 C   0  0  0  0  0  0  0  0  0  0  0  0
    0.9324    3.2119    0.0650 H   0  0  0  0  0  0  0  0  0  0  0  0
   -0.5457    3.2131    0.7594 H   0  0  0  0  0  0  0  0  0  0  0  0
   -0.4284    3.3375   -0.9121 H   0  0  0  0  0  0  0  0  0  0  0  0
   -0.0004    1.4012    0.0004 C   0  0  0  0  0  0  0  0  0  0  0  0
   -1.1972    0.6929    0.0008 C   0  0  0  0  0  0  0  0  0  0  0  0
   -2.0639    1.1846    0.0001 H   0  0  0  0  0  0  0  0  0  0  0  0
   -1.2036   -0.6962   -0.0000 C   0  0  0  0  0  0  0  0  0  0  0  0
   -2.0788   -1.1907    0.0009 H   0  0  0  0  0  0  0  0  0  0  0  0
    0.0003   -1.3945   -0.0010 C   0  0  0  0  0  0  0  0  0  0  0  0
   -0.0047   -2.3918   -0.0027 H   0  0  0  0  0  0  0  0  0  0  0  0
    1.2036   -0.6975   -0.0000 C   0  0  0  0  0  0  0  0  0  0  0  0
    2.0838   -1.1945    0.0025 H   0  0  0  0  0  0  0  0  0  0  0  0
    1.1973    0.6940   -0.0002 C   0  0  0  0  0  0  0  0  0  0  0  0
    2.0651    1.1909   -0.0014 H   0  0  0  0  0  0  0  0  0  0  0  0
  1  5  1  0
  5  6  1  0
  5  7  2  0
  1  2  1  0
  1  3  1  0
  1  4  1  0
  8 12  1  0
 12 13  2  0
 13 15  1  0
 15 17  2  0
 17 19  1  0
 19 21  2  0
 21 12  1  0
  8  9  1  0
  8 10  1  0
  8 11  1  0
 13 14  1  0
 15 16  1  0
 17 18  1  0
 19 20  1  0
 21 22  1  0
M  CHG  1   6  -1
M  END
>  <PDB_ID>  (1006) 
pdb1t3t

>  <RESIDUE_NAME>  (1006) 
ASP   PHE

>  <FRAG_NAME>  (1006) 
ACET   MBZ

>  <FRAG_ATOM_NUM>  (1006) 
fragi: 7  fragj: 15

>  <atom.prop.CHAIN_ID>  (1006) 
A A A A A A A Z Z Z Z Z Z Z Z Z Z Z Z Z Z Z

>  <atom.prop.IS_HEAVY_ATOM>  (1006) 
1 0 0 0 1 1 1 1 0 0 0 1 1 0 1 0 1 0 1 0 1 0

>  <DIFUSE_FUNC_ATOM>  (1006) 
atom 6   atom 7   

>  <FINAL_SINGLE_POINT_ENERGY>  (1006) 
0

>  <NONCOV_INTER_ENERGY_QM>  (1006) 
0

>  <FF_Energy>  (1006) 
-1.4

>  <QM_Energy>  (1006) 
-6.94

>  <source>  (1006) 
ACET_MBZ_00

>  <Index>  (1006) 
37201

$$$$
ACET-pdb2z0t-D-GLU-95:MBZ-pdb2z0t-D-PHE-60
     RDKit          3D

 22 21  0  0  0  0  0  0  0  0999 V2000
    3.3750    0.1615   -2.8955 C   0  0  0  0  0  0  0  0  0  0  0  0
    3.3210    0.4485   -3.8335 H   0  0  0  0  0  0  0  0  0  0  0  0
    2.5298   -0.2223   -2.5733 H   0  0  0  0  0  0  0  0  0  0  0  0
    4.1520   -0.5987   -2.8140 H   0  0  0  0  0  0  0  0  0  0  0  0
    3.6710    1.3851   -2.0573 C   0  0  0  0  0  0  0  0  0  0  0  0
    4.4449    1.2641   -1.0824 O   0  0  0  0  0  1  0  0  0  0  0  0
    3.1222    2.4642   -2.3624 O   0  0  0  0  0  0  0  0  0  0  0  0
   -0.0058    2.9008   -0.0477 C   0  0  0  0  0  0  0  0  0  0  0  0
    0.9268    3.2143    0.0321 H   0  0  0  0  0  0  0  0  0  0  0  0
   -0.5646    3.2298    0.6980 H   0  0  0  0  0  0  0  0  0  0  0  0
   -0.4147    3.3052   -0.9736 H   0  0  0  0  0  0  0  0  0  0  0  0
   -0.0001    1.4016   -0.0009 C   0  0  0  0  0  0  0  0  0  0  0  0
   -1.1976    0.6936    0.0008 C   0  0  0  0  0  0  0  0  0  0  0  0
   -2.0641    1.1829    0.0012 H   0  0  0  0  0  0  0  0  0  0  0  0
   -1.2025   -0.6989   -0.0000 C   0  0  0  0  0  0  0  0  0  0  0  0
   -2.0784   -1.1920    0.0019 H   0  0  0  0  0  0  0  0  0  0  0  0
    0.0003   -1.3930   -0.0011 C   0  0  0  0  0  0  0  0  0  0  0  0
   -0.0031   -2.3929   -0.0034 H   0  0  0  0  0  0  0  0  0  0  0  0
    1.2025   -0.6973   -0.0000 C   0  0  0  0  0  0  0  0  0  0  0  0
    2.0832   -1.1948    0.0015 H   0  0  0  0  0  0  0  0  0  0  0  0
    1.1974    0.6939    0.0011 C   0  0  0  0  0  0  0  0  0  0  0  0
    2.0655    1.1908    0.0024 H   0  0  0  0  0  0  0  0  0  0  0  0
  1  5  1  0
  5  6  1  0
  5  7  2  0
  1  2  1  0
  1  3  1  0
  1  4  1  0
  8 12  1  0
 12 13  2  0
 13 15  1  0
 15 17  2  0
 17 19  1  0
 19 21  2  0
 21 12  1  0
  8  9  1  0
  8 10  1  0
  8 11  1  0
 13 14  1  0
 15 16  1  0
 17 18  1  0
 19 20  1  0
 21 22  1  0
M  CHG  1   6  -1
M  END
>  <PDB_ID>  (1007) 
pdb2z0t

>  <RESIDUE_NAME>  (1007) 
GLU   PHE

>  <FRAG_NAME>  (1007) 
ACET   MBZ

>  <FRAG_ATOM_NUM>  (1007) 
fragi: 7  fragj: 15

>  <atom.prop.CHAIN_ID>  (1007) 
A A A A A A A Z Z Z Z Z Z Z Z Z Z Z Z Z Z Z

>  <atom.prop.IS_HEAVY_ATOM>  (1007) 
1 0 0 0 1 1 1 1 0 0 0 1 1 0 1 0 1 0 1 0 1 0

>  <DIFUSE_FUNC_ATOM>  (1007) 
atom 6   atom 7   

>  <FINAL_SINGLE_POINT_ENERGY>  (1007) 
0

>  <NONCOV_INTER_ENERGY_QM>  (1007) 
0

>  <FF_Energy>  (1007) 
-1.88

>  <QM_Energy>  (1007) 
-7.23

>  <source>  (1007) 
ACET_MBZ_00

>  <Index>  (1007) 
37207

$$$$
ACET-pdb1sy7-A-ASP-409:MBZ-pdb1sy7-B-PHE-347
     RDKit          3D

 22 21  0  0  0  0  0  0  0  0999 V2000
    1.0542    0.0403   -3.5297 C   0  0  0  0  0  0  0  0  0  0  0  0
    0.8292   -0.2661   -4.4445 H   0  0  0  0  0  0  0  0  0  0  0  0
    0.5760   -0.4933   -2.8473 H   0  0  0  0  0  0  0  0  0  0  0  0
    2.1240   -0.1067   -3.3807 H   0  0  0  0  0  0  0  0  0  0  0  0
    0.6434    1.5020   -3.3874 C   0  0  0  0  0  0  0  0  0  0  0  0
    1.4972    2.3224   -2.9818 O   0  0  0  0  0  1  0  0  0  0  0  0
   -0.5279    1.8316   -3.6750 O   0  0  0  0  0  0  0  0  0  0  0  0
    0.0086    2.9091    0.0633 C   0  0  0  0  0  0  0  0  0  0  0  0
   -0.7436    3.2424   -0.4800 H   0  0  0  0  0  0  0  0  0  0  0  0
    0.8769    3.2231   -0.2817 H   0  0  0  0  0  0  0  0  0  0  0  0
   -0.1107    3.2994    1.0741 H   0  0  0  0  0  0  0  0  0  0  0  0
   -0.0011    1.4043    0.0008 C   0  0  0  0  0  0  0  0  0  0  0  0
   -1.2029    0.6969    0.0005 C   0  0  0  0  0  0  0  0  0  0  0  0
   -2.0668    1.1868   -0.0006 H   0  0  0  0  0  0  0  0  0  0  0  0
   -1.2072   -0.6969    0.0000 C   0  0  0  0  0  0  0  0  0  0  0  0
   -2.0784   -1.1939   -0.0003 H   0  0  0  0  0  0  0  0  0  0  0  0
    0.0072   -1.3991    0.0013 C   0  0  0  0  0  0  0  0  0  0  0  0
   -0.0010   -2.3946    0.0024 H   0  0  0  0  0  0  0  0  0  0  0  0
    1.2072   -0.6984   -0.0000 C   0  0  0  0  0  0  0  0  0  0  0  0
    2.0893   -1.1926    0.0028 H   0  0  0  0  0  0  0  0  0  0  0  0
    1.1967    0.6933   -0.0026 C   0  0  0  0  0  0  0  0  0  0  0  0
    2.0651    1.1929   -0.0077 H   0  0  0  0  0  0  0  0  0  0  0  0
  1  5  1  0
  5  6  1  0
  5  7  2  0
  1  2  1  0
  1  3  1  0
  1  4  1  0
  8 12  1  0
 12 13  2  0
 13 15  1  0
 15 17  2  0
 17 19  1  0
 19 21  2  0
 21 12  1  0
  8  9  1  0
  8 10  1  0
  8 11  1  0
 13 14  1  0
 15 16  1  0
 17 18  1  0
 19 20  1  0
 21 22  1  0
M  CHG  1   6  -1
M  END
>  <PDB_ID>  (1008) 
pdb1sy7

>  <RESIDUE_NAME>  (1008) 
ASP   PHE

>  <FRAG_NAME>  (1008) 
ACET   MBZ

>  <FRAG_ATOM_NUM>  (1008) 
fragi: 7  fragj: 15

>  <atom.prop.CHAIN_ID>  (1008) 
A A A A A A A Z Z Z Z Z Z Z Z Z Z Z Z Z Z Z

>  <atom.prop.IS_HEAVY_ATOM>  (1008) 
1 0 0 0 1 1 1 1 0 0 0 1 1 0 1 0 1 0 1 0 1 0

>  <DIFUSE_FUNC_ATOM>  (1008) 
atom 6   atom 7   

>  <FINAL_SINGLE_POINT_ENERGY>  (1008) 
0

>  <NONCOV_INTER_ENERGY_QM>  (1008) 
0

>  <FF_Energy>  (1008) 
0.81

>  <QM_Energy>  (1008) 
-5.19

>  <source>  (1008) 
ACET_MBZ_00

>  <Index>  (1008) 
37208

$$$$
ACET-pdb2z1c-B-GLU-73:MBZ-pdb2z1c-C-PHE-21
     RDKit          3D

 22 21  0  0  0  0  0  0  0  0999 V2000
    2.5015    1.5896   -3.1555 C   0  0  0  0  0  0  0  0  0  0  0  0
    2.6603    1.3212   -2.2176 H   0  0  0  0  0  0  0  0  0  0  0  0
    3.3444    1.8436   -3.6044 H   0  0  0  0  0  0  0  0  0  0  0  0
    2.0848    0.7314   -3.6827 H   0  0  0  0  0  0  0  0  0  0  0  0
    1.6047    2.8234   -3.1341 C   0  0  0  0  0  0  0  0  0  0  0  0
    0.4066    2.7172   -3.4732 O   0  0  0  0  0  1  0  0  0  0  0  0
    2.0996    3.9215   -2.7789 O   0  0  0  0  0  0  0  0  0  0  0  0
    0.0092    2.9057   -0.0387 C   0  0  0  0  0  0  0  0  0  0  0  0
   -0.7873    3.2033   -0.5474 H   0  0  0  0  0  0  0  0  0  0  0  0
    0.8451    3.1963   -0.4852 H   0  0  0  0  0  0  0  0  0  0  0  0
   -0.0263    3.3796    0.9422 H   0  0  0  0  0  0  0  0  0  0  0  0
    0.0014    1.4002   -0.0046 C   0  0  0  0  0  0  0  0  0  0  0  0
   -1.1938    0.6936   -0.0106 C   0  0  0  0  0  0  0  0  0  0  0  0
   -2.0607    1.1848   -0.0237 H   0  0  0  0  0  0  0  0  0  0  0  0
   -1.2012   -0.6964    0.0000 C   0  0  0  0  0  0  0  0  0  0  0  0
   -2.0788   -1.1885   -0.0008 H   0  0  0  0  0  0  0  0  0  0  0  0
   -0.0007   -1.3943    0.0137 C   0  0  0  0  0  0  0  0  0  0  0  0
   -0.0025   -2.3904    0.0328 H   0  0  0  0  0  0  0  0  0  0  0  0
    1.2012   -0.6926   -0.0000 C   0  0  0  0  0  0  0  0  0  0  0  0
    2.0817   -1.1935   -0.0094 H   0  0  0  0  0  0  0  0  0  0  0  0
    1.1931    0.6896    0.0015 C   0  0  0  0  0  0  0  0  0  0  0  0
    2.0637    1.1906    0.0059 H   0  0  0  0  0  0  0  0  0  0  0  0
  1  5  1  0
  5  6  1  0
  5  7  2  0
  1  2  1  0
  1  3  1  0
  1  4  1  0
  8 12  1  0
 12 13  2  0
 13 15  1  0
 15 17  2  0
 17 19  1  0
 19 21  2  0
 21 12  1  0
  8  9  1  0
  8 10  1  0
  8 11  1  0
 13 14  1  0
 15 16  1  0
 17 18  1  0
 19 20  1  0
 21 22  1  0
M  CHG  1   6  -1
M  END
>  <PDB_ID>  (1009) 
pdb2z1c

>  <RESIDUE_NAME>  (1009) 
GLU   PHE

>  <FRAG_NAME>  (1009) 
ACET   MBZ

>  <FRAG_ATOM_NUM>  (1009) 
fragi: 7  fragj: 15

>  <atom.prop.CHAIN_ID>  (1009) 
A A A A A A A Z Z Z Z Z Z Z Z Z Z Z Z Z Z Z

>  <atom.prop.IS_HEAVY_ATOM>  (1009) 
1 0 0 0 1 1 1 1 0 0 0 1 1 0 1 0 1 0 1 0 1 0

>  <DIFUSE_FUNC_ATOM>  (1009) 
atom 6   atom 7   

>  <FINAL_SINGLE_POINT_ENERGY>  (1009) 
0

>  <NONCOV_INTER_ENERGY_QM>  (1009) 
0

>  <FF_Energy>  (1009) 
-0.03

>  <QM_Energy>  (1009) 
-5.09

>  <source>  (1009) 
ACET_MBZ_00

>  <Index>  (1009) 
37289

$$$$
ACET-pdb1t5o-A-ASP-234:MBZ-pdb1t5o-A-PHE-309
     RDKit          3D

 22 21  0  0  0  0  0  0  0  0999 V2000
    3.0263   -1.0444   -3.3386 C   0  0  0  0  0  0  0  0  0  0  0  0
    2.7375   -0.0950   -3.3349 H   0  0  0  0  0  0  0  0  0  0  0  0
    2.2468   -1.6474   -3.4515 H   0  0  0  0  0  0  0  0  0  0  0  0
    3.7012   -1.1948   -4.1811 H   0  0  0  0  0  0  0  0  0  0  0  0
    3.6974   -1.3537   -2.0307 C   0  0  0  0  0  0  0  0  0  0  0  0
    4.0909   -2.5356   -1.8369 O   0  0  0  0  0  1  0  0  0  0  0  0
    3.8498   -0.4261   -1.2048 O   0  0  0  0  0  0  0  0  0  0  0  0
   -0.0003    2.9047    0.0002 C   0  0  0  0  0  0  0  0  0  0  0  0
   -0.8590    3.2144   -0.3849 H   0  0  0  0  0  0  0  0  0  0  0  0
    0.7661    3.2129   -0.5465 H   0  0  0  0  0  0  0  0  0  0  0  0
    0.0982    3.3617    0.9848 H   0  0  0  0  0  0  0  0  0  0  0  0
   -0.0017    1.3977    0.0006 C   0  0  0  0  0  0  0  0  0  0  0  0
   -1.1966    0.6951   -0.0002 C   0  0  0  0  0  0  0  0  0  0  0  0
   -2.0638    1.1868   -0.0023 H   0  0  0  0  0  0  0  0  0  0  0  0
   -1.2054   -0.6956   -0.0000 C   0  0  0  0  0  0  0  0  0  0  0  0
   -2.0786   -1.1896    0.0016 H   0  0  0  0  0  0  0  0  0  0  0  0
    0.0026   -1.3953    0.0004 C   0  0  0  0  0  0  0  0  0  0  0  0
   -0.0023   -2.3913    0.0006 H   0  0  0  0  0  0  0  0  0  0  0  0
    1.2054   -0.6941    0.0000 C   0  0  0  0  0  0  0  0  0  0  0  0
    2.0859   -1.1926    0.0018 H   0  0  0  0  0  0  0  0  0  0  0  0
    1.1957    0.6923   -0.0007 C   0  0  0  0  0  0  0  0  0  0  0  0
    2.0634    1.1930   -0.0031 H   0  0  0  0  0  0  0  0  0  0  0  0
  1  5  1  0
  5  6  1  0
  5  7  2  0
  1  2  1  0
  1  3  1  0
  1  4  1  0
  8 12  1  0
 12 13  2  0
 13 15  1  0
 15 17  2  0
 17 19  1  0
 19 21  2  0
 21 12  1  0
  8  9  1  0
  8 10  1  0
  8 11  1  0
 13 14  1  0
 15 16  1  0
 17 18  1  0
 19 20  1  0
 21 22  1  0
M  CHG  1   6  -1
M  END
>  <PDB_ID>  (1010) 
pdb1t5o

>  <RESIDUE_NAME>  (1010) 
ASP   PHE

>  <FRAG_NAME>  (1010) 
ACET   MBZ

>  <FRAG_ATOM_NUM>  (1010) 
fragi: 7  fragj: 15

>  <atom.prop.CHAIN_ID>  (1010) 
A A A A A A A Z Z Z Z Z Z Z Z Z Z Z Z Z Z Z

>  <atom.prop.IS_HEAVY_ATOM>  (1010) 
1 0 0 0 1 1 1 1 0 0 0 1 1 0 1 0 1 0 1 0 1 0

>  <DIFUSE_FUNC_ATOM>  (1010) 
atom 6   atom 7   

>  <FINAL_SINGLE_POINT_ENERGY>  (1010) 
0

>  <NONCOV_INTER_ENERGY_QM>  (1010) 
0

>  <FF_Energy>  (1010) 
-0.07

>  <QM_Energy>  (1010) 
-5.81

>  <source>  (1010) 
ACET_MBZ_00

>  <Index>  (1010) 
37290

$$$$
ACET-pdb2z1k-A-GLU-328:MBZ-pdb2z1k-A-PHE-467
     RDKit          3D

 22 21  0  0  0  0  0  0  0  0999 V2000
    2.6219    1.6763    3.4687 C   0  0  0  0  0  0  0  0  0  0  0  0
    3.0996    1.5764    4.3233 H   0  0  0  0  0  0  0  0  0  0  0  0
    1.7676    1.1858    3.4640 H   0  0  0  0  0  0  0  0  0  0  0  0
    2.4143    2.7348    3.3119 H   0  0  0  0  0  0  0  0  0  0  0  0
    3.4946    1.0801    2.3860 C   0  0  0  0  0  0  0  0  0  0  0  0
    4.4655    1.7455    1.9682 O   0  0  0  0  0  1  0  0  0  0  0  0
    3.2170   -0.0634    1.9654 O   0  0  0  0  0  0  0  0  0  0  0  0
   -0.0039    2.8968   -0.0862 C   0  0  0  0  0  0  0  0  0  0  0  0
    0.9251    3.2133    0.0065 H   0  0  0  0  0  0  0  0  0  0  0  0
   -0.5828    3.2455    0.6321 H   0  0  0  0  0  0  0  0  0  0  0  0
   -0.3896    3.2694   -1.0352 H   0  0  0  0  0  0  0  0  0  0  0  0
    0.0004    1.4022   -0.0012 C   0  0  0  0  0  0  0  0  0  0  0  0
   -1.1990    0.6946    0.0015 C   0  0  0  0  0  0  0  0  0  0  0  0
   -2.0648    1.1837    0.0033 H   0  0  0  0  0  0  0  0  0  0  0  0
   -1.2029   -0.6997    0.0000 C   0  0  0  0  0  0  0  0  0  0  0  0
   -2.0781   -1.1929    0.0015 H   0  0  0  0  0  0  0  0  0  0  0  0
    0.0016   -1.3940   -0.0022 C   0  0  0  0  0  0  0  0  0  0  0  0
   -0.0020   -2.3938   -0.0059 H   0  0  0  0  0  0  0  0  0  0  0  0
    1.2029   -0.6975    0.0000 C   0  0  0  0  0  0  0  0  0  0  0  0
    2.0834   -1.1939    0.0017 H   0  0  0  0  0  0  0  0  0  0  0  0
    1.1971    0.6944    0.0019 C   0  0  0  0  0  0  0  0  0  0  0  0
    2.0653    1.1906    0.0044 H   0  0  0  0  0  0  0  0  0  0  0  0
  1  5  1  0
  5  6  1  0
  5  7  2  0
  1  2  1  0
  1  3  1  0
  1  4  1  0
  8 12  1  0
 12 13  2  0
 13 15  1  0
 15 17  2  0
 17 19  1  0
 19 21  2  0
 21 12  1  0
  8  9  1  0
  8 10  1  0
  8 11  1  0
 13 14  1  0
 15 16  1  0
 17 18  1  0
 19 20  1  0
 21 22  1  0
M  CHG  1   6  -1
M  END
>  <PDB_ID>  (1011) 
pdb2z1k

>  <RESIDUE_NAME>  (1011) 
GLU   PHE

>  <FRAG_NAME>  (1011) 
ACET   MBZ

>  <FRAG_ATOM_NUM>  (1011) 
fragi: 7  fragj: 15

>  <atom.prop.CHAIN_ID>  (1011) 
A A A A A A A Z Z Z Z Z Z Z Z Z Z Z Z Z Z Z

>  <atom.prop.IS_HEAVY_ATOM>  (1011) 
1 0 0 0 1 1 1 1 0 0 0 1 1 0 1 0 1 0 1 0 1 0

>  <DIFUSE_FUNC_ATOM>  (1011) 
atom 6   atom 7   

>  <FINAL_SINGLE_POINT_ENERGY>  (1011) 
0

>  <NONCOV_INTER_ENERGY_QM>  (1011) 
0

>  <FF_Energy>  (1011) 
0.7

>  <QM_Energy>  (1011) 
-4.52

>  <source>  (1011) 
ACET_MBZ_00

>  <Index>  (1011) 
37349

$$$$
ACET-pdb2z1k-B-GLU-137:MBZ-pdb2z1k-B-PHE-150
     RDKit          3D

 22 21  0  0  0  0  0  0  0  0999 V2000
    3.3400   -0.0862    2.6304 C   0  0  0  0  0  0  0  0  0  0  0  0
    2.5914    0.1340    2.0356 H   0  0  0  0  0  0  0  0  0  0  0  0
    3.8871    0.6971    2.8538 H   0  0  0  0  0  0  0  0  0  0  0  0
    2.9371   -0.5027    3.5537 H   0  0  0  0  0  0  0  0  0  0  0  0
    4.2383   -1.0708    1.8859 C   0  0  0  0  0  0  0  0  0  0  0  0
    5.2179   -1.5656    2.4918 O   0  0  0  0  0  1  0  0  0  0  0  0
    3.9724   -1.3478    0.6959 O   0  0  0  0  0  0  0  0  0  0  0  0
    0.0002    2.9208   -0.0190 C   0  0  0  0  0  0  0  0  0  0  0  0
    0.8920    3.2284    0.2741 H   0  0  0  0  0  0  0  0  0  0  0  0
   -0.7089    3.2330    0.5935 H   0  0  0  0  0  0  0  0  0  0  0  0
   -0.1951    3.3515   -1.0011 H   0  0  0  0  0  0  0  0  0  0  0  0
    0.0003    1.4112   -0.0001 C   0  0  0  0  0  0  0  0  0  0  0  0
   -1.1976    0.6988   -0.0006 C   0  0  0  0  0  0  0  0  0  0  0  0
   -2.0660    1.1856   -0.0030 H   0  0  0  0  0  0  0  0  0  0  0  0
   -1.2057   -0.7039    0.0000 C   0  0  0  0  0  0  0  0  0  0  0  0
   -2.0835   -1.1907    0.0013 H   0  0  0  0  0  0  0  0  0  0  0  0
   -0.0032   -1.4050    0.0008 C   0  0  0  0  0  0  0  0  0  0  0  0
   -0.0036   -2.3996    0.0017 H   0  0  0  0  0  0  0  0  0  0  0  0
    1.2057   -0.7011   -0.0000 C   0  0  0  0  0  0  0  0  0  0  0  0
    2.0851   -1.1963    0.0011 H   0  0  0  0  0  0  0  0  0  0  0  0
    1.2005    0.6999   -0.0001 C   0  0  0  0  0  0  0  0  0  0  0  0
    2.0685    1.1925   -0.0011 H   0  0  0  0  0  0  0  0  0  0  0  0
  1  5  1  0
  5  6  1  0
  5  7  2  0
  1  2  1  0
  1  3  1  0
  1  4  1  0
  8 12  1  0
 12 13  2  0
 13 15  1  0
 15 17  2  0
 17 19  1  0
 19 21  2  0
 21 12  1  0
  8  9  1  0
  8 10  1  0
  8 11  1  0
 13 14  1  0
 15 16  1  0
 17 18  1  0
 19 20  1  0
 21 22  1  0
M  CHG  1   6  -1
M  END
>  <PDB_ID>  (1012) 
pdb2z1k

>  <RESIDUE_NAME>  (1012) 
GLU   PHE

>  <FRAG_NAME>  (1012) 
ACET   MBZ

>  <FRAG_ATOM_NUM>  (1012) 
fragi: 7  fragj: 15

>  <atom.prop.CHAIN_ID>  (1012) 
A A A A A A A Z Z Z Z Z Z Z Z Z Z Z Z Z Z Z

>  <atom.prop.IS_HEAVY_ATOM>  (1012) 
1 0 0 0 1 1 1 1 0 0 0 1 1 0 1 0 1 0 1 0 1 0

>  <DIFUSE_FUNC_ATOM>  (1012) 
atom 6   atom 7   

>  <FINAL_SINGLE_POINT_ENERGY>  (1012) 
0

>  <NONCOV_INTER_ENERGY_QM>  (1012) 
0

>  <FF_Energy>  (1012) 
5.58

>  <QM_Energy>  (1012) 
-4.54

>  <source>  (1012) 
ACET_MBZ_00

>  <Index>  (1012) 
37354

$$$$
ACET-pdb2z1k-B-GLU-474:MBZ-pdb2z1k-B-PHE-437
     RDKit          3D

 22 21  0  0  0  0  0  0  0  0999 V2000
   -2.3743    2.3367    3.1171 C   0  0  0  0  0  0  0  0  0  0  0  0
   -1.9733    1.8049    2.3964 H   0  0  0  0  0  0  0  0  0  0  0  0
   -3.1169    2.8966    2.8031 H   0  0  0  0  0  0  0  0  0  0  0  0
   -2.7572    1.6521    3.8739 H   0  0  0  0  0  0  0  0  0  0  0  0
   -1.2931    3.2701    3.6535 C   0  0  0  0  0  0  0  0  0  0  0  0
   -1.5622    3.9796    4.6471 O   0  0  0  0  0  1  0  0  0  0  0  0
   -0.1796    3.3002    3.0818 O   0  0  0  0  0  0  0  0  0  0  0  0
    0.0040    2.8964    0.0168 C   0  0  0  0  0  0  0  0  0  0  0  0
    0.8932    3.2064   -0.2882 H   0  0  0  0  0  0  0  0  0  0  0  0
   -0.1796    3.1957    0.9421 H   0  0  0  0  0  0  0  0  0  0  0  0
   -0.7452    3.3497   -0.6323 H   0  0  0  0  0  0  0  0  0  0  0  0
    0.0003    1.3979    0.0007 C   0  0  0  0  0  0  0  0  0  0  0  0
   -1.1984    0.6899    0.0008 C   0  0  0  0  0  0  0  0  0  0  0  0
   -2.0640    1.1824    0.0002 H   0  0  0  0  0  0  0  0  0  0  0  0
   -1.2036   -0.6990   -0.0000 C   0  0  0  0  0  0  0  0  0  0  0  0
   -2.0776   -1.1943    0.0016 H   0  0  0  0  0  0  0  0  0  0  0  0
    0.0009   -1.3899   -0.0017 C   0  0  0  0  0  0  0  0  0  0  0  0
    0.0010   -2.3894   -0.0051 H   0  0  0  0  0  0  0  0  0  0  0  0
    1.2036   -0.6912    0.0000 C   0  0  0  0  0  0  0  0  0  0  0  0
    2.0835   -1.1919    0.0027 H   0  0  0  0  0  0  0  0  0  0  0  0
    1.1972    0.6923    0.0002 C   0  0  0  0  0  0  0  0  0  0  0  0
    2.0646    1.1929   -0.0007 H   0  0  0  0  0  0  0  0  0  0  0  0
  1  5  1  0
  5  6  1  0
  5  7  2  0
  1  2  1  0
  1  3  1  0
  1  4  1  0
  8 12  1  0
 12 13  2  0
 13 15  1  0
 15 17  2  0
 17 19  1  0
 19 21  2  0
 21 12  1  0
  8  9  1  0
  8 10  1  0
  8 11  1  0
 13 14  1  0
 15 16  1  0
 17 18  1  0
 19 20  1  0
 21 22  1  0
M  CHG  1   6  -1
M  END
>  <PDB_ID>  (1013) 
pdb2z1k

>  <RESIDUE_NAME>  (1013) 
GLU   PHE

>  <FRAG_NAME>  (1013) 
ACET   MBZ

>  <FRAG_ATOM_NUM>  (1013) 
fragi: 7  fragj: 15

>  <atom.prop.CHAIN_ID>  (1013) 
A A A A A A A Z Z Z Z Z Z Z Z Z Z Z Z Z Z Z

>  <atom.prop.IS_HEAVY_ATOM>  (1013) 
1 0 0 0 1 1 1 1 0 0 0 1 1 0 1 0 1 0 1 0 1 0

>  <DIFUSE_FUNC_ATOM>  (1013) 
atom 6   atom 7   

>  <FINAL_SINGLE_POINT_ENERGY>  (1013) 
0

>  <NONCOV_INTER_ENERGY_QM>  (1013) 
0

>  <FF_Energy>  (1013) 
2.44

>  <QM_Energy>  (1013) 
-4.96

>  <source>  (1013) 
ACET_MBZ_00

>  <Index>  (1013) 
37355

$$$$
ACET-pdb2z1k-C-GLU-328:MBZ-pdb2z1k-C-PHE-467
     RDKit          3D

 22 21  0  0  0  0  0  0  0  0999 V2000
    2.2034    1.9200    3.6173 C   0  0  0  0  0  0  0  0  0  0  0  0
    2.6792    1.7812    4.4663 H   0  0  0  0  0  0  0  0  0  0  0  0
    1.4065    1.3484    3.5395 H   0  0  0  0  0  0  0  0  0  0  0  0
    1.8884    2.9622    3.5651 H   0  0  0  0  0  0  0  0  0  0  0  0
    3.1522    1.5336    2.4945 C   0  0  0  0  0  0  0  0  0  0  0  0
    3.9719    2.3822    2.0731 O   0  0  0  0  0  1  0  0  0  0  0  0
    3.0904    0.3731    2.0391 O   0  0  0  0  0  0  0  0  0  0  0  0
   -0.0072    2.8896   -0.0882 C   0  0  0  0  0  0  0  0  0  0  0  0
    0.9013    3.2158    0.1141 H   0  0  0  0  0  0  0  0  0  0  0  0
   -0.6723    3.2349    0.5533 H   0  0  0  0  0  0  0  0  0  0  0  0
   -0.2793    3.2557   -1.0782 H   0  0  0  0  0  0  0  0  0  0  0  0
   -0.0007    1.3985   -0.0011 C   0  0  0  0  0  0  0  0  0  0  0  0
   -1.1986    0.6913    0.0015 C   0  0  0  0  0  0  0  0  0  0  0  0
   -2.0647    1.1832    0.0033 H   0  0  0  0  0  0  0  0  0  0  0  0
   -1.2045   -0.6984   -0.0000 C   0  0  0  0  0  0  0  0  0  0  0  0
   -2.0784   -1.1937    0.0015 H   0  0  0  0  0  0  0  0  0  0  0  0
    0.0003   -1.3923   -0.0021 C   0  0  0  0  0  0  0  0  0  0  0  0
   -0.0005   -2.3912   -0.0052 H   0  0  0  0  0  0  0  0  0  0  0  0
    1.2045   -0.6932    0.0000 C   0  0  0  0  0  0  0  0  0  0  0  0
    2.0839   -1.1938    0.0015 H   0  0  0  0  0  0  0  0  0  0  0  0
    1.1990    0.6941    0.0017 C   0  0  0  0  0  0  0  0  0  0  0  0
    2.0643    1.1936    0.0039 H   0  0  0  0  0  0  0  0  0  0  0  0
  1  5  1  0
  5  6  1  0
  5  7  2  0
  1  2  1  0
  1  3  1  0
  1  4  1  0
  8 12  1  0
 12 13  2  0
 13 15  1  0
 15 17  2  0
 17 19  1  0
 19 21  2  0
 21 12  1  0
  8  9  1  0
  8 10  1  0
  8 11  1  0
 13 14  1  0
 15 16  1  0
 17 18  1  0
 19 20  1  0
 21 22  1  0
M  CHG  1   6  -1
M  END
>  <PDB_ID>  (1014) 
pdb2z1k

>  <RESIDUE_NAME>  (1014) 
GLU   PHE

>  <FRAG_NAME>  (1014) 
ACET   MBZ

>  <FRAG_ATOM_NUM>  (1014) 
fragi: 7  fragj: 15

>  <atom.prop.CHAIN_ID>  (1014) 
A A A A A A A Z Z Z Z Z Z Z Z Z Z Z Z Z Z Z

>  <atom.prop.IS_HEAVY_ATOM>  (1014) 
1 0 0 0 1 1 1 1 0 0 0 1 1 0 1 0 1 0 1 0 1 0

>  <DIFUSE_FUNC_ATOM>  (1014) 
atom 6   atom 7   

>  <FINAL_SINGLE_POINT_ENERGY>  (1014) 
0

>  <NONCOV_INTER_ENERGY_QM>  (1014) 
0

>  <FF_Energy>  (1014) 
1.54

>  <QM_Energy>  (1014) 
-4.5

>  <source>  (1014) 
ACET_MBZ_00

>  <Index>  (1014) 
37363

$$$$
ACET-pdb1t6j-B-ASP-599:MBZ-pdb1t6j-A-PHE-603
     RDKit          3D

 22 21  0  0  0  0  0  0  0  0999 V2000
    0.6231   -6.3298    1.2994 C   0  0  0  0  0  0  0  0  0  0  0  0
    0.7246   -6.8564    0.4636 H   0  0  0  0  0  0  0  0  0  0  0  0
    0.3462   -6.9175    2.0503 H   0  0  0  0  0  0  0  0  0  0  0  0
    1.5944   -5.9012    1.5467 H   0  0  0  0  0  0  0  0  0  0  0  0
   -0.4486   -5.2744    1.0845 C   0  0  0  0  0  0  0  0  0  0  0  0
   -0.3924   -4.5532    0.0662 O   0  0  0  0  0  1  0  0  0  0  0  0
   -1.3481   -5.1624    1.9424 O   0  0  0  0  0  0  0  0  0  0  0  0
   -0.0165    2.9196   -0.0054 C   0  0  0  0  0  0  0  0  0  0  0  0
   -0.6241    3.2197    0.7157 H   0  0  0  0  0  0  0  0  0  0  0  0
   -0.3401    3.2181   -0.8924 H   0  0  0  0  0  0  0  0  0  0  0  0
    0.9554    3.3827    0.1657 H   0  0  0  0  0  0  0  0  0  0  0  0
   -0.0014    1.4075   -0.0006 C   0  0  0  0  0  0  0  0  0  0  0  0
   -1.1966    0.6986   -0.0004 C   0  0  0  0  0  0  0  0  0  0  0  0
   -2.0646    1.1866   -0.0020 H   0  0  0  0  0  0  0  0  0  0  0  0
   -1.2019   -0.6965    0.0000 C   0  0  0  0  0  0  0  0  0  0  0  0
   -2.0783   -1.1890    0.0010 H   0  0  0  0  0  0  0  0  0  0  0  0
    0.0021   -1.3987    0.0006 C   0  0  0  0  0  0  0  0  0  0  0  0
   -0.0065   -2.3957    0.0009 H   0  0  0  0  0  0  0  0  0  0  0  0
    1.2019   -0.7032   -0.0000 C   0  0  0  0  0  0  0  0  0  0  0  0
    2.0846   -1.1972    0.0010 H   0  0  0  0  0  0  0  0  0  0  0  0
    1.1959    0.6924    0.0003 C   0  0  0  0  0  0  0  0  0  0  0  0
    2.0650    1.1872    0.0003 H   0  0  0  0  0  0  0  0  0  0  0  0
  1  5  1  0
  5  6  1  0
  5  7  2  0
  1  2  1  0
  1  3  1  0
  1  4  1  0
  8 12  1  0
 12 13  2  0
 13 15  1  0
 15 17  2  0
 17 19  1  0
 19 21  2  0
 21 12  1  0
  8  9  1  0
  8 10  1  0
  8 11  1  0
 13 14  1  0
 15 16  1  0
 17 18  1  0
 19 20  1  0
 21 22  1  0
M  CHG  1   6  -1
M  END
>  <PDB_ID>  (1015) 
pdb1t6j

>  <RESIDUE_NAME>  (1015) 
ASP   PHE

>  <FRAG_NAME>  (1015) 
ACET   MBZ

>  <FRAG_ATOM_NUM>  (1015) 
fragi: 7  fragj: 15

>  <atom.prop.CHAIN_ID>  (1015) 
A A A A A A A Z Z Z Z Z Z Z Z Z Z Z Z Z Z Z

>  <atom.prop.IS_HEAVY_ATOM>  (1015) 
1 0 0 0 1 1 1 1 0 0 0 1 1 0 1 0 1 0 1 0 1 0

>  <DIFUSE_FUNC_ATOM>  (1015) 
atom 6   atom 7   

>  <FINAL_SINGLE_POINT_ENERGY>  (1015) 
0

>  <NONCOV_INTER_ENERGY_QM>  (1015) 
0

>  <FF_Energy>  (1015) 
-2.32

>  <QM_Energy>  (1015) 
-6.02

>  <source>  (1015) 
ACET_MBZ_00

>  <Index>  (1015) 
37375

$$$$
ACET-pdb2z22-X-ASP-56:MBZ-pdb2z22-X-PHE-11
     RDKit          3D

 22 21  0  0  0  0  0  0  0  0999 V2000
    0.7241    1.9687    4.6787 C   0  0  0  0  0  0  0  0  0  0  0  0
    1.6279    2.2464    4.9873 H   0  0  0  0  0  0  0  0  0  0  0  0
    0.7379    1.0215    4.3770 H   0  0  0  0  0  0  0  0  0  0  0  0
    0.0438    2.0412    5.5272 H   0  0  0  0  0  0  0  0  0  0  0  0
    0.3095    2.8454    3.5256 C   0  0  0  0  0  0  0  0  0  0  0  0
   -0.8577    2.7389    3.0810 O   0  0  0  0  0  1  0  0  0  0  0  0
    1.1607    3.6380    3.0646 O   0  0  0  0  0  0  0  0  0  0  0  0
    0.0109    2.9128    0.0914 C   0  0  0  0  0  0  0  0  0  0  0  0
    0.9346    3.2022    0.3089 H   0  0  0  0  0  0  0  0  0  0  0  0
   -0.6209    3.1825    0.8075 H   0  0  0  0  0  0  0  0  0  0  0  0
   -0.2876    3.4320   -0.8193 H   0  0  0  0  0  0  0  0  0  0  0  0
    0.0013    1.4075    0.0024 C   0  0  0  0  0  0  0  0  0  0  0  0
   -1.1971    0.6999   -0.0007 C   0  0  0  0  0  0  0  0  0  0  0  0
   -2.0639    1.1877   -0.0044 H   0  0  0  0  0  0  0  0  0  0  0  0
   -1.2040   -0.6992   -0.0000 C   0  0  0  0  0  0  0  0  0  0  0  0
   -2.0821   -1.1873    0.0010 H   0  0  0  0  0  0  0  0  0  0  0  0
   -0.0030   -1.4006    0.0008 C   0  0  0  0  0  0  0  0  0  0  0  0
   -0.0066   -2.3972    0.0019 H   0  0  0  0  0  0  0  0  0  0  0  0
    1.2040   -0.7017    0.0000 C   0  0  0  0  0  0  0  0  0  0  0  0
    2.0829   -1.1987    0.0022 H   0  0  0  0  0  0  0  0  0  0  0  0
    1.1988    0.6941   -0.0025 C   0  0  0  0  0  0  0  0  0  0  0  0
    2.0678    1.1884   -0.0085 H   0  0  0  0  0  0  0  0  0  0  0  0
  1  5  1  0
  5  6  1  0
  5  7  2  0
  1  2  1  0
  1  3  1  0
  1  4  1  0
  8 12  1  0
 12 13  2  0
 13 15  1  0
 15 17  2  0
 17 19  1  0
 19 21  2  0
 21 12  1  0
  8  9  1  0
  8 10  1  0
  8 11  1  0
 13 14  1  0
 15 16  1  0
 17 18  1  0
 19 20  1  0
 21 22  1  0
M  CHG  1   6  -1
M  END
>  <PDB_ID>  (1016) 
pdb2z22

>  <RESIDUE_NAME>  (1016) 
ASP   PHE

>  <FRAG_NAME>  (1016) 
ACET   MBZ

>  <FRAG_ATOM_NUM>  (1016) 
fragi: 7  fragj: 15

>  <atom.prop.CHAIN_ID>  (1016) 
A A A A A A A Z Z Z Z Z Z Z Z Z Z Z Z Z Z Z

>  <atom.prop.IS_HEAVY_ATOM>  (1016) 
1 0 0 0 1 1 1 1 0 0 0 1 1 0 1 0 1 0 1 0 1 0

>  <DIFUSE_FUNC_ATOM>  (1016) 
atom 6   atom 7   

>  <FINAL_SINGLE_POINT_ENERGY>  (1016) 
0

>  <NONCOV_INTER_ENERGY_QM>  (1016) 
0

>  <FF_Energy>  (1016) 
1.35

>  <QM_Energy>  (1016) 
-6.14

>  <source>  (1016) 
ACET_MBZ_00

>  <Index>  (1016) 
37431

$$$$
ACET-pdb1t9b-B-ASP-379:MBZ-pdb1t9b-A-PHE-201
     RDKit          3D

 22 21  0  0  0  0  0  0  0  0999 V2000
   -0.0803    6.8529   -3.7563 C   0  0  0  0  0  0  0  0  0  0  0  0
    0.7873    6.7978   -4.2369 H   0  0  0  0  0  0  0  0  0  0  0  0
   -0.2442    7.7806   -3.4403 H   0  0  0  0  0  0  0  0  0  0  0  0
   -0.8675    6.6017   -4.4671 H   0  0  0  0  0  0  0  0  0  0  0  0
   -0.0386    5.9225   -2.5554 C   0  0  0  0  0  0  0  0  0  0  0  0
    0.3479    6.3878   -1.4634 O   0  0  0  0  0  1  0  0  0  0  0  0
   -0.3726    4.7310   -2.6932 O   0  0  0  0  0  0  0  0  0  0  0  0
    0.0034    2.9089   -0.0525 C   0  0  0  0  0  0  0  0  0  0  0  0
   -0.4055    3.1877   -0.9098 H   0  0  0  0  0  0  0  0  0  0  0  0
    0.9427    3.2153    0.0112 H   0  0  0  0  0  0  0  0  0  0  0  0
   -0.5565    3.3849    0.7525 H   0  0  0  0  0  0  0  0  0  0  0  0
   -0.0006    1.4063   -0.0013 C   0  0  0  0  0  0  0  0  0  0  0  0
   -1.2007    0.6984    0.0019 C   0  0  0  0  0  0  0  0  0  0  0  0
   -2.0665    1.1884    0.0042 H   0  0  0  0  0  0  0  0  0  0  0  0
   -1.2072   -0.6969    0.0000 C   0  0  0  0  0  0  0  0  0  0  0  0
   -2.0814   -1.1900    0.0021 H   0  0  0  0  0  0  0  0  0  0  0  0
    0.0017   -1.4017   -0.0024 C   0  0  0  0  0  0  0  0  0  0  0  0
   -0.0061   -2.3964   -0.0059 H   0  0  0  0  0  0  0  0  0  0  0  0
    1.2072   -0.7024   -0.0000 C   0  0  0  0  0  0  0  0  0  0  0  0
    2.0873   -1.1969    0.0018 H   0  0  0  0  0  0  0  0  0  0  0  0
    1.1997    0.6963    0.0019 C   0  0  0  0  0  0  0  0  0  0  0  0
    2.0671    1.1917    0.0045 H   0  0  0  0  0  0  0  0  0  0  0  0
  1  5  1  0
  5  6  1  0
  5  7  2  0
  1  2  1  0
  1  3  1  0
  1  4  1  0
  8 12  1  0
 12 13  2  0
 13 15  1  0
 15 17  2  0
 17 19  1  0
 19 21  2  0
 21 12  1  0
  8  9  1  0
  8 10  1  0
  8 11  1  0
 13 14  1  0
 15 16  1  0
 17 18  1  0
 19 20  1  0
 21 22  1  0
M  CHG  1   6  -1
M  END
>  <PDB_ID>  (1017) 
pdb1t9b

>  <RESIDUE_NAME>  (1017) 
ASP   PHE

>  <FRAG_NAME>  (1017) 
ACET   MBZ

>  <FRAG_ATOM_NUM>  (1017) 
fragi: 7  fragj: 15

>  <atom.prop.CHAIN_ID>  (1017) 
A A A A A A A Z Z Z Z Z Z Z Z Z Z Z Z Z Z Z

>  <atom.prop.IS_HEAVY_ATOM>  (1017) 
1 0 0 0 1 1 1 1 0 0 0 1 1 0 1 0 1 0 1 0 1 0

>  <DIFUSE_FUNC_ATOM>  (1017) 
atom 6   atom 7   

>  <FINAL_SINGLE_POINT_ENERGY>  (1017) 
0

>  <NONCOV_INTER_ENERGY_QM>  (1017) 
0

>  <FF_Energy>  (1017) 
-0.5

>  <QM_Energy>  (1017) 
-5.88

>  <source>  (1017) 
ACET_MBZ_00

>  <Index>  (1017) 
37648

$$$$
ACET-pdb1tb3-A-ASP-286:MBZ-pdb1tb3-A-PHE-41
     RDKit          3D

 22 21  0  0  0  0  0  0  0  0999 V2000
    0.9569   -0.1092   -3.6130 C   0  0  0  0  0  0  0  0  0  0  0  0
    0.7692   -0.6541   -4.4217 H   0  0  0  0  0  0  0  0  0  0  0  0
    0.5298   -0.5139   -2.8129 H   0  0  0  0  0  0  0  0  0  0  0  0
    2.0352   -0.1040   -3.4535 H   0  0  0  0  0  0  0  0  0  0  0  0
    0.3718    1.2886   -3.8221 C   0  0  0  0  0  0  0  0  0  0  0  0
    0.8942    2.2679   -3.2531 O   0  0  0  0  0  1  0  0  0  0  0  0
   -0.6337    1.4033   -4.5515 O   0  0  0  0  0  0  0  0  0  0  0  0
   -0.0033    2.9024   -0.0317 C   0  0  0  0  0  0  0  0  0  0  0  0
   -0.9418    3.2099   -0.0995 H   0  0  0  0  0  0  0  0  0  0  0  0
    0.5263    3.1980   -0.8140 H   0  0  0  0  0  0  0  0  0  0  0  0
    0.4312    3.3671    0.8533 H   0  0  0  0  0  0  0  0  0  0  0  0
   -0.0005    1.4059   -0.0017 C   0  0  0  0  0  0  0  0  0  0  0  0
   -1.1985    0.6920    0.0003 C   0  0  0  0  0  0  0  0  0  0  0  0
   -2.0662    1.1814    0.0012 H   0  0  0  0  0  0  0  0  0  0  0  0
   -1.2050   -0.7028    0.0000 C   0  0  0  0  0  0  0  0  0  0  0  0
   -2.0783   -1.1956    0.0008 H   0  0  0  0  0  0  0  0  0  0  0  0
    0.0026   -1.4006    0.0008 C   0  0  0  0  0  0  0  0  0  0  0  0
   -0.0008   -2.3971    0.0013 H   0  0  0  0  0  0  0  0  0  0  0  0
    1.2050   -0.6984    0.0000 C   0  0  0  0  0  0  0  0  0  0  0  0
    2.0867   -1.1893    0.0006 H   0  0  0  0  0  0  0  0  0  0  0  0
    1.1964    0.7039    0.0006 C   0  0  0  0  0  0  0  0  0  0  0  0
    2.0651    1.1963    0.0021 H   0  0  0  0  0  0  0  0  0  0  0  0
  1  5  1  0
  5  6  1  0
  5  7  2  0
  1  2  1  0
  1  3  1  0
  1  4  1  0
  8 12  1  0
 12 13  2  0
 13 15  1  0
 15 17  2  0
 17 19  1  0
 19 21  2  0
 21 12  1  0
  8  9  1  0
  8 10  1  0
  8 11  1  0
 13 14  1  0
 15 16  1  0
 17 18  1  0
 19 20  1  0
 21 22  1  0
M  CHG  1   6  -1
M  END
>  <PDB_ID>  (1018) 
pdb1tb3

>  <RESIDUE_NAME>  (1018) 
ASP   PHE

>  <FRAG_NAME>  (1018) 
ACET   MBZ

>  <FRAG_ATOM_NUM>  (1018) 
fragi: 7  fragj: 15

>  <atom.prop.CHAIN_ID>  (1018) 
A A A A A A A Z Z Z Z Z Z Z Z Z Z Z Z Z Z Z

>  <atom.prop.IS_HEAVY_ATOM>  (1018) 
1 0 0 0 1 1 1 1 0 0 0 1 1 0 1 0 1 0 1 0 1 0

>  <DIFUSE_FUNC_ATOM>  (1018) 
atom 6   atom 7   

>  <FINAL_SINGLE_POINT_ENERGY>  (1018) 
0

>  <NONCOV_INTER_ENERGY_QM>  (1018) 
0

>  <FF_Energy>  (1018) 
0.57

>  <QM_Energy>  (1018) 
-4.57

>  <source>  (1018) 
ACET_MBZ_00

>  <Index>  (1018) 
37715

$$$$
ACET-pdb1tb3-C-ASP-286:MBZ-pdb1tb3-C-PHE-41
     RDKit          3D

 22 21  0  0  0  0  0  0  0  0999 V2000
    0.7207   -0.1725   -3.7369 C   0  0  0  0  0  0  0  0  0  0  0  0
    0.5150   -0.6844   -4.5616 H   0  0  0  0  0  0  0  0  0  0  0  0
    0.3201   -0.6106   -2.9424 H   0  0  0  0  0  0  0  0  0  0  0  0
    1.8029   -0.1640   -3.6075 H   0  0  0  0  0  0  0  0  0  0  0  0
    0.1090    1.2359   -3.8751 C   0  0  0  0  0  0  0  0  0  0  0  0
    0.6694    2.2219   -3.3249 O   0  0  0  0  0  1  0  0  0  0  0  0
   -0.9591    1.3405   -4.5299 O   0  0  0  0  0  0  0  0  0  0  0  0
   -0.0058    2.9065   -0.0458 C   0  0  0  0  0  0  0  0  0  0  0  0
   -0.9481    3.2105   -0.0520 H   0  0  0  0  0  0  0  0  0  0  0  0
    0.4655    3.1901   -0.8689 H   0  0  0  0  0  0  0  0  0  0  0  0
    0.4904    3.3819    0.8002 H   0  0  0  0  0  0  0  0  0  0  0  0
   -0.0017    1.4036   -0.0010 C   0  0  0  0  0  0  0  0  0  0  0  0
   -1.1940    0.6948   -0.0001 C   0  0  0  0  0  0  0  0  0  0  0  0
   -2.0636    1.1824   -0.0003 H   0  0  0  0  0  0  0  0  0  0  0  0
   -1.1993   -0.6993    0.0000 C   0  0  0  0  0  0  0  0  0  0  0  0
   -2.0776   -1.1904    0.0015 H   0  0  0  0  0  0  0  0  0  0  0  0
   -0.0003   -1.3948   -0.0007 C   0  0  0  0  0  0  0  0  0  0  0  0
   -0.0034   -2.3936   -0.0024 H   0  0  0  0  0  0  0  0  0  0  0  0
    1.1993   -0.6988   -0.0000 C   0  0  0  0  0  0  0  0  0  0  0  0
    2.0812   -1.1947    0.0006 H   0  0  0  0  0  0  0  0  0  0  0  0
    1.1960    0.6946    0.0018 C   0  0  0  0  0  0  0  0  0  0  0  0
    2.0636    1.1892    0.0041 H   0  0  0  0  0  0  0  0  0  0  0  0
  1  5  1  0
  5  6  1  0
  5  7  2  0
  1  2  1  0
  1  3  1  0
  1  4  1  0
  8 12  1  0
 12 13  2  0
 13 15  1  0
 15 17  2  0
 17 19  1  0
 19 21  2  0
 21 12  1  0
  8  9  1  0
  8 10  1  0
  8 11  1  0
 13 14  1  0
 15 16  1  0
 17 18  1  0
 19 20  1  0
 21 22  1  0
M  CHG  1   6  -1
M  END
>  <PDB_ID>  (1019) 
pdb1tb3

>  <RESIDUE_NAME>  (1019) 
ASP   PHE

>  <FRAG_NAME>  (1019) 
ACET   MBZ

>  <FRAG_ATOM_NUM>  (1019) 
fragi: 7  fragj: 15

>  <atom.prop.CHAIN_ID>  (1019) 
A A A A A A A Z Z Z Z Z Z Z Z Z Z Z Z Z Z Z

>  <atom.prop.IS_HEAVY_ATOM>  (1019) 
1 0 0 0 1 1 1 1 0 0 0 1 1 0 1 0 1 0 1 0 1 0

>  <DIFUSE_FUNC_ATOM>  (1019) 
atom 6   atom 7   

>  <FINAL_SINGLE_POINT_ENERGY>  (1019) 
0

>  <NONCOV_INTER_ENERGY_QM>  (1019) 
0

>  <FF_Energy>  (1019) 
0.53

>  <QM_Energy>  (1019) 
-4.5

>  <source>  (1019) 
ACET_MBZ_00

>  <Index>  (1019) 
37726

$$$$
ACET-pdb1tb3-F-ASP-286:MBZ-pdb1tb3-F-PHE-41
     RDKit          3D

 22 21  0  0  0  0  0  0  0  0999 V2000
    0.9584   -0.1506   -3.6077 C   0  0  0  0  0  0  0  0  0  0  0  0
    0.7719   -0.6881   -4.4218 H   0  0  0  0  0  0  0  0  0  0  0  0
    0.5318   -0.5621   -2.8122 H   0  0  0  0  0  0  0  0  0  0  0  0
    2.0365   -0.1472   -3.4472 H   0  0  0  0  0  0  0  0  0  0  0  0
    0.3749    1.2497   -3.8040 C   0  0  0  0  0  0  0  0  0  0  0  0
    0.9294    2.2268   -3.2509 O   0  0  0  0  0  1  0  0  0  0  0  0
   -0.6527    1.3645   -4.5067 O   0  0  0  0  0  0  0  0  0  0  0  0
   -0.0055    2.9095   -0.0482 C   0  0  0  0  0  0  0  0  0  0  0  0
   -0.9444    3.2130   -0.1302 H   0  0  0  0  0  0  0  0  0  0  0  0
    0.5319    3.1950   -0.8287 H   0  0  0  0  0  0  0  0  0  0  0  0
    0.4185    3.3866    0.8355 H   0  0  0  0  0  0  0  0  0  0  0  0
   -0.0010    1.4078   -0.0016 C   0  0  0  0  0  0  0  0  0  0  0  0
   -1.2009    0.6935   -0.0003 C   0  0  0  0  0  0  0  0  0  0  0  0
   -2.0672    1.1822   -0.0009 H   0  0  0  0  0  0  0  0  0  0  0  0
   -1.2059   -0.7032   -0.0000 C   0  0  0  0  0  0  0  0  0  0  0  0
   -2.0784   -1.1966    0.0010 H   0  0  0  0  0  0  0  0  0  0  0  0
    0.0037   -1.4020    0.0008 C   0  0  0  0  0  0  0  0  0  0  0  0
    0.0010   -2.3972    0.0013 H   0  0  0  0  0  0  0  0  0  0  0  0
    1.2059   -0.6988    0.0000 C   0  0  0  0  0  0  0  0  0  0  0  0
    2.0884   -1.1901    0.0000 H   0  0  0  0  0  0  0  0  0  0  0  0
    1.1982    0.7027    0.0011 C   0  0  0  0  0  0  0  0  0  0  0  0
    2.0654    1.1966    0.0031 H   0  0  0  0  0  0  0  0  0  0  0  0
  1  5  1  0
  5  6  1  0
  5  7  2  0
  1  2  1  0
  1  3  1  0
  1  4  1  0
  8 12  1  0
 12 13  2  0
 13 15  1  0
 15 17  2  0
 17 19  1  0
 19 21  2  0
 21 12  1  0
  8  9  1  0
  8 10  1  0
  8 11  1  0
 13 14  1  0
 15 16  1  0
 17 18  1  0
 19 20  1  0
 21 22  1  0
M  CHG  1   6  -1
M  END
>  <PDB_ID>  (1020) 
pdb1tb3

>  <RESIDUE_NAME>  (1020) 
ASP   PHE

>  <FRAG_NAME>  (1020) 
ACET   MBZ

>  <FRAG_ATOM_NUM>  (1020) 
fragi: 7  fragj: 15

>  <atom.prop.CHAIN_ID>  (1020) 
A A A A A A A Z Z Z Z Z Z Z Z Z Z Z Z Z Z Z

>  <atom.prop.IS_HEAVY_ATOM>  (1020) 
1 0 0 0 1 1 1 1 0 0 0 1 1 0 1 0 1 0 1 0 1 0

>  <DIFUSE_FUNC_ATOM>  (1020) 
atom 6   atom 7   

>  <FINAL_SINGLE_POINT_ENERGY>  (1020) 
0

>  <NONCOV_INTER_ENERGY_QM>  (1020) 
0

>  <FF_Energy>  (1020) 
1.1

>  <QM_Energy>  (1020) 
-4.55

>  <source>  (1020) 
ACET_MBZ_00

>  <Index>  (1020) 
37741

$$$$
ACET-pdb1tb3-G-ASP-286:MBZ-pdb1tb3-G-PHE-41
     RDKit          3D

 22 21  0  0  0  0  0  0  0  0999 V2000
    0.9568   -0.2193   -3.6129 C   0  0  0  0  0  0  0  0  0  0  0  0
    0.7668   -0.7664   -4.4188 H   0  0  0  0  0  0  0  0  0  0  0  0
    0.5021   -0.5988   -2.8167 H   0  0  0  0  0  0  0  0  0  0  0  0
    2.0317   -0.2412   -3.4332 H   0  0  0  0  0  0  0  0  0  0  0  0
    0.4092    1.1983   -3.8523 C   0  0  0  0  0  0  0  0  0  0  0  0
    0.9372    2.1669   -3.2792 O   0  0  0  0  0  1  0  0  0  0  0  0
   -0.5753    1.3391   -4.6034 O   0  0  0  0  0  0  0  0  0  0  0  0
   -0.0026    2.9077   -0.0673 C   0  0  0  0  0  0  0  0  0  0  0  0
   -0.9438    3.2065   -0.1440 H   0  0  0  0  0  0  0  0  0  0  0  0
    0.5236    3.1791   -0.8608 H   0  0  0  0  0  0  0  0  0  0  0  0
    0.4329    3.3959    0.8045 H   0  0  0  0  0  0  0  0  0  0  0  0
    0.0017    1.4030   -0.0009 C   0  0  0  0  0  0  0  0  0  0  0  0
   -1.2005    0.6930    0.0020 C   0  0  0  0  0  0  0  0  0  0  0  0
   -2.0647    1.1884    0.0046 H   0  0  0  0  0  0  0  0  0  0  0  0
   -1.2097   -0.6964    0.0000 C   0  0  0  0  0  0  0  0  0  0  0  0
   -2.0849   -1.1906    0.0010 H   0  0  0  0  0  0  0  0  0  0  0  0
   -0.0034   -1.3993   -0.0014 C   0  0  0  0  0  0  0  0  0  0  0  0
   -0.0051   -2.3929   -0.0035 H   0  0  0  0  0  0  0  0  0  0  0  0
    1.2097   -0.6950   -0.0000 C   0  0  0  0  0  0  0  0  0  0  0  0
    2.0855   -1.1966    0.0024 H   0  0  0  0  0  0  0  0  0  0  0  0
    1.2021    0.6947    0.0003 C   0  0  0  0  0  0  0  0  0  0  0  0
    2.0686    1.1946    0.0003 H   0  0  0  0  0  0  0  0  0  0  0  0
  1  5  1  0
  5  6  1  0
  5  7  2  0
  1  2  1  0
  1  3  1  0
  1  4  1  0
  8 12  1  0
 12 13  2  0
 13 15  1  0
 15 17  2  0
 17 19  1  0
 19 21  2  0
 21 12  1  0
  8  9  1  0
  8 10  1  0
  8 11  1  0
 13 14  1  0
 15 16  1  0
 17 18  1  0
 19 20  1  0
 21 22  1  0
M  CHG  1   6  -1
M  END
>  <PDB_ID>  (1021) 
pdb1tb3

>  <RESIDUE_NAME>  (1021) 
ASP   PHE

>  <FRAG_NAME>  (1021) 
ACET   MBZ

>  <FRAG_ATOM_NUM>  (1021) 
fragi: 7  fragj: 15

>  <atom.prop.CHAIN_ID>  (1021) 
A A A A A A A Z Z Z Z Z Z Z Z Z Z Z Z Z Z Z

>  <atom.prop.IS_HEAVY_ATOM>  (1021) 
1 0 0 0 1 1 1 1 0 0 0 1 1 0 1 0 1 0 1 0 1 0

>  <DIFUSE_FUNC_ATOM>  (1021) 
atom 6   atom 7   

>  <FINAL_SINGLE_POINT_ENERGY>  (1021) 
0

>  <NONCOV_INTER_ENERGY_QM>  (1021) 
0

>  <FF_Energy>  (1021) 
0.56

>  <QM_Energy>  (1021) 
-4.48

>  <source>  (1021) 
ACET_MBZ_00

>  <Index>  (1021) 
37747

$$$$
ACET-pdb1t5o-C-GLU-282:MBZ-pdb1t5o-C-PHE-309
     RDKit          3D

 22 21  0  0  0  0  0  0  0  0999 V2000
   -5.5949   -1.0567    1.3479 C   0  0  0  0  0  0  0  0  0  0  0  0
   -4.9956   -0.6317    1.9938 H   0  0  0  0  0  0  0  0  0  0  0  0
   -5.5736   -2.0337    1.3891 H   0  0  0  0  0  0  0  0  0  0  0  0
   -6.6118   -0.7286    1.5629 H   0  0  0  0  0  0  0  0  0  0  0  0
   -5.1267   -0.6455   -0.0549 C   0  0  0  0  0  0  0  0  0  0  0  0
   -5.8755   -0.8871   -1.0309 O   0  0  0  0  0  1  0  0  0  0  0  0
   -4.0218   -0.0900   -0.1884 O   0  0  0  0  0  0  0  0  0  0  0  0
   -0.0095    2.9180   -0.0472 C   0  0  0  0  0  0  0  0  0  0  0  0
   -0.8448    3.2047   -0.4976 H   0  0  0  0  0  0  0  0  0  0  0  0
    0.7868    3.2130   -0.5601 H   0  0  0  0  0  0  0  0  0  0  0  0
    0.0258    3.4109    0.9244 H   0  0  0  0  0  0  0  0  0  0  0  0
   -0.0008    1.4085   -0.0003 C   0  0  0  0  0  0  0  0  0  0  0  0
   -1.2000    0.6943   -0.0004 C   0  0  0  0  0  0  0  0  0  0  0  0
   -2.0673    1.1857   -0.0015 H   0  0  0  0  0  0  0  0  0  0  0  0
   -1.2077   -0.6988   -0.0000 C   0  0  0  0  0  0  0  0  0  0  0  0
   -2.0803   -1.1930    0.0024 H   0  0  0  0  0  0  0  0  0  0  0  0
    0.0034   -1.4032   -0.0013 C   0  0  0  0  0  0  0  0  0  0  0  0
   -0.0041   -2.3983   -0.0037 H   0  0  0  0  0  0  0  0  0  0  0  0
    1.2077   -0.7022   -0.0000 C   0  0  0  0  0  0  0  0  0  0  0  0
    2.0888   -1.1918    0.0007 H   0  0  0  0  0  0  0  0  0  0  0  0
    1.1974    0.7015    0.0019 C   0  0  0  0  0  0  0  0  0  0  0  0
    2.0661    1.1951    0.0039 H   0  0  0  0  0  0  0  0  0  0  0  0
  1  5  1  0
  5  6  1  0
  5  7  2  0
  1  2  1  0
  1  3  1  0
  1  4  1  0
  8 12  1  0
 12 13  2  0
 13 15  1  0
 15 17  2  0
 17 19  1  0
 19 21  2  0
 21 12  1  0
  8  9  1  0
  8 10  1  0
  8 11  1  0
 13 14  1  0
 15 16  1  0
 17 18  1  0
 19 20  1  0
 21 22  1  0
M  CHG  1   6  -1
M  END
>  <PDB_ID>  (1022) 
pdb1t5o

>  <RESIDUE_NAME>  (1022) 
GLU   PHE

>  <FRAG_NAME>  (1022) 
ACET   MBZ

>  <FRAG_ATOM_NUM>  (1022) 
fragi: 7  fragj: 15

>  <atom.prop.CHAIN_ID>  (1022) 
A A A A A A A Z Z Z Z Z Z Z Z Z Z Z Z Z Z Z

>  <atom.prop.IS_HEAVY_ATOM>  (1022) 
1 0 0 0 1 1 1 1 0 0 0 1 1 0 1 0 1 0 1 0 1 0

>  <DIFUSE_FUNC_ATOM>  (1022) 
atom 6   atom 7   

>  <FINAL_SINGLE_POINT_ENERGY>  (1022) 
0

>  <NONCOV_INTER_ENERGY_QM>  (1022) 
0

>  <FF_Energy>  (1022) 
0.99

>  <QM_Energy>  (1022) 
-6.11

>  <source>  (1022) 
ACET_MBZ_00

>  <Index>  (1022) 
37759

$$$$
ACET-pdb1tf1-C-GLU-159:MBZ-pdb1tf1-C-PHE-162
     RDKit          3D

 22 21  0  0  0  0  0  0  0  0999 V2000
   -2.3131   -0.0297    4.2444 C   0  0  0  0  0  0  0  0  0  0  0  0
   -3.0172   -0.4862    4.7473 H   0  0  0  0  0  0  0  0  0  0  0  0
   -2.1152    0.8656    4.5865 H   0  0  0  0  0  0  0  0  0  0  0  0
   -1.4052   -0.6314    4.2898 H   0  0  0  0  0  0  0  0  0  0  0  0
   -2.7901    0.1196    2.8219 C   0  0  0  0  0  0  0  0  0  0  0  0
   -2.9138   -0.9357    2.1608 O   0  0  0  0  0  1  0  0  0  0  0  0
   -3.0384    1.2632    2.3647 O   0  0  0  0  0  0  0  0  0  0  0  0
   -0.0158    2.9095   -0.0306 C   0  0  0  0  0  0  0  0  0  0  0  0
   -0.5459    3.2182    0.7504 H   0  0  0  0  0  0  0  0  0  0  0  0
   -0.4460    3.1918   -0.8801 H   0  0  0  0  0  0  0  0  0  0  0  0
    0.9660    3.3800    0.0217 H   0  0  0  0  0  0  0  0  0  0  0  0
    0.0051    1.4039   -0.0049 C   0  0  0  0  0  0  0  0  0  0  0  0
   -1.1989    0.6984    0.0030 C   0  0  0  0  0  0  0  0  0  0  0  0
   -2.0627    1.1808    0.0100 H   0  0  0  0  0  0  0  0  0  0  0  0
   -1.1999   -0.7111    0.0000 C   0  0  0  0  0  0  0  0  0  0  0  0
   -2.0733   -1.1995   -0.0030 H   0  0  0  0  0  0  0  0  0  0  0  0
    0.0080   -1.3969    0.0034 C   0  0  0  0  0  0  0  0  0  0  0  0
    0.0103   -2.3962    0.0076 H   0  0  0  0  0  0  0  0  0  0  0  0
    1.1999   -0.6936    0.0000 C   0  0  0  0  0  0  0  0  0  0  0  0
    2.0870   -1.1821   -0.0002 H   0  0  0  0  0  0  0  0  0  0  0  0
    1.1859    0.6993   -0.0015 C   0  0  0  0  0  0  0  0  0  0  0  0
    2.0631    1.1931   -0.0012 H   0  0  0  0  0  0  0  0  0  0  0  0
  1  5  1  0
  5  6  1  0
  5  7  2  0
  1  2  1  0
  1  3  1  0
  1  4  1  0
  8 12  1  0
 12 13  2  0
 13 15  1  0
 15 17  2  0
 17 19  1  0
 19 21  2  0
 21 12  1  0
  8  9  1  0
  8 10  1  0
  8 11  1  0
 13 14  1  0
 15 16  1  0
 17 18  1  0
 19 20  1  0
 21 22  1  0
M  CHG  1   6  -1
M  END
>  <PDB_ID>  (1023) 
pdb1tf1

>  <RESIDUE_NAME>  (1023) 
GLU   PHE

>  <FRAG_NAME>  (1023) 
ACET   MBZ

>  <FRAG_ATOM_NUM>  (1023) 
fragi: 7  fragj: 15

>  <atom.prop.CHAIN_ID>  (1023) 
A A A A A A A Z Z Z Z Z Z Z Z Z Z Z Z Z Z Z

>  <atom.prop.IS_HEAVY_ATOM>  (1023) 
1 0 0 0 1 1 1 1 0 0 0 1 1 0 1 0 1 0 1 0 1 0

>  <DIFUSE_FUNC_ATOM>  (1023) 
atom 6   atom 7   

>  <FINAL_SINGLE_POINT_ENERGY>  (1023) 
0

>  <NONCOV_INTER_ENERGY_QM>  (1023) 
0

>  <FF_Energy>  (1023) 
2.7

>  <QM_Energy>  (1023) 
-5.2

>  <source>  (1023) 
ACET_MBZ_00

>  <Index>  (1023) 
37853

$$$$
ACET-pdb1t90-B-GLU-104:MBZ-pdb1t90-B-PHE-154
     RDKit          3D

 22 21  0  0  0  0  0  0  0  0999 V2000
    4.5621    1.9006   -0.4272 C   0  0  0  0  0  0  0  0  0  0  0  0
    4.8552    2.5404   -1.1209 H   0  0  0  0  0  0  0  0  0  0  0  0
    3.8835    1.2739   -0.7791 H   0  0  0  0  0  0  0  0  0  0  0  0
    5.4305    1.3196   -0.1166 H   0  0  0  0  0  0  0  0  0  0  0  0
    3.9041    2.7067    0.6894 C   0  0  0  0  0  0  0  0  0  0  0  0
    3.8821    2.2271    1.8433 O   0  0  0  0  0  1  0  0  0  0  0  0
    3.3832    3.8134    0.4012 O   0  0  0  0  0  0  0  0  0  0  0  0
    0.0042    2.8888   -0.0067 C   0  0  0  0  0  0  0  0  0  0  0  0
   -0.8999    3.2000   -0.2613 H   0  0  0  0  0  0  0  0  0  0  0  0
    0.6844    3.1939   -0.6574 H   0  0  0  0  0  0  0  0  0  0  0  0
    0.2477    3.3278    0.9609 H   0  0  0  0  0  0  0  0  0  0  0  0
   -0.0008    1.3970   -0.0009 C   0  0  0  0  0  0  0  0  0  0  0  0
   -1.1955    0.6941    0.0016 C   0  0  0  0  0  0  0  0  0  0  0  0
   -2.0624    1.1841    0.0034 H   0  0  0  0  0  0  0  0  0  0  0  0
   -1.1998   -0.6944    0.0000 C   0  0  0  0  0  0  0  0  0  0  0  0
   -2.0755   -1.1893    0.0007 H   0  0  0  0  0  0  0  0  0  0  0  0
    0.0019   -1.3898   -0.0015 C   0  0  0  0  0  0  0  0  0  0  0  0
   -0.0039   -2.3895   -0.0042 H   0  0  0  0  0  0  0  0  0  0  0  0
    1.1998   -0.6961    0.0000 C   0  0  0  0  0  0  0  0  0  0  0  0
    2.0818   -1.1950    0.0020 H   0  0  0  0  0  0  0  0  0  0  0  0
    1.1943    0.6893    0.0008 C   0  0  0  0  0  0  0  0  0  0  0  0
    2.0627    1.1882    0.0015 H   0  0  0  0  0  0  0  0  0  0  0  0
  1  5  1  0
  5  6  1  0
  5  7  2  0
  1  2  1  0
  1  3  1  0
  1  4  1  0
  8 12  1  0
 12 13  2  0
 13 15  1  0
 15 17  2  0
 17 19  1  0
 19 21  2  0
 21 12  1  0
  8  9  1  0
  8 10  1  0
  8 11  1  0
 13 14  1  0
 15 16  1  0
 17 18  1  0
 19 20  1  0
 21 22  1  0
M  CHG  1   6  -1
M  END
>  <PDB_ID>  (1024) 
pdb1t90

>  <RESIDUE_NAME>  (1024) 
GLU   PHE

>  <FRAG_NAME>  (1024) 
ACET   MBZ

>  <FRAG_ATOM_NUM>  (1024) 
fragi: 7  fragj: 15

>  <atom.prop.CHAIN_ID>  (1024) 
A A A A A A A Z Z Z Z Z Z Z Z Z Z Z Z Z Z Z

>  <atom.prop.IS_HEAVY_ATOM>  (1024) 
1 0 0 0 1 1 1 1 0 0 0 1 1 0 1 0 1 0 1 0 1 0

>  <DIFUSE_FUNC_ATOM>  (1024) 
atom 6   atom 7   

>  <FINAL_SINGLE_POINT_ENERGY>  (1024) 
0

>  <NONCOV_INTER_ENERGY_QM>  (1024) 
0

>  <FF_Energy>  (1024) 
0.23

>  <QM_Energy>  (1024) 
-5.73

>  <source>  (1024) 
ACET_MBZ_00

>  <Index>  (1024) 
37855

$$$$
ACET-pdb1tf5-A-GLU-380:MBZ-pdb1tf5-A-PHE-590
     RDKit          3D

 22 21  0  0  0  0  0  0  0  0999 V2000
   -4.3874   -1.9189   -0.9908 C   0  0  0  0  0  0  0  0  0  0  0  0
   -5.3005   -2.2488   -1.1158 H   0  0  0  0  0  0  0  0  0  0  0  0
   -3.9440   -2.3031   -0.2076 H   0  0  0  0  0  0  0  0  0  0  0  0
   -3.8083   -2.1893   -1.8738 H   0  0  0  0  0  0  0  0  0  0  0  0
   -4.4632   -0.4094   -0.7862 C   0  0  0  0  0  0  0  0  0  0  0  0
   -3.8825    0.3275   -1.6093 O   0  0  0  0  0  1  0  0  0  0  0  0
   -5.0949    0.0432    0.1946 O   0  0  0  0  0  0  0  0  0  0  0  0
    0.0014    2.9002    0.0192 C   0  0  0  0  0  0  0  0  0  0  0  0
   -0.4228    3.2193   -0.8149 H   0  0  0  0  0  0  0  0  0  0  0  0
    0.9389    3.2093    0.0867 H   0  0  0  0  0  0  0  0  0  0  0  0
   -0.5499    3.3280    0.8565 H   0  0  0  0  0  0  0  0  0  0  0  0
    0.0020    1.4044    0.0008 C   0  0  0  0  0  0  0  0  0  0  0  0
   -1.1944    0.6954   -0.0015 C   0  0  0  0  0  0  0  0  0  0  0  0
   -2.0619    1.1843   -0.0051 H   0  0  0  0  0  0  0  0  0  0  0  0
   -1.2036   -0.7011   -0.0000 C   0  0  0  0  0  0  0  0  0  0  0  0
   -2.0815   -1.1894    0.0013 H   0  0  0  0  0  0  0  0  0  0  0  0
   -0.0042   -1.4001    0.0011 C   0  0  0  0  0  0  0  0  0  0  0  0
   -0.0047   -2.3958    0.0021 H   0  0  0  0  0  0  0  0  0  0  0  0
    1.2036   -0.6986    0.0000 C   0  0  0  0  0  0  0  0  0  0  0  0
    2.0827   -1.1942    0.0007 H   0  0  0  0  0  0  0  0  0  0  0  0
    1.1966    0.6999   -0.0004 C   0  0  0  0  0  0  0  0  0  0  0  0
    2.0664    1.1923   -0.0026 H   0  0  0  0  0  0  0  0  0  0  0  0
  1  5  1  0
  5  6  1  0
  5  7  2  0
  1  2  1  0
  1  3  1  0
  1  4  1  0
  8 12  1  0
 12 13  2  0
 13 15  1  0
 15 17  2  0
 17 19  1  0
 19 21  2  0
 21 12  1  0
  8  9  1  0
  8 10  1  0
  8 11  1  0
 13 14  1  0
 15 16  1  0
 17 18  1  0
 19 20  1  0
 21 22  1  0
M  CHG  1   6  -1
M  END
>  <PDB_ID>  (1025) 
pdb1tf5

>  <RESIDUE_NAME>  (1025) 
GLU   PHE

>  <FRAG_NAME>  (1025) 
ACET   MBZ

>  <FRAG_ATOM_NUM>  (1025) 
fragi: 7  fragj: 15

>  <atom.prop.CHAIN_ID>  (1025) 
A A A A A A A Z Z Z Z Z Z Z Z Z Z Z Z Z Z Z

>  <atom.prop.IS_HEAVY_ATOM>  (1025) 
1 0 0 0 1 1 1 1 0 0 0 1 1 0 1 0 1 0 1 0 1 0

>  <DIFUSE_FUNC_ATOM>  (1025) 
atom 6   atom 7   

>  <FINAL_SINGLE_POINT_ENERGY>  (1025) 
0

>  <NONCOV_INTER_ENERGY_QM>  (1025) 
0

>  <FF_Energy>  (1025) 
-0.45

>  <QM_Energy>  (1025) 
-5.53

>  <source>  (1025) 
ACET_MBZ_00

>  <Index>  (1025) 
37858

$$$$
ACET-pdb2z90-B-GLU-132:MBZ-pdb2z90-B-PHE-19
     RDKit          3D

 22 21  0  0  0  0  0  0  0  0999 V2000
   -3.0600    2.1226   -3.5529 C   0  0  0  0  0  0  0  0  0  0  0  0
   -2.5705    1.2911   -3.7511 H   0  0  0  0  0  0  0  0  0  0  0  0
   -3.4266    2.5367   -4.3685 H   0  0  0  0  0  0  0  0  0  0  0  0
   -3.8840    1.8886   -2.8787 H   0  0  0  0  0  0  0  0  0  0  0  0
   -2.0556    3.1076   -2.9603 C   0  0  0  0  0  0  0  0  0  0  0  0
   -2.4863    4.0586   -2.2637 O   0  0  0  0  0  1  0  0  0  0  0  0
   -0.8364    2.9406   -3.2132 O   0  0  0  0  0  0  0  0  0  0  0  0
    0.0010    2.9200   -0.0392 C   0  0  0  0  0  0  0  0  0  0  0  0
   -0.8048    3.2119   -0.5336 H   0  0  0  0  0  0  0  0  0  0  0  0
    0.8277    3.2115   -0.4990 H   0  0  0  0  0  0  0  0  0  0  0  0
   -0.0195    3.3955    0.9414 H   0  0  0  0  0  0  0  0  0  0  0  0
   -0.0004    1.4087   -0.0017 C   0  0  0  0  0  0  0  0  0  0  0  0
   -1.1982    0.6978    0.0015 C   0  0  0  0  0  0  0  0  0  0  0  0
   -2.0647    1.1871    0.0036 H   0  0  0  0  0  0  0  0  0  0  0  0
   -1.2058   -0.6986    0.0000 C   0  0  0  0  0  0  0  0  0  0  0  0
   -2.0830   -1.1887    0.0002 H   0  0  0  0  0  0  0  0  0  0  0  0
   -0.0027   -1.4004   -0.0004 C   0  0  0  0  0  0  0  0  0  0  0  0
   -0.0083   -2.3969   -0.0009 H   0  0  0  0  0  0  0  0  0  0  0  0
    1.2058   -0.7035   -0.0000 C   0  0  0  0  0  0  0  0  0  0  0  0
    2.0836   -1.1993    0.0012 H   0  0  0  0  0  0  0  0  0  0  0  0
    1.2013    0.6961    0.0006 C   0  0  0  0  0  0  0  0  0  0  0  0
    2.0678    1.1901    0.0022 H   0  0  0  0  0  0  0  0  0  0  0  0
  1  5  1  0
  5  6  1  0
  5  7  2  0
  1  2  1  0
  1  3  1  0
  1  4  1  0
  8 12  1  0
 12 13  2  0
 13 15  1  0
 15 17  2  0
 17 19  1  0
 19 21  2  0
 21 12  1  0
  8  9  1  0
  8 10  1  0
  8 11  1  0
 13 14  1  0
 15 16  1  0
 17 18  1  0
 19 20  1  0
 21 22  1  0
M  CHG  1   6  -1
M  END
>  <PDB_ID>  (1026) 
pdb2z90

>  <RESIDUE_NAME>  (1026) 
GLU   PHE

>  <FRAG_NAME>  (1026) 
ACET   MBZ

>  <FRAG_ATOM_NUM>  (1026) 
fragi: 7  fragj: 15

>  <atom.prop.CHAIN_ID>  (1026) 
A A A A A A A Z Z Z Z Z Z Z Z Z Z Z Z Z Z Z

>  <atom.prop.IS_HEAVY_ATOM>  (1026) 
1 0 0 0 1 1 1 1 0 0 0 1 1 0 1 0 1 0 1 0 1 0

>  <DIFUSE_FUNC_ATOM>  (1026) 
atom 6   atom 7   

>  <FINAL_SINGLE_POINT_ENERGY>  (1026) 
0

>  <NONCOV_INTER_ENERGY_QM>  (1026) 
0

>  <FF_Energy>  (1026) 
-0.09

>  <QM_Energy>  (1026) 
-6.25

>  <source>  (1026) 
ACET_MBZ_00

>  <Index>  (1026) 
37892

$$$$
ACET-pdb2z90-D-GLU-132:MBZ-pdb2z90-D-PHE-19
     RDKit          3D

 22 21  0  0  0  0  0  0  0  0999 V2000
   -2.8105    2.2707   -3.9343 C   0  0  0  0  0  0  0  0  0  0  0  0
   -2.3047    1.4790   -4.2202 H   0  0  0  0  0  0  0  0  0  0  0  0
   -3.1291    2.8067   -4.6928 H   0  0  0  0  0  0  0  0  0  0  0  0
   -3.6783    1.9324   -3.3682 H   0  0  0  0  0  0  0  0  0  0  0  0
   -1.8817    3.1406   -3.1127 C   0  0  0  0  0  0  0  0  0  0  0  0
   -2.3968    4.0007   -2.3617 O   0  0  0  0  0  1  0  0  0  0  0  0
   -0.6441    2.9788   -3.2230 O   0  0  0  0  0  0  0  0  0  0  0  0
    0.0074    2.8927   -0.0167 C   0  0  0  0  0  0  0  0  0  0  0  0
   -0.7548    3.2000   -0.5717 H   0  0  0  0  0  0  0  0  0  0  0  0
    0.8696    3.1920   -0.4039 H   0  0  0  0  0  0  0  0  0  0  0  0
   -0.0917    3.3510    0.9673 H   0  0  0  0  0  0  0  0  0  0  0  0
   -0.0011    1.3984    0.0004 C   0  0  0  0  0  0  0  0  0  0  0  0
   -1.1954    0.6958    0.0020 C   0  0  0  0  0  0  0  0  0  0  0  0
   -2.0623    1.1858    0.0037 H   0  0  0  0  0  0  0  0  0  0  0  0
   -1.2024   -0.6959    0.0000 C   0  0  0  0  0  0  0  0  0  0  0  0
   -2.0786   -1.1887    0.0023 H   0  0  0  0  0  0  0  0  0  0  0  0
    0.0006   -1.3929   -0.0032 C   0  0  0  0  0  0  0  0  0  0  0  0
   -0.0037   -2.3908   -0.0089 H   0  0  0  0  0  0  0  0  0  0  0  0
    1.2024   -0.6958   -0.0000 C   0  0  0  0  0  0  0  0  0  0  0  0
    2.0825   -1.1948    0.0032 H   0  0  0  0  0  0  0  0  0  0  0  0
    1.1960    0.6904    0.0008 C   0  0  0  0  0  0  0  0  0  0  0  0
    2.0642    1.1902    0.0008 H   0  0  0  0  0  0  0  0  0  0  0  0
  1  5  1  0
  5  6  1  0
  5  7  2  0
  1  2  1  0
  1  3  1  0
  1  4  1  0
  8 12  1  0
 12 13  2  0
 13 15  1  0
 15 17  2  0
 17 19  1  0
 19 21  2  0
 21 12  1  0
  8  9  1  0
  8 10  1  0
  8 11  1  0
 13 14  1  0
 15 16  1  0
 17 18  1  0
 19 20  1  0
 21 22  1  0
M  CHG  1   6  -1
M  END
>  <PDB_ID>  (1027) 
pdb2z90

>  <RESIDUE_NAME>  (1027) 
GLU   PHE

>  <FRAG_NAME>  (1027) 
ACET   MBZ

>  <FRAG_ATOM_NUM>  (1027) 
fragi: 7  fragj: 15

>  <atom.prop.CHAIN_ID>  (1027) 
A A A A A A A Z Z Z Z Z Z Z Z Z Z Z Z Z Z Z

>  <atom.prop.IS_HEAVY_ATOM>  (1027) 
1 0 0 0 1 1 1 1 0 0 0 1 1 0 1 0 1 0 1 0 1 0

>  <DIFUSE_FUNC_ATOM>  (1027) 
atom 6   atom 7   

>  <FINAL_SINGLE_POINT_ENERGY>  (1027) 
0

>  <NONCOV_INTER_ENERGY_QM>  (1027) 
0

>  <FF_Energy>  (1027) 
0.0

>  <QM_Energy>  (1027) 
-6.3

>  <source>  (1027) 
ACET_MBZ_00

>  <Index>  (1027) 
37894

$$$$
ACET-pdb2zba-C-GLU-122:MBZ-pdb2zba-C-PHE-413
     RDKit          3D

 22 21  0  0  0  0  0  0  0  0999 V2000
    2.0686    6.6537   -1.0891 C   0  0  0  0  0  0  0  0  0  0  0  0
    1.9212    6.6326   -0.1180 H   0  0  0  0  0  0  0  0  0  0  0  0
    1.9438    7.5532   -1.4659 H   0  0  0  0  0  0  0  0  0  0  0  0
    3.1079    6.3738   -1.2609 H   0  0  0  0  0  0  0  0  0  0  0  0
    1.0633    5.7217   -1.7435 C   0  0  0  0  0  0  0  0  0  0  0  0
    1.4488    4.8329   -2.5387 O   0  0  0  0  0  1  0  0  0  0  0  0
   -0.1412    5.8627   -1.4700 O   0  0  0  0  0  0  0  0  0  0  0  0
    0.0176    2.9148   -0.0187 C   0  0  0  0  0  0  0  0  0  0  0  0
   -0.8824    3.2186   -0.2942 H   0  0  0  0  0  0  0  0  0  0  0  0
    0.7060    3.2018   -0.6688 H   0  0  0  0  0  0  0  0  0  0  0  0
    0.2468    3.3964    0.9319 H   0  0  0  0  0  0  0  0  0  0  0  0
    0.0092    1.3972    0.0160 C   0  0  0  0  0  0  0  0  0  0  0  0
   -1.2038    0.6904   -0.0217 C   0  0  0  0  0  0  0  0  0  0  0  0
   -2.0594    1.1942   -0.0656 H   0  0  0  0  0  0  0  0  0  0  0  0
   -1.2154   -0.6894    0.0000 C   0  0  0  0  0  0  0  0  0  0  0  0
   -2.0883   -1.1869    0.0230 H   0  0  0  0  0  0  0  0  0  0  0  0
   -0.0081   -1.3922   -0.0087 C   0  0  0  0  0  0  0  0  0  0  0  0
   -0.0073   -2.3857   -0.0220 H   0  0  0  0  0  0  0  0  0  0  0  0
    1.2154   -0.6876   -0.0000 C   0  0  0  0  0  0  0  0  0  0  0  0
    2.0838   -1.2005   -0.0029 H   0  0  0  0  0  0  0  0  0  0  0  0
    1.2027    0.6815    0.0144 C   0  0  0  0  0  0  0  0  0  0  0  0
    2.0728    1.1912    0.0234 H   0  0  0  0  0  0  0  0  0  0  0  0
  1  5  1  0
  5  6  1  0
  5  7  2  0
  1  2  1  0
  1  3  1  0
  1  4  1  0
  8 12  1  0
 12 13  2  0
 13 15  1  0
 15 17  2  0
 17 19  1  0
 19 21  2  0
 21 12  1  0
  8  9  1  0
  8 10  1  0
  8 11  1  0
 13 14  1  0
 15 16  1  0
 17 18  1  0
 19 20  1  0
 21 22  1  0
M  CHG  1   6  -1
M  END
>  <PDB_ID>  (1028) 
pdb2zba

>  <RESIDUE_NAME>  (1028) 
GLU   PHE

>  <FRAG_NAME>  (1028) 
ACET   MBZ

>  <FRAG_ATOM_NUM>  (1028) 
fragi: 7  fragj: 15

>  <atom.prop.CHAIN_ID>  (1028) 
A A A A A A A Z Z Z Z Z Z Z Z Z Z Z Z Z Z Z

>  <atom.prop.IS_HEAVY_ATOM>  (1028) 
1 0 0 0 1 1 1 1 0 0 0 1 1 0 1 0 1 0 1 0 1 0

>  <DIFUSE_FUNC_ATOM>  (1028) 
atom 6   atom 7   

>  <FINAL_SINGLE_POINT_ENERGY>  (1028) 
0

>  <NONCOV_INTER_ENERGY_QM>  (1028) 
0

>  <FF_Energy>  (1028) 
-0.95

>  <QM_Energy>  (1028) 
-5.98

>  <source>  (1028) 
ACET_MBZ_00

>  <Index>  (1028) 
37974

$$$$
ACET-pdb2zci-D-ASP-395:MBZ-pdb2zci-D-PHE-404
     RDKit          3D

 22 21  0  0  0  0  0  0  0  0999 V2000
   -1.8414   -5.4166    2.0675 C   0  0  0  0  0  0  0  0  0  0  0  0
   -1.4870   -6.0306    2.7828 H   0  0  0  0  0  0  0  0  0  0  0  0
   -2.7228   -5.7816    1.7470 H   0  0  0  0  0  0  0  0  0  0  0  0
   -2.0580   -4.4658    2.5545 H   0  0  0  0  0  0  0  0  0  0  0  0
   -0.9109   -5.3073    0.9841 C   0  0  0  0  0  0  0  0  0  0  0  0
   -0.8938   -6.2511    0.1461 O   0  0  0  0  0  1  0  0  0  0  0  0
   -0.1940   -4.3034    0.9513 O   0  0  0  0  0  0  0  0  0  0  0  0
    0.0231    2.8696   -0.0189 C   0  0  0  0  0  0  0  0  0  0  0  0
    0.7859    3.1830    0.5307 H   0  0  0  0  0  0  0  0  0  0  0  0
   -0.8366    3.1953    0.3506 H   0  0  0  0  0  0  0  0  0  0  0  0
    0.1361    3.3011   -1.0134 H   0  0  0  0  0  0  0  0  0  0  0  0
    0.0112    1.3919   -0.0106 C   0  0  0  0  0  0  0  0  0  0  0  0
   -1.1993    0.6850   -0.0109 C   0  0  0  0  0  0  0  0  0  0  0  0
   -2.0590    1.1757   -0.0204 H   0  0  0  0  0  0  0  0  0  0  0  0
   -1.2060   -0.7163   -0.0000 C   0  0  0  0  0  0  0  0  0  0  0  0
   -2.0821   -1.2012    0.0101 H   0  0  0  0  0  0  0  0  0  0  0  0
   -0.0118   -1.3843   -0.0020 C   0  0  0  0  0  0  0  0  0  0  0  0
    0.0180   -2.3842   -0.0053 H   0  0  0  0  0  0  0  0  0  0  0  0
    1.2060   -0.6635    0.0000 C   0  0  0  0  0  0  0  0  0  0  0  0
    2.0783   -1.1862   -0.0151 H   0  0  0  0  0  0  0  0  0  0  0  0
    1.1999    0.6872    0.0235 C   0  0  0  0  0  0  0  0  0  0  0  0
    2.0671    1.2006    0.0662 H   0  0  0  0  0  0  0  0  0  0  0  0
  1  5  1  0
  5  6  1  0
  5  7  2  0
  1  2  1  0
  1  3  1  0
  1  4  1  0
  8 12  1  0
 12 13  2  0
 13 15  1  0
 15 17  2  0
 17 19  1  0
 19 21  2  0
 21 12  1  0
  8  9  1  0
  8 10  1  0
  8 11  1  0
 13 14  1  0
 15 16  1  0
 17 18  1  0
 19 20  1  0
 21 22  1  0
M  CHG  1   6  -1
M  END
>  <PDB_ID>  (1029) 
pdb2zci

>  <RESIDUE_NAME>  (1029) 
ASP   PHE

>  <FRAG_NAME>  (1029) 
ACET   MBZ

>  <FRAG_ATOM_NUM>  (1029) 
fragi: 7  fragj: 15

>  <atom.prop.CHAIN_ID>  (1029) 
A A A A A A A Z Z Z Z Z Z Z Z Z Z Z Z Z Z Z

>  <atom.prop.IS_HEAVY_ATOM>  (1029) 
1 0 0 0 1 1 1 1 0 0 0 1 1 0 1 0 1 0 1 0 1 0

>  <DIFUSE_FUNC_ATOM>  (1029) 
atom 6   atom 7   

>  <FINAL_SINGLE_POINT_ENERGY>  (1029) 
0

>  <NONCOV_INTER_ENERGY_QM>  (1029) 
0

>  <FF_Energy>  (1029) 
0.02

>  <QM_Energy>  (1029) 
-5.23

>  <source>  (1029) 
ACET_MBZ_00

>  <Index>  (1029) 
38116

$$$$
ACET-pdb2zco-A-ASP-66:MBZ-pdb2zco-A-PHE-80
     RDKit          3D

 22 21  0  0  0  0  0  0  0  0999 V2000
   -4.1503    1.5345    2.0295 C   0  0  0  0  0  0  0  0  0  0  0  0
   -4.5493    1.7433    2.9209 H   0  0  0  0  0  0  0  0  0  0  0  0
   -3.3925    0.8939    2.1443 H   0  0  0  0  0  0  0  0  0  0  0  0
   -4.9150    1.0466    1.4250 H   0  0  0  0  0  0  0  0  0  0  0  0
   -3.6179    2.8137    1.4249 C   0  0  0  0  0  0  0  0  0  0  0  0
   -2.8817    3.5403    2.1132 O   0  0  0  0  0  1  0  0  0  0  0  0
   -3.9049    3.0880    0.2334 O   0  0  0  0  0  0  0  0  0  0  0  0
   -0.0123    2.9381    0.0431 C   0  0  0  0  0  0  0  0  0  0  0  0
    0.9223    3.2449    0.0721 H   0  0  0  0  0  0  0  0  0  0  0  0
   -0.5198    3.2200    0.8368 H   0  0  0  0  0  0  0  0  0  0  0  0
   -0.4847    3.3841   -0.8322 H   0  0  0  0  0  0  0  0  0  0  0  0
   -0.0064    1.4275    0.0053 C   0  0  0  0  0  0  0  0  0  0  0  0
   -1.1965    0.7128   -0.0049 C   0  0  0  0  0  0  0  0  0  0  0  0
   -2.0698    1.1869   -0.0172 H   0  0  0  0  0  0  0  0  0  0  0  0
   -1.2004   -0.7046    0.0000 C   0  0  0  0  0  0  0  0  0  0  0  0
   -2.0819   -1.1871    0.0065 H   0  0  0  0  0  0  0  0  0  0  0  0
    0.0026   -1.4221   -0.0019 C   0  0  0  0  0  0  0  0  0  0  0  0
   -0.0022   -2.4068   -0.0050 H   0  0  0  0  0  0  0  0  0  0  0  0
    1.2004   -0.7046    0.0000 C   0  0  0  0  0  0  0  0  0  0  0  0
    2.0878   -1.2011    0.0020 H   0  0  0  0  0  0  0  0  0  0  0  0
    1.2004    0.6910    0.0015 C   0  0  0  0  0  0  0  0  0  0  0  0
    2.0676    1.1869   -0.0008 H   0  0  0  0  0  0  0  0  0  0  0  0
  1  5  1  0
  5  6  1  0
  5  7  2  0
  1  2  1  0
  1  3  1  0
  1  4  1  0
  8 12  1  0
 12 13  2  0
 13 15  1  0
 15 17  2  0
 17 19  1  0
 19 21  2  0
 21 12  1  0
  8  9  1  0
  8 10  1  0
  8 11  1  0
 13 14  1  0
 15 16  1  0
 17 18  1  0
 19 20  1  0
 21 22  1  0
M  CHG  1   6  -1
M  END
>  <PDB_ID>  (1030) 
pdb2zco

>  <RESIDUE_NAME>  (1030) 
ASP   PHE

>  <FRAG_NAME>  (1030) 
ACET   MBZ

>  <FRAG_ATOM_NUM>  (1030) 
fragi: 7  fragj: 15

>  <atom.prop.CHAIN_ID>  (1030) 
A A A A A A A Z Z Z Z Z Z Z Z Z Z Z Z Z Z Z

>  <atom.prop.IS_HEAVY_ATOM>  (1030) 
1 0 0 0 1 1 1 1 0 0 0 1 1 0 1 0 1 0 1 0 1 0

>  <DIFUSE_FUNC_ATOM>  (1030) 
atom 6   atom 7   

>  <FINAL_SINGLE_POINT_ENERGY>  (1030) 
0

>  <NONCOV_INTER_ENERGY_QM>  (1030) 
0

>  <FF_Energy>  (1030) 
-2.32

>  <QM_Energy>  (1030) 
-8.41

>  <source>  (1030) 
ACET_MBZ_00

>  <Index>  (1030) 
38118

$$$$
ACET-pdb2z67-A-GLU-71:MBZ-pdb2z67-B-PHE-222
     RDKit          3D

 22 21  0  0  0  0  0  0  0  0999 V2000
   -0.9546   -4.1753    1.3582 C   0  0  0  0  0  0  0  0  0  0  0  0
   -0.7885   -3.4707    0.6932 H   0  0  0  0  0  0  0  0  0  0  0  0
   -0.6176   -5.0506    1.0644 H   0  0  0  0  0  0  0  0  0  0  0  0
   -0.4271   -3.9025    2.2722 H   0  0  0  0  0  0  0  0  0  0  0  0
   -2.4665   -4.2978    1.5357 C   0  0  0  0  0  0  0  0  0  0  0  0
   -3.1144   -4.9679    0.6940 O   0  0  0  0  0  1  0  0  0  0  0  0
   -3.0091   -3.7141    2.5059 O   0  0  0  0  0  0  0  0  0  0  0  0
    0.0073    2.8920    0.0035 C   0  0  0  0  0  0  0  0  0  0  0  0
   -0.9027    3.2080   -0.2220 H   0  0  0  0  0  0  0  0  0  0  0  0
    0.6701    3.2001   -0.6631 H   0  0  0  0  0  0  0  0  0  0  0  0
    0.2804    3.3219    0.9671 H   0  0  0  0  0  0  0  0  0  0  0  0
   -0.0012    1.4018   -0.0001 C   0  0  0  0  0  0  0  0  0  0  0  0
   -1.2003    0.6985    0.0013 C   0  0  0  0  0  0  0  0  0  0  0  0
   -2.0654    1.1906    0.0020 H   0  0  0  0  0  0  0  0  0  0  0  0
   -1.2090   -0.6953   -0.0000 C   0  0  0  0  0  0  0  0  0  0  0  0
   -2.0804   -1.1895    0.0019 H   0  0  0  0  0  0  0  0  0  0  0  0
    0.0032   -1.3986   -0.0012 C   0  0  0  0  0  0  0  0  0  0  0  0
   -0.0049   -2.3949   -0.0036 H   0  0  0  0  0  0  0  0  0  0  0  0
    1.2090   -0.7008    0.0000 C   0  0  0  0  0  0  0  0  0  0  0  0
    2.0880   -1.1955    0.0027 H   0  0  0  0  0  0  0  0  0  0  0  0
    1.1983    0.6945    0.0001 C   0  0  0  0  0  0  0  0  0  0  0  0
    2.0658    1.1929   -0.0011 H   0  0  0  0  0  0  0  0  0  0  0  0
  1  5  1  0
  5  6  1  0
  5  7  2  0
  1  2  1  0
  1  3  1  0
  1  4  1  0
  8 12  1  0
 12 13  2  0
 13 15  1  0
 15 17  2  0
 17 19  1  0
 19 21  2  0
 21 12  1  0
  8  9  1  0
  8 10  1  0
  8 11  1  0
 13 14  1  0
 15 16  1  0
 17 18  1  0
 19 20  1  0
 21 22  1  0
M  CHG  1   6  -1
M  END
>  <PDB_ID>  (1031) 
pdb2z67

>  <RESIDUE_NAME>  (1031) 
GLU   PHE

>  <FRAG_NAME>  (1031) 
ACET   MBZ

>  <FRAG_ATOM_NUM>  (1031) 
fragi: 7  fragj: 15

>  <atom.prop.CHAIN_ID>  (1031) 
A A A A A A A Z Z Z Z Z Z Z Z Z Z Z Z Z Z Z

>  <atom.prop.IS_HEAVY_ATOM>  (1031) 
1 0 0 0 1 1 1 1 0 0 0 1 1 0 1 0 1 0 1 0 1 0

>  <DIFUSE_FUNC_ATOM>  (1031) 
atom 6   atom 7   

>  <FINAL_SINGLE_POINT_ENERGY>  (1031) 
0

>  <NONCOV_INTER_ENERGY_QM>  (1031) 
0

>  <FF_Energy>  (1031) 
31.5

>  <QM_Energy>  (1031) 
2.91

>  <source>  (1031) 
ACET_MBZ_00

>  <Index>  (1031) 
38153

$$$$
ACET-pdb1tjl-H-GLU-65:MBZ-pdb1tjl-H-PHE-82
     RDKit          3D

 22 21  0  0  0  0  0  0  0  0999 V2000
   -5.7028    2.1783    0.4628 C   0  0  0  0  0  0  0  0  0  0  0  0
   -6.3048    2.8745    0.1341 H   0  0  0  0  0  0  0  0  0  0  0  0
   -6.1067    1.6147    1.1526 H   0  0  0  0  0  0  0  0  0  0  0  0
   -5.3965    1.5513   -0.3746 H   0  0  0  0  0  0  0  0  0  0  0  0
   -4.5071    2.8678    1.0838 C   0  0  0  0  0  0  0  0  0  0  0  0
   -3.5574    2.1621    1.4958 O   0  0  0  0  0  1  0  0  0  0  0  0
   -4.5129    4.1163    1.1491 O   0  0  0  0  0  0  0  0  0  0  0  0
   -0.0086    2.9190   -0.0320 C   0  0  0  0  0  0  0  0  0  0  0  0
   -0.8357    3.2083   -0.4923 H   0  0  0  0  0  0  0  0  0  0  0  0
    0.7968    3.2172   -0.5253 H   0  0  0  0  0  0  0  0  0  0  0  0
    0.0085    3.3887    0.9515 H   0  0  0  0  0  0  0  0  0  0  0  0
    0.0001    1.4120   -0.0005 C   0  0  0  0  0  0  0  0  0  0  0  0
   -1.2003    0.6968    0.0022 C   0  0  0  0  0  0  0  0  0  0  0  0
   -2.0669    1.1872    0.0047 H   0  0  0  0  0  0  0  0  0  0  0  0
   -1.2091   -0.7015   -0.0000 C   0  0  0  0  0  0  0  0  0  0  0  0
   -2.0863   -1.1907    0.0016 H   0  0  0  0  0  0  0  0  0  0  0  0
   -0.0047   -1.4102   -0.0029 C   0  0  0  0  0  0  0  0  0  0  0  0
   -0.0060   -2.4008   -0.0076 H   0  0  0  0  0  0  0  0  0  0  0  0
    1.2091   -0.7013   -0.0000 C   0  0  0  0  0  0  0  0  0  0  0  0
    2.0871   -1.1972    0.0026 H   0  0  0  0  0  0  0  0  0  0  0  0
    1.2049    0.7042    0.0012 C   0  0  0  0  0  0  0  0  0  0  0  0
    2.0699    1.1966    0.0028 H   0  0  0  0  0  0  0  0  0  0  0  0
  1  5  1  0
  5  6  1  0
  5  7  2  0
  1  2  1  0
  1  3  1  0
  1  4  1  0
  8 12  1  0
 12 13  2  0
 13 15  1  0
 15 17  2  0
 17 19  1  0
 19 21  2  0
 21 12  1  0
  8  9  1  0
  8 10  1  0
  8 11  1  0
 13 14  1  0
 15 16  1  0
 17 18  1  0
 19 20  1  0
 21 22  1  0
M  CHG  1   6  -1
M  END
>  <PDB_ID>  (1032) 
pdb1tjl

>  <RESIDUE_NAME>  (1032) 
GLU   PHE

>  <FRAG_NAME>  (1032) 
ACET   MBZ

>  <FRAG_ATOM_NUM>  (1032) 
fragi: 7  fragj: 15

>  <atom.prop.CHAIN_ID>  (1032) 
A A A A A A A Z Z Z Z Z Z Z Z Z Z Z Z Z Z Z

>  <atom.prop.IS_HEAVY_ATOM>  (1032) 
1 0 0 0 1 1 1 1 0 0 0 1 1 0 1 0 1 0 1 0 1 0

>  <DIFUSE_FUNC_ATOM>  (1032) 
atom 6   atom 7   

>  <FINAL_SINGLE_POINT_ENERGY>  (1032) 
0

>  <NONCOV_INTER_ENERGY_QM>  (1032) 
0

>  <FF_Energy>  (1032) 
-0.93

>  <QM_Energy>  (1032) 
-6.17

>  <source>  (1032) 
ACET_MBZ_00

>  <Index>  (1032) 
38207

$$$$
ACET-pdb1tlq-A-ASP-73:MBZ-pdb1tlq-A-PHE-142
     RDKit          3D

 22 21  0  0  0  0  0  0  0  0999 V2000
   -4.4780    3.9273   -1.8071 C   0  0  0  0  0  0  0  0  0  0  0  0
   -3.9219    4.3501   -2.5041 H   0  0  0  0  0  0  0  0  0  0  0  0
   -5.3390    4.3945   -1.6949 H   0  0  0  0  0  0  0  0  0  0  0  0
   -4.6904    2.9061   -2.1233 H   0  0  0  0  0  0  0  0  0  0  0  0
   -3.7156    3.9714   -0.4759 C   0  0  0  0  0  0  0  0  0  0  0  0
   -3.2515    5.0571   -0.0595 O   0  0  0  0  0  1  0  0  0  0  0  0
   -3.5721    2.9508    0.2894 O   0  0  0  0  0  0  0  0  0  0  0  0
    0.0298    2.8660    0.0520 C   0  0  0  0  0  0  0  0  0  0  0  0
   -0.7788    3.2074   -0.4200 H   0  0  0  0  0  0  0  0  0  0  0  0
    0.8542    3.1765   -0.4133 H   0  0  0  0  0  0  0  0  0  0  0  0
    0.0330    3.2523    1.0712 H   0  0  0  0  0  0  0  0  0  0  0  0
    0.0023    1.4056   -0.0032 C   0  0  0  0  0  0  0  0  0  0  0  0
   -1.2111    0.7481   -0.0599 C   0  0  0  0  0  0  0  0  0  0  0  0
   -2.0631    1.2254   -0.1414 H   0  0  0  0  0  0  0  0  0  0  0  0
   -1.2445   -0.6998   -0.0000 C   0  0  0  0  0  0  0  0  0  0  0  0
   -2.1046   -1.1691    0.0227 H   0  0  0  0  0  0  0  0  0  0  0  0
    0.0020   -1.4240    0.0270 C   0  0  0  0  0  0  0  0  0  0  0  0
   -0.0125   -2.4089    0.0644 H   0  0  0  0  0  0  0  0  0  0  0  0
    1.2445   -0.7183   -0.0000 C   0  0  0  0  0  0  0  0  0  0  0  0
    2.1032   -1.2071   -0.0414 H   0  0  0  0  0  0  0  0  0  0  0  0
    1.2068    0.6884    0.0361 C   0  0  0  0  0  0  0  0  0  0  0  0
    2.0743    1.1944    0.0910 H   0  0  0  0  0  0  0  0  0  0  0  0
  1  5  1  0
  5  6  1  0
  5  7  2  0
  1  2  1  0
  1  3  1  0
  1  4  1  0
  8 12  1  0
 12 13  2  0
 13 15  1  0
 15 17  2  0
 17 19  1  0
 19 21  2  0
 21 12  1  0
  8  9  1  0
  8 10  1  0
  8 11  1  0
 13 14  1  0
 15 16  1  0
 17 18  1  0
 19 20  1  0
 21 22  1  0
M  CHG  1   6  -1
M  END
>  <PDB_ID>  (1033) 
pdb1tlq

>  <RESIDUE_NAME>  (1033) 
ASP   PHE

>  <FRAG_NAME>  (1033) 
ACET   MBZ

>  <FRAG_ATOM_NUM>  (1033) 
fragi: 7  fragj: 15

>  <atom.prop.CHAIN_ID>  (1033) 
A A A A A A A Z Z Z Z Z Z Z Z Z Z Z Z Z Z Z

>  <atom.prop.IS_HEAVY_ATOM>  (1033) 
1 0 0 0 1 1 1 1 0 0 0 1 1 0 1 0 1 0 1 0 1 0

>  <DIFUSE_FUNC_ATOM>  (1033) 
atom 6   atom 7   

>  <FINAL_SINGLE_POINT_ENERGY>  (1033) 
0

>  <NONCOV_INTER_ENERGY_QM>  (1033) 
0

>  <FF_Energy>  (1033) 
-2.05

>  <QM_Energy>  (1033) 
-8.61

>  <source>  (1033) 
ACET_MBZ_00

>  <Index>  (1033) 
38264

$$$$
ACET-pdb1tqn-A-ASP-217:MBZ-pdb1tqn-A-PHE-220
     RDKit          3D

 22 21  0  0  0  0  0  0  0  0999 V2000
   -5.4938    3.4889    1.0934 C   0  0  0  0  0  0  0  0  0  0  0  0
   -6.0105    3.6085    1.9396 H   0  0  0  0  0  0  0  0  0  0  0  0
   -6.1136    3.2247    0.3564 H   0  0  0  0  0  0  0  0  0  0  0  0
   -5.0707    4.4586    0.8312 H   0  0  0  0  0  0  0  0  0  0  0  0
   -4.4674    2.4102    1.2889 C   0  0  0  0  0  0  0  0  0  0  0  0
   -4.8843    1.2306    1.2780 O   0  0  0  0  0  1  0  0  0  0  0  0
   -3.2665    2.7153    1.4549 O   0  0  0  0  0  0  0  0  0  0  0  0
   -0.0013    2.9005    0.0020 C   0  0  0  0  0  0  0  0  0  0  0  0
   -0.9279    3.2095   -0.1145 H   0  0  0  0  0  0  0  0  0  0  0  0
    0.5874    3.2133   -0.7208 H   0  0  0  0  0  0  0  0  0  0  0  0
    0.3711    3.3240    0.9347 H   0  0  0  0  0  0  0  0  0  0  0  0
    0.0016    1.3999   -0.0005 C   0  0  0  0  0  0  0  0  0  0  0  0
   -1.1897    0.6840   -0.0018 C   0  0  0  0  0  0  0  0  0  0  0  0
   -2.0599    1.1830   -0.0054 H   0  0  0  0  0  0  0  0  0  0  0  0
   -1.1994   -0.6897    0.0000 C   0  0  0  0  0  0  0  0  0  0  0  0
   -2.0839   -1.1831    0.0037 H   0  0  0  0  0  0  0  0  0  0  0  0
   -0.0146   -1.3883   -0.0016 C   0  0  0  0  0  0  0  0  0  0  0  0
   -0.0183   -2.3890   -0.0045 H   0  0  0  0  0  0  0  0  0  0  0  0
    1.1994   -0.7016   -0.0000 C   0  0  0  0  0  0  0  0  0  0  0  0
    2.0730   -1.2042   -0.0002 H   0  0  0  0  0  0  0  0  0  0  0  0
    1.2027    0.6957    0.0039 C   0  0  0  0  0  0  0  0  0  0  0  0
    2.0670    1.1870    0.0088 H   0  0  0  0  0  0  0  0  0  0  0  0
  1  5  1  0
  5  6  1  0
  5  7  2  0
  1  2  1  0
  1  3  1  0
  1  4  1  0
  8 12  1  0
 12 13  2  0
 13 15  1  0
 15 17  2  0
 17 19  1  0
 19 21  2  0
 21 12  1  0
  8  9  1  0
  8 10  1  0
  8 11  1  0
 13 14  1  0
 15 16  1  0
 17 18  1  0
 19 20  1  0
 21 22  1  0
M  CHG  1   6  -1
M  END
>  <PDB_ID>  (1034) 
pdb1tqn

>  <RESIDUE_NAME>  (1034) 
ASP   PHE

>  <FRAG_NAME>  (1034) 
ACET   MBZ

>  <FRAG_ATOM_NUM>  (1034) 
fragi: 7  fragj: 15

>  <atom.prop.CHAIN_ID>  (1034) 
A A A A A A A Z Z Z Z Z Z Z Z Z Z Z Z Z Z Z

>  <atom.prop.IS_HEAVY_ATOM>  (1034) 
1 0 0 0 1 1 1 1 0 0 0 1 1 0 1 0 1 0 1 0 1 0

>  <DIFUSE_FUNC_ATOM>  (1034) 
atom 6   atom 7   

>  <FINAL_SINGLE_POINT_ENERGY>  (1034) 
0

>  <NONCOV_INTER_ENERGY_QM>  (1034) 
0

>  <FF_Energy>  (1034) 
-1.92

>  <QM_Energy>  (1034) 
-7.36

>  <source>  (1034) 
ACET_MBZ_00

>  <Index>  (1034) 
38360

$$$$
ACET-pdb1tqn-A-GLU-362:MBZ-pdb1tqn-A-PHE-419
     RDKit          3D

 22 21  0  0  0  0  0  0  0  0999 V2000
    5.0491    0.4588    1.1013 C   0  0  0  0  0  0  0  0  0  0  0  0
    4.2867    0.9423    0.6973 H   0  0  0  0  0  0  0  0  0  0  0  0
    5.8955    0.9543    0.9717 H   0  0  0  0  0  0  0  0  0  0  0  0
    4.8660    0.3657    2.1718 H   0  0  0  0  0  0  0  0  0  0  0  0
    5.1841   -0.8673    0.3694 C   0  0  0  0  0  0  0  0  0  0  0  0
    6.3131   -1.2842    0.0527 O   0  0  0  0  0  1  0  0  0  0  0  0
    4.1571   -1.4906    0.1065 O   0  0  0  0  0  0  0  0  0  0  0  0
    0.0104    2.9054   -0.1080 C   0  0  0  0  0  0  0  0  0  0  0  0
    0.7782    3.2453    0.4085 H   0  0  0  0  0  0  0  0  0  0  0  0
   -0.8466    3.2441    0.2422 H   0  0  0  0  0  0  0  0  0  0  0  0
    0.1148    3.2707   -1.1296 H   0  0  0  0  0  0  0  0  0  0  0  0
   -0.0002    1.4007   -0.0015 C   0  0  0  0  0  0  0  0  0  0  0  0
   -1.1952    0.7016    0.0053 C   0  0  0  0  0  0  0  0  0  0  0  0
   -2.0613    1.1889    0.0124 H   0  0  0  0  0  0  0  0  0  0  0  0
   -1.1997   -0.6944    0.0000 C   0  0  0  0  0  0  0  0  0  0  0  0
   -2.0782   -1.1842    0.0023 H   0  0  0  0  0  0  0  0  0  0  0  0
   -0.0021   -1.3887   -0.0065 C   0  0  0  0  0  0  0  0  0  0  0  0
   -0.0117   -2.3921   -0.0162 H   0  0  0  0  0  0  0  0  0  0  0  0
    1.1997   -0.7060   -0.0000 C   0  0  0  0  0  0  0  0  0  0  0  0
    2.0783   -1.2037    0.0046 H   0  0  0  0  0  0  0  0  0  0  0  0
    1.1975    0.6868    0.0027 C   0  0  0  0  0  0  0  0  0  0  0  0
    2.0666    1.1815    0.0067 H   0  0  0  0  0  0  0  0  0  0  0  0
  1  5  1  0
  5  6  1  0
  5  7  2  0
  1  2  1  0
  1  3  1  0
  1  4  1  0
  8 12  1  0
 12 13  2  0
 13 15  1  0
 15 17  2  0
 17 19  1  0
 19 21  2  0
 21 12  1  0
  8  9  1  0
  8 10  1  0
  8 11  1  0
 13 14  1  0
 15 16  1  0
 17 18  1  0
 19 20  1  0
 21 22  1  0
M  CHG  1   6  -1
M  END
>  <PDB_ID>  (1035) 
pdb1tqn

>  <RESIDUE_NAME>  (1035) 
GLU   PHE

>  <FRAG_NAME>  (1035) 
ACET   MBZ

>  <FRAG_ATOM_NUM>  (1035) 
fragi: 7  fragj: 15

>  <atom.prop.CHAIN_ID>  (1035) 
A A A A A A A Z Z Z Z Z Z Z Z Z Z Z Z Z Z Z

>  <atom.prop.IS_HEAVY_ATOM>  (1035) 
1 0 0 0 1 1 1 1 0 0 0 1 1 0 1 0 1 0 1 0 1 0

>  <DIFUSE_FUNC_ATOM>  (1035) 
atom 6   atom 7   

>  <FINAL_SINGLE_POINT_ENERGY>  (1035) 
0

>  <NONCOV_INTER_ENERGY_QM>  (1035) 
0

>  <FF_Energy>  (1035) 
0.73

>  <QM_Energy>  (1035) 
-6.27

>  <source>  (1035) 
ACET_MBZ_00

>  <Index>  (1035) 
38368

$$$$
ACET-pdb1tqy-F-ASP-192:MBZ-pdb1tqy-F-PHE-109
     RDKit          3D

 22 21  0  0  0  0  0  0  0  0999 V2000
    6.1662    2.3360    1.5182 C   0  0  0  0  0  0  0  0  0  0  0  0
    6.5227    1.7958    2.2720 H   0  0  0  0  0  0  0  0  0  0  0  0
    5.8438    3.2166    1.8430 H   0  0  0  0  0  0  0  0  0  0  0  0
    6.9786    2.5107    0.8128 H   0  0  0  0  0  0  0  0  0  0  0  0
    5.0128    1.5947    0.8901 C   0  0  0  0  0  0  0  0  0  0  0  0
    4.9039    0.3652    1.0951 O   0  0  0  0  0  1  0  0  0  0  0  0
    4.2166    2.2425    0.1714 O   0  0  0  0  0  0  0  0  0  0  0  0
   -0.0225    2.8706    0.1503 C   0  0  0  0  0  0  0  0  0  0  0  0
   -0.6761    3.2412   -0.4879 H   0  0  0  0  0  0  0  0  0  0  0  0
    0.8853    3.2185   -0.0112 H   0  0  0  0  0  0  0  0  0  0  0  0
   -0.3231    3.1849    1.1498 H   0  0  0  0  0  0  0  0  0  0  0  0
    0.0023    1.3956    0.0016 C   0  0  0  0  0  0  0  0  0  0  0  0
   -1.1923    0.6844   -0.0024 C   0  0  0  0  0  0  0  0  0  0  0  0
   -2.0601    1.1805   -0.0085 H   0  0  0  0  0  0  0  0  0  0  0  0
   -1.2029   -0.6991    0.0000 C   0  0  0  0  0  0  0  0  0  0  0  0
   -2.0817   -1.1904    0.0005 H   0  0  0  0  0  0  0  0  0  0  0  0
   -0.0085   -1.3925    0.0037 C   0  0  0  0  0  0  0  0  0  0  0  0
   -0.0045   -2.3909    0.0088 H   0  0  0  0  0  0  0  0  0  0  0  0
    1.2029   -0.6919    0.0000 C   0  0  0  0  0  0  0  0  0  0  0  0
    2.0797   -1.1908    0.0007 H   0  0  0  0  0  0  0  0  0  0  0  0
    1.1985    0.7035   -0.0028 C   0  0  0  0  0  0  0  0  0  0  0  0
    2.0643    1.1977   -0.0088 H   0  0  0  0  0  0  0  0  0  0  0  0
  1  5  1  0
  5  6  1  0
  5  7  2  0
  1  2  1  0
  1  3  1  0
  1  4  1  0
  8 12  1  0
 12 13  2  0
 13 15  1  0
 15 17  2  0
 17 19  1  0
 19 21  2  0
 21 12  1  0
  8  9  1  0
  8 10  1  0
  8 11  1  0
 13 14  1  0
 15 16  1  0
 17 18  1  0
 19 20  1  0
 21 22  1  0
M  CHG  1   6  -1
M  END
>  <PDB_ID>  (1036) 
pdb1tqy

>  <RESIDUE_NAME>  (1036) 
ASP   PHE

>  <FRAG_NAME>  (1036) 
ACET   MBZ

>  <FRAG_ATOM_NUM>  (1036) 
fragi: 7  fragj: 15

>  <atom.prop.CHAIN_ID>  (1036) 
A A A A A A A Z Z Z Z Z Z Z Z Z Z Z Z Z Z Z

>  <atom.prop.IS_HEAVY_ATOM>  (1036) 
1 0 0 0 1 1 1 1 0 0 0 1 1 0 1 0 1 0 1 0 1 0

>  <DIFUSE_FUNC_ATOM>  (1036) 
atom 6   atom 7   

>  <FINAL_SINGLE_POINT_ENERGY>  (1036) 
0

>  <NONCOV_INTER_ENERGY_QM>  (1036) 
0

>  <FF_Energy>  (1036) 
-2.75

>  <QM_Energy>  (1036) 
-8.27

>  <source>  (1036) 
ACET_MBZ_00

>  <Index>  (1036) 
38401

$$$$
ACET-pdb1ts9-A-ASP-85:MBZ-pdb1ts9-A-PHE-81
     RDKit          3D

 22 21  0  0  0  0  0  0  0  0999 V2000
    1.0155    4.7576   -3.3471 C   0  0  0  0  0  0  0  0  0  0  0  0
    1.9018    5.2139   -3.3874 H   0  0  0  0  0  0  0  0  0  0  0  0
    0.5623    4.9729   -2.4858 H   0  0  0  0  0  0  0  0  0  0  0  0
    0.4005    5.1545   -4.1547 H   0  0  0  0  0  0  0  0  0  0  0  0
    1.2281    3.2659   -3.4302 C   0  0  0  0  0  0  0  0  0  0  0  0
    2.1614    2.7847   -2.7556 O   0  0  0  0  0  1  0  0  0  0  0  0
    0.4763    2.5722   -4.1378 O   0  0  0  0  0  0  0  0  0  0  0  0
    0.0041    2.9036   -0.0202 C   0  0  0  0  0  0  0  0  0  0  0  0
   -0.8983    3.2081   -0.2891 H   0  0  0  0  0  0  0  0  0  0  0  0
    0.6888    3.2017   -0.6699 H   0  0  0  0  0  0  0  0  0  0  0  0
    0.2365    3.3618    0.9411 H   0  0  0  0  0  0  0  0  0  0  0  0
    0.0026    1.4026   -0.0003 C   0  0  0  0  0  0  0  0  0  0  0  0
   -1.1949    0.6983    0.0014 C   0  0  0  0  0  0  0  0  0  0  0  0
   -2.0612    1.1897    0.0023 H   0  0  0  0  0  0  0  0  0  0  0  0
   -1.2030   -0.6940    0.0000 C   0  0  0  0  0  0  0  0  0  0  0  0
   -2.0821   -1.1843    0.0007 H   0  0  0  0  0  0  0  0  0  0  0  0
   -0.0050   -1.3978   -0.0008 C   0  0  0  0  0  0  0  0  0  0  0  0
   -0.0111   -2.3944   -0.0027 H   0  0  0  0  0  0  0  0  0  0  0  0
    1.2030   -0.7017   -0.0000 C   0  0  0  0  0  0  0  0  0  0  0  0
    2.0806   -1.1991    0.0021 H   0  0  0  0  0  0  0  0  0  0  0  0
    1.1973    0.6925   -0.0003 C   0  0  0  0  0  0  0  0  0  0  0  0
    2.0678    1.1872   -0.0016 H   0  0  0  0  0  0  0  0  0  0  0  0
  1  5  1  0
  5  6  1  0
  5  7  2  0
  1  2  1  0
  1  3  1  0
  1  4  1  0
  8 12  1  0
 12 13  2  0
 13 15  1  0
 15 17  2  0
 17 19  1  0
 19 21  2  0
 21 12  1  0
  8  9  1  0
  8 10  1  0
  8 11  1  0
 13 14  1  0
 15 16  1  0
 17 18  1  0
 19 20  1  0
 21 22  1  0
M  CHG  1   6  -1
M  END
>  <PDB_ID>  (1037) 
pdb1ts9

>  <RESIDUE_NAME>  (1037) 
ASP   PHE

>  <FRAG_NAME>  (1037) 
ACET   MBZ

>  <FRAG_ATOM_NUM>  (1037) 
fragi: 7  fragj: 15

>  <atom.prop.CHAIN_ID>  (1037) 
A A A A A A A Z Z Z Z Z Z Z Z Z Z Z Z Z Z Z

>  <atom.prop.IS_HEAVY_ATOM>  (1037) 
1 0 0 0 1 1 1 1 0 0 0 1 1 0 1 0 1 0 1 0 1 0

>  <DIFUSE_FUNC_ATOM>  (1037) 
atom 6   atom 7   

>  <FINAL_SINGLE_POINT_ENERGY>  (1037) 
0

>  <NONCOV_INTER_ENERGY_QM>  (1037) 
0

>  <FF_Energy>  (1037) 
0.56

>  <QM_Energy>  (1037) 
-4.45

>  <source>  (1037) 
ACET_MBZ_00

>  <Index>  (1037) 
38472

$$$$
ACET-pdb1tv5-A-ASP-235:MBZ-pdb1tv5-A-PHE-293
     RDKit          3D

 22 21  0  0  0  0  0  0  0  0999 V2000
   -5.4248   -0.3366   -0.3974 C   0  0  0  0  0  0  0  0  0  0  0  0
   -6.3177    0.0272   -0.6448 H   0  0  0  0  0  0  0  0  0  0  0  0
   -5.5214   -1.0444    0.2944 H   0  0  0  0  0  0  0  0  0  0  0  0
   -4.9922   -0.7944   -1.2869 H   0  0  0  0  0  0  0  0  0  0  0  0
   -4.5773    0.7836    0.1627 C   0  0  0  0  0  0  0  0  0  0  0  0
   -4.1287    0.6608    1.3214 O   0  0  0  0  0  1  0  0  0  0  0  0
   -4.3690    1.7943   -0.5538 O   0  0  0  0  0  0  0  0  0  0  0  0
   -0.0008    2.8976    0.0922 C   0  0  0  0  0  0  0  0  0  0  0  0
   -0.6816    3.2411   -0.5321 H   0  0  0  0  0  0  0  0  0  0  0  0
    0.9026    3.2186   -0.1364 H   0  0  0  0  0  0  0  0  0  0  0  0
   -0.2446    3.2592    1.0912 H   0  0  0  0  0  0  0  0  0  0  0  0
   -0.0000    1.4018    0.0007 C   0  0  0  0  0  0  0  0  0  0  0  0
   -1.2004    0.6937   -0.0009 C   0  0  0  0  0  0  0  0  0  0  0  0
   -2.0652    1.1863   -0.0034 H   0  0  0  0  0  0  0  0  0  0  0  0
   -1.2062   -0.6957    0.0000 C   0  0  0  0  0  0  0  0  0  0  0  0
   -2.0800   -1.1920    0.0004 H   0  0  0  0  0  0  0  0  0  0  0  0
    0.0014   -1.3965    0.0021 C   0  0  0  0  0  0  0  0  0  0  0  0
   -0.0047   -2.3926    0.0045 H   0  0  0  0  0  0  0  0  0  0  0  0
    1.2062   -0.6988   -0.0000 C   0  0  0  0  0  0  0  0  0  0  0  0
    2.0860   -1.1948    0.0014 H   0  0  0  0  0  0  0  0  0  0  0  0
    1.1991    0.6956   -0.0019 C   0  0  0  0  0  0  0  0  0  0  0  0
    2.0663    1.1925   -0.0059 H   0  0  0  0  0  0  0  0  0  0  0  0
  1  5  1  0
  5  6  1  0
  5  7  2  0
  1  2  1  0
  1  3  1  0
  1  4  1  0
  8 12  1  0
 12 13  2  0
 13 15  1  0
 15 17  2  0
 17 19  1  0
 19 21  2  0
 21 12  1  0
  8  9  1  0
  8 10  1  0
  8 11  1  0
 13 14  1  0
 15 16  1  0
 17 18  1  0
 19 20  1  0
 21 22  1  0
M  CHG  1   6  -1
M  END
>  <PDB_ID>  (1038) 
pdb1tv5

>  <RESIDUE_NAME>  (1038) 
ASP   PHE

>  <FRAG_NAME>  (1038) 
ACET   MBZ

>  <FRAG_ATOM_NUM>  (1038) 
fragi: 7  fragj: 15

>  <atom.prop.CHAIN_ID>  (1038) 
A A A A A A A Z Z Z Z Z Z Z Z Z Z Z Z Z Z Z

>  <atom.prop.IS_HEAVY_ATOM>  (1038) 
1 0 0 0 1 1 1 1 0 0 0 1 1 0 1 0 1 0 1 0 1 0

>  <DIFUSE_FUNC_ATOM>  (1038) 
atom 6   atom 7   

>  <FINAL_SINGLE_POINT_ENERGY>  (1038) 
0

>  <NONCOV_INTER_ENERGY_QM>  (1038) 
0

>  <FF_Energy>  (1038) 
-1.4

>  <QM_Energy>  (1038) 
-7.63

>  <source>  (1038) 
ACET_MBZ_00

>  <Index>  (1038) 
38601

$$$$
ACET-pdb2znv-C-GLU-64:MBZ-pdb2znv-A-PHE-407
     RDKit          3D

 22 21  0  0  0  0  0  0  0  0999 V2000
   -4.1407    2.5439    2.0438 C   0  0  0  0  0  0  0  0  0  0  0  0
   -3.4472    3.2121    2.2667 H   0  0  0  0  0  0  0  0  0  0  0  0
   -3.8100    1.6223    2.1790 H   0  0  0  0  0  0  0  0  0  0  0  0
   -4.9852    2.7005    2.7149 H   0  0  0  0  0  0  0  0  0  0  0  0
   -4.4789    2.7011    0.5794 C   0  0  0  0  0  0  0  0  0  0  0  0
   -5.6736    2.6655    0.2173 O   0  0  0  0  0  1  0  0  0  0  0  0
   -3.5162    2.9054   -0.1798 O   0  0  0  0  0  0  0  0  0  0  0  0
    0.0006    2.9338   -0.0059 C   0  0  0  0  0  0  0  0  0  0  0  0
    0.8066    3.2367    0.4804 H   0  0  0  0  0  0  0  0  0  0  0  0
   -0.8262    3.2331    0.4452 H   0  0  0  0  0  0  0  0  0  0  0  0
    0.0204    3.3811   -0.9997 H   0  0  0  0  0  0  0  0  0  0  0  0
    0.0042    1.4180   -0.0066 C   0  0  0  0  0  0  0  0  0  0  0  0
   -1.2020    0.6933   -0.0054 C   0  0  0  0  0  0  0  0  0  0  0  0
   -2.0682    1.1798   -0.0098 H   0  0  0  0  0  0  0  0  0  0  0  0
   -1.2066   -0.7126   -0.0000 C   0  0  0  0  0  0  0  0  0  0  0  0
   -2.0835   -1.1987   -0.0014 H   0  0  0  0  0  0  0  0  0  0  0  0
   -0.0048   -1.4066    0.0090 C   0  0  0  0  0  0  0  0  0  0  0  0
   -0.0009   -2.4027    0.0215 H   0  0  0  0  0  0  0  0  0  0  0  0
    1.2066   -0.7021    0.0000 C   0  0  0  0  0  0  0  0  0  0  0  0
    2.0856   -1.1936   -0.0073 H   0  0  0  0  0  0  0  0  0  0  0  0
    1.2025    0.7100    0.0029 C   0  0  0  0  0  0  0  0  0  0  0  0
    2.0714    1.1958    0.0114 H   0  0  0  0  0  0  0  0  0  0  0  0
  1  5  1  0
  5  6  1  0
  5  7  2  0
  1  2  1  0
  1  3  1  0
  1  4  1  0
  8 12  1  0
 12 13  2  0
 13 15  1  0
 15 17  2  0
 17 19  1  0
 19 21  2  0
 21 12  1  0
  8  9  1  0
  8 10  1  0
  8 11  1  0
 13 14  1  0
 15 16  1  0
 17 18  1  0
 19 20  1  0
 21 22  1  0
M  CHG  1   6  -1
M  END
>  <PDB_ID>  (1039) 
pdb2znv

>  <RESIDUE_NAME>  (1039) 
GLU   PHE

>  <FRAG_NAME>  (1039) 
ACET   MBZ

>  <FRAG_ATOM_NUM>  (1039) 
fragi: 7  fragj: 15

>  <atom.prop.CHAIN_ID>  (1039) 
A A A A A A A Z Z Z Z Z Z Z Z Z Z Z Z Z Z Z

>  <atom.prop.IS_HEAVY_ATOM>  (1039) 
1 0 0 0 1 1 1 1 0 0 0 1 1 0 1 0 1 0 1 0 1 0

>  <DIFUSE_FUNC_ATOM>  (1039) 
atom 6   atom 7   

>  <FINAL_SINGLE_POINT_ENERGY>  (1039) 
0

>  <NONCOV_INTER_ENERGY_QM>  (1039) 
0

>  <FF_Energy>  (1039) 
-1.52

>  <QM_Energy>  (1039) 
-7.65

>  <source>  (1039) 
ACET_MBZ_00

>  <Index>  (1039) 
38613

$$$$
ACET-pdb1tvd-A-ASP-1:MBZ-pdb1tvd-A-PHE-90
     RDKit          3D

 22 21  0  0  0  0  0  0  0  0999 V2000
   -0.1786   -4.9201    0.0875 C   0  0  0  0  0  0  0  0  0  0  0  0
   -0.3392   -5.2396    1.0156 H   0  0  0  0  0  0  0  0  0  0  0  0
   -0.0892   -3.9304    0.0733 H   0  0  0  0  0  0  0  0  0  0  0  0
    0.7553   -5.3553   -0.2683 H   0  0  0  0  0  0  0  0  0  0  0  0
   -1.3621   -5.3114   -0.7701 C   0  0  0  0  0  0  0  0  0  0  0  0
   -1.2929   -5.1004   -2.0112 O   0  0  0  0  0  1  0  0  0  0  0  0
   -2.3689   -5.8579   -0.2224 O   0  0  0  0  0  0  0  0  0  0  0  0
    0.0022    2.9049   -0.0558 C   0  0  0  0  0  0  0  0  0  0  0  0
   -0.7027    3.1890   -0.6901 H   0  0  0  0  0  0  0  0  0  0  0  0
    0.8964    3.2019   -0.3583 H   0  0  0  0  0  0  0  0  0  0  0  0
   -0.1990    3.3921    0.8983 H   0  0  0  0  0  0  0  0  0  0  0  0
    0.0026    1.3980   -0.0008 C   0  0  0  0  0  0  0  0  0  0  0  0
   -1.1946    0.6843   -0.0006 C   0  0  0  0  0  0  0  0  0  0  0  0
   -2.0610    1.1807   -0.0022 H   0  0  0  0  0  0  0  0  0  0  0  0
   -1.1973   -0.6933   -0.0000 C   0  0  0  0  0  0  0  0  0  0  0  0
   -2.0776   -1.1910    0.0012 H   0  0  0  0  0  0  0  0  0  0  0  0
   -0.0053   -1.3862    0.0008 C   0  0  0  0  0  0  0  0  0  0  0  0
   -0.0071   -2.3878    0.0021 H   0  0  0  0  0  0  0  0  0  0  0  0
    1.1973   -0.6937    0.0000 C   0  0  0  0  0  0  0  0  0  0  0  0
    2.0772   -1.1968    0.0003 H   0  0  0  0  0  0  0  0  0  0  0  0
    1.1972    0.6910    0.0006 C   0  0  0  0  0  0  0  0  0  0  0  0
    2.0655    1.1872    0.0013 H   0  0  0  0  0  0  0  0  0  0  0  0
  1  5  1  0
  5  6  1  0
  5  7  2  0
  1  2  1  0
  1  3  1  0
  1  4  1  0
  8 12  1  0
 12 13  2  0
 13 15  1  0
 15 17  2  0
 17 19  1  0
 19 21  2  0
 21 12  1  0
  8  9  1  0
  8 10  1  0
  8 11  1  0
 13 14  1  0
 15 16  1  0
 17 18  1  0
 19 20  1  0
 21 22  1  0
M  CHG  1   6  -1
M  END
>  <PDB_ID>  (1040) 
pdb1tvd

>  <RESIDUE_NAME>  (1040) 
ASP   PHE

>  <FRAG_NAME>  (1040) 
ACET   MBZ

>  <FRAG_ATOM_NUM>  (1040) 
fragi: 7  fragj: 15

>  <atom.prop.CHAIN_ID>  (1040) 
A A A A A A A Z Z Z Z Z Z Z Z Z Z Z Z Z Z Z

>  <atom.prop.IS_HEAVY_ATOM>  (1040) 
1 0 0 0 1 1 1 1 0 0 0 1 1 0 1 0 1 0 1 0 1 0

>  <DIFUSE_FUNC_ATOM>  (1040) 
atom 6   atom 7   

>  <FINAL_SINGLE_POINT_ENERGY>  (1040) 
0

>  <NONCOV_INTER_ENERGY_QM>  (1040) 
0

>  <FF_Energy>  (1040) 
20.06

>  <QM_Energy>  (1040) 
1.27

>  <source>  (1040) 
ACET_MBZ_00

>  <Index>  (1040) 
38626

$$$$
ACET-pdb1tw9-H-ASP-157:MBZ-pdb1tw9-H-PHE-147
     RDKit          3D

 22 21  0  0  0  0  0  0  0  0999 V2000
    4.9390    2.8448   -2.3190 C   0  0  0  0  0  0  0  0  0  0  0  0
    4.8048    2.3782   -3.1852 H   0  0  0  0  0  0  0  0  0  0  0  0
    5.2818    2.2168   -1.6322 H   0  0  0  0  0  0  0  0  0  0  0  0
    5.6952    3.6148   -2.4710 H   0  0  0  0  0  0  0  0  0  0  0  0
    3.6125    3.4105   -1.8533 C   0  0  0  0  0  0  0  0  0  0  0  0
    3.6151    4.0444   -0.7648 O   0  0  0  0  0  1  0  0  0  0  0  0
    2.5318    3.2418   -2.4999 O   0  0  0  0  0  0  0  0  0  0  0  0
   -0.0042    2.9163   -0.0171 C   0  0  0  0  0  0  0  0  0  0  0  0
   -0.9363    3.2304   -0.0762 H   0  0  0  0  0  0  0  0  0  0  0  0
    0.5368    3.2248   -0.7807 H   0  0  0  0  0  0  0  0  0  0  0  0
    0.4312    3.3380    0.8888 H   0  0  0  0  0  0  0  0  0  0  0  0
   -0.0134    1.4150   -0.0234 C   0  0  0  0  0  0  0  0  0  0  0  0
   -1.2027    0.7132    0.0356 C   0  0  0  0  0  0  0  0  0  0  0  0
   -2.0700    1.1898    0.1023 H   0  0  0  0  0  0  0  0  0  0  0  0
   -1.2001   -0.6906   -0.0000 C   0  0  0  0  0  0  0  0  0  0  0  0
   -2.0773   -1.1831   -0.0196 H   0  0  0  0  0  0  0  0  0  0  0  0
    0.0058   -1.3952   -0.0058 C   0  0  0  0  0  0  0  0  0  0  0  0
   -0.0200   -2.4003   -0.0149 H   0  0  0  0  0  0  0  0  0  0  0  0
    1.2001   -0.7259    0.0000 C   0  0  0  0  0  0  0  0  0  0  0  0
    2.0832   -1.2180    0.0105 H   0  0  0  0  0  0  0  0  0  0  0  0
    1.2103    0.6835   -0.0063 C   0  0  0  0  0  0  0  0  0  0  0  0
    2.0679    1.1745   -0.0001 H   0  0  0  0  0  0  0  0  0  0  0  0
  1  5  1  0
  5  6  1  0
  5  7  2  0
  1  2  1  0
  1  3  1  0
  1  4  1  0
  8 12  1  0
 12 13  2  0
 13 15  1  0
 15 17  2  0
 17 19  1  0
 19 21  2  0
 21 12  1  0
  8  9  1  0
  8 10  1  0
  8 11  1  0
 13 14  1  0
 15 16  1  0
 17 18  1  0
 19 20  1  0
 21 22  1  0
M  CHG  1   6  -1
M  END
>  <PDB_ID>  (1041) 
pdb1tw9

>  <RESIDUE_NAME>  (1041) 
ASP   PHE

>  <FRAG_NAME>  (1041) 
ACET   MBZ

>  <FRAG_ATOM_NUM>  (1041) 
fragi: 7  fragj: 15

>  <atom.prop.CHAIN_ID>  (1041) 
A A A A A A A Z Z Z Z Z Z Z Z Z Z Z Z Z Z Z

>  <atom.prop.IS_HEAVY_ATOM>  (1041) 
1 0 0 0 1 1 1 1 0 0 0 1 1 0 1 0 1 0 1 0 1 0

>  <DIFUSE_FUNC_ATOM>  (1041) 
atom 6   atom 7   

>  <FINAL_SINGLE_POINT_ENERGY>  (1041) 
0

>  <NONCOV_INTER_ENERGY_QM>  (1041) 
0

>  <FF_Energy>  (1041) 
-1.6

>  <QM_Energy>  (1041) 
-7.29

>  <source>  (1041) 
ACET_MBZ_00

>  <Index>  (1041) 
38681

$$$$
ACET-pdb1twf-B-GLU-699:MBZ-pdb1twf-A-PHE-779
     RDKit          3D

 22 21  0  0  0  0  0  0  0  0999 V2000
   -5.1103    2.1956   -0.3734 C   0  0  0  0  0  0  0  0  0  0  0  0
   -4.9204    1.2310   -0.3688 H   0  0  0  0  0  0  0  0  0  0  0  0
   -5.7490    2.4449   -1.0786 H   0  0  0  0  0  0  0  0  0  0  0  0
   -5.5296    2.4730    0.5938 H   0  0  0  0  0  0  0  0  0  0  0  0
   -3.8184    2.9127   -0.6579 C   0  0  0  0  0  0  0  0  0  0  0  0
   -3.2198    2.6265   -1.7092 O   0  0  0  0  0  1  0  0  0  0  0  0
   -3.4065    3.7579    0.1595 O   0  0  0  0  0  0  0  0  0  0  0  0
    0.0238    2.8859   -0.0065 C   0  0  0  0  0  0  0  0  0  0  0  0
    0.8561    3.1873    0.4412 H   0  0  0  0  0  0  0  0  0  0  0  0
   -0.7771    3.2108    0.4800 H   0  0  0  0  0  0  0  0  0  0  0  0
    0.0061    3.3270   -1.0031 H   0  0  0  0  0  0  0  0  0  0  0  0
    0.0026    1.3965    0.0007 C   0  0  0  0  0  0  0  0  0  0  0  0
   -1.1935    0.6938   -0.0011 C   0  0  0  0  0  0  0  0  0  0  0  0
   -2.0594    1.1824   -0.0048 H   0  0  0  0  0  0  0  0  0  0  0  0
   -1.1976   -0.6982   -0.0000 C   0  0  0  0  0  0  0  0  0  0  0  0
   -2.0761   -1.1906    0.0038 H   0  0  0  0  0  0  0  0  0  0  0  0
    0.0003   -1.3936   -0.0019 C   0  0  0  0  0  0  0  0  0  0  0  0
   -0.0010   -2.3913   -0.0053 H   0  0  0  0  0  0  0  0  0  0  0  0
    1.1976   -0.6928    0.0000 C   0  0  0  0  0  0  0  0  0  0  0  0
    2.0812   -1.1897    0.0007 H   0  0  0  0  0  0  0  0  0  0  0  0
    1.1906    0.6942    0.0024 C   0  0  0  0  0  0  0  0  0  0  0  0
    2.0627    1.1900    0.0051 H   0  0  0  0  0  0  0  0  0  0  0  0
  1  5  1  0
  5  6  1  0
  5  7  2  0
  1  2  1  0
  1  3  1  0
  1  4  1  0
  8 12  1  0
 12 13  2  0
 13 15  1  0
 15 17  2  0
 17 19  1  0
 19 21  2  0
 21 12  1  0
  8  9  1  0
  8 10  1  0
  8 11  1  0
 13 14  1  0
 15 16  1  0
 17 18  1  0
 19 20  1  0
 21 22  1  0
M  CHG  1   6  -1
M  END
>  <PDB_ID>  (1042) 
pdb1twf

>  <RESIDUE_NAME>  (1042) 
GLU   PHE

>  <FRAG_NAME>  (1042) 
ACET   MBZ

>  <FRAG_ATOM_NUM>  (1042) 
fragi: 7  fragj: 15

>  <atom.prop.CHAIN_ID>  (1042) 
A A A A A A A Z Z Z Z Z Z Z Z Z Z Z Z Z Z Z

>  <atom.prop.IS_HEAVY_ATOM>  (1042) 
1 0 0 0 1 1 1 1 0 0 0 1 1 0 1 0 1 0 1 0 1 0

>  <DIFUSE_FUNC_ATOM>  (1042) 
atom 6   atom 7   

>  <FINAL_SINGLE_POINT_ENERGY>  (1042) 
0

>  <NONCOV_INTER_ENERGY_QM>  (1042) 
0

>  <FF_Energy>  (1042) 
-1.22

>  <QM_Energy>  (1042) 
-7.62

>  <source>  (1042) 
ACET_MBZ_00

>  <Index>  (1042) 
38717

$$$$
ACET-pdb2zpa-A-GLU-3:MBZ-pdb2zpa-A-PHE-158
     RDKit          3D

 22 21  0  0  0  0  0  0  0  0999 V2000
    5.0714    0.9969    1.1423 C   0  0  0  0  0  0  0  0  0  0  0  0
    4.5710    1.1969    1.9652 H   0  0  0  0  0  0  0  0  0  0  0  0
    6.0367    1.1538    1.2482 H   0  0  0  0  0  0  0  0  0  0  0  0
    4.9224   -0.0564    0.9041 H   0  0  0  0  0  0  0  0  0  0  0  0
    4.5691    1.9620    0.0553 C   0  0  0  0  0  0  0  0  0  0  0  0
    5.1277    1.9521   -1.0588 O   0  0  0  0  0  1  0  0  0  0  0  0
    3.6205    2.7215    0.3390 O   0  0  0  0  0  0  0  0  0  0  0  0
   -0.0083    2.8933    0.0423 C   0  0  0  0  0  0  0  0  0  0  0  0
   -0.4414    3.2219   -0.7806 H   0  0  0  0  0  0  0  0  0  0  0  0
    0.9262    3.2031    0.1108 H   0  0  0  0  0  0  0  0  0  0  0  0
   -0.5572    3.2968    0.8931 H   0  0  0  0  0  0  0  0  0  0  0  0
   -0.0022    1.3958    0.0007 C   0  0  0  0  0  0  0  0  0  0  0  0
   -1.2025    0.6911    0.0002 C   0  0  0  0  0  0  0  0  0  0  0  0
   -2.0659    1.1860   -0.0008 H   0  0  0  0  0  0  0  0  0  0  0  0
   -1.2052   -0.6905    0.0000 C   0  0  0  0  0  0  0  0  0  0  0  0
   -2.0756   -1.1936    0.0009 H   0  0  0  0  0  0  0  0  0  0  0  0
    0.0068   -1.3895    0.0003 C   0  0  0  0  0  0  0  0  0  0  0  0
   -0.0031   -2.3883    0.0005 H   0  0  0  0  0  0  0  0  0  0  0  0
    1.2052   -0.6965    0.0000 C   0  0  0  0  0  0  0  0  0  0  0  0
    2.0869   -1.1947    0.0021 H   0  0  0  0  0  0  0  0  0  0  0  0
    1.1979    0.6896   -0.0012 C   0  0  0  0  0  0  0  0  0  0  0  0
    2.0637    1.1906   -0.0042 H   0  0  0  0  0  0  0  0  0  0  0  0
  1  5  1  0
  5  6  1  0
  5  7  2  0
  1  2  1  0
  1  3  1  0
  1  4  1  0
  8 12  1  0
 12 13  2  0
 13 15  1  0
 15 17  2  0
 17 19  1  0
 19 21  2  0
 21 12  1  0
  8  9  1  0
  8 10  1  0
  8 11  1  0
 13 14  1  0
 15 16  1  0
 17 18  1  0
 19 20  1  0
 21 22  1  0
M  CHG  1   6  -1
M  END
>  <PDB_ID>  (1043) 
pdb2zpa

>  <RESIDUE_NAME>  (1043) 
GLU   PHE

>  <FRAG_NAME>  (1043) 
ACET   MBZ

>  <FRAG_ATOM_NUM>  (1043) 
fragi: 7  fragj: 15

>  <atom.prop.CHAIN_ID>  (1043) 
A A A A A A A Z Z Z Z Z Z Z Z Z Z Z Z Z Z Z

>  <atom.prop.IS_HEAVY_ATOM>  (1043) 
1 0 0 0 1 1 1 1 0 0 0 1 1 0 1 0 1 0 1 0 1 0

>  <DIFUSE_FUNC_ATOM>  (1043) 
atom 6   atom 7   

>  <FINAL_SINGLE_POINT_ENERGY>  (1043) 
0

>  <NONCOV_INTER_ENERGY_QM>  (1043) 
0

>  <FF_Energy>  (1043) 
-0.65

>  <QM_Energy>  (1043) 
-7.63

>  <source>  (1043) 
ACET_MBZ_00

>  <Index>  (1043) 
38739

$$$$
ACET-pdb2zpa-B-ASP-654:MBZ-pdb2zpa-B-PHE-650
     RDKit          3D

 22 21  0  0  0  0  0  0  0  0999 V2000
   -5.4152    2.5193    0.1655 C   0  0  0  0  0  0  0  0  0  0  0  0
   -5.1615    3.4477    0.4025 H   0  0  0  0  0  0  0  0  0  0  0  0
   -6.4001    2.4174    0.1370 H   0  0  0  0  0  0  0  0  0  0  0  0
   -5.0217    2.3016   -0.8273 H   0  0  0  0  0  0  0  0  0  0  0  0
   -4.8586    1.5784    1.2237 C   0  0  0  0  0  0  0  0  0  0  0  0
   -3.6092    1.4824    1.3331 O   0  0  0  0  0  1  0  0  0  0  0  0
   -5.6627    0.9347    1.9442 O   0  0  0  0  0  0  0  0  0  0  0  0
   -0.0030    2.9045   -0.0417 C   0  0  0  0  0  0  0  0  0  0  0  0
    0.9304    3.2164    0.0344 H   0  0  0  0  0  0  0  0  0  0  0  0
   -0.5582    3.2318    0.7058 H   0  0  0  0  0  0  0  0  0  0  0  0
   -0.4149    3.3148   -0.9637 H   0  0  0  0  0  0  0  0  0  0  0  0
   -0.0001    1.4031   -0.0014 C   0  0  0  0  0  0  0  0  0  0  0  0
   -1.1979    0.6940    0.0019 C   0  0  0  0  0  0  0  0  0  0  0  0
   -2.0643    1.1853    0.0048 H   0  0  0  0  0  0  0  0  0  0  0  0
   -1.2037   -0.6965   -0.0000 C   0  0  0  0  0  0  0  0  0  0  0  0
   -2.0793   -1.1909    0.0000 H   0  0  0  0  0  0  0  0  0  0  0  0
   -0.0004   -1.3943   -0.0002 C   0  0  0  0  0  0  0  0  0  0  0  0
   -0.0056   -2.3927   -0.0015 H   0  0  0  0  0  0  0  0  0  0  0  0
    1.2037   -0.6991    0.0000 C   0  0  0  0  0  0  0  0  0  0  0  0
    2.0833   -1.1973    0.0018 H   0  0  0  0  0  0  0  0  0  0  0  0
    1.1984    0.6928   -0.0004 C   0  0  0  0  0  0  0  0  0  0  0  0
    2.0657    1.1898   -0.0003 H   0  0  0  0  0  0  0  0  0  0  0  0
  1  5  1  0
  5  6  1  0
  5  7  2  0
  1  2  1  0
  1  3  1  0
  1  4  1  0
  8 12  1  0
 12 13  2  0
 13 15  1  0
 15 17  2  0
 17 19  1  0
 19 21  2  0
 21 12  1  0
  8  9  1  0
  8 10  1  0
  8 11  1  0
 13 14  1  0
 15 16  1  0
 17 18  1  0
 19 20  1  0
 21 22  1  0
M  CHG  1   6  -1
M  END
>  <PDB_ID>  (1044) 
pdb2zpa

>  <RESIDUE_NAME>  (1044) 
ASP   PHE

>  <FRAG_NAME>  (1044) 
ACET   MBZ

>  <FRAG_ATOM_NUM>  (1044) 
fragi: 7  fragj: 15

>  <atom.prop.CHAIN_ID>  (1044) 
A A A A A A A Z Z Z Z Z Z Z Z Z Z Z Z Z Z Z

>  <atom.prop.IS_HEAVY_ATOM>  (1044) 
1 0 0 0 1 1 1 1 0 0 0 1 1 0 1 0 1 0 1 0 1 0

>  <DIFUSE_FUNC_ATOM>  (1044) 
atom 6   atom 7   

>  <FINAL_SINGLE_POINT_ENERGY>  (1044) 
0

>  <NONCOV_INTER_ENERGY_QM>  (1044) 
0

>  <FF_Energy>  (1044) 
4.17

>  <QM_Energy>  (1044) 
-5.25

>  <source>  (1044) 
ACET_MBZ_00

>  <Index>  (1044) 
38753

$$$$
ACET-pdb1tx3-C-ASP-165:MBZ-pdb1tx3-C-PHE-122
     RDKit          3D

 22 21  0  0  0  0  0  0  0  0999 V2000
    1.2942   -4.2771    2.8652 C   0  0  0  0  0  0  0  0  0  0  0  0
    1.7973   -3.4227    2.9011 H   0  0  0  0  0  0  0  0  0  0  0  0
    1.9014   -5.0474    3.0096 H   0  0  0  0  0  0  0  0  0  0  0  0
    0.5635   -4.2693    3.6740 H   0  0  0  0  0  0  0  0  0  0  0  0
    0.6517   -4.4095    1.4925 C   0  0  0  0  0  0  0  0  0  0  0  0
   -0.4179   -5.0479    1.3927 O   0  0  0  0  0  1  0  0  0  0  0  0
    1.2267   -3.8957    0.5081 O   0  0  0  0  0  0  0  0  0  0  0  0
   -0.0042    2.9058    0.0274 C   0  0  0  0  0  0  0  0  0  0  0  0
   -0.5502    3.2233   -0.7307 H   0  0  0  0  0  0  0  0  0  0  0  0
    0.9308    3.2159   -0.0412 H   0  0  0  0  0  0  0  0  0  0  0  0
   -0.4280    3.3196    0.9425 H   0  0  0  0  0  0  0  0  0  0  0  0
    0.0010    1.4029   -0.0001 C   0  0  0  0  0  0  0  0  0  0  0  0
   -1.1966    0.6942   -0.0002 C   0  0  0  0  0  0  0  0  0  0  0  0
   -2.0631    1.1843   -0.0016 H   0  0  0  0  0  0  0  0  0  0  0  0
   -1.2034   -0.6988   -0.0000 C   0  0  0  0  0  0  0  0  0  0  0  0
   -2.0802   -1.1908    0.0007 H   0  0  0  0  0  0  0  0  0  0  0  0
   -0.0016   -1.3957    0.0005 C   0  0  0  0  0  0  0  0  0  0  0  0
   -0.0049   -2.3944    0.0007 H   0  0  0  0  0  0  0  0  0  0  0  0
    1.2034   -0.6988    0.0000 C   0  0  0  0  0  0  0  0  0  0  0  0
    2.0831   -1.1952    0.0011 H   0  0  0  0  0  0  0  0  0  0  0  0
    1.1972    0.6962   -0.0002 C   0  0  0  0  0  0  0  0  0  0  0  0
    2.0659    1.1912   -0.0007 H   0  0  0  0  0  0  0  0  0  0  0  0
  1  5  1  0
  5  6  1  0
  5  7  2  0
  1  2  1  0
  1  3  1  0
  1  4  1  0
  8 12  1  0
 12 13  2  0
 13 15  1  0
 15 17  2  0
 17 19  1  0
 19 21  2  0
 21 12  1  0
  8  9  1  0
  8 10  1  0
  8 11  1  0
 13 14  1  0
 15 16  1  0
 17 18  1  0
 19 20  1  0
 21 22  1  0
M  CHG  1   6  -1
M  END
>  <PDB_ID>  (1045) 
pdb1tx3

>  <RESIDUE_NAME>  (1045) 
ASP   PHE

>  <FRAG_NAME>  (1045) 
ACET   MBZ

>  <FRAG_ATOM_NUM>  (1045) 
fragi: 7  fragj: 15

>  <atom.prop.CHAIN_ID>  (1045) 
A A A A A A A Z Z Z Z Z Z Z Z Z Z Z Z Z Z Z

>  <atom.prop.IS_HEAVY_ATOM>  (1045) 
1 0 0 0 1 1 1 1 0 0 0 1 1 0 1 0 1 0 1 0 1 0

>  <DIFUSE_FUNC_ATOM>  (1045) 
atom 6   atom 7   

>  <FINAL_SINGLE_POINT_ENERGY>  (1045) 
0

>  <NONCOV_INTER_ENERGY_QM>  (1045) 
0

>  <FF_Energy>  (1045) 
5.73

>  <QM_Energy>  (1045) 
-5.19

>  <source>  (1045) 
ACET_MBZ_00

>  <Index>  (1045) 
38773

$$$$
ACET-pdb2zpl-C-GLU-207:MBZ-pdb2zpl-C-PHE-202
     RDKit          3D

 22 21  0  0  0  0  0  0  0  0999 V2000
   -4.3895    3.2413    1.3512 C   0  0  0  0  0  0  0  0  0  0  0  0
   -5.2347    3.6962    1.2112 H   0  0  0  0  0  0  0  0  0  0  0  0
   -4.1078    3.1919    2.2785 H   0  0  0  0  0  0  0  0  0  0  0  0
   -4.4541    2.2333    0.9415 H   0  0  0  0  0  0  0  0  0  0  0  0
   -3.3350    3.9911    0.5924 C   0  0  0  0  0  0  0  0  0  0  0  0
   -2.2557    4.1303    1.1661 O   0  0  0  0  0  1  0  0  0  0  0  0
   -3.5464    4.3358   -0.6086 O   0  0  0  0  0  0  0  0  0  0  0  0
   -0.0965    2.9742    0.0237 C   0  0  0  0  0  0  0  0  0  0  0  0
   -1.0483    3.2175    0.1535 H   0  0  0  0  0  0  0  0  0  0  0  0
    0.2249    3.2671   -0.8668 H   0  0  0  0  0  0  0  0  0  0  0  0
    0.4981    3.4711    0.7903 H   0  0  0  0  0  0  0  0  0  0  0  0
   -0.0305    1.4248    0.0299 C   0  0  0  0  0  0  0  0  0  0  0  0
   -1.1859    0.6846   -0.0077 C   0  0  0  0  0  0  0  0  0  0  0  0
   -2.0809    1.1480   -0.0436 H   0  0  0  0  0  0  0  0  0  0  0  0
   -1.1856   -0.7271    0.0000 C   0  0  0  0  0  0  0  0  0  0  0  0
   -2.0497   -1.2235    0.0095 H   0  0  0  0  0  0  0  0  0  0  0  0
    0.0445   -1.4290   -0.0047 C   0  0  0  0  0  0  0  0  0  0  0  0
    0.0368   -2.4136   -0.0119 H   0  0  0  0  0  0  0  0  0  0  0  0
    1.1856   -0.6974    0.0000 C   0  0  0  0  0  0  0  0  0  0  0  0
    2.1077   -1.1441    0.0177 H   0  0  0  0  0  0  0  0  0  0  0  0
    1.1719    0.7442   -0.0175 C   0  0  0  0  0  0  0  0  0  0  0  0
    2.0357    1.2214   -0.0647 H   0  0  0  0  0  0  0  0  0  0  0  0
  1  5  1  0
  5  6  1  0
  5  7  2  0
  1  2  1  0
  1  3  1  0
  1  4  1  0
  8 12  1  0
 12 13  2  0
 13 15  1  0
 15 17  2  0
 17 19  1  0
 19 21  2  0
 21 12  1  0
  8  9  1  0
  8 10  1  0
  8 11  1  0
 13 14  1  0
 15 16  1  0
 17 18  1  0
 19 20  1  0
 21 22  1  0
M  CHG  1   6  -1
M  END
>  <PDB_ID>  (1046) 
pdb2zpl

>  <RESIDUE_NAME>  (1046) 
GLU   PHE

>  <FRAG_NAME>  (1046) 
ACET   MBZ

>  <FRAG_ATOM_NUM>  (1046) 
fragi: 7  fragj: 15

>  <atom.prop.CHAIN_ID>  (1046) 
A A A A A A A Z Z Z Z Z Z Z Z Z Z Z Z Z Z Z

>  <atom.prop.IS_HEAVY_ATOM>  (1046) 
1 0 0 0 1 1 1 1 0 0 0 1 1 0 1 0 1 0 1 0 1 0

>  <DIFUSE_FUNC_ATOM>  (1046) 
atom 6   atom 7   

>  <FINAL_SINGLE_POINT_ENERGY>  (1046) 
0

>  <NONCOV_INTER_ENERGY_QM>  (1046) 
0

>  <FF_Energy>  (1046) 
24.42

>  <QM_Energy>  (1046) 
-2.56

>  <source>  (1046) 
ACET_MBZ_00

>  <Index>  (1046) 
38792

$$$$
ACET-pdb1ty0-B-GLU-133:MBZ-pdb1ty0-B-PHE-73
     RDKit          3D

 22 21  0  0  0  0  0  0  0  0999 V2000
   -0.2637    0.4270    3.2888 C   0  0  0  0  0  0  0  0  0  0  0  0
   -0.3152   -0.2385    4.0147 H   0  0  0  0  0  0  0  0  0  0  0  0
   -0.2712   -0.0014    2.4001 H   0  0  0  0  0  0  0  0  0  0  0  0
   -1.1367    1.0756    3.3618 H   0  0  0  0  0  0  0  0  0  0  0  0
    1.0599    1.1600    3.4316 C   0  0  0  0  0  0  0  0  0  0  0  0
    1.0900    2.4055    3.2998 O   0  0  0  0  0  1  0  0  0  0  0  0
    2.0821    0.4750    3.6703 O   0  0  0  0  0  0  0  0  0  0  0  0
   -0.0098    2.9179   -0.0946 C   0  0  0  0  0  0  0  0  0  0  0  0
    0.8845    3.2416    0.1558 H   0  0  0  0  0  0  0  0  0  0  0  0
   -0.7103    3.2546    0.5086 H   0  0  0  0  0  0  0  0  0  0  0  0
   -0.2292    3.2773   -1.0999 H   0  0  0  0  0  0  0  0  0  0  0  0
   -0.0009    1.4096   -0.0006 C   0  0  0  0  0  0  0  0  0  0  0  0
   -1.1976    0.6978    0.0011 C   0  0  0  0  0  0  0  0  0  0  0  0
   -2.0660    1.1832    0.0015 H   0  0  0  0  0  0  0  0  0  0  0  0
   -1.2041   -0.7048    0.0000 C   0  0  0  0  0  0  0  0  0  0  0  0
   -2.0819   -1.1923    0.0015 H   0  0  0  0  0  0  0  0  0  0  0  0
   -0.0017   -1.4026   -0.0015 C   0  0  0  0  0  0  0  0  0  0  0  0
   -0.0022   -2.3990   -0.0039 H   0  0  0  0  0  0  0  0  0  0  0  0
    1.2041   -0.7002   -0.0000 C   0  0  0  0  0  0  0  0  0  0  0  0
    2.0852   -1.1956    0.0020 H   0  0  0  0  0  0  0  0  0  0  0  0
    1.2003    0.7002    0.0010 C   0  0  0  0  0  0  0  0  0  0  0  0
    2.0670    1.1937    0.0021 H   0  0  0  0  0  0  0  0  0  0  0  0
  1  5  1  0
  5  6  1  0
  5  7  2  0
  1  2  1  0
  1  3  1  0
  1  4  1  0
  8 12  1  0
 12 13  2  0
 13 15  1  0
 15 17  2  0
 17 19  1  0
 19 21  2  0
 21 12  1  0
  8  9  1  0
  8 10  1  0
  8 11  1  0
 13 14  1  0
 15 16  1  0
 17 18  1  0
 19 20  1  0
 21 22  1  0
M  CHG  1   6  -1
M  END
>  <PDB_ID>  (1047) 
pdb1ty0

>  <RESIDUE_NAME>  (1047) 
GLU   PHE

>  <FRAG_NAME>  (1047) 
ACET   MBZ

>  <FRAG_ATOM_NUM>  (1047) 
fragi: 7  fragj: 15

>  <atom.prop.CHAIN_ID>  (1047) 
A A A A A A A Z Z Z Z Z Z Z Z Z Z Z Z Z Z Z

>  <atom.prop.IS_HEAVY_ATOM>  (1047) 
1 0 0 0 1 1 1 1 0 0 0 1 1 0 1 0 1 0 1 0 1 0

>  <DIFUSE_FUNC_ATOM>  (1047) 
atom 6   atom 7   

>  <FINAL_SINGLE_POINT_ENERGY>  (1047) 
0

>  <NONCOV_INTER_ENERGY_QM>  (1047) 
0

>  <FF_Energy>  (1047) 
1.53

>  <QM_Energy>  (1047) 
-3.63

>  <source>  (1047) 
ACET_MBZ_00

>  <Index>  (1047) 
38843

$$$$
ACET-pdb1ty0-C-GLU-133:MBZ-pdb1ty0-C-PHE-73
     RDKit          3D

 22 21  0  0  0  0  0  0  0  0999 V2000
   -0.1169    0.4474    3.3382 C   0  0  0  0  0  0  0  0  0  0  0  0
   -0.0932   -0.2168    4.0653 H   0  0  0  0  0  0  0  0  0  0  0  0
   -0.1294    0.0216    2.4502 H   0  0  0  0  0  0  0  0  0  0  0  0
   -1.0285    1.0352    3.4462 H   0  0  0  0  0  0  0  0  0  0  0  0
    1.1419    1.2786    3.4321 C   0  0  0  0  0  0  0  0  0  0  0  0
    1.0715    2.5052    3.2013 O   0  0  0  0  0  1  0  0  0  0  0  0
    2.2098    0.6978    3.7198 O   0  0  0  0  0  0  0  0  0  0  0  0
   -0.0039    2.9168   -0.0813 C   0  0  0  0  0  0  0  0  0  0  0  0
    0.9113    3.2315    0.0952 H   0  0  0  0  0  0  0  0  0  0  0  0
   -0.6477    3.2554    0.5815 H   0  0  0  0  0  0  0  0  0  0  0  0
   -0.3037    3.2885   -1.0611 H   0  0  0  0  0  0  0  0  0  0  0  0
   -0.0023    1.4087   -0.0004 C   0  0  0  0  0  0  0  0  0  0  0  0
   -1.1993    0.6928    0.0010 C   0  0  0  0  0  0  0  0  0  0  0  0
   -2.0682    1.1813    0.0015 H   0  0  0  0  0  0  0  0  0  0  0  0
   -1.2049   -0.7032    0.0000 C   0  0  0  0  0  0  0  0  0  0  0  0
   -2.0777   -1.1967    0.0018 H   0  0  0  0  0  0  0  0  0  0  0  0
    0.0039   -1.4015   -0.0014 C   0  0  0  0  0  0  0  0  0  0  0  0
    0.0010   -2.3975   -0.0040 H   0  0  0  0  0  0  0  0  0  0  0  0
    1.2049   -0.6991   -0.0000 C   0  0  0  0  0  0  0  0  0  0  0  0
    2.0877   -1.1906    0.0018 H   0  0  0  0  0  0  0  0  0  0  0  0
    1.1977    0.7022    0.0008 C   0  0  0  0  0  0  0  0  0  0  0  0
    2.0650    1.1956    0.0010 H   0  0  0  0  0  0  0  0  0  0  0  0
  1  5  1  0
  5  6  1  0
  5  7  2  0
  1  2  1  0
  1  3  1  0
  1  4  1  0
  8 12  1  0
 12 13  2  0
 13 15  1  0
 15 17  2  0
 17 19  1  0
 19 21  2  0
 21 12  1  0
  8  9  1  0
  8 10  1  0
  8 11  1  0
 13 14  1  0
 15 16  1  0
 17 18  1  0
 19 20  1  0
 21 22  1  0
M  CHG  1   6  -1
M  END
>  <PDB_ID>  (1048) 
pdb1ty0

>  <RESIDUE_NAME>  (1048) 
GLU   PHE

>  <FRAG_NAME>  (1048) 
ACET   MBZ

>  <FRAG_ATOM_NUM>  (1048) 
fragi: 7  fragj: 15

>  <atom.prop.CHAIN_ID>  (1048) 
A A A A A A A Z Z Z Z Z Z Z Z Z Z Z Z Z Z Z

>  <atom.prop.IS_HEAVY_ATOM>  (1048) 
1 0 0 0 1 1 1 1 0 0 0 1 1 0 1 0 1 0 1 0 1 0

>  <DIFUSE_FUNC_ATOM>  (1048) 
atom 6   atom 7   

>  <FINAL_SINGLE_POINT_ENERGY>  (1048) 
0

>  <NONCOV_INTER_ENERGY_QM>  (1048) 
0

>  <FF_Energy>  (1048) 
1.0

>  <QM_Energy>  (1048) 
-4.34

>  <source>  (1048) 
ACET_MBZ_00

>  <Index>  (1048) 
38847

$$$$
ACET-pdb1tjl-J-GLU-65:MBZ-pdb1tjl-J-PHE-82
     RDKit          3D

 22 21  0  0  0  0  0  0  0  0999 V2000
   -4.9404    1.5122   -0.4595 C   0  0  0  0  0  0  0  0  0  0  0  0
   -4.2559    1.2294   -1.1011 H   0  0  0  0  0  0  0  0  0  0  0  0
   -5.7118    1.9373   -0.8886 H   0  0  0  0  0  0  0  0  0  0  0  0
   -5.2864    0.6344    0.0863 H   0  0  0  0  0  0  0  0  0  0  0  0
   -4.3094    2.5331    0.4632 C   0  0  0  0  0  0  0  0  0  0  0  0
   -3.4506    2.1454    1.2894 O   0  0  0  0  0  1  0  0  0  0  0  0
   -4.6802    3.7229    0.3581 O   0  0  0  0  0  0  0  0  0  0  0  0
   -0.0152    2.9215   -0.0566 C   0  0  0  0  0  0  0  0  0  0  0  0
   -0.8958    3.2043   -0.4109 H   0  0  0  0  0  0  0  0  0  0  0  0
    0.7184    3.2056   -0.6587 H   0  0  0  0  0  0  0  0  0  0  0  0
    0.1324    3.4118    0.9056 H   0  0  0  0  0  0  0  0  0  0  0  0
   -0.0050    1.4087   -0.0006 C   0  0  0  0  0  0  0  0  0  0  0  0
   -1.2052    0.6901    0.0019 C   0  0  0  0  0  0  0  0  0  0  0  0
   -2.0724    1.1768    0.0039 H   0  0  0  0  0  0  0  0  0  0  0  0
   -1.2040   -0.7058   -0.0000 C   0  0  0  0  0  0  0  0  0  0  0  0
   -2.0714   -1.2043    0.0013 H   0  0  0  0  0  0  0  0  0  0  0  0
    0.0114   -1.3881   -0.0019 C   0  0  0  0  0  0  0  0  0  0  0  0
    0.0035   -2.3952   -0.0056 H   0  0  0  0  0  0  0  0  0  0  0  0
    1.2040   -0.7038    0.0000 C   0  0  0  0  0  0  0  0  0  0  0  0
    2.0886   -1.1927    0.0023 H   0  0  0  0  0  0  0  0  0  0  0  0
    1.1988    0.6990    0.0006 C   0  0  0  0  0  0  0  0  0  0  0  0
    2.0641    1.1921    0.0010 H   0  0  0  0  0  0  0  0  0  0  0  0
  1  5  1  0
  5  6  1  0
  5  7  2  0
  1  2  1  0
  1  3  1  0
  1  4  1  0
  8 12  1  0
 12 13  2  0
 13 15  1  0
 15 17  2  0
 17 19  1  0
 19 21  2  0
 21 12  1  0
  8  9  1  0
  8 10  1  0
  8 11  1  0
 13 14  1  0
 15 16  1  0
 17 18  1  0
 19 20  1  0
 21 22  1  0
M  CHG  1   6  -1
M  END
>  <PDB_ID>  (1049) 
pdb1tjl

>  <RESIDUE_NAME>  (1049) 
GLU   PHE

>  <FRAG_NAME>  (1049) 
ACET   MBZ

>  <FRAG_ATOM_NUM>  (1049) 
fragi: 7  fragj: 15

>  <atom.prop.CHAIN_ID>  (1049) 
A A A A A A A Z Z Z Z Z Z Z Z Z Z Z Z Z Z Z

>  <atom.prop.IS_HEAVY_ATOM>  (1049) 
1 0 0 0 1 1 1 1 0 0 0 1 1 0 1 0 1 0 1 0 1 0

>  <DIFUSE_FUNC_ATOM>  (1049) 
atom 6   atom 7   

>  <FINAL_SINGLE_POINT_ENERGY>  (1049) 
0

>  <NONCOV_INTER_ENERGY_QM>  (1049) 
0

>  <FF_Energy>  (1049) 
2.14

>  <QM_Energy>  (1049) 
-5.72

>  <source>  (1049) 
ACET_MBZ_00

>  <Index>  (1049) 
38850

$$$$
ACET-pdb1tyf-A-GLU-141:MBZ-pdb1tyf-B-PHE-173
     RDKit          3D

 22 21  0  0  0  0  0  0  0  0999 V2000
    0.3768    0.3742    3.5375 C   0  0  0  0  0  0  0  0  0  0  0  0
    0.1018   -0.0869    2.7072 H   0  0  0  0  0  0  0  0  0  0  0  0
    0.0200   -0.0859    4.3370 H   0  0  0  0  0  0  0  0  0  0  0  0
    1.4654    0.3636    3.5909 H   0  0  0  0  0  0  0  0  0  0  0  0
   -0.2703    1.7794    3.5051 C   0  0  0  0  0  0  0  0  0  0  0  0
    0.3858    2.8324    3.7151 O   0  0  0  0  0  1  0  0  0  0  0  0
   -1.4923    1.8186    3.2744 O   0  0  0  0  0  0  0  0  0  0  0  0
   -0.0032    2.9145    0.0226 C   0  0  0  0  0  0  0  0  0  0  0  0
    0.8780    3.2173    0.3574 H   0  0  0  0  0  0  0  0  0  0  0  0
   -0.7336    3.2146    0.6188 H   0  0  0  0  0  0  0  0  0  0  0  0
   -0.1626    3.3762   -0.9519 H   0  0  0  0  0  0  0  0  0  0  0  0
   -0.0041    1.4133    0.0001 C   0  0  0  0  0  0  0  0  0  0  0  0
   -1.2096    0.7064   -0.0002 C   0  0  0  0  0  0  0  0  0  0  0  0
   -2.0721    1.1903   -0.0021 H   0  0  0  0  0  0  0  0  0  0  0  0
   -1.2097   -0.7003   -0.0000 C   0  0  0  0  0  0  0  0  0  0  0  0
   -2.0806   -1.1944    0.0016 H   0  0  0  0  0  0  0  0  0  0  0  0
    0.0090   -1.4073   -0.0001 C   0  0  0  0  0  0  0  0  0  0  0  0
   -0.0036   -2.4014   -0.0009 H   0  0  0  0  0  0  0  0  0  0  0  0
    1.2097   -0.7087    0.0000 C   0  0  0  0  0  0  0  0  0  0  0  0
    2.0926   -1.1991    0.0012 H   0  0  0  0  0  0  0  0  0  0  0  0
    1.2047    0.6965    0.0002 C   0  0  0  0  0  0  0  0  0  0  0  0
    2.0687    1.1905   -0.0000 H   0  0  0  0  0  0  0  0  0  0  0  0
  1  5  1  0
  5  6  1  0
  5  7  2  0
  1  2  1  0
  1  3  1  0
  1  4  1  0
  8 12  1  0
 12 13  2  0
 13 15  1  0
 15 17  2  0
 17 19  1  0
 19 21  2  0
 21 12  1  0
  8  9  1  0
  8 10  1  0
  8 11  1  0
 13 14  1  0
 15 16  1  0
 17 18  1  0
 19 20  1  0
 21 22  1  0
M  CHG  1   6  -1
M  END
>  <PDB_ID>  (1050) 
pdb1tyf

>  <RESIDUE_NAME>  (1050) 
GLU   PHE

>  <FRAG_NAME>  (1050) 
ACET   MBZ

>  <FRAG_ATOM_NUM>  (1050) 
fragi: 7  fragj: 15

>  <atom.prop.CHAIN_ID>  (1050) 
A A A A A A A Z Z Z Z Z Z Z Z Z Z Z Z Z Z Z

>  <atom.prop.IS_HEAVY_ATOM>  (1050) 
1 0 0 0 1 1 1 1 0 0 0 1 1 0 1 0 1 0 1 0 1 0

>  <DIFUSE_FUNC_ATOM>  (1050) 
atom 6   atom 7   

>  <FINAL_SINGLE_POINT_ENERGY>  (1050) 
0

>  <NONCOV_INTER_ENERGY_QM>  (1050) 
0

>  <FF_Energy>  (1050) 
0.01

>  <QM_Energy>  (1050) 
-5.28

>  <source>  (1050) 
ACET_MBZ_00

>  <Index>  (1050) 
38876

$$$$
ACET-pdb1tyf-B-GLU-141:MBZ-pdb1tyf-C-PHE-173
     RDKit          3D

 22 21  0  0  0  0  0  0  0  0999 V2000
   -0.0684    0.0913    3.6820 C   0  0  0  0  0  0  0  0  0  0  0  0
   -0.4005   -0.5419    2.9989 H   0  0  0  0  0  0  0  0  0  0  0  0
   -0.4102   -0.1409    4.5808 H   0  0  0  0  0  0  0  0  0  0  0  0
    1.0189    0.0191    3.7058 H   0  0  0  0  0  0  0  0  0  0  0  0
   -0.6216    1.4763    3.3278 C   0  0  0  0  0  0  0  0  0  0  0  0
    0.0721    2.5186    3.4801 O   0  0  0  0  0  1  0  0  0  0  0  0
   -1.7819    1.5087    2.8732 O   0  0  0  0  0  0  0  0  0  0  0  0
    0.0052    2.9299    0.0929 C   0  0  0  0  0  0  0  0  0  0  0  0
    0.8578    3.2064    0.5118 H   0  0  0  0  0  0  0  0  0  0  0  0
   -0.7702    3.2081    0.6411 H   0  0  0  0  0  0  0  0  0  0  0  0
   -0.0704    3.4436   -0.8656 H   0  0  0  0  0  0  0  0  0  0  0  0
   -0.0035    1.4198    0.0021 C   0  0  0  0  0  0  0  0  0  0  0  0
   -1.2072    0.7102   -0.0011 C   0  0  0  0  0  0  0  0  0  0  0  0
   -2.0721    1.1875   -0.0049 H   0  0  0  0  0  0  0  0  0  0  0  0
   -1.2045   -0.7050   -0.0000 C   0  0  0  0  0  0  0  0  0  0  0  0
   -2.0796   -1.1936    0.0013 H   0  0  0  0  0  0  0  0  0  0  0  0
    0.0065   -1.4096    0.0007 C   0  0  0  0  0  0  0  0  0  0  0  0
   -0.0027   -2.4042    0.0009 H   0  0  0  0  0  0  0  0  0  0  0  0
    1.2045   -0.7084    0.0000 C   0  0  0  0  0  0  0  0  0  0  0  0
    2.0895   -1.2013    0.0021 H   0  0  0  0  0  0  0  0  0  0  0  0
    1.2042    0.6930   -0.0017 C   0  0  0  0  0  0  0  0  0  0  0  0
    2.0698    1.1867   -0.0061 H   0  0  0  0  0  0  0  0  0  0  0  0
  1  5  1  0
  5  6  1  0
  5  7  2  0
  1  2  1  0
  1  3  1  0
  1  4  1  0
  8 12  1  0
 12 13  2  0
 13 15  1  0
 15 17  2  0
 17 19  1  0
 19 21  2  0
 21 12  1  0
  8  9  1  0
  8 10  1  0
  8 11  1  0
 13 14  1  0
 15 16  1  0
 17 18  1  0
 19 20  1  0
 21 22  1  0
M  CHG  1   6  -1
M  END
>  <PDB_ID>  (1051) 
pdb1tyf

>  <RESIDUE_NAME>  (1051) 
GLU   PHE

>  <FRAG_NAME>  (1051) 
ACET   MBZ

>  <FRAG_ATOM_NUM>  (1051) 
fragi: 7  fragj: 15

>  <atom.prop.CHAIN_ID>  (1051) 
A A A A A A A Z Z Z Z Z Z Z Z Z Z Z Z Z Z Z

>  <atom.prop.IS_HEAVY_ATOM>  (1051) 
1 0 0 0 1 1 1 1 0 0 0 1 1 0 1 0 1 0 1 0 1 0

>  <DIFUSE_FUNC_ATOM>  (1051) 
atom 6   atom 7   

>  <FINAL_SINGLE_POINT_ENERGY>  (1051) 
0

>  <NONCOV_INTER_ENERGY_QM>  (1051) 
0

>  <FF_Energy>  (1051) 
1.12

>  <QM_Energy>  (1051) 
-5.78

>  <source>  (1051) 
ACET_MBZ_00

>  <Index>  (1051) 
38878

$$$$
ACET-pdb1tyf-E-GLU-141:MBZ-pdb1tyf-F-PHE-173
     RDKit          3D

 22 21  0  0  0  0  0  0  0  0999 V2000
    0.5270    0.6923    3.6170 C   0  0  0  0  0  0  0  0  0  0  0  0
    0.2071    0.1380    2.8666 H   0  0  0  0  0  0  0  0  0  0  0  0
    0.2330    0.3326    4.4873 H   0  0  0  0  0  0  0  0  0  0  0  0
    1.6167    0.6718    3.6013 H   0  0  0  0  0  0  0  0  0  0  0  0
   -0.1095    2.0933    3.4587 C   0  0  0  0  0  0  0  0  0  0  0  0
    0.6022    3.1212    3.4737 O   0  0  0  0  0  1  0  0  0  0  0  0
   -1.3506    2.1593    3.3214 O   0  0  0  0  0  0  0  0  0  0  0  0
    0.0091    2.9004   -0.0468 C   0  0  0  0  0  0  0  0  0  0  0  0
    0.9066    3.2145    0.2236 H   0  0  0  0  0  0  0  0  0  0  0  0
   -0.6892    3.2348    0.5671 H   0  0  0  0  0  0  0  0  0  0  0  0
   -0.1987    3.3133   -1.0339 H   0  0  0  0  0  0  0  0  0  0  0  0
    0.0004    1.4040   -0.0004 C   0  0  0  0  0  0  0  0  0  0  0  0
   -1.2028    0.7016    0.0032 C   0  0  0  0  0  0  0  0  0  0  0  0
   -2.0644    1.1955    0.0070 H   0  0  0  0  0  0  0  0  0  0  0  0
   -1.2049   -0.6839   -0.0000 C   0  0  0  0  0  0  0  0  0  0  0  0
   -2.0832   -1.1810    0.0030 H   0  0  0  0  0  0  0  0  0  0  0  0
   -0.0046   -1.3892   -0.0059 C   0  0  0  0  0  0  0  0  0  0  0  0
   -0.0203   -2.3903   -0.0150 H   0  0  0  0  0  0  0  0  0  0  0  0
    1.2049   -0.7090   -0.0000 C   0  0  0  0  0  0  0  0  0  0  0  0
    2.0783   -1.2152    0.0034 H   0  0  0  0  0  0  0  0  0  0  0  0
    1.2069    0.6765    0.0032 C   0  0  0  0  0  0  0  0  0  0  0  0
    2.0720    1.1768    0.0074 H   0  0  0  0  0  0  0  0  0  0  0  0
  1  5  1  0
  5  6  1  0
  5  7  2  0
  1  2  1  0
  1  3  1  0
  1  4  1  0
  8 12  1  0
 12 13  2  0
 13 15  1  0
 15 17  2  0
 17 19  1  0
 19 21  2  0
 21 12  1  0
  8  9  1  0
  8 10  1  0
  8 11  1  0
 13 14  1  0
 15 16  1  0
 17 18  1  0
 19 20  1  0
 21 22  1  0
M  CHG  1   6  -1
M  END
>  <PDB_ID>  (1052) 
pdb1tyf

>  <RESIDUE_NAME>  (1052) 
GLU   PHE

>  <FRAG_NAME>  (1052) 
ACET   MBZ

>  <FRAG_ATOM_NUM>  (1052) 
fragi: 7  fragj: 15

>  <atom.prop.CHAIN_ID>  (1052) 
A A A A A A A Z Z Z Z Z Z Z Z Z Z Z Z Z Z Z

>  <atom.prop.IS_HEAVY_ATOM>  (1052) 
1 0 0 0 1 1 1 1 0 0 0 1 1 0 1 0 1 0 1 0 1 0

>  <DIFUSE_FUNC_ATOM>  (1052) 
atom 6   atom 7   

>  <FINAL_SINGLE_POINT_ENERGY>  (1052) 
0

>  <NONCOV_INTER_ENERGY_QM>  (1052) 
0

>  <FF_Energy>  (1052) 
-0.26

>  <QM_Energy>  (1052) 
-5.69

>  <source>  (1052) 
ACET_MBZ_00

>  <Index>  (1052) 
38884

$$$$
ACET-pdb1tyf-I-GLU-141:MBZ-pdb1tyf-H-PHE-173
     RDKit          3D

 22 21  0  0  0  0  0  0  0  0999 V2000
    0.2149    0.3376    3.6788 C   0  0  0  0  0  0  0  0  0  0  0  0
   -0.0652   -0.2958    2.9805 H   0  0  0  0  0  0  0  0  0  0  0  0
   -0.1315    0.0903    4.5656 H   0  0  0  0  0  0  0  0  0  0  0  0
    1.3038    0.3276    3.7260 H   0  0  0  0  0  0  0  0  0  0  0  0
   -0.3622    1.7006    3.3229 C   0  0  0  0  0  0  0  0  0  0  0  0
    0.4098    2.6269    2.9905 O   0  0  0  0  0  1  0  0  0  0  0  0
   -1.6040    1.8345    3.3404 O   0  0  0  0  0  0  0  0  0  0  0  0
   -0.0032    2.9125    0.0299 C   0  0  0  0  0  0  0  0  0  0  0  0
    0.8891    3.2107    0.3405 H   0  0  0  0  0  0  0  0  0  0  0  0
   -0.7128    3.2050    0.6566 H   0  0  0  0  0  0  0  0  0  0  0  0
   -0.1956    3.3803   -0.9356 H   0  0  0  0  0  0  0  0  0  0  0  0
   -0.0033    1.4082    0.0005 C   0  0  0  0  0  0  0  0  0  0  0  0
   -1.2020    0.6977    0.0015 C   0  0  0  0  0  0  0  0  0  0  0  0
   -2.0688    1.1813    0.0021 H   0  0  0  0  0  0  0  0  0  0  0  0
   -1.2050   -0.7069   -0.0000 C   0  0  0  0  0  0  0  0  0  0  0  0
   -2.0738   -1.1999    0.0034 H   0  0  0  0  0  0  0  0  0  0  0  0
    0.0118   -1.3979   -0.0038 C   0  0  0  0  0  0  0  0  0  0  0  0
    0.0066   -2.3974   -0.0099 H   0  0  0  0  0  0  0  0  0  0  0  0
    1.2050   -0.6986    0.0000 C   0  0  0  0  0  0  0  0  0  0  0  0
    2.0911   -1.1873    0.0030 H   0  0  0  0  0  0  0  0  0  0  0  0
    1.1935    0.6976    0.0017 C   0  0  0  0  0  0  0  0  0  0  0  0
    2.0633    1.1942    0.0031 H   0  0  0  0  0  0  0  0  0  0  0  0
  1  5  1  0
  5  6  1  0
  5  7  2  0
  1  2  1  0
  1  3  1  0
  1  4  1  0
  8 12  1  0
 12 13  2  0
 13 15  1  0
 15 17  2  0
 17 19  1  0
 19 21  2  0
 21 12  1  0
  8  9  1  0
  8 10  1  0
  8 11  1  0
 13 14  1  0
 15 16  1  0
 17 18  1  0
 19 20  1  0
 21 22  1  0
M  CHG  1   6  -1
M  END
>  <PDB_ID>  (1053) 
pdb1tyf

>  <RESIDUE_NAME>  (1053) 
GLU   PHE

>  <FRAG_NAME>  (1053) 
ACET   MBZ

>  <FRAG_ATOM_NUM>  (1053) 
fragi: 7  fragj: 15

>  <atom.prop.CHAIN_ID>  (1053) 
A A A A A A A Z Z Z Z Z Z Z Z Z Z Z Z Z Z Z

>  <atom.prop.IS_HEAVY_ATOM>  (1053) 
1 0 0 0 1 1 1 1 0 0 0 1 1 0 1 0 1 0 1 0 1 0

>  <DIFUSE_FUNC_ATOM>  (1053) 
atom 6   atom 7   

>  <FINAL_SINGLE_POINT_ENERGY>  (1053) 
0

>  <NONCOV_INTER_ENERGY_QM>  (1053) 
0

>  <FF_Energy>  (1053) 
1.42

>  <QM_Energy>  (1053) 
-6.3

>  <source>  (1053) 
ACET_MBZ_00

>  <Index>  (1053) 
38888

$$$$
ACET-pdb1tyf-K-GLU-141:MBZ-pdb1tyf-J-PHE-173
     RDKit          3D

 22 21  0  0  0  0  0  0  0  0999 V2000
   -0.2124    0.3189    3.3525 C   0  0  0  0  0  0  0  0  0  0  0  0
   -0.3787   -0.1014    2.4787 H   0  0  0  0  0  0  0  0  0  0  0  0
   -0.7171   -0.1190    4.0748 H   0  0  0  0  0  0  0  0  0  0  0  0
    0.8501    0.2224    3.5756 H   0  0  0  0  0  0  0  0  0  0  0  0
   -0.7192    1.7777    3.2619 C   0  0  0  0  0  0  0  0  0  0  0  0
    0.0835    2.7277    3.0260 O   0  0  0  0  0  1  0  0  0  0  0  0
   -1.9481    1.9577    3.4274 O   0  0  0  0  0  0  0  0  0  0  0  0
   -0.0032    2.9061   -0.0486 C   0  0  0  0  0  0  0  0  0  0  0  0
    0.8373    3.2295    0.3640 H   0  0  0  0  0  0  0  0  0  0  0  0
   -0.7932    3.2315    0.4524 H   0  0  0  0  0  0  0  0  0  0  0  0
   -0.0577    3.3217   -1.0548 H   0  0  0  0  0  0  0  0  0  0  0  0
   -0.0024    1.4068    0.0011 C   0  0  0  0  0  0  0  0  0  0  0  0
   -1.1971    0.6947    0.0027 C   0  0  0  0  0  0  0  0  0  0  0  0
   -2.0664    1.1822    0.0045 H   0  0  0  0  0  0  0  0  0  0  0  0
   -1.2057   -0.7039    0.0000 C   0  0  0  0  0  0  0  0  0  0  0  0
   -2.0766   -1.1957    0.0052 H   0  0  0  0  0  0  0  0  0  0  0  0
    0.0063   -1.3995   -0.0076 C   0  0  0  0  0  0  0  0  0  0  0  0
    0.0023   -2.3970   -0.0187 H   0  0  0  0  0  0  0  0  0  0  0  0
    1.2057   -0.6995    0.0000 C   0  0  0  0  0  0  0  0  0  0  0  0
    2.0884   -1.1877    0.0048 H   0  0  0  0  0  0  0  0  0  0  0  0
    1.1933    0.7014    0.0039 C   0  0  0  0  0  0  0  0  0  0  0  0
    2.0624    1.1962    0.0081 H   0  0  0  0  0  0  0  0  0  0  0  0
  1  5  1  0
  5  6  1  0
  5  7  2  0
  1  2  1  0
  1  3  1  0
  1  4  1  0
  8 12  1  0
 12 13  2  0
 13 15  1  0
 15 17  2  0
 17 19  1  0
 19 21  2  0
 21 12  1  0
  8  9  1  0
  8 10  1  0
  8 11  1  0
 13 14  1  0
 15 16  1  0
 17 18  1  0
 19 20  1  0
 21 22  1  0
M  CHG  1   6  -1
M  END
>  <PDB_ID>  (1054) 
pdb1tyf

>  <RESIDUE_NAME>  (1054) 
GLU   PHE

>  <FRAG_NAME>  (1054) 
ACET   MBZ

>  <FRAG_ATOM_NUM>  (1054) 
fragi: 7  fragj: 15

>  <atom.prop.CHAIN_ID>  (1054) 
A A A A A A A Z Z Z Z Z Z Z Z Z Z Z Z Z Z Z

>  <atom.prop.IS_HEAVY_ATOM>  (1054) 
1 0 0 0 1 1 1 1 0 0 0 1 1 0 1 0 1 0 1 0 1 0

>  <DIFUSE_FUNC_ATOM>  (1054) 
atom 6   atom 7   

>  <FINAL_SINGLE_POINT_ENERGY>  (1054) 
0

>  <NONCOV_INTER_ENERGY_QM>  (1054) 
0

>  <FF_Energy>  (1054) 
1.58

>  <QM_Energy>  (1054) 
-5.66

>  <source>  (1054) 
ACET_MBZ_00

>  <Index>  (1054) 
38893

$$$$
ACET-pdb1tyf-M-GLU-141:MBZ-pdb1tyf-L-PHE-173
     RDKit          3D

 22 21  0  0  0  0  0  0  0  0999 V2000
   -0.1804    0.1205    3.6732 C   0  0  0  0  0  0  0  0  0  0  0  0
   -0.3714   -0.4635    2.8907 H   0  0  0  0  0  0  0  0  0  0  0  0
   -0.5614   -0.2760    4.5022 H   0  0  0  0  0  0  0  0  0  0  0  0
    0.9013    0.1818    3.7926 H   0  0  0  0  0  0  0  0  0  0  0  0
   -0.9029    1.4451    3.4347 C   0  0  0  0  0  0  0  0  0  0  0  0
   -0.2787    2.5212    3.3653 O   0  0  0  0  0  1  0  0  0  0  0  0
   -2.1378    1.3945    3.3001 O   0  0  0  0  0  0  0  0  0  0  0  0
   -0.0004    2.9160    0.0189 C   0  0  0  0  0  0  0  0  0  0  0  0
    0.8423    3.2146    0.4396 H   0  0  0  0  0  0  0  0  0  0  0  0
   -0.7880    3.2146    0.5349 H   0  0  0  0  0  0  0  0  0  0  0  0
   -0.0584    3.3731   -0.9689 H   0  0  0  0  0  0  0  0  0  0  0  0
   -0.0017    1.4054    0.0003 C   0  0  0  0  0  0  0  0  0  0  0  0
   -1.2058    0.6965    0.0004 C   0  0  0  0  0  0  0  0  0  0  0  0
   -2.0692    1.1914   -0.0005 H   0  0  0  0  0  0  0  0  0  0  0  0
   -1.2148   -0.6948   -0.0000 C   0  0  0  0  0  0  0  0  0  0  0  0
   -2.0812   -1.1945    0.0013 H   0  0  0  0  0  0  0  0  0  0  0  0
    0.0072   -1.3989    0.0002 C   0  0  0  0  0  0  0  0  0  0  0  0
   -0.0037   -2.3951   -0.0004 H   0  0  0  0  0  0  0  0  0  0  0  0
    1.2148   -0.7017    0.0000 C   0  0  0  0  0  0  0  0  0  0  0  0
    2.0920   -1.1951    0.0019 H   0  0  0  0  0  0  0  0  0  0  0  0
    1.2003    0.6936   -0.0008 C   0  0  0  0  0  0  0  0  0  0  0  0
    2.0675    1.1943   -0.0027 H   0  0  0  0  0  0  0  0  0  0  0  0
  1  5  1  0
  5  6  1  0
  5  7  2  0
  1  2  1  0
  1  3  1  0
  1  4  1  0
  8 12  1  0
 12 13  2  0
 13 15  1  0
 15 17  2  0
 17 19  1  0
 19 21  2  0
 21 12  1  0
  8  9  1  0
  8 10  1  0
  8 11  1  0
 13 14  1  0
 15 16  1  0
 17 18  1  0
 19 20  1  0
 21 22  1  0
M  CHG  1   6  -1
M  END
>  <PDB_ID>  (1055) 
pdb1tyf

>  <RESIDUE_NAME>  (1055) 
GLU   PHE

>  <FRAG_NAME>  (1055) 
ACET   MBZ

>  <FRAG_ATOM_NUM>  (1055) 
fragi: 7  fragj: 15

>  <atom.prop.CHAIN_ID>  (1055) 
A A A A A A A Z Z Z Z Z Z Z Z Z Z Z Z Z Z Z

>  <atom.prop.IS_HEAVY_ATOM>  (1055) 
1 0 0 0 1 1 1 1 0 0 0 1 1 0 1 0 1 0 1 0 1 0

>  <DIFUSE_FUNC_ATOM>  (1055) 
atom 6   atom 7   

>  <FINAL_SINGLE_POINT_ENERGY>  (1055) 
0

>  <NONCOV_INTER_ENERGY_QM>  (1055) 
0

>  <FF_Energy>  (1055) 
0.13

>  <QM_Energy>  (1055) 
-5.48

>  <source>  (1055) 
ACET_MBZ_00

>  <Index>  (1055) 
38897

$$$$
ACET-pdb2ztg-A-ASP-544:MBZ-pdb2ztg-A-PHE-627
     RDKit          3D

 22 21  0  0  0  0  0  0  0  0999 V2000
   -0.4406    2.3864    3.9763 C   0  0  0  0  0  0  0  0  0  0  0  0
   -1.0579    2.7256    3.2759 H   0  0  0  0  0  0  0  0  0  0  0  0
   -0.5525    2.9006    4.8177 H   0  0  0  0  0  0  0  0  0  0  0  0
   -0.7022    1.3480    4.1795 H   0  0  0  0  0  0  0  0  0  0  0  0
    0.9880    2.5487    3.4890 C   0  0  0  0  0  0  0  0  0  0  0  0
    1.4921    1.6346    2.7990 O   0  0  0  0  0  1  0  0  0  0  0  0
    1.6037    3.5991    3.7774 O   0  0  0  0  0  0  0  0  0  0  0  0
    0.0053    2.9146   -0.0631 C   0  0  0  0  0  0  0  0  0  0  0  0
    0.7906    3.2388    0.4379 H   0  0  0  0  0  0  0  0  0  0  0  0
   -0.8383    3.2390    0.3307 H   0  0  0  0  0  0  0  0  0  0  0  0
    0.0721    3.3082   -1.0774 H   0  0  0  0  0  0  0  0  0  0  0  0
    0.0006    1.4078   -0.0010 C   0  0  0  0  0  0  0  0  0  0  0  0
   -1.1995    0.6993    0.0002 C   0  0  0  0  0  0  0  0  0  0  0  0
   -2.0647    1.1872    0.0001 H   0  0  0  0  0  0  0  0  0  0  0  0
   -1.2050   -0.6989   -0.0000 C   0  0  0  0  0  0  0  0  0  0  0  0
   -2.0823   -1.1889    0.0019 H   0  0  0  0  0  0  0  0  0  0  0  0
   -0.0024   -1.3997   -0.0012 C   0  0  0  0  0  0  0  0  0  0  0  0
   -0.0076   -2.3965   -0.0036 H   0  0  0  0  0  0  0  0  0  0  0  0
    1.2050   -0.7026   -0.0000 C   0  0  0  0  0  0  0  0  0  0  0  0
    2.0831   -1.2004    0.0014 H   0  0  0  0  0  0  0  0  0  0  0  0
    1.2013    0.6941    0.0019 C   0  0  0  0  0  0  0  0  0  0  0  0
    2.0683    1.1892    0.0044 H   0  0  0  0  0  0  0  0  0  0  0  0
  1  5  1  0
  5  6  1  0
  5  7  2  0
  1  2  1  0
  1  3  1  0
  1  4  1  0
  8 12  1  0
 12 13  2  0
 13 15  1  0
 15 17  2  0
 17 19  1  0
 19 21  2  0
 21 12  1  0
  8  9  1  0
  8 10  1  0
  8 11  1  0
 13 14  1  0
 15 16  1  0
 17 18  1  0
 19 20  1  0
 21 22  1  0
M  CHG  1   6  -1
M  END
>  <PDB_ID>  (1056) 
pdb2ztg

>  <RESIDUE_NAME>  (1056) 
ASP   PHE

>  <FRAG_NAME>  (1056) 
ACET   MBZ

>  <FRAG_ATOM_NUM>  (1056) 
fragi: 7  fragj: 15

>  <atom.prop.CHAIN_ID>  (1056) 
A A A A A A A Z Z Z Z Z Z Z Z Z Z Z Z Z Z Z

>  <atom.prop.IS_HEAVY_ATOM>  (1056) 
1 0 0 0 1 1 1 1 0 0 0 1 1 0 1 0 1 0 1 0 1 0

>  <DIFUSE_FUNC_ATOM>  (1056) 
atom 6   atom 7   

>  <FINAL_SINGLE_POINT_ENERGY>  (1056) 
0

>  <NONCOV_INTER_ENERGY_QM>  (1056) 
0

>  <FF_Energy>  (1056) 
2.12

>  <QM_Energy>  (1056) 
-3.28

>  <source>  (1056) 
ACET_MBZ_00

>  <Index>  (1056) 
38997

$$$$
ACET-pdb2zue-A-GLU-160:MBZ-pdb2zue-A-PHE-373
     RDKit          3D

 22 21  0  0  0  0  0  0  0  0999 V2000
    5.1977    2.4795   -0.9808 C   0  0  0  0  0  0  0  0  0  0  0  0
    5.3384    2.8211   -1.8853 H   0  0  0  0  0  0  0  0  0  0  0  0
    5.0055    1.5222   -0.9528 H   0  0  0  0  0  0  0  0  0  0  0  0
    6.0966    2.6711   -0.3948 H   0  0  0  0  0  0  0  0  0  0  0  0
    3.9823    3.2060   -0.4016 C   0  0  0  0  0  0  0  0  0  0  0  0
    3.6915    2.9892    0.7933 O   0  0  0  0  0  1  0  0  0  0  0  0
    3.3316    3.9911   -1.1238 O   0  0  0  0  0  0  0  0  0  0  0  0
    0.0040    2.9110    0.0152 C   0  0  0  0  0  0  0  0  0  0  0  0
   -0.9139    3.2217   -0.1746 H   0  0  0  0  0  0  0  0  0  0  0  0
    0.6415    3.2195   -0.6715 H   0  0  0  0  0  0  0  0  0  0  0  0
    0.3099    3.3389    0.9700 H   0  0  0  0  0  0  0  0  0  0  0  0
   -0.0013    1.4041    0.0028 C   0  0  0  0  0  0  0  0  0  0  0  0
   -1.1985    0.6968    0.0006 C   0  0  0  0  0  0  0  0  0  0  0  0
   -2.0646    1.1865   -0.0017 H   0  0  0  0  0  0  0  0  0  0  0  0
   -1.2042   -0.6963    0.0000 C   0  0  0  0  0  0  0  0  0  0  0  0
   -2.0784   -1.1903    0.0035 H   0  0  0  0  0  0  0  0  0  0  0  0
    0.0021   -1.3958   -0.0034 C   0  0  0  0  0  0  0  0  0  0  0  0
   -0.0060   -2.3941   -0.0089 H   0  0  0  0  0  0  0  0  0  0  0  0
    1.2042   -0.7012   -0.0000 C   0  0  0  0  0  0  0  0  0  0  0  0
    2.0845   -1.1973    0.0046 H   0  0  0  0  0  0  0  0  0  0  0  0
    1.1977    0.6924    0.0000 C   0  0  0  0  0  0  0  0  0  0  0  0
    2.0659    1.1894   -0.0029 H   0  0  0  0  0  0  0  0  0  0  0  0
  1  5  1  0
  5  6  1  0
  5  7  2  0
  1  2  1  0
  1  3  1  0
  1  4  1  0
  8 12  1  0
 12 13  2  0
 13 15  1  0
 15 17  2  0
 17 19  1  0
 19 21  2  0
 21 12  1  0
  8  9  1  0
  8 10  1  0
  8 11  1  0
 13 14  1  0
 15 16  1  0
 17 18  1  0
 19 20  1  0
 21 22  1  0
M  CHG  1   6  -1
M  END
>  <PDB_ID>  (1057) 
pdb2zue

>  <RESIDUE_NAME>  (1057) 
GLU   PHE

>  <FRAG_NAME>  (1057) 
ACET   MBZ

>  <FRAG_ATOM_NUM>  (1057) 
fragi: 7  fragj: 15

>  <atom.prop.CHAIN_ID>  (1057) 
A A A A A A A Z Z Z Z Z Z Z Z Z Z Z Z Z Z Z

>  <atom.prop.IS_HEAVY_ATOM>  (1057) 
1 0 0 0 1 1 1 1 0 0 0 1 1 0 1 0 1 0 1 0 1 0

>  <DIFUSE_FUNC_ATOM>  (1057) 
atom 6   atom 7   

>  <FINAL_SINGLE_POINT_ENERGY>  (1057) 
0

>  <NONCOV_INTER_ENERGY_QM>  (1057) 
0

>  <FF_Energy>  (1057) 
-2.52

>  <QM_Energy>  (1057) 
-8.18

>  <source>  (1057) 
ACET_MBZ_00

>  <Index>  (1057) 
39022

$$$$
ACET-pdb1u0u-B-GLU-76:MBZ-pdb1u0u-B-PHE-41
     RDKit          3D

 22 21  0  0  0  0  0  0  0  0999 V2000
   -2.7813   -3.5112    1.7912 C   0  0  0  0  0  0  0  0  0  0  0  0
   -3.1703   -4.2149    2.3605 H   0  0  0  0  0  0  0  0  0  0  0  0
   -2.0215   -3.0627    2.2314 H   0  0  0  0  0  0  0  0  0  0  0  0
   -2.4219   -3.9743    0.8722 H   0  0  0  0  0  0  0  0  0  0  0  0
   -3.8527   -2.4685    1.5561 C   0  0  0  0  0  0  0  0  0  0  0  0
   -3.7581   -1.7190    0.5603 O   0  0  0  0  0  1  0  0  0  0  0  0
   -4.7856   -2.3938    2.3842 O   0  0  0  0  0  0  0  0  0  0  0  0
    0.0109    2.9086   -0.0456 C   0  0  0  0  0  0  0  0  0  0  0  0
   -0.7434    3.2013   -0.6149 H   0  0  0  0  0  0  0  0  0  0  0  0
    0.8789    3.1968   -0.4226 H   0  0  0  0  0  0  0  0  0  0  0  0
   -0.1033    3.3820    0.9296 H   0  0  0  0  0  0  0  0  0  0  0  0
    0.0012    1.4034   -0.0003 C   0  0  0  0  0  0  0  0  0  0  0  0
   -1.1994    0.6962    0.0025 C   0  0  0  0  0  0  0  0  0  0  0  0
   -2.0639    1.1872    0.0049 H   0  0  0  0  0  0  0  0  0  0  0  0
   -1.2055   -0.6966    0.0000 C   0  0  0  0  0  0  0  0  0  0  0  0
   -2.0824   -1.1887    0.0027 H   0  0  0  0  0  0  0  0  0  0  0  0
   -0.0027   -1.3970   -0.0042 C   0  0  0  0  0  0  0  0  0  0  0  0
   -0.0062   -2.3936   -0.0102 H   0  0  0  0  0  0  0  0  0  0  0  0
    1.2055   -0.6984    0.0000 C   0  0  0  0  0  0  0  0  0  0  0  0
    2.0828   -1.1988    0.0026 H   0  0  0  0  0  0  0  0  0  0  0  0
    1.2008    0.6924    0.0019 C   0  0  0  0  0  0  0  0  0  0  0  0
    2.0679    1.1903    0.0042 H   0  0  0  0  0  0  0  0  0  0  0  0
  1  5  1  0
  5  6  1  0
  5  7  2  0
  1  2  1  0
  1  3  1  0
  1  4  1  0
  8 12  1  0
 12 13  2  0
 13 15  1  0
 15 17  2  0
 17 19  1  0
 19 21  2  0
 21 12  1  0
  8  9  1  0
  8 10  1  0
  8 11  1  0
 13 14  1  0
 15 16  1  0
 17 18  1  0
 19 20  1  0
 21 22  1  0
M  CHG  1   6  -1
M  END
>  <PDB_ID>  (1058) 
pdb1u0u

>  <RESIDUE_NAME>  (1058) 
GLU   PHE

>  <FRAG_NAME>  (1058) 
ACET   MBZ

>  <FRAG_ATOM_NUM>  (1058) 
fragi: 7  fragj: 15

>  <atom.prop.CHAIN_ID>  (1058) 
A A A A A A A Z Z Z Z Z Z Z Z Z Z Z Z Z Z Z

>  <atom.prop.IS_HEAVY_ATOM>  (1058) 
1 0 0 0 1 1 1 1 0 0 0 1 1 0 1 0 1 0 1 0 1 0

>  <DIFUSE_FUNC_ATOM>  (1058) 
atom 6   atom 7   

>  <FINAL_SINGLE_POINT_ENERGY>  (1058) 
0

>  <NONCOV_INTER_ENERGY_QM>  (1058) 
0

>  <FF_Energy>  (1058) 
20.91

>  <QM_Energy>  (1058) 
-4.56

>  <source>  (1058) 
ACET_MBZ_00

>  <Index>  (1058) 
39099

$$$$
ACET-pdb1u1i-A-GLU-24:MBZ-pdb1u1i-A-PHE-51
     RDKit          3D

 22 21  0  0  0  0  0  0  0  0999 V2000
   -5.5455    3.3175   -0.4616 C   0  0  0  0  0  0  0  0  0  0  0  0
   -5.8317    3.1359    0.4587 H   0  0  0  0  0  0  0  0  0  0  0  0
   -5.3846    2.4985   -0.9762 H   0  0  0  0  0  0  0  0  0  0  0  0
   -6.3338    3.8836   -0.9576 H   0  0  0  0  0  0  0  0  0  0  0  0
   -4.2391    4.0851   -0.3952 C   0  0  0  0  0  0  0  0  0  0  0  0
   -4.2233    5.3056   -0.6649 O   0  0  0  0  0  1  0  0  0  0  0  0
   -3.2036    3.4647   -0.0777 O   0  0  0  0  0  0  0  0  0  0  0  0
   -0.0066    2.9117    0.0018 C   0  0  0  0  0  0  0  0  0  0  0  0
   -0.7568    3.2158   -0.5591 H   0  0  0  0  0  0  0  0  0  0  0  0
    0.8631    3.2128   -0.3504 H   0  0  0  0  0  0  0  0  0  0  0  0
   -0.1335    3.3469    0.9931 H   0  0  0  0  0  0  0  0  0  0  0  0
   -0.0092    1.3928   -0.0006 C   0  0  0  0  0  0  0  0  0  0  0  0
   -1.1917    0.6779    0.0003 C   0  0  0  0  0  0  0  0  0  0  0  0
   -2.0666    1.1679    0.0003 H   0  0  0  0  0  0  0  0  0  0  0  0
   -1.1974   -0.7042   -0.0000 C   0  0  0  0  0  0  0  0  0  0  0  0
   -2.0690   -1.2027   -0.0033 H   0  0  0  0  0  0  0  0  0  0  0  0
    0.0064   -1.3838    0.0059 C   0  0  0  0  0  0  0  0  0  0  0  0
    0.0118   -2.3866    0.0141 H   0  0  0  0  0  0  0  0  0  0  0  0
    1.1974   -0.6819   -0.0000 C   0  0  0  0  0  0  0  0  0  0  0  0
    2.0842   -1.1811    0.0014 H   0  0  0  0  0  0  0  0  0  0  0  0
    1.1945    0.6993   -0.0056 C   0  0  0  0  0  0  0  0  0  0  0  0
    2.0554    1.2023   -0.0140 H   0  0  0  0  0  0  0  0  0  0  0  0
  1  5  1  0
  5  6  1  0
  5  7  2  0
  1  2  1  0
  1  3  1  0
  1  4  1  0
  8 12  1  0
 12 13  2  0
 13 15  1  0
 15 17  2  0
 17 19  1  0
 19 21  2  0
 21 12  1  0
  8  9  1  0
  8 10  1  0
  8 11  1  0
 13 14  1  0
 15 16  1  0
 17 18  1  0
 19 20  1  0
 21 22  1  0
M  CHG  1   6  -1
M  END
>  <PDB_ID>  (1059) 
pdb1u1i

>  <RESIDUE_NAME>  (1059) 
GLU   PHE

>  <FRAG_NAME>  (1059) 
ACET   MBZ

>  <FRAG_ATOM_NUM>  (1059) 
fragi: 7  fragj: 15

>  <atom.prop.CHAIN_ID>  (1059) 
A A A A A A A Z Z Z Z Z Z Z Z Z Z Z Z Z Z Z

>  <atom.prop.IS_HEAVY_ATOM>  (1059) 
1 0 0 0 1 1 1 1 0 0 0 1 1 0 1 0 1 0 1 0 1 0

>  <DIFUSE_FUNC_ATOM>  (1059) 
atom 6   atom 7   

>  <FINAL_SINGLE_POINT_ENERGY>  (1059) 
0

>  <NONCOV_INTER_ENERGY_QM>  (1059) 
0

>  <FF_Energy>  (1059) 
-1.83

>  <QM_Energy>  (1059) 
-7.74

>  <source>  (1059) 
ACET_MBZ_00

>  <Index>  (1059) 
39147

$$$$
ACET-pdb2zvi-A-GLU-183:MBZ-pdb2zvi-A-PHE-189
     RDKit          3D

 22 21  0  0  0  0  0  0  0  0999 V2000
    1.0874    5.5971    3.6638 C   0  0  0  0  0  0  0  0  0  0  0  0
    1.8228    5.0379    3.9865 H   0  0  0  0  0  0  0  0  0  0  0  0
    0.2091    5.2858    3.9636 H   0  0  0  0  0  0  0  0  0  0  0  0
    1.2393    6.6121    4.0307 H   0  0  0  0  0  0  0  0  0  0  0  0
    1.0998    5.5378    2.1432 C   0  0  0  0  0  0  0  0  0  0  0  0
    0.1414    6.0539    1.5246 O   0  0  0  0  0  1  0  0  0  0  0  0
    2.0701    4.9918    1.5674 O   0  0  0  0  0  0  0  0  0  0  0  0
    0.0011    2.9141    0.0471 C   0  0  0  0  0  0  0  0  0  0  0  0
    0.6263    3.1986    0.7603 H   0  0  0  0  0  0  0  0  0  0  0  0
   -0.9216    3.2150    0.2407 H   0  0  0  0  0  0  0  0  0  0  0  0
    0.3171    3.3941   -0.8790 H   0  0  0  0  0  0  0  0  0  0  0  0
    0.0001    1.4073    0.0012 C   0  0  0  0  0  0  0  0  0  0  0  0
   -1.1980    0.7018   -0.0012 C   0  0  0  0  0  0  0  0  0  0  0  0
   -2.0644    1.1900   -0.0049 H   0  0  0  0  0  0  0  0  0  0  0  0
   -1.2048   -0.6963    0.0000 C   0  0  0  0  0  0  0  0  0  0  0  0
   -2.0822   -1.1860    0.0018 H   0  0  0  0  0  0  0  0  0  0  0  0
   -0.0014   -1.4000    0.0010 C   0  0  0  0  0  0  0  0  0  0  0  0
   -0.0094   -2.3968    0.0015 H   0  0  0  0  0  0  0  0  0  0  0  0
    1.2048   -0.7047   -0.0000 C   0  0  0  0  0  0  0  0  0  0  0  0
    2.0838   -1.2008    0.0018 H   0  0  0  0  0  0  0  0  0  0  0  0
    1.1994    0.6920   -0.0010 C   0  0  0  0  0  0  0  0  0  0  0  0
    2.0683    1.1872   -0.0039 H   0  0  0  0  0  0  0  0  0  0  0  0
  1  5  1  0
  5  6  1  0
  5  7  2  0
  1  2  1  0
  1  3  1  0
  1  4  1  0
  8 12  1  0
 12 13  2  0
 13 15  1  0
 15 17  2  0
 17 19  1  0
 19 21  2  0
 21 12  1  0
  8  9  1  0
  8 10  1  0
  8 11  1  0
 13 14  1  0
 15 16  1  0
 17 18  1  0
 19 20  1  0
 21 22  1  0
M  CHG  1   6  -1
M  END
>  <PDB_ID>  (1060) 
pdb2zvi

>  <RESIDUE_NAME>  (1060) 
GLU   PHE

>  <FRAG_NAME>  (1060) 
ACET   MBZ

>  <FRAG_ATOM_NUM>  (1060) 
fragi: 7  fragj: 15

>  <atom.prop.CHAIN_ID>  (1060) 
A A A A A A A Z Z Z Z Z Z Z Z Z Z Z Z Z Z Z

>  <atom.prop.IS_HEAVY_ATOM>  (1060) 
1 0 0 0 1 1 1 1 0 0 0 1 1 0 1 0 1 0 1 0 1 0

>  <DIFUSE_FUNC_ATOM>  (1060) 
atom 6   atom 7   

>  <FINAL_SINGLE_POINT_ENERGY>  (1060) 
0

>  <NONCOV_INTER_ENERGY_QM>  (1060) 
0

>  <FF_Energy>  (1060) 
-1.19

>  <QM_Energy>  (1060) 
-6.27

>  <source>  (1060) 
ACET_MBZ_00

>  <Index>  (1060) 
39148

$$$$
ACET-pdb1u1j-A-GLU-498:MBZ-pdb1u1j-A-PHE-509
     RDKit          3D

 22 21  0  0  0  0  0  0  0  0999 V2000
    4.2435   -1.9627   -0.0572 C   0  0  0  0  0  0  0  0  0  0  0  0
    3.4362   -1.8029    0.4750 H   0  0  0  0  0  0  0  0  0  0  0  0
    4.9488   -2.4177    0.4491 H   0  0  0  0  0  0  0  0  0  0  0  0
    3.9764   -2.5806   -0.9146 H   0  0  0  0  0  0  0  0  0  0  0  0
    4.7808   -0.6235   -0.4888 C   0  0  0  0  0  0  0  0  0  0  0  0
    4.1615   -0.0126   -1.3918 O   0  0  0  0  0  1  0  0  0  0  0  0
    5.8110   -0.1830    0.0732 O   0  0  0  0  0  0  0  0  0  0  0  0
   -0.0004    2.9082    0.0625 C   0  0  0  0  0  0  0  0  0  0  0  0
   -0.5876    3.2427   -0.6557 H   0  0  0  0  0  0  0  0  0  0  0  0
    0.9293    3.2182   -0.0520 H   0  0  0  0  0  0  0  0  0  0  0  0
   -0.3713    3.2999    1.0097 H   0  0  0  0  0  0  0  0  0  0  0  0
   -0.0002    1.4049    0.0010 C   0  0  0  0  0  0  0  0  0  0  0  0
   -1.1988    0.6928   -0.0008 C   0  0  0  0  0  0  0  0  0  0  0  0
   -2.0652    1.1836   -0.0039 H   0  0  0  0  0  0  0  0  0  0  0  0
   -1.2055   -0.7015   -0.0000 C   0  0  0  0  0  0  0  0  0  0  0  0
   -2.0795   -1.1936    0.0013 H   0  0  0  0  0  0  0  0  0  0  0  0
   -0.0012   -1.3953    0.0008 C   0  0  0  0  0  0  0  0  0  0  0  0
   -0.0016   -2.3934    0.0013 H   0  0  0  0  0  0  0  0  0  0  0  0
    1.2055   -0.6958    0.0000 C   0  0  0  0  0  0  0  0  0  0  0  0
    2.0841   -1.1950    0.0021 H   0  0  0  0  0  0  0  0  0  0  0  0
    1.2001    0.6949   -0.0010 C   0  0  0  0  0  0  0  0  0  0  0  0
    2.0661    1.1927   -0.0039 H   0  0  0  0  0  0  0  0  0  0  0  0
  1  5  1  0
  5  6  1  0
  5  7  2  0
  1  2  1  0
  1  3  1  0
  1  4  1  0
  8 12  1  0
 12 13  2  0
 13 15  1  0
 15 17  2  0
 17 19  1  0
 19 21  2  0
 21 12  1  0
  8  9  1  0
  8 10  1  0
  8 11  1  0
 13 14  1  0
 15 16  1  0
 17 18  1  0
 19 20  1  0
 21 22  1  0
M  CHG  1   6  -1
M  END
>  <PDB_ID>  (1061) 
pdb1u1j

>  <RESIDUE_NAME>  (1061) 
GLU   PHE

>  <FRAG_NAME>  (1061) 
ACET   MBZ

>  <FRAG_ATOM_NUM>  (1061) 
fragi: 7  fragj: 15

>  <atom.prop.CHAIN_ID>  (1061) 
A A A A A A A Z Z Z Z Z Z Z Z Z Z Z Z Z Z Z

>  <atom.prop.IS_HEAVY_ATOM>  (1061) 
1 0 0 0 1 1 1 1 0 0 0 1 1 0 1 0 1 0 1 0 1 0

>  <DIFUSE_FUNC_ATOM>  (1061) 
atom 6   atom 7   

>  <FINAL_SINGLE_POINT_ENERGY>  (1061) 
0

>  <NONCOV_INTER_ENERGY_QM>  (1061) 
0

>  <FF_Energy>  (1061) 
21.72

>  <QM_Energy>  (1061) 
-0.97

>  <source>  (1061) 
ACET_MBZ_00

>  <Index>  (1061) 
39152

$$$$
ACET-pdb2zvi-B-ASP-298:MBZ-pdb2zvi-B-PHE-128
     RDKit          3D

 22 21  0  0  0  0  0  0  0  0999 V2000
   -3.4267    5.3361   -2.4564 C   0  0  0  0  0  0  0  0  0  0  0  0
   -3.8216    5.0000   -3.3019 H   0  0  0  0  0  0  0  0  0  0  0  0
   -2.4582    5.5172   -2.5681 H   0  0  0  0  0  0  0  0  0  0  0  0
   -3.9192    6.2752   -2.2044 H   0  0  0  0  0  0  0  0  0  0  0  0
   -3.6070    4.2836   -1.3801 C   0  0  0  0  0  0  0  0  0  0  0  0
   -2.8132    4.2886   -0.4191 O   0  0  0  0  0  1  0  0  0  0  0  0
   -4.5556    3.4683   -1.4809 O   0  0  0  0  0  0  0  0  0  0  0  0
   -0.0000    2.8909    0.0448 C   0  0  0  0  0  0  0  0  0  0  0  0
   -0.7087    3.2194   -0.5605 H   0  0  0  0  0  0  0  0  0  0  0  0
    0.8928    3.2070   -0.2382 H   0  0  0  0  0  0  0  0  0  0  0  0
   -0.1970    3.2946    1.0380 H   0  0  0  0  0  0  0  0  0  0  0  0
   -0.0026    1.3991    0.0014 C   0  0  0  0  0  0  0  0  0  0  0  0
   -1.1980    0.6942   -0.0015 C   0  0  0  0  0  0  0  0  0  0  0  0
   -2.0650    1.1857   -0.0056 H   0  0  0  0  0  0  0  0  0  0  0  0
   -1.2044   -0.6948   -0.0000 C   0  0  0  0  0  0  0  0  0  0  0  0
   -2.0777   -1.1909    0.0019 H   0  0  0  0  0  0  0  0  0  0  0  0
    0.0029   -1.3920    0.0001 C   0  0  0  0  0  0  0  0  0  0  0  0
   -0.0043   -2.3915   -0.0005 H   0  0  0  0  0  0  0  0  0  0  0  0
    1.2044   -0.6981   -0.0000 C   0  0  0  0  0  0  0  0  0  0  0  0
    2.0845   -1.1953    0.0018 H   0  0  0  0  0  0  0  0  0  0  0  0
    1.1977    0.6916   -0.0000 C   0  0  0  0  0  0  0  0  0  0  0  0
    2.0636    1.1909   -0.0024 H   0  0  0  0  0  0  0  0  0  0  0  0
  1  5  1  0
  5  6  1  0
  5  7  2  0
  1  2  1  0
  1  3  1  0
  1  4  1  0
  8 12  1  0
 12 13  2  0
 13 15  1  0
 15 17  2  0
 17 19  1  0
 19 21  2  0
 21 12  1  0
  8  9  1  0
  8 10  1  0
  8 11  1  0
 13 14  1  0
 15 16  1  0
 17 18  1  0
 19 20  1  0
 21 22  1  0
M  CHG  1   6  -1
M  END
>  <PDB_ID>  (1062) 
pdb2zvi

>  <RESIDUE_NAME>  (1062) 
ASP   PHE

>  <FRAG_NAME>  (1062) 
ACET   MBZ

>  <FRAG_ATOM_NUM>  (1062) 
fragi: 7  fragj: 15

>  <atom.prop.CHAIN_ID>  (1062) 
A A A A A A A Z Z Z Z Z Z Z Z Z Z Z Z Z Z Z

>  <atom.prop.IS_HEAVY_ATOM>  (1062) 
1 0 0 0 1 1 1 1 0 0 0 1 1 0 1 0 1 0 1 0 1 0

>  <DIFUSE_FUNC_ATOM>  (1062) 
atom 6   atom 7   

>  <FINAL_SINGLE_POINT_ENERGY>  (1062) 
0

>  <NONCOV_INTER_ENERGY_QM>  (1062) 
0

>  <FF_Energy>  (1062) 
-1.51

>  <QM_Energy>  (1062) 
-6.76

>  <source>  (1062) 
ACET_MBZ_00

>  <Index>  (1062) 
39155

$$$$
ACET-pdb2zvi-C-GLU-183:MBZ-pdb2zvi-C-PHE-189
     RDKit          3D

 22 21  0  0  0  0  0  0  0  0999 V2000
    0.5214    5.4872    3.9212 C   0  0  0  0  0  0  0  0  0  0  0  0
    1.1402    4.7817    4.2025 H   0  0  0  0  0  0  0  0  0  0  0  0
   -0.3861    5.3552    4.2678 H   0  0  0  0  0  0  0  0  0  0  0  0
    0.8973    6.4443    4.2829 H   0  0  0  0  0  0  0  0  0  0  0  0
    0.4375    5.4385    2.3998 C   0  0  0  0  0  0  0  0  0  0  0  0
    1.4764    5.1727    1.7492 O   0  0  0  0  0  1  0  0  0  0  0  0
   -0.6668    5.6838    1.8579 O   0  0  0  0  0  0  0  0  0  0  0  0
   -0.0014    2.8935    0.0935 C   0  0  0  0  0  0  0  0  0  0  0  0
    0.6067    3.1575    0.8316 H   0  0  0  0  0  0  0  0  0  0  0  0
   -0.9298    3.1886    0.2811 H   0  0  0  0  0  0  0  0  0  0  0  0
    0.3319    3.4065   -0.8085 H   0  0  0  0  0  0  0  0  0  0  0  0
    0.0019    1.3985    0.0000 C   0  0  0  0  0  0  0  0  0  0  0  0
   -1.1984    0.6906   -0.0020 C   0  0  0  0  0  0  0  0  0  0  0  0
   -2.0628    1.1829   -0.0058 H   0  0  0  0  0  0  0  0  0  0  0  0
   -1.2043   -0.6998    0.0000 C   0  0  0  0  0  0  0  0  0  0  0  0
   -2.0786   -1.1944    0.0001 H   0  0  0  0  0  0  0  0  0  0  0  0
   -0.0005   -1.3929    0.0038 C   0  0  0  0  0  0  0  0  0  0  0  0
    0.0009   -2.3906    0.0090 H   0  0  0  0  0  0  0  0  0  0  0  0
    1.2043   -0.6906    0.0000 C   0  0  0  0  0  0  0  0  0  0  0  0
    2.0836   -1.1912   -0.0003 H   0  0  0  0  0  0  0  0  0  0  0  0
    1.1970    0.6943   -0.0019 C   0  0  0  0  0  0  0  0  0  0  0  0
    2.0646    1.1945   -0.0060 H   0  0  0  0  0  0  0  0  0  0  0  0
  1  5  1  0
  5  6  1  0
  5  7  2  0
  1  2  1  0
  1  3  1  0
  1  4  1  0
  8 12  1  0
 12 13  2  0
 13 15  1  0
 15 17  2  0
 17 19  1  0
 19 21  2  0
 21 12  1  0
  8  9  1  0
  8 10  1  0
  8 11  1  0
 13 14  1  0
 15 16  1  0
 17 18  1  0
 19 20  1  0
 21 22  1  0
M  CHG  1   6  -1
M  END
>  <PDB_ID>  (1063) 
pdb2zvi

>  <RESIDUE_NAME>  (1063) 
GLU   PHE

>  <FRAG_NAME>  (1063) 
ACET   MBZ

>  <FRAG_ATOM_NUM>  (1063) 
fragi: 7  fragj: 15

>  <atom.prop.CHAIN_ID>  (1063) 
A A A A A A A Z Z Z Z Z Z Z Z Z Z Z Z Z Z Z

>  <atom.prop.IS_HEAVY_ATOM>  (1063) 
1 0 0 0 1 1 1 1 0 0 0 1 1 0 1 0 1 0 1 0 1 0

>  <DIFUSE_FUNC_ATOM>  (1063) 
atom 6   atom 7   

>  <FINAL_SINGLE_POINT_ENERGY>  (1063) 
0

>  <NONCOV_INTER_ENERGY_QM>  (1063) 
0

>  <FF_Energy>  (1063) 
-0.8

>  <QM_Energy>  (1063) 
-6.17

>  <source>  (1063) 
ACET_MBZ_00

>  <Index>  (1063) 
39164

$$$$
ACET-pdb2zw9-A-GLU-42:MBZ-pdb2zw9-A-PHE-67
     RDKit          3D

 22 21  0  0  0  0  0  0  0  0999 V2000
   -4.4038    2.9702   -1.8974 C   0  0  0  0  0  0  0  0  0  0  0  0
   -4.9457    3.7697   -2.0660 H   0  0  0  0  0  0  0  0  0  0  0  0
   -4.9443    2.1542   -1.8330 H   0  0  0  0  0  0  0  0  0  0  0  0
   -3.7001    2.8532   -2.7215 H   0  0  0  0  0  0  0  0  0  0  0  0
   -3.7036    3.1623   -0.5645 C   0  0  0  0  0  0  0  0  0  0  0  0
   -2.9041    4.1154   -0.4416 O   0  0  0  0  0  1  0  0  0  0  0  0
   -3.9477    2.3603    0.3609 O   0  0  0  0  0  0  0  0  0  0  0  0
    0.0110    2.8979   -0.0035 C   0  0  0  0  0  0  0  0  0  0  0  0
   -0.7974    3.2077   -0.4811 H   0  0  0  0  0  0  0  0  0  0  0  0
    0.8356    3.1977   -0.4594 H   0  0  0  0  0  0  0  0  0  0  0  0
    0.0007    3.3413    0.9922 H   0  0  0  0  0  0  0  0  0  0  0  0
    0.0013    1.3951    0.0002 C   0  0  0  0  0  0  0  0  0  0  0  0
   -1.1918    0.6900    0.0002 C   0  0  0  0  0  0  0  0  0  0  0  0
   -2.0590    1.1808   -0.0004 H   0  0  0  0  0  0  0  0  0  0  0  0
   -1.1935   -0.6936   -0.0000 C   0  0  0  0  0  0  0  0  0  0  0  0
   -2.0718   -1.1898    0.0010 H   0  0  0  0  0  0  0  0  0  0  0  0
    0.0012   -1.3849    0.0003 C   0  0  0  0  0  0  0  0  0  0  0  0
   -0.0030   -2.3872    0.0004 H   0  0  0  0  0  0  0  0  0  0  0  0
    1.1935   -0.6932   -0.0000 C   0  0  0  0  0  0  0  0  0  0  0  0
    2.0778   -1.1929    0.0015 H   0  0  0  0  0  0  0  0  0  0  0  0
    1.1893    0.6866   -0.0006 C   0  0  0  0  0  0  0  0  0  0  0  0
    2.0609    1.1855   -0.0026 H   0  0  0  0  0  0  0  0  0  0  0  0
  1  5  1  0
  5  6  1  0
  5  7  2  0
  1  2  1  0
  1  3  1  0
  1  4  1  0
  8 12  1  0
 12 13  2  0
 13 15  1  0
 15 17  2  0
 17 19  1  0
 19 21  2  0
 21 12  1  0
  8  9  1  0
  8 10  1  0
  8 11  1  0
 13 14  1  0
 15 16  1  0
 17 18  1  0
 19 20  1  0
 21 22  1  0
M  CHG  1   6  -1
M  END
>  <PDB_ID>  (1064) 
pdb2zw9

>  <RESIDUE_NAME>  (1064) 
GLU   PHE

>  <FRAG_NAME>  (1064) 
ACET   MBZ

>  <FRAG_ATOM_NUM>  (1064) 
fragi: 7  fragj: 15

>  <atom.prop.CHAIN_ID>  (1064) 
A A A A A A A Z Z Z Z Z Z Z Z Z Z Z Z Z Z Z

>  <atom.prop.IS_HEAVY_ATOM>  (1064) 
1 0 0 0 1 1 1 1 0 0 0 1 1 0 1 0 1 0 1 0 1 0

>  <DIFUSE_FUNC_ATOM>  (1064) 
atom 6   atom 7   

>  <FINAL_SINGLE_POINT_ENERGY>  (1064) 
0

>  <NONCOV_INTER_ENERGY_QM>  (1064) 
0

>  <FF_Energy>  (1064) 
-0.45

>  <QM_Energy>  (1064) 
-8.66

>  <source>  (1064) 
ACET_MBZ_00

>  <Index>  (1064) 
39215

$$$$
ACET-pdb2zw9-B-GLU-42:MBZ-pdb2zw9-B-PHE-67
     RDKit          3D

 22 21  0  0  0  0  0  0  0  0999 V2000
   -4.0266    3.4274   -2.0083 C   0  0  0  0  0  0  0  0  0  0  0  0
   -4.5709    4.2014   -2.2706 H   0  0  0  0  0  0  0  0  0  0  0  0
   -4.5741    2.6446   -1.7804 H   0  0  0  0  0  0  0  0  0  0  0  0
   -3.3769    3.1640   -2.8429 H   0  0  0  0  0  0  0  0  0  0  0  0
   -3.2470    3.8172   -0.7659 C   0  0  0  0  0  0  0  0  0  0  0  0
   -2.4327    4.7643   -0.8351 O   0  0  0  0  0  1  0  0  0  0  0  0
   -3.4504    3.1759    0.2859 O   0  0  0  0  0  0  0  0  0  0  0  0
    0.0047    2.8960   -0.0006 C   0  0  0  0  0  0  0  0  0  0  0  0
   -0.8408    3.2043   -0.4096 H   0  0  0  0  0  0  0  0  0  0  0  0
    0.7887    3.2005   -0.5206 H   0  0  0  0  0  0  0  0  0  0  0  0
    0.0738    3.3368    0.9939 H   0  0  0  0  0  0  0  0  0  0  0  0
    0.0007    1.3948    0.0006 C   0  0  0  0  0  0  0  0  0  0  0  0
   -1.1909    0.6874    0.0001 C   0  0  0  0  0  0  0  0  0  0  0  0
   -2.0602    1.1785   -0.0017 H   0  0  0  0  0  0  0  0  0  0  0  0
   -1.1951   -0.6969   -0.0000 C   0  0  0  0  0  0  0  0  0  0  0  0
   -2.0736   -1.1918    0.0018 H   0  0  0  0  0  0  0  0  0  0  0  0
   -0.0004   -1.3856   -0.0006 C   0  0  0  0  0  0  0  0  0  0  0  0
   -0.0001   -2.3873   -0.0018 H   0  0  0  0  0  0  0  0  0  0  0  0
    1.1951   -0.6904    0.0000 C   0  0  0  0  0  0  0  0  0  0  0  0
    2.0786   -1.1912    0.0020 H   0  0  0  0  0  0  0  0  0  0  0  0
    1.1905    0.6907   -0.0000 C   0  0  0  0  0  0  0  0  0  0  0  0
    2.0608    1.1898   -0.0013 H   0  0  0  0  0  0  0  0  0  0  0  0
  1  5  1  0
  5  6  1  0
  5  7  2  0
  1  2  1  0
  1  3  1  0
  1  4  1  0
  8 12  1  0
 12 13  2  0
 13 15  1  0
 15 17  2  0
 17 19  1  0
 19 21  2  0
 21 12  1  0
  8  9  1  0
  8 10  1  0
  8 11  1  0
 13 14  1  0
 15 16  1  0
 17 18  1  0
 19 20  1  0
 21 22  1  0
M  CHG  1   6  -1
M  END
>  <PDB_ID>  (1065) 
pdb2zw9

>  <RESIDUE_NAME>  (1065) 
GLU   PHE

>  <FRAG_NAME>  (1065) 
ACET   MBZ

>  <FRAG_ATOM_NUM>  (1065) 
fragi: 7  fragj: 15

>  <atom.prop.CHAIN_ID>  (1065) 
A A A A A A A Z Z Z Z Z Z Z Z Z Z Z Z Z Z Z

>  <atom.prop.IS_HEAVY_ATOM>  (1065) 
1 0 0 0 1 1 1 1 0 0 0 1 1 0 1 0 1 0 1 0 1 0

>  <DIFUSE_FUNC_ATOM>  (1065) 
atom 6   atom 7   

>  <FINAL_SINGLE_POINT_ENERGY>  (1065) 
0

>  <NONCOV_INTER_ENERGY_QM>  (1065) 
0

>  <FF_Energy>  (1065) 
-0.53

>  <QM_Energy>  (1065) 
-8.26

>  <source>  (1065) 
ACET_MBZ_00

>  <Index>  (1065) 
39217

$$$$
ACET-pdb1u2e-D-GLU-3254:MBZ-pdb1u2e-B-PHE-1258
     RDKit          3D

 22 21  0  0  0  0  0  0  0  0999 V2000
   -3.7741    1.1223   -2.3389 C   0  0  0  0  0  0  0  0  0  0  0  0
   -2.9386    1.5316   -2.0199 H   0  0  0  0  0  0  0  0  0  0  0  0
   -4.5702    1.6076   -2.0264 H   0  0  0  0  0  0  0  0  0  0  0  0
   -3.7679    1.1394   -3.4287 H   0  0  0  0  0  0  0  0  0  0  0  0
   -3.8425   -0.2805   -1.7790 C   0  0  0  0  0  0  0  0  0  0  0  0
   -3.2425   -1.1940   -2.3838 O   0  0  0  0  0  1  0  0  0  0  0  0
   -4.4804   -0.4684   -0.7218 O   0  0  0  0  0  0  0  0  0  0  0  0
    0.0033    2.9010    0.0028 C   0  0  0  0  0  0  0  0  0  0  0  0
    0.9045    3.2057    0.2736 H   0  0  0  0  0  0  0  0  0  0  0  0
   -0.6872    3.2071    0.6412 H   0  0  0  0  0  0  0  0  0  0  0  0
   -0.2205    3.3438   -0.9677 H   0  0  0  0  0  0  0  0  0  0  0  0
    0.0012    1.3988    0.0006 C   0  0  0  0  0  0  0  0  0  0  0  0
   -1.1960    0.6889    0.0001 C   0  0  0  0  0  0  0  0  0  0  0  0
   -2.0620    1.1790   -0.0015 H   0  0  0  0  0  0  0  0  0  0  0  0
   -1.1970   -0.6988   -0.0000 C   0  0  0  0  0  0  0  0  0  0  0  0
   -2.0738   -1.1944    0.0009 H   0  0  0  0  0  0  0  0  0  0  0  0
    0.0011   -1.3877    0.0002 C   0  0  0  0  0  0  0  0  0  0  0  0
   -0.0006   -2.3898   -0.0000 H   0  0  0  0  0  0  0  0  0  0  0  0
    1.1970   -0.6934   -0.0000 C   0  0  0  0  0  0  0  0  0  0  0  0
    2.0799   -1.1920    0.0021 H   0  0  0  0  0  0  0  0  0  0  0  0
    1.1937    0.6923   -0.0009 C   0  0  0  0  0  0  0  0  0  0  0  0
    2.0636    1.1893   -0.0035 H   0  0  0  0  0  0  0  0  0  0  0  0
  1  5  1  0
  5  6  1  0
  5  7  2  0
  1  2  1  0
  1  3  1  0
  1  4  1  0
  8 12  1  0
 12 13  2  0
 13 15  1  0
 15 17  2  0
 17 19  1  0
 19 21  2  0
 21 12  1  0
  8  9  1  0
  8 10  1  0
  8 11  1  0
 13 14  1  0
 15 16  1  0
 17 18  1  0
 19 20  1  0
 21 22  1  0
M  CHG  1   6  -1
M  END
>  <PDB_ID>  (1066) 
pdb1u2e

>  <RESIDUE_NAME>  (1066) 
GLU   PHE

>  <FRAG_NAME>  (1066) 
ACET   MBZ

>  <FRAG_ATOM_NUM>  (1066) 
fragi: 7  fragj: 15

>  <atom.prop.CHAIN_ID>  (1066) 
A A A A A A A Z Z Z Z Z Z Z Z Z Z Z Z Z Z Z

>  <atom.prop.IS_HEAVY_ATOM>  (1066) 
1 0 0 0 1 1 1 1 0 0 0 1 1 0 1 0 1 0 1 0 1 0

>  <DIFUSE_FUNC_ATOM>  (1066) 
atom 6   atom 7   

>  <FINAL_SINGLE_POINT_ENERGY>  (1066) 
0

>  <NONCOV_INTER_ENERGY_QM>  (1066) 
0

>  <FF_Energy>  (1066) 
-0.84

>  <QM_Energy>  (1066) 
-6.01

>  <source>  (1066) 
ACET_MBZ_00

>  <Index>  (1066) 
39223

$$$$
ACET-pdb1u2e-A-GLU-254:MBZ-pdb1u2e-C-PHE-2258
     RDKit          3D

 22 21  0  0  0  0  0  0  0  0999 V2000
   -3.8099    1.1410   -2.3405 C   0  0  0  0  0  0  0  0  0  0  0  0
   -2.9362    1.5117   -2.0792 H   0  0  0  0  0  0  0  0  0  0  0  0
   -4.5578    1.6871   -2.0051 H   0  0  0  0  0  0  0  0  0  0  0  0
   -3.8611    1.1172   -3.4290 H   0  0  0  0  0  0  0  0  0  0  0  0
   -3.9299   -0.2321   -1.7097 C   0  0  0  0  0  0  0  0  0  0  0  0
   -3.5442   -1.2321   -2.3546 O   0  0  0  0  0  1  0  0  0  0  0  0
   -4.3945   -0.3082   -0.5547 O   0  0  0  0  0  0  0  0  0  0  0  0
    0.0047    2.8933   -0.0493 C   0  0  0  0  0  0  0  0  0  0  0  0
    0.9022    3.2106    0.2230 H   0  0  0  0  0  0  0  0  0  0  0  0
   -0.6939    3.2244    0.5695 H   0  0  0  0  0  0  0  0  0  0  0  0
   -0.2064    3.3043   -1.0364 H   0  0  0  0  0  0  0  0  0  0  0  0
    0.0021    1.3990   -0.0009 C   0  0  0  0  0  0  0  0  0  0  0  0
   -1.1954    0.6921    0.0016 C   0  0  0  0  0  0  0  0  0  0  0  0
   -2.0612    1.1854    0.0035 H   0  0  0  0  0  0  0  0  0  0  0  0
   -1.2015   -0.6936    0.0000 C   0  0  0  0  0  0  0  0  0  0  0  0
   -2.0809   -1.1873    0.0014 H   0  0  0  0  0  0  0  0  0  0  0  0
   -0.0053   -1.3919   -0.0011 C   0  0  0  0  0  0  0  0  0  0  0  0
   -0.0093   -2.3904   -0.0029 H   0  0  0  0  0  0  0  0  0  0  0  0
    1.2015   -0.6981    0.0000 C   0  0  0  0  0  0  0  0  0  0  0  0
    2.0796   -1.1989    0.0016 H   0  0  0  0  0  0  0  0  0  0  0  0
    1.1986    0.6925    0.0004 C   0  0  0  0  0  0  0  0  0  0  0  0
    2.0663    1.1887    0.0010 H   0  0  0  0  0  0  0  0  0  0  0  0
  1  5  1  0
  5  6  1  0
  5  7  2  0
  1  2  1  0
  1  3  1  0
  1  4  1  0
  8 12  1  0
 12 13  2  0
 13 15  1  0
 15 17  2  0
 17 19  1  0
 19 21  2  0
 21 12  1  0
  8  9  1  0
  8 10  1  0
  8 11  1  0
 13 14  1  0
 15 16  1  0
 17 18  1  0
 19 20  1  0
 21 22  1  0
M  CHG  1   6  -1
M  END
>  <PDB_ID>  (1067) 
pdb1u2e

>  <RESIDUE_NAME>  (1067) 
GLU   PHE

>  <FRAG_NAME>  (1067) 
ACET   MBZ

>  <FRAG_ATOM_NUM>  (1067) 
fragi: 7  fragj: 15

>  <atom.prop.CHAIN_ID>  (1067) 
A A A A A A A Z Z Z Z Z Z Z Z Z Z Z Z Z Z Z

>  <atom.prop.IS_HEAVY_ATOM>  (1067) 
1 0 0 0 1 1 1 1 0 0 0 1 1 0 1 0 1 0 1 0 1 0

>  <DIFUSE_FUNC_ATOM>  (1067) 
atom 6   atom 7   

>  <FINAL_SINGLE_POINT_ENERGY>  (1067) 
0

>  <NONCOV_INTER_ENERGY_QM>  (1067) 
0

>  <FF_Energy>  (1067) 
-1.53

>  <QM_Energy>  (1067) 
-6.71

>  <source>  (1067) 
ACET_MBZ_00

>  <Index>  (1067) 
39225

$$$$
ACET-pdb1u04-A-ASP-619:MBZ-pdb1u04-A-PHE-646
     RDKit          3D

 22 21  0  0  0  0  0  0  0  0999 V2000
   -2.7210    3.8813    1.3964 C   0  0  0  0  0  0  0  0  0  0  0  0
   -2.8395    4.3924    0.5504 H   0  0  0  0  0  0  0  0  0  0  0  0
   -2.0601    3.1489    1.2646 H   0  0  0  0  0  0  0  0  0  0  0  0
   -2.3136    4.5653    2.1409 H   0  0  0  0  0  0  0  0  0  0  0  0
   -4.0447    3.2844    1.8012 C   0  0  0  0  0  0  0  0  0  0  0  0
   -4.1619    2.8019    2.9463 O   0  0  0  0  0  1  0  0  0  0  0  0
   -4.9646    3.2841    0.9584 O   0  0  0  0  0  0  0  0  0  0  0  0
    0.0052    2.9062   -0.0139 C   0  0  0  0  0  0  0  0  0  0  0  0
    0.9149    3.2126    0.2284 H   0  0  0  0  0  0  0  0  0  0  0  0
   -0.6652    3.2224    0.6416 H   0  0  0  0  0  0  0  0  0  0  0  0
   -0.2453    3.3422   -0.9809 H   0  0  0  0  0  0  0  0  0  0  0  0
   -0.0008    1.4051    0.0000 C   0  0  0  0  0  0  0  0  0  0  0  0
   -1.1987    0.7009    0.0001 C   0  0  0  0  0  0  0  0  0  0  0  0
   -2.0651    1.1871   -0.0014 H   0  0  0  0  0  0  0  0  0  0  0  0
   -1.2052   -0.6999    0.0000 C   0  0  0  0  0  0  0  0  0  0  0  0
   -2.0800   -1.1898    0.0019 H   0  0  0  0  0  0  0  0  0  0  0  0
    0.0022   -1.4003   -0.0006 C   0  0  0  0  0  0  0  0  0  0  0  0
   -0.0024   -2.3957   -0.0020 H   0  0  0  0  0  0  0  0  0  0  0  0
    1.2052   -0.6988    0.0000 C   0  0  0  0  0  0  0  0  0  0  0  0
    2.0863   -1.1946    0.0015 H   0  0  0  0  0  0  0  0  0  0  0  0
    1.1973    0.6929    0.0004 C   0  0  0  0  0  0  0  0  0  0  0  0
    2.0652    1.1912    0.0005 H   0  0  0  0  0  0  0  0  0  0  0  0
  1  5  1  0
  5  6  1  0
  5  7  2  0
  1  2  1  0
  1  3  1  0
  1  4  1  0
  8 12  1  0
 12 13  2  0
 13 15  1  0
 15 17  2  0
 17 19  1  0
 19 21  2  0
 21 12  1  0
  8  9  1  0
  8 10  1  0
  8 11  1  0
 13 14  1  0
 15 16  1  0
 17 18  1  0
 19 20  1  0
 21 22  1  0
M  CHG  1   6  -1
M  END
>  <PDB_ID>  (1068) 
pdb1u04

>  <RESIDUE_NAME>  (1068) 
ASP   PHE

>  <FRAG_NAME>  (1068) 
ACET   MBZ

>  <FRAG_ATOM_NUM>  (1068) 
fragi: 7  fragj: 15

>  <atom.prop.CHAIN_ID>  (1068) 
A A A A A A A Z Z Z Z Z Z Z Z Z Z Z Z Z Z Z

>  <atom.prop.IS_HEAVY_ATOM>  (1068) 
1 0 0 0 1 1 1 1 0 0 0 1 1 0 1 0 1 0 1 0 1 0

>  <DIFUSE_FUNC_ATOM>  (1068) 
atom 6   atom 7   

>  <FINAL_SINGLE_POINT_ENERGY>  (1068) 
0

>  <NONCOV_INTER_ENERGY_QM>  (1068) 
0

>  <FF_Energy>  (1068) 
23.14

>  <QM_Energy>  (1068) 
1.78

>  <source>  (1068) 
ACET_MBZ_00

>  <Index>  (1068) 
39262

$$$$
ACET-pdb2zxk-B-ASP-168:MBZ-pdb2zxk-B-PHE-218
     RDKit          3D

 22 21  0  0  0  0  0  0  0  0999 V2000
    4.2487    0.9600   -1.7855 C   0  0  0  0  0  0  0  0  0  0  0  0
    3.5683    1.0101   -2.5003 H   0  0  0  0  0  0  0  0  0  0  0  0
    4.0591    0.2206   -1.1586 H   0  0  0  0  0  0  0  0  0  0  0  0
    5.2194    0.7795   -2.2472 H   0  0  0  0  0  0  0  0  0  0  0  0
    4.1872    2.3036   -0.9733 C   0  0  0  0  0  0  0  0  0  0  0  0
    4.7629    3.3265   -1.4023 O   0  0  0  0  0  1  0  0  0  0  0  0
    3.5338    2.3564    0.0945 O   0  0  0  0  0  0  0  0  0  0  0  0
   -0.0054    2.8913    0.0314 C   0  0  0  0  0  0  0  0  0  0  0  0
   -0.9373    3.1989   -0.0555 H   0  0  0  0  0  0  0  0  0  0  0  0
    0.5599    3.2165   -0.7074 H   0  0  0  0  0  0  0  0  0  0  0  0
    0.3954    3.2936    0.9618 H   0  0  0  0  0  0  0  0  0  0  0  0
   -0.0031    1.3933   -0.0026 C   0  0  0  0  0  0  0  0  0  0  0  0
   -1.1994    0.6866    0.0053 C   0  0  0  0  0  0  0  0  0  0  0  0
   -2.0658    1.1852    0.0140 H   0  0  0  0  0  0  0  0  0  0  0  0
   -1.2156   -0.6974    0.0000 C   0  0  0  0  0  0  0  0  0  0  0  0
   -2.0770   -1.1981   -0.0058 H   0  0  0  0  0  0  0  0  0  0  0  0
    0.0100   -1.3905    0.0042 C   0  0  0  0  0  0  0  0  0  0  0  0
    0.0066   -2.3883    0.0094 H   0  0  0  0  0  0  0  0  0  0  0  0
    1.2156   -0.6874    0.0000 C   0  0  0  0  0  0  0  0  0  0  0  0
    2.0933   -1.1816    0.0033 H   0  0  0  0  0  0  0  0  0  0  0  0
    1.1925    0.6955   -0.0069 C   0  0  0  0  0  0  0  0  0  0  0  0
    2.0597    1.2041   -0.0159 H   0  0  0  0  0  0  0  0  0  0  0  0
  1  5  1  0
  5  6  1  0
  5  7  2  0
  1  2  1  0
  1  3  1  0
  1  4  1  0
  8 12  1  0
 12 13  2  0
 13 15  1  0
 15 17  2  0
 17 19  1  0
 19 21  2  0
 21 12  1  0
  8  9  1  0
  8 10  1  0
  8 11  1  0
 13 14  1  0
 15 16  1  0
 17 18  1  0
 19 20  1  0
 21 22  1  0
M  CHG  1   6  -1
M  END
>  <PDB_ID>  (1069) 
pdb2zxk

>  <RESIDUE_NAME>  (1069) 
ASP   PHE

>  <FRAG_NAME>  (1069) 
ACET   MBZ

>  <FRAG_ATOM_NUM>  (1069) 
fragi: 7  fragj: 15

>  <atom.prop.CHAIN_ID>  (1069) 
A A A A A A A Z Z Z Z Z Z Z Z Z Z Z Z Z Z Z

>  <atom.prop.IS_HEAVY_ATOM>  (1069) 
1 0 0 0 1 1 1 1 0 0 0 1 1 0 1 0 1 0 1 0 1 0

>  <DIFUSE_FUNC_ATOM>  (1069) 
atom 6   atom 7   

>  <FINAL_SINGLE_POINT_ENERGY>  (1069) 
0

>  <NONCOV_INTER_ENERGY_QM>  (1069) 
0

>  <FF_Energy>  (1069) 
16.85

>  <QM_Energy>  (1069) 
-5.96

>  <source>  (1069) 
ACET_MBZ_00

>  <Index>  (1069) 
39272

$$$$
ACET-pdb2zxi-A-ASP-128:MBZ-pdb2zxi-A-PHE-187
     RDKit          3D

 22 21  0  0  0  0  0  0  0  0999 V2000
   -2.5453    4.5211   -3.9835 C   0  0  0  0  0  0  0  0  0  0  0  0
   -2.4184    5.4764   -3.7391 H   0  0  0  0  0  0  0  0  0  0  0  0
   -3.0666    4.4450   -4.8251 H   0  0  0  0  0  0  0  0  0  0  0  0
   -1.5610    4.0866   -4.1582 H   0  0  0  0  0  0  0  0  0  0  0  0
   -3.3150    3.8299   -2.8675 C   0  0  0  0  0  0  0  0  0  0  0  0
   -2.6804    3.3174   -1.9175 O   0  0  0  0  0  1  0  0  0  0  0  0
   -4.5643    3.8206   -2.9331 O   0  0  0  0  0  0  0  0  0  0  0  0
    0.0079    2.8928    0.0536 C   0  0  0  0  0  0  0  0  0  0  0  0
   -0.6636    3.2280   -0.5910 H   0  0  0  0  0  0  0  0  0  0  0  0
    0.9170    3.2070   -0.1786 H   0  0  0  0  0  0  0  0  0  0  0  0
   -0.2427    3.2935    1.0358 H   0  0  0  0  0  0  0  0  0  0  0  0
    0.0017    1.4010    0.0003 C   0  0  0  0  0  0  0  0  0  0  0  0
   -1.1948    0.6974   -0.0010 C   0  0  0  0  0  0  0  0  0  0  0  0
   -2.0609    1.1881   -0.0038 H   0  0  0  0  0  0  0  0  0  0  0  0
   -1.2049   -0.6968    0.0000 C   0  0  0  0  0  0  0  0  0  0  0  0
   -2.0825   -1.1855    0.0008 H   0  0  0  0  0  0  0  0  0  0  0  0
   -0.0057   -1.3957    0.0014 C   0  0  0  0  0  0  0  0  0  0  0  0
   -0.0076   -2.3924    0.0032 H   0  0  0  0  0  0  0  0  0  0  0  0
    1.2049   -0.6980   -0.0000 C   0  0  0  0  0  0  0  0  0  0  0  0
    2.0814   -1.1988    0.0013 H   0  0  0  0  0  0  0  0  0  0  0  0
    1.1988    0.6922   -0.0008 C   0  0  0  0  0  0  0  0  0  0  0  0
    2.0667    1.1901   -0.0031 H   0  0  0  0  0  0  0  0  0  0  0  0
  1  5  1  0
  5  6  1  0
  5  7  2  0
  1  2  1  0
  1  3  1  0
  1  4  1  0
  8 12  1  0
 12 13  2  0
 13 15  1  0
 15 17  2  0
 17 19  1  0
 19 21  2  0
 21 12  1  0
  8  9  1  0
  8 10  1  0
  8 11  1  0
 13 14  1  0
 15 16  1  0
 17 18  1  0
 19 20  1  0
 21 22  1  0
M  CHG  1   6  -1
M  END
>  <PDB_ID>  (1070) 
pdb2zxi

>  <RESIDUE_NAME>  (1070) 
ASP   PHE

>  <FRAG_NAME>  (1070) 
ACET   MBZ

>  <FRAG_ATOM_NUM>  (1070) 
fragi: 7  fragj: 15

>  <atom.prop.CHAIN_ID>  (1070) 
A A A A A A A Z Z Z Z Z Z Z Z Z Z Z Z Z Z Z

>  <atom.prop.IS_HEAVY_ATOM>  (1070) 
1 0 0 0 1 1 1 1 0 0 0 1 1 0 1 0 1 0 1 0 1 0

>  <DIFUSE_FUNC_ATOM>  (1070) 
atom 6   atom 7   

>  <FINAL_SINGLE_POINT_ENERGY>  (1070) 
0

>  <NONCOV_INTER_ENERGY_QM>  (1070) 
0

>  <FF_Energy>  (1070) 
-0.99

>  <QM_Energy>  (1070) 
-6.74

>  <source>  (1070) 
ACET_MBZ_00

>  <Index>  (1070) 
39275

$$$$
ACET-pdb2zxi-B-ASP-76:MBZ-pdb2zxi-B-PHE-228
     RDKit          3D

 22 21  0  0  0  0  0  0  0  0999 V2000
   -4.3055    5.7672   -1.4356 C   0  0  0  0  0  0  0  0  0  0  0  0
   -3.7660    6.3481   -2.0344 H   0  0  0  0  0  0  0  0  0  0  0  0
   -5.0738    6.2714   -1.0613 H   0  0  0  0  0  0  0  0  0  0  0  0
   -4.6992    4.9430   -2.0305 H   0  0  0  0  0  0  0  0  0  0  0  0
   -3.4310    5.2923   -0.2978 C   0  0  0  0  0  0  0  0  0  0  0  0
   -2.9815    4.1257   -0.3372 O   0  0  0  0  0  1  0  0  0  0  0  0
   -3.1846    6.0898    0.6332 O   0  0  0  0  0  0  0  0  0  0  0  0
    0.0068    2.8936    0.0482 C   0  0  0  0  0  0  0  0  0  0  0  0
   -0.7517    3.2248   -0.4926 H   0  0  0  0  0  0  0  0  0  0  0  0
    0.8707    3.2101   -0.3138 H   0  0  0  0  0  0  0  0  0  0  0  0
   -0.1003    3.2994    1.0542 H   0  0  0  0  0  0  0  0  0  0  0  0
   -0.0013    1.3994    0.0008 C   0  0  0  0  0  0  0  0  0  0  0  0
   -1.1967    0.6986   -0.0000 C   0  0  0  0  0  0  0  0  0  0  0  0
   -2.0627    1.1885   -0.0015 H   0  0  0  0  0  0  0  0  0  0  0  0
   -1.2029   -0.6922    0.0000 C   0  0  0  0  0  0  0  0  0  0  0  0
   -2.0784   -1.1875    0.0007 H   0  0  0  0  0  0  0  0  0  0  0  0
    0.0030   -1.3967    0.0006 C   0  0  0  0  0  0  0  0  0  0  0  0
   -0.0070   -2.3922    0.0014 H   0  0  0  0  0  0  0  0  0  0  0  0
    1.2029   -0.7010   -0.0000 C   0  0  0  0  0  0  0  0  0  0  0  0
    2.0851   -1.1960    0.0022 H   0  0  0  0  0  0  0  0  0  0  0  0
    1.1951    0.6919   -0.0013 C   0  0  0  0  0  0  0  0  0  0  0  0
    2.0638    1.1888   -0.0052 H   0  0  0  0  0  0  0  0  0  0  0  0
  1  5  1  0
  5  6  1  0
  5  7  2  0
  1  2  1  0
  1  3  1  0
  1  4  1  0
  8 12  1  0
 12 13  2  0
 13 15  1  0
 15 17  2  0
 17 19  1  0
 19 21  2  0
 21 12  1  0
  8  9  1  0
  8 10  1  0
  8 11  1  0
 13 14  1  0
 15 16  1  0
 17 18  1  0
 19 20  1  0
 21 22  1  0
M  CHG  1   6  -1
M  END
>  <PDB_ID>  (1071) 
pdb2zxi

>  <RESIDUE_NAME>  (1071) 
ASP   PHE

>  <FRAG_NAME>  (1071) 
ACET   MBZ

>  <FRAG_ATOM_NUM>  (1071) 
fragi: 7  fragj: 15

>  <atom.prop.CHAIN_ID>  (1071) 
A A A A A A A Z Z Z Z Z Z Z Z Z Z Z Z Z Z Z

>  <atom.prop.IS_HEAVY_ATOM>  (1071) 
1 0 0 0 1 1 1 1 0 0 0 1 1 0 1 0 1 0 1 0 1 0

>  <DIFUSE_FUNC_ATOM>  (1071) 
atom 6   atom 7   

>  <FINAL_SINGLE_POINT_ENERGY>  (1071) 
0

>  <NONCOV_INTER_ENERGY_QM>  (1071) 
0

>  <FF_Energy>  (1071) 
-1.53

>  <QM_Energy>  (1071) 
-6.75

>  <source>  (1071) 
ACET_MBZ_00

>  <Index>  (1071) 
39287

$$$$
ACET-pdb2zxi-C-ASP-128:MBZ-pdb2zxi-C-PHE-187
     RDKit          3D

 22 21  0  0  0  0  0  0  0  0999 V2000
   -2.7706    4.6297   -3.8039 C   0  0  0  0  0  0  0  0  0  0  0  0
   -2.6311    5.5770   -3.5371 H   0  0  0  0  0  0  0  0  0  0  0  0
   -3.3474    4.5777   -4.6111 H   0  0  0  0  0  0  0  0  0  0  0  0
   -1.7989    4.2051   -4.0564 H   0  0  0  0  0  0  0  0  0  0  0  0
   -3.4565    3.8981   -2.6651 C   0  0  0  0  0  0  0  0  0  0  0  0
   -2.7728    3.1576   -1.9213 O   0  0  0  0  0  1  0  0  0  0  0  0
   -4.6813    4.0834   -2.5082 O   0  0  0  0  0  0  0  0  0  0  0  0
    0.0085    2.8983    0.0499 C   0  0  0  0  0  0  0  0  0  0  0  0
   -0.6807    3.2304   -0.5765 H   0  0  0  0  0  0  0  0  0  0  0  0
    0.9107    3.2094   -0.2110 H   0  0  0  0  0  0  0  0  0  0  0  0
   -0.2124    3.3047    1.0369 H   0  0  0  0  0  0  0  0  0  0  0  0
   -0.0000    1.4009   -0.0000 C   0  0  0  0  0  0  0  0  0  0  0  0
   -1.1957    0.6976   -0.0006 C   0  0  0  0  0  0  0  0  0  0  0  0
   -2.0622    1.1882   -0.0024 H   0  0  0  0  0  0  0  0  0  0  0  0
   -1.2028   -0.6933   -0.0000 C   0  0  0  0  0  0  0  0  0  0  0  0
   -2.0798   -1.1862   -0.0001 H   0  0  0  0  0  0  0  0  0  0  0  0
   -0.0004   -1.3946    0.0020 C   0  0  0  0  0  0  0  0  0  0  0  0
   -0.0075   -2.3915    0.0043 H   0  0  0  0  0  0  0  0  0  0  0  0
    1.2028   -0.6994   -0.0000 C   0  0  0  0  0  0  0  0  0  0  0  0
    2.0817   -1.1985    0.0015 H   0  0  0  0  0  0  0  0  0  0  0  0
    1.1962    0.6888   -0.0013 C   0  0  0  0  0  0  0  0  0  0  0  0
    2.0655    1.1875   -0.0042 H   0  0  0  0  0  0  0  0  0  0  0  0
  1  5  1  0
  5  6  1  0
  5  7  2  0
  1  2  1  0
  1  3  1  0
  1  4  1  0
  8 12  1  0
 12 13  2  0
 13 15  1  0
 15 17  2  0
 17 19  1  0
 19 21  2  0
 21 12  1  0
  8  9  1  0
  8 10  1  0
  8 11  1  0
 13 14  1  0
 15 16  1  0
 17 18  1  0
 19 20  1  0
 21 22  1  0
M  CHG  1   6  -1
M  END
>  <PDB_ID>  (1072) 
pdb2zxi

>  <RESIDUE_NAME>  (1072) 
ASP   PHE

>  <FRAG_NAME>  (1072) 
ACET   MBZ

>  <FRAG_ATOM_NUM>  (1072) 
fragi: 7  fragj: 15

>  <atom.prop.CHAIN_ID>  (1072) 
A A A A A A A Z Z Z Z Z Z Z Z Z Z Z Z Z Z Z

>  <atom.prop.IS_HEAVY_ATOM>  (1072) 
1 0 0 0 1 1 1 1 0 0 0 1 1 0 1 0 1 0 1 0 1 0

>  <DIFUSE_FUNC_ATOM>  (1072) 
atom 6   atom 7   

>  <FINAL_SINGLE_POINT_ENERGY>  (1072) 
0

>  <NONCOV_INTER_ENERGY_QM>  (1072) 
0

>  <FF_Energy>  (1072) 
-1.17

>  <QM_Energy>  (1072) 
-6.74

>  <source>  (1072) 
ACET_MBZ_00

>  <Index>  (1072) 
39291

$$$$
ACET-pdb1u0u-B-GLU-182:MBZ-pdb1u0u-B-PHE-18
     RDKit          3D

 22 21  0  0  0  0  0  0  0  0999 V2000
    5.1389    3.8685    2.2103 C   0  0  0  0  0  0  0  0  0  0  0  0
    4.2815    4.2227    2.5332 H   0  0  0  0  0  0  0  0  0  0  0  0
    5.6374    4.5241    1.6758 H   0  0  0  0  0  0  0  0  0  0  0  0
    5.7445    3.6099    3.0788 H   0  0  0  0  0  0  0  0  0  0  0  0
    4.8483    2.6779    1.3313 C   0  0  0  0  0  0  0  0  0  0  0  0
    5.7369    1.8007    1.2129 O   0  0  0  0  0  1  0  0  0  0  0  0
    3.7401    2.6209    0.7477 O   0  0  0  0  0  0  0  0  0  0  0  0
    0.0088    2.8859    0.0401 C   0  0  0  0  0  0  0  0  0  0  0  0
   -0.9299    3.2020    0.0646 H   0  0  0  0  0  0  0  0  0  0  0  0
    0.4744    3.2169   -0.7695 H   0  0  0  0  0  0  0  0  0  0  0  0
    0.5200    3.3022    0.9081 H   0  0  0  0  0  0  0  0  0  0  0  0
    0.0004    1.3968    0.0001 C   0  0  0  0  0  0  0  0  0  0  0  0
   -1.1985    0.6977   -0.0022 C   0  0  0  0  0  0  0  0  0  0  0  0
   -2.0625    1.1871   -0.0066 H   0  0  0  0  0  0  0  0  0  0  0  0
   -1.2044   -0.6963    0.0000 C   0  0  0  0  0  0  0  0  0  0  0  0
   -2.0783   -1.1897   -0.0000 H   0  0  0  0  0  0  0  0  0  0  0  0
    0.0027   -1.3937    0.0041 C   0  0  0  0  0  0  0  0  0  0  0  0
   -0.0012   -2.3905    0.0093 H   0  0  0  0  0  0  0  0  0  0  0  0
    1.2044   -0.6945   -0.0000 C   0  0  0  0  0  0  0  0  0  0  0  0
    2.0850   -1.1932   -0.0001 H   0  0  0  0  0  0  0  0  0  0  0  0
    1.1954    0.6899   -0.0020 C   0  0  0  0  0  0  0  0  0  0  0  0
    2.0640    1.1909   -0.0057 H   0  0  0  0  0  0  0  0  0  0  0  0
  1  5  1  0
  5  6  1  0
  5  7  2  0
  1  2  1  0
  1  3  1  0
  1  4  1  0
  8 12  1  0
 12 13  2  0
 13 15  1  0
 15 17  2  0
 17 19  1  0
 19 21  2  0
 21 12  1  0
  8  9  1  0
  8 10  1  0
  8 11  1  0
 13 14  1  0
 15 16  1  0
 17 18  1  0
 19 20  1  0
 21 22  1  0
M  CHG  1   6  -1
M  END
>  <PDB_ID>  (1073) 
pdb1u0u

>  <RESIDUE_NAME>  (1073) 
GLU   PHE

>  <FRAG_NAME>  (1073) 
ACET   MBZ

>  <FRAG_ATOM_NUM>  (1073) 
fragi: 7  fragj: 15

>  <atom.prop.CHAIN_ID>  (1073) 
A A A A A A A Z Z Z Z Z Z Z Z Z Z Z Z Z Z Z

>  <atom.prop.IS_HEAVY_ATOM>  (1073) 
1 0 0 0 1 1 1 1 0 0 0 1 1 0 1 0 1 0 1 0 1 0

>  <DIFUSE_FUNC_ATOM>  (1073) 
atom 6   atom 7   

>  <FINAL_SINGLE_POINT_ENERGY>  (1073) 
0

>  <NONCOV_INTER_ENERGY_QM>  (1073) 
0

>  <FF_Energy>  (1073) 
-1.74

>  <QM_Energy>  (1073) 
-7.19

>  <source>  (1073) 
ACET_MBZ_00

>  <Index>  (1073) 
39380

$$$$
ACET-pdb1u5w-E-ASP-83:MBZ-pdb1u5w-E-PHE-88
     RDKit          3D

 22 21  0  0  0  0  0  0  0  0999 V2000
    3.6877   -2.6918   -0.9023 C   0  0  0  0  0  0  0  0  0  0  0  0
    2.9835   -3.2366   -0.4581 H   0  0  0  0  0  0  0  0  0  0  0  0
    3.3883   -1.7486   -0.9964 H   0  0  0  0  0  0  0  0  0  0  0  0
    4.5716   -2.7011   -0.2647 H   0  0  0  0  0  0  0  0  0  0  0  0
    3.9443   -3.2640   -2.2875 C   0  0  0  0  0  0  0  0  0  0  0  0
    4.5211   -4.3740   -2.3957 O   0  0  0  0  0  1  0  0  0  0  0  0
    3.5487   -2.6010   -3.2749 O   0  0  0  0  0  0  0  0  0  0  0  0
   -0.0013    2.9011    0.0939 C   0  0  0  0  0  0  0  0  0  0  0  0
   -0.8241    3.2355   -0.3355 H   0  0  0  0  0  0  0  0  0  0  0  0
    0.8087    3.2378   -0.3570 H   0  0  0  0  0  0  0  0  0  0  0  0
    0.0123    3.2667    1.1207 H   0  0  0  0  0  0  0  0  0  0  0  0
   -0.0012    1.4047    0.0008 C   0  0  0  0  0  0  0  0  0  0  0  0
   -1.1951    0.6935   -0.0013 C   0  0  0  0  0  0  0  0  0  0  0  0
   -2.0636    1.1841   -0.0046 H   0  0  0  0  0  0  0  0  0  0  0  0
   -1.2029   -0.6985   -0.0000 C   0  0  0  0  0  0  0  0  0  0  0  0
   -2.0794   -1.1899    0.0003 H   0  0  0  0  0  0  0  0  0  0  0  0
   -0.0008   -1.3982    0.0028 C   0  0  0  0  0  0  0  0  0  0  0  0
   -0.0057   -2.3952    0.0060 H   0  0  0  0  0  0  0  0  0  0  0  0
    1.2029   -0.7000   -0.0000 C   0  0  0  0  0  0  0  0  0  0  0  0
    2.0836   -1.1946    0.0011 H   0  0  0  0  0  0  0  0  0  0  0  0
    1.1972    0.6984   -0.0023 C   0  0  0  0  0  0  0  0  0  0  0  0
    2.0643    1.1925   -0.0071 H   0  0  0  0  0  0  0  0  0  0  0  0
  1  5  1  0
  5  6  1  0
  5  7  2  0
  1  2  1  0
  1  3  1  0
  1  4  1  0
  8 12  1  0
 12 13  2  0
 13 15  1  0
 15 17  2  0
 17 19  1  0
 19 21  2  0
 21 12  1  0
  8  9  1  0
  8 10  1  0
  8 11  1  0
 13 14  1  0
 15 16  1  0
 17 18  1  0
 19 20  1  0
 21 22  1  0
M  CHG  1   6  -1
M  END
>  <PDB_ID>  (1074) 
pdb1u5w

>  <RESIDUE_NAME>  (1074) 
ASP   PHE

>  <FRAG_NAME>  (1074) 
ACET   MBZ

>  <FRAG_ATOM_NUM>  (1074) 
fragi: 7  fragj: 15

>  <atom.prop.CHAIN_ID>  (1074) 
A A A A A A A Z Z Z Z Z Z Z Z Z Z Z Z Z Z Z

>  <atom.prop.IS_HEAVY_ATOM>  (1074) 
1 0 0 0 1 1 1 1 0 0 0 1 1 0 1 0 1 0 1 0 1 0

>  <DIFUSE_FUNC_ATOM>  (1074) 
atom 6   atom 7   

>  <FINAL_SINGLE_POINT_ENERGY>  (1074) 
0

>  <NONCOV_INTER_ENERGY_QM>  (1074) 
0

>  <FF_Energy>  (1074) 
7.22

>  <QM_Energy>  (1074) 
1.02

>  <source>  (1074) 
ACET_MBZ_00

>  <Index>  (1074) 
39429

$$$$
ACET-pdb1u5w-F-ASP-83:MBZ-pdb1u5w-F-PHE-88
     RDKit          3D

 22 21  0  0  0  0  0  0  0  0999 V2000
    4.0599   -0.7953   -1.5105 C   0  0  0  0  0  0  0  0  0  0  0  0
    3.2375   -0.9064   -0.9646 H   0  0  0  0  0  0  0  0  0  0  0  0
    4.1470    0.1434   -1.8207 H   0  0  0  0  0  0  0  0  0  0  0  0
    4.9182   -1.0247   -0.8791 H   0  0  0  0  0  0  0  0  0  0  0  0
    3.9646   -1.7031   -2.7253 C   0  0  0  0  0  0  0  0  0  0  0  0
    3.0670   -1.4697   -3.5644 O   0  0  0  0  0  1  0  0  0  0  0  0
    4.7786   -2.6498   -2.8380 O   0  0  0  0  0  0  0  0  0  0  0  0
   -0.0033    2.8936    0.0681 C   0  0  0  0  0  0  0  0  0  0  0  0
   -0.8151    3.2224   -0.3892 H   0  0  0  0  0  0  0  0  0  0  0  0
    0.8183    3.2252   -0.3698 H   0  0  0  0  0  0  0  0  0  0  0  0
   -0.0160    3.2820    1.0865 H   0  0  0  0  0  0  0  0  0  0  0  0
   -0.0003    1.3996    0.0000 C   0  0  0  0  0  0  0  0  0  0  0  0
   -1.1934    0.6904   -0.0013 C   0  0  0  0  0  0  0  0  0  0  0  0
   -2.0615    1.1825   -0.0047 H   0  0  0  0  0  0  0  0  0  0  0  0
   -1.1997   -0.6945    0.0000 C   0  0  0  0  0  0  0  0  0  0  0  0
   -2.0770   -1.1891    0.0005 H   0  0  0  0  0  0  0  0  0  0  0  0
   -0.0011   -1.3923    0.0026 C   0  0  0  0  0  0  0  0  0  0  0  0
   -0.0060   -2.3913    0.0058 H   0  0  0  0  0  0  0  0  0  0  0  0
    1.1997   -0.6981   -0.0000 C   0  0  0  0  0  0  0  0  0  0  0  0
    2.0806   -1.1942    0.0011 H   0  0  0  0  0  0  0  0  0  0  0  0
    1.1948    0.6948   -0.0013 C   0  0  0  0  0  0  0  0  0  0  0  0
    2.0636    1.1899   -0.0039 H   0  0  0  0  0  0  0  0  0  0  0  0
  1  5  1  0
  5  6  1  0
  5  7  2  0
  1  2  1  0
  1  3  1  0
  1  4  1  0
  8 12  1  0
 12 13  2  0
 13 15  1  0
 15 17  2  0
 17 19  1  0
 19 21  2  0
 21 12  1  0
  8  9  1  0
  8 10  1  0
  8 11  1  0
 13 14  1  0
 15 16  1  0
 17 18  1  0
 19 20  1  0
 21 22  1  0
M  CHG  1   6  -1
M  END
>  <PDB_ID>  (1075) 
pdb1u5w

>  <RESIDUE_NAME>  (1075) 
ASP   PHE

>  <FRAG_NAME>  (1075) 
ACET   MBZ

>  <FRAG_ATOM_NUM>  (1075) 
fragi: 7  fragj: 15

>  <atom.prop.CHAIN_ID>  (1075) 
A A A A A A A Z Z Z Z Z Z Z Z Z Z Z Z Z Z Z

>  <atom.prop.IS_HEAVY_ATOM>  (1075) 
1 0 0 0 1 1 1 1 0 0 0 1 1 0 1 0 1 0 1 0 1 0

>  <DIFUSE_FUNC_ATOM>  (1075) 
atom 6   atom 7   

>  <FINAL_SINGLE_POINT_ENERGY>  (1075) 
0

>  <NONCOV_INTER_ENERGY_QM>  (1075) 
0

>  <FF_Energy>  (1075) 
-2.03

>  <QM_Energy>  (1075) 
3.89

>  <source>  (1075) 
ACET_MBZ_00

>  <Index>  (1075) 
39430

$$$$
ACET-pdb1u5w-C-GLU-52:MBZ-pdb1u5w-B-PHE-49
     RDKit          3D

 22 21  0  0  0  0  0  0  0  0999 V2000
   -1.0598    1.2789   -3.0419 C   0  0  0  0  0  0  0  0  0  0  0  0
   -2.0015    1.2849   -2.7434 H   0  0  0  0  0  0  0  0  0  0  0  0
   -0.4643    0.9041   -2.3483 H   0  0  0  0  0  0  0  0  0  0  0  0
   -0.9830    0.6629   -3.9378 H   0  0  0  0  0  0  0  0  0  0  0  0
   -0.6462    2.7309   -3.2521 C   0  0  0  0  0  0  0  0  0  0  0  0
   -1.5291    3.6032   -3.1472 O   0  0  0  0  0  1  0  0  0  0  0  0
    0.5500    2.9999   -3.5157 O   0  0  0  0  0  0  0  0  0  0  0  0
    0.0094    2.9280   -0.0259 C   0  0  0  0  0  0  0  0  0  0  0  0
   -0.7090    3.2248   -0.6371 H   0  0  0  0  0  0  0  0  0  0  0  0
    0.8981    3.2220   -0.3475 H   0  0  0  0  0  0  0  0  0  0  0  0
   -0.1645    3.4000    0.9411 H   0  0  0  0  0  0  0  0  0  0  0  0
    0.0021    1.4116   -0.0003 C   0  0  0  0  0  0  0  0  0  0  0  0
   -1.1973    0.6983    0.0012 C   0  0  0  0  0  0  0  0  0  0  0  0
   -2.0656    1.1881    0.0020 H   0  0  0  0  0  0  0  0  0  0  0  0
   -1.2105   -0.7033    0.0000 C   0  0  0  0  0  0  0  0  0  0  0  0
   -2.0865   -1.1898    0.0009 H   0  0  0  0  0  0  0  0  0  0  0  0
   -0.0049   -1.4067   -0.0006 C   0  0  0  0  0  0  0  0  0  0  0  0
   -0.0059   -2.4001   -0.0015 H   0  0  0  0  0  0  0  0  0  0  0  0
    1.2105   -0.7017    0.0000 C   0  0  0  0  0  0  0  0  0  0  0  0
    2.0867   -1.1960    0.0025 H   0  0  0  0  0  0  0  0  0  0  0  0
    1.2001    0.7018   -0.0004 C   0  0  0  0  0  0  0  0  0  0  0  0
    2.0690    1.1948   -0.0015 H   0  0  0  0  0  0  0  0  0  0  0  0
  1  5  1  0
  5  6  1  0
  5  7  2  0
  1  2  1  0
  1  3  1  0
  1  4  1  0
  8 12  1  0
 12 13  2  0
 13 15  1  0
 15 17  2  0
 17 19  1  0
 19 21  2  0
 21 12  1  0
  8  9  1  0
  8 10  1  0
  8 11  1  0
 13 14  1  0
 15 16  1  0
 17 18  1  0
 19 20  1  0
 21 22  1  0
M  CHG  1   6  -1
M  END
>  <PDB_ID>  (1076) 
pdb1u5w

>  <RESIDUE_NAME>  (1076) 
GLU   PHE

>  <FRAG_NAME>  (1076) 
ACET   MBZ

>  <FRAG_ATOM_NUM>  (1076) 
fragi: 7  fragj: 15

>  <atom.prop.CHAIN_ID>  (1076) 
A A A A A A A Z Z Z Z Z Z Z Z Z Z Z Z Z Z Z

>  <atom.prop.IS_HEAVY_ATOM>  (1076) 
1 0 0 0 1 1 1 1 0 0 0 1 1 0 1 0 1 0 1 0 1 0

>  <DIFUSE_FUNC_ATOM>  (1076) 
atom 6   atom 7   

>  <FINAL_SINGLE_POINT_ENERGY>  (1076) 
0

>  <NONCOV_INTER_ENERGY_QM>  (1076) 
0

>  <FF_Energy>  (1076) 
3.43

>  <QM_Energy>  (1076) 
-3.26

>  <source>  (1076) 
ACET_MBZ_00

>  <Index>  (1076) 
39437

$$$$
ACET-pdb2zyz-A-GLU-6:MBZ-pdb2zyz-A-PHE-9
     RDKit          3D

 22 21  0  0  0  0  0  0  0  0999 V2000
    5.0053    4.2907   -0.6844 C   0  0  0  0  0  0  0  0  0  0  0  0
    5.8641    4.6744   -0.3681 H   0  0  0  0  0  0  0  0  0  0  0  0
    4.4027    5.0072   -1.0135 H   0  0  0  0  0  0  0  0  0  0  0  0
    5.2035    3.5871   -1.4930 H   0  0  0  0  0  0  0  0  0  0  0  0
    4.3192    3.6826    0.5540 C   0  0  0  0  0  0  0  0  0  0  0  0
    3.7056    4.4561    1.2974 O   0  0  0  0  0  1  0  0  0  0  0  0
    4.4109    2.4685    0.8050 O   0  0  0  0  0  0  0  0  0  0  0  0
    0.0041    2.8366    0.0406 C   0  0  0  0  0  0  0  0  0  0  0  0
    0.9282    3.1519   -0.1415 H   0  0  0  0  0  0  0  0  0  0  0  0
   -0.2932    3.1295    0.9423 H   0  0  0  0  0  0  0  0  0  0  0  0
   -0.6511    3.3140   -0.6882 H   0  0  0  0  0  0  0  0  0  0  0  0
   -0.0041    1.3531    0.0004 C   0  0  0  0  0  0  0  0  0  0  0  0
   -1.1388    0.6640    0.0090 C   0  0  0  0  0  0  0  0  0  0  0  0
   -2.0283    1.1551    0.0212 H   0  0  0  0  0  0  0  0  0  0  0  0
   -1.1245   -0.6593   -0.0000 C   0  0  0  0  0  0  0  0  0  0  0  0
   -2.0296   -1.1676    0.0076 H   0  0  0  0  0  0  0  0  0  0  0  0
    0.0044   -1.3231   -0.0165 C   0  0  0  0  0  0  0  0  0  0  0  0
   -0.0194   -2.3531   -0.0427 H   0  0  0  0  0  0  0  0  0  0  0  0
    1.1245   -0.6902    0.0000 C   0  0  0  0  0  0  0  0  0  0  0  0
    2.0349   -1.1879    0.0095 H   0  0  0  0  0  0  0  0  0  0  0  0
    1.1384    0.6554    0.0071 C   0  0  0  0  0  0  0  0  0  0  0  0
    2.0286    1.1447    0.0170 H   0  0  0  0  0  0  0  0  0  0  0  0
  1  5  1  0
  5  6  1  0
  5  7  2  0
  1  2  1  0
  1  3  1  0
  1  4  1  0
  8 12  1  0
 12 13  2  0
 13 15  1  0
 15 17  2  0
 17 19  1  0
 19 21  2  0
 21 12  1  0
  8  9  1  0
  8 10  1  0
  8 11  1  0
 13 14  1  0
 15 16  1  0
 17 18  1  0
 19 20  1  0
 21 22  1  0
M  CHG  1   6  -1
M  END
>  <PDB_ID>  (1077) 
pdb2zyz

>  <RESIDUE_NAME>  (1077) 
GLU   PHE

>  <FRAG_NAME>  (1077) 
ACET   MBZ

>  <FRAG_ATOM_NUM>  (1077) 
fragi: 7  fragj: 15

>  <atom.prop.CHAIN_ID>  (1077) 
A A A A A A A Z Z Z Z Z Z Z Z Z Z Z Z Z Z Z

>  <atom.prop.IS_HEAVY_ATOM>  (1077) 
1 0 0 0 1 1 1 1 0 0 0 1 1 0 1 0 1 0 1 0 1 0

>  <DIFUSE_FUNC_ATOM>  (1077) 
atom 6   atom 7   

>  <FINAL_SINGLE_POINT_ENERGY>  (1077) 
0

>  <NONCOV_INTER_ENERGY_QM>  (1077) 
0

>  <FF_Energy>  (1077) 
-0.37

>  <QM_Energy>  (1077) 
-5.46

>  <source>  (1077) 
ACET_MBZ_00

>  <Index>  (1077) 
39452

$$$$
ACET-pdb1u8w-A-GLU-126:MBZ-pdb1u8w-A-PHE-5
     RDKit          3D

 22 21  0  0  0  0  0  0  0  0999 V2000
    3.4358    2.4828   -3.1237 C   0  0  0  0  0  0  0  0  0  0  0  0
    3.6109    1.5157   -3.1689 H   0  0  0  0  0  0  0  0  0  0  0  0
    3.8531    2.9694   -3.8698 H   0  0  0  0  0  0  0  0  0  0  0  0
    2.3577    2.6335   -3.1812 H   0  0  0  0  0  0  0  0  0  0  0  0
    4.0530    3.0030   -1.8332 C   0  0  0  0  0  0  0  0  0  0  0  0
    3.4474    2.8290   -0.7545 O   0  0  0  0  0  1  0  0  0  0  0  0
    5.1590    3.5790   -1.8938 O   0  0  0  0  0  0  0  0  0  0  0  0
   -0.0013    2.9082    0.0716 C   0  0  0  0  0  0  0  0  0  0  0  0
   -0.5320    3.2499   -0.6868 H   0  0  0  0  0  0  0  0  0  0  0  0
    0.9345    3.2197    0.0296 H   0  0  0  0  0  0  0  0  0  0  0  0
   -0.4409    3.3020    0.9880 H   0  0  0  0  0  0  0  0  0  0  0  0
    0.0013    1.4064    0.0018 C   0  0  0  0  0  0  0  0  0  0  0  0
   -1.1953    0.6978   -0.0030 C   0  0  0  0  0  0  0  0  0  0  0  0
   -2.0632    1.1842   -0.0105 H   0  0  0  0  0  0  0  0  0  0  0  0
   -1.2000   -0.7014    0.0000 C   0  0  0  0  0  0  0  0  0  0  0  0
   -2.0785   -1.1902    0.0016 H   0  0  0  0  0  0  0  0  0  0  0  0
   -0.0010   -1.3994    0.0024 C   0  0  0  0  0  0  0  0  0  0  0  0
   -0.0038   -2.3966    0.0057 H   0  0  0  0  0  0  0  0  0  0  0  0
    1.2000   -0.7008    0.0000 C   0  0  0  0  0  0  0  0  0  0  0  0
    2.0821   -1.1952    0.0005 H   0  0  0  0  0  0  0  0  0  0  0  0
    1.1950    0.6975   -0.0012 C   0  0  0  0  0  0  0  0  0  0  0  0
    2.0656    1.1889   -0.0054 H   0  0  0  0  0  0  0  0  0  0  0  0
  1  5  1  0
  5  6  1  0
  5  7  2  0
  1  2  1  0
  1  3  1  0
  1  4  1  0
  8 12  1  0
 12 13  2  0
 13 15  1  0
 15 17  2  0
 17 19  1  0
 19 21  2  0
 21 12  1  0
  8  9  1  0
  8 10  1  0
  8 11  1  0
 13 14  1  0
 15 16  1  0
 17 18  1  0
 19 20  1  0
 21 22  1  0
M  CHG  1   6  -1
M  END
>  <PDB_ID>  (1078) 
pdb1u8w

>  <RESIDUE_NAME>  (1078) 
GLU   PHE

>  <FRAG_NAME>  (1078) 
ACET   MBZ

>  <FRAG_ATOM_NUM>  (1078) 
fragi: 7  fragj: 15

>  <atom.prop.CHAIN_ID>  (1078) 
A A A A A A A Z Z Z Z Z Z Z Z Z Z Z Z Z Z Z

>  <atom.prop.IS_HEAVY_ATOM>  (1078) 
1 0 0 0 1 1 1 1 0 0 0 1 1 0 1 0 1 0 1 0 1 0

>  <DIFUSE_FUNC_ATOM>  (1078) 
atom 6   atom 7   

>  <FINAL_SINGLE_POINT_ENERGY>  (1078) 
0

>  <NONCOV_INTER_ENERGY_QM>  (1078) 
0

>  <FF_Energy>  (1078) 
-1.61

>  <QM_Energy>  (1078) 
-7.93

>  <source>  (1078) 
ACET_MBZ_00

>  <Index>  (1078) 
39566

$$$$
ACET-pdb1u8w-B-GLU-126:MBZ-pdb1u8w-B-PHE-5
     RDKit          3D

 22 21  0  0  0  0  0  0  0  0999 V2000
    2.9384    2.2555   -3.6414 C   0  0  0  0  0  0  0  0  0  0  0  0
    3.0307    1.2828   -3.7671 H   0  0  0  0  0  0  0  0  0  0  0  0
    3.3173    2.7600   -4.3984 H   0  0  0  0  0  0  0  0  0  0  0  0
    1.8761    2.4898   -3.5726 H   0  0  0  0  0  0  0  0  0  0  0  0
    3.7184    2.6350   -2.4005 C   0  0  0  0  0  0  0  0  0  0  0  0
    3.2905    2.2820   -1.2816 O   0  0  0  0  0  1  0  0  0  0  0  0
    4.7719    3.2840   -2.5420 O   0  0  0  0  0  0  0  0  0  0  0  0
    0.0022    2.9110   -0.0258 C   0  0  0  0  0  0  0  0  0  0  0  0
   -0.6551    3.2040   -0.7040 H   0  0  0  0  0  0  0  0  0  0  0  0
    0.9161    3.2098   -0.2561 H   0  0  0  0  0  0  0  0  0  0  0  0
   -0.2704    3.3659    0.9266 H   0  0  0  0  0  0  0  0  0  0  0  0
    0.0011    1.4045   -0.0014 C   0  0  0  0  0  0  0  0  0  0  0  0
   -1.1980    0.6955    0.0014 C   0  0  0  0  0  0  0  0  0  0  0  0
   -2.0633    1.1894    0.0035 H   0  0  0  0  0  0  0  0  0  0  0  0
   -1.2072   -0.6931    0.0000 C   0  0  0  0  0  0  0  0  0  0  0  0
   -2.0839   -1.1858    0.0015 H   0  0  0  0  0  0  0  0  0  0  0  0
   -0.0050   -1.3981   -0.0018 C   0  0  0  0  0  0  0  0  0  0  0  0
   -0.0130   -2.3945   -0.0050 H   0  0  0  0  0  0  0  0  0  0  0  0
    1.2072   -0.7040   -0.0000 C   0  0  0  0  0  0  0  0  0  0  0  0
    2.0829   -1.2010    0.0009 H   0  0  0  0  0  0  0  0  0  0  0  0
    1.2019    0.6953    0.0018 C   0  0  0  0  0  0  0  0  0  0  0  0
    2.0685    1.1891    0.0052 H   0  0  0  0  0  0  0  0  0  0  0  0
  1  5  1  0
  5  6  1  0
  5  7  2  0
  1  2  1  0
  1  3  1  0
  1  4  1  0
  8 12  1  0
 12 13  2  0
 13 15  1  0
 15 17  2  0
 17 19  1  0
 19 21  2  0
 21 12  1  0
  8  9  1  0
  8 10  1  0
  8 11  1  0
 13 14  1  0
 15 16  1  0
 17 18  1  0
 19 20  1  0
 21 22  1  0
M  CHG  1   6  -1
M  END
>  <PDB_ID>  (1079) 
pdb1u8w

>  <RESIDUE_NAME>  (1079) 
GLU   PHE

>  <FRAG_NAME>  (1079) 
ACET   MBZ

>  <FRAG_ATOM_NUM>  (1079) 
fragi: 7  fragj: 15

>  <atom.prop.CHAIN_ID>  (1079) 
A A A A A A A Z Z Z Z Z Z Z Z Z Z Z Z Z Z Z

>  <atom.prop.IS_HEAVY_ATOM>  (1079) 
1 0 0 0 1 1 1 1 0 0 0 1 1 0 1 0 1 0 1 0 1 0

>  <DIFUSE_FUNC_ATOM>  (1079) 
atom 6   atom 7   

>  <FINAL_SINGLE_POINT_ENERGY>  (1079) 
0

>  <NONCOV_INTER_ENERGY_QM>  (1079) 
0

>  <FF_Energy>  (1079) 
2.4

>  <QM_Energy>  (1079) 
-6.72

>  <source>  (1079) 
ACET_MBZ_00

>  <Index>  (1079) 
39569

$$$$
ACET-pdb1u8w-C-GLU-41:MBZ-pdb1u8w-C-PHE-44
     RDKit          3D

 22 21  0  0  0  0  0  0  0  0999 V2000
   -0.5911    5.2810   -2.8360 C   0  0  0  0  0  0  0  0  0  0  0  0
   -0.4968    5.0778   -1.8800 H   0  0  0  0  0  0  0  0  0  0  0  0
   -1.5018    5.5635   -3.0711 H   0  0  0  0  0  0  0  0  0  0  0  0
    0.0930    6.0937   -3.0804 H   0  0  0  0  0  0  0  0  0  0  0  0
   -0.3060    3.9775   -3.6095 C   0  0  0  0  0  0  0  0  0  0  0  0
   -0.3208    3.9972   -4.8669 O   0  0  0  0  0  1  0  0  0  0  0  0
   -0.0609    2.9306   -2.9570 O   0  0  0  0  0  0  0  0  0  0  0  0
    0.0018    2.9055    0.0186 C   0  0  0  0  0  0  0  0  0  0  0  0
   -0.8131    3.2183   -0.4460 H   0  0  0  0  0  0  0  0  0  0  0  0
    0.8197    3.2157   -0.4425 H   0  0  0  0  0  0  0  0  0  0  0  0
    0.0006    3.3375    1.0193 H   0  0  0  0  0  0  0  0  0  0  0  0
   -0.0005    1.4020    0.0008 C   0  0  0  0  0  0  0  0  0  0  0  0
   -1.2007    0.6923    0.0001 C   0  0  0  0  0  0  0  0  0  0  0  0
   -2.0653    1.1850   -0.0011 H   0  0  0  0  0  0  0  0  0  0  0  0
   -1.2058   -0.6967   -0.0000 C   0  0  0  0  0  0  0  0  0  0  0  0
   -2.0802   -1.1927    0.0010 H   0  0  0  0  0  0  0  0  0  0  0  0
    0.0002   -1.3940   -0.0002 C   0  0  0  0  0  0  0  0  0  0  0  0
   -0.0033   -2.3917   -0.0009 H   0  0  0  0  0  0  0  0  0  0  0  0
    1.2058   -0.6961   -0.0000 C   0  0  0  0  0  0  0  0  0  0  0  0
    2.0842   -1.1962    0.0025 H   0  0  0  0  0  0  0  0  0  0  0  0
    1.2011    0.6925   -0.0007 C   0  0  0  0  0  0  0  0  0  0  0  0
    2.0668    1.1920   -0.0030 H   0  0  0  0  0  0  0  0  0  0  0  0
  1  5  1  0
  5  6  1  0
  5  7  2  0
  1  2  1  0
  1  3  1  0
  1  4  1  0
  8 12  1  0
 12 13  2  0
 13 15  1  0
 15 17  2  0
 17 19  1  0
 19 21  2  0
 21 12  1  0
  8  9  1  0
  8 10  1  0
  8 11  1  0
 13 14  1  0
 15 16  1  0
 17 18  1  0
 19 20  1  0
 21 22  1  0
M  CHG  1   6  -1
M  END
>  <PDB_ID>  (1080) 
pdb1u8w

>  <RESIDUE_NAME>  (1080) 
GLU   PHE

>  <FRAG_NAME>  (1080) 
ACET   MBZ

>  <FRAG_ATOM_NUM>  (1080) 
fragi: 7  fragj: 15

>  <atom.prop.CHAIN_ID>  (1080) 
A A A A A A A Z Z Z Z Z Z Z Z Z Z Z Z Z Z Z

>  <atom.prop.IS_HEAVY_ATOM>  (1080) 
1 0 0 0 1 1 1 1 0 0 0 1 1 0 1 0 1 0 1 0 1 0

>  <DIFUSE_FUNC_ATOM>  (1080) 
atom 6   atom 7   

>  <FINAL_SINGLE_POINT_ENERGY>  (1080) 
0

>  <NONCOV_INTER_ENERGY_QM>  (1080) 
0

>  <FF_Energy>  (1080) 
2.46

>  <QM_Energy>  (1080) 
-2.76

>  <source>  (1080) 
ACET_MBZ_00

>  <Index>  (1080) 
39572

$$$$
ACET-pdb1uf3-H-GLU-145:MBZ-pdb1uf3-G-PHE-103
     RDKit          3D

 22 21  0  0  0  0  0  0  0  0999 V2000
   -5.1577    1.5048    1.3723 C   0  0  0  0  0  0  0  0  0  0  0  0
   -6.1236    1.6247    1.4736 H   0  0  0  0  0  0  0  0  0  0  0  0
   -4.6924    1.4130    2.2286 H   0  0  0  0  0  0  0  0  0  0  0  0
   -4.9855    0.5998    0.7897 H   0  0  0  0  0  0  0  0  0  0  0  0
   -4.6097    2.7245    0.6759 C   0  0  0  0  0  0  0  0  0  0  0  0
   -3.3851    2.9558    0.7622 O   0  0  0  0  0  1  0  0  0  0  0  0
   -5.3965    3.4433    0.0200 O   0  0  0  0  0  0  0  0  0  0  0  0
    0.0145    2.8944    0.0091 C   0  0  0  0  0  0  0  0  0  0  0  0
   -0.8694    3.2132   -0.2976 H   0  0  0  0  0  0  0  0  0  0  0  0
    0.7367    3.2043   -0.5896 H   0  0  0  0  0  0  0  0  0  0  0  0
    0.1962    3.3248    0.9940 H   0  0  0  0  0  0  0  0  0  0  0  0
    0.0051    1.3997    0.0006 C   0  0  0  0  0  0  0  0  0  0  0  0
   -1.2004    0.6963   -0.0008 C   0  0  0  0  0  0  0  0  0  0  0  0
   -2.0619    1.1931   -0.0032 H   0  0  0  0  0  0  0  0  0  0  0  0
   -1.2103   -0.6920    0.0000 C   0  0  0  0  0  0  0  0  0  0  0  0
   -2.0876   -1.1846    0.0019 H   0  0  0  0  0  0  0  0  0  0  0  0
   -0.0084   -1.3995    0.0004 C   0  0  0  0  0  0  0  0  0  0  0  0
   -0.0100   -2.3911    0.0006 H   0  0  0  0  0  0  0  0  0  0  0  0
    1.2103   -0.6943   -0.0000 C   0  0  0  0  0  0  0  0  0  0  0  0
    2.0825   -1.2009    0.0017 H   0  0  0  0  0  0  0  0  0  0  0  0
    1.2037    0.6898   -0.0001 C   0  0  0  0  0  0  0  0  0  0  0  0
    2.0705    1.1908   -0.0016 H   0  0  0  0  0  0  0  0  0  0  0  0
  1  5  1  0
  5  6  1  0
  5  7  2  0
  1  2  1  0
  1  3  1  0
  1  4  1  0
  8 12  1  0
 12 13  2  0
 13 15  1  0
 15 17  2  0
 17 19  1  0
 19 21  2  0
 21 12  1  0
  8  9  1  0
  8 10  1  0
  8 11  1  0
 13 14  1  0
 15 16  1  0
 17 18  1  0
 19 20  1  0
 21 22  1  0
M  CHG  1   6  -1
M  END
>  <PDB_ID>  (1081) 
pdb1uf3

>  <RESIDUE_NAME>  (1081) 
GLU   PHE

>  <FRAG_NAME>  (1081) 
ACET   MBZ

>  <FRAG_ATOM_NUM>  (1081) 
fragi: 7  fragj: 15

>  <atom.prop.CHAIN_ID>  (1081) 
A A A A A A A Z Z Z Z Z Z Z Z Z Z Z Z Z Z Z

>  <atom.prop.IS_HEAVY_ATOM>  (1081) 
1 0 0 0 1 1 1 1 0 0 0 1 1 0 1 0 1 0 1 0 1 0

>  <DIFUSE_FUNC_ATOM>  (1081) 
atom 6   atom 7   

>  <FINAL_SINGLE_POINT_ENERGY>  (1081) 
0

>  <NONCOV_INTER_ENERGY_QM>  (1081) 
0

>  <FF_Energy>  (1081) 
-1.72

>  <QM_Energy>  (1081) 
-7.64

>  <source>  (1081) 
ACET_MBZ_00

>  <Index>  (1081) 
39769

$$$$
ACET-pdb1ug9-A-GLU-71:MBZ-pdb1ug9-A-PHE-60
     RDKit          3D

 22 21  0  0  0  0  0  0  0  0999 V2000
    4.3519    5.4325    0.0694 C   0  0  0  0  0  0  0  0  0  0  0  0
    3.7394    5.5253   -0.6914 H   0  0  0  0  0  0  0  0  0  0  0  0
    5.2901    5.5649   -0.1824 H   0  0  0  0  0  0  0  0  0  0  0  0
    4.0834    6.1679    0.8278 H   0  0  0  0  0  0  0  0  0  0  0  0
    4.2211    4.0003    0.5815 C   0  0  0  0  0  0  0  0  0  0  0  0
    4.7312    3.6975    1.6837 O   0  0  0  0  0  1  0  0  0  0  0  0
    3.6155    3.1701   -0.1263 O   0  0  0  0  0  0  0  0  0  0  0  0
   -0.0003    2.9054   -0.0106 C   0  0  0  0  0  0  0  0  0  0  0  0
    0.7847    3.2147    0.5051 H   0  0  0  0  0  0  0  0  0  0  0  0
   -0.8446    3.2150    0.4000 H   0  0  0  0  0  0  0  0  0  0  0  0
    0.0643    3.3398   -1.0083 H   0  0  0  0  0  0  0  0  0  0  0  0
   -0.0014    1.4035   -0.0004 C   0  0  0  0  0  0  0  0  0  0  0  0
   -1.2034    0.6968   -0.0001 C   0  0  0  0  0  0  0  0  0  0  0  0
   -2.0672    1.1875   -0.0011 H   0  0  0  0  0  0  0  0  0  0  0  0
   -1.2082   -0.6965   -0.0000 C   0  0  0  0  0  0  0  0  0  0  0  0
   -2.0805   -1.1928    0.0010 H   0  0  0  0  0  0  0  0  0  0  0  0
    0.0044   -1.3988    0.0008 C   0  0  0  0  0  0  0  0  0  0  0  0
   -0.0030   -2.3941    0.0011 H   0  0  0  0  0  0  0  0  0  0  0  0
    1.2082   -0.6993   -0.0000 C   0  0  0  0  0  0  0  0  0  0  0  0
    2.0886   -1.1948    0.0010 H   0  0  0  0  0  0  0  0  0  0  0  0
    1.2004    0.6943   -0.0004 C   0  0  0  0  0  0  0  0  0  0  0  0
    2.0665    1.1923   -0.0016 H   0  0  0  0  0  0  0  0  0  0  0  0
  1  5  1  0
  5  6  1  0
  5  7  2  0
  1  2  1  0
  1  3  1  0
  1  4  1  0
  8 12  1  0
 12 13  2  0
 13 15  1  0
 15 17  2  0
 17 19  1  0
 19 21  2  0
 21 12  1  0
  8  9  1  0
  8 10  1  0
  8 11  1  0
 13 14  1  0
 15 16  1  0
 17 18  1  0
 19 20  1  0
 21 22  1  0
M  CHG  1   6  -1
M  END
>  <PDB_ID>  (1082) 
pdb1ug9

>  <RESIDUE_NAME>  (1082) 
GLU   PHE

>  <FRAG_NAME>  (1082) 
ACET   MBZ

>  <FRAG_ATOM_NUM>  (1082) 
fragi: 7  fragj: 15

>  <atom.prop.CHAIN_ID>  (1082) 
A A A A A A A Z Z Z Z Z Z Z Z Z Z Z Z Z Z Z

>  <atom.prop.IS_HEAVY_ATOM>  (1082) 
1 0 0 0 1 1 1 1 0 0 0 1 1 0 1 0 1 0 1 0 1 0

>  <DIFUSE_FUNC_ATOM>  (1082) 
atom 6   atom 7   

>  <FINAL_SINGLE_POINT_ENERGY>  (1082) 
0

>  <NONCOV_INTER_ENERGY_QM>  (1082) 
0

>  <FF_Energy>  (1082) 
-2.28

>  <QM_Energy>  (1082) 
-7.37

>  <source>  (1082) 
ACET_MBZ_00

>  <Index>  (1082) 
39795

$$$$
ACET-pdb1ugh-E-ASP-180:MBZ-pdb1ugh-E-PHE-284
     RDKit          3D

 22 21  0  0  0  0  0  0  0  0999 V2000
    4.5942    3.7828    1.1186 C   0  0  0  0  0  0  0  0  0  0  0  0
    5.1970    3.0209    0.9043 H   0  0  0  0  0  0  0  0  0  0  0  0
    3.8564    3.4805    1.7135 H   0  0  0  0  0  0  0  0  0  0  0  0
    5.1765    4.5303    1.6573 H   0  0  0  0  0  0  0  0  0  0  0  0
    3.9983    4.3105   -0.1687 C   0  0  0  0  0  0  0  0  0  0  0  0
    4.5990    5.2046   -0.7983 O   0  0  0  0  0  1  0  0  0  0  0  0
    2.9212    3.8199   -0.5721 O   0  0  0  0  0  0  0  0  0  0  0  0
   -0.0042    2.9104   -0.0938 C   0  0  0  0  0  0  0  0  0  0  0  0
    0.8829    3.2308    0.1897 H   0  0  0  0  0  0  0  0  0  0  0  0
   -0.7219    3.2454    0.4916 H   0  0  0  0  0  0  0  0  0  0  0  0
   -0.1915    3.2720   -1.1049 H   0  0  0  0  0  0  0  0  0  0  0  0
   -0.0000    1.4031   -0.0012 C   0  0  0  0  0  0  0  0  0  0  0  0
   -1.1948    0.6900    0.0019 C   0  0  0  0  0  0  0  0  0  0  0  0
   -2.0629    1.1790    0.0040 H   0  0  0  0  0  0  0  0  0  0  0  0
   -1.1962   -0.6988   -0.0000 C   0  0  0  0  0  0  0  0  0  0  0  0
   -2.0749   -1.1929    0.0015 H   0  0  0  0  0  0  0  0  0  0  0  0
   -0.0005   -1.3907   -0.0027 C   0  0  0  0  0  0  0  0  0  0  0  0
   -0.0034   -2.3915   -0.0073 H   0  0  0  0  0  0  0  0  0  0  0  0
    1.1962   -0.6975   -0.0000 C   0  0  0  0  0  0  0  0  0  0  0  0
    2.0797   -1.1947    0.0023 H   0  0  0  0  0  0  0  0  0  0  0  0
    1.1953    0.6938    0.0019 C   0  0  0  0  0  0  0  0  0  0  0  0
    2.0641    1.1883    0.0053 H   0  0  0  0  0  0  0  0  0  0  0  0
  1  5  1  0
  5  6  1  0
  5  7  2  0
  1  2  1  0
  1  3  1  0
  1  4  1  0
  8 12  1  0
 12 13  2  0
 13 15  1  0
 15 17  2  0
 17 19  1  0
 19 21  2  0
 21 12  1  0
  8  9  1  0
  8 10  1  0
  8 11  1  0
 13 14  1  0
 15 16  1  0
 17 18  1  0
 19 20  1  0
 21 22  1  0
M  CHG  1   6  -1
M  END
>  <PDB_ID>  (1083) 
pdb1ugh

>  <RESIDUE_NAME>  (1083) 
ASP   PHE

>  <FRAG_NAME>  (1083) 
ACET   MBZ

>  <FRAG_ATOM_NUM>  (1083) 
fragi: 7  fragj: 15

>  <atom.prop.CHAIN_ID>  (1083) 
A A A A A A A Z Z Z Z Z Z Z Z Z Z Z Z Z Z Z

>  <atom.prop.IS_HEAVY_ATOM>  (1083) 
1 0 0 0 1 1 1 1 0 0 0 1 1 0 1 0 1 0 1 0 1 0

>  <DIFUSE_FUNC_ATOM>  (1083) 
atom 6   atom 7   

>  <FINAL_SINGLE_POINT_ENERGY>  (1083) 
0

>  <NONCOV_INTER_ENERGY_QM>  (1083) 
0

>  <FF_Energy>  (1083) 
-0.71

>  <QM_Energy>  (1083) 
-7.0

>  <source>  (1083) 
ACET_MBZ_00

>  <Index>  (1083) 
39803

$$$$
ACET-pdb1uj8-A-GLU-66:MBZ-pdb1uj8-A-PHE-40
     RDKit          3D

 22 21  0  0  0  0  0  0  0  0999 V2000
    0.2611   -6.0516   -0.5548 C   0  0  0  0  0  0  0  0  0  0  0  0
   -0.5880   -6.5329   -0.4349 H   0  0  0  0  0  0  0  0  0  0  0  0
    1.0023   -6.6568   -0.7810 H   0  0  0  0  0  0  0  0  0  0  0  0
    0.1367   -5.3440   -1.3745 H   0  0  0  0  0  0  0  0  0  0  0  0
    0.6033   -5.3866    0.7780 C   0  0  0  0  0  0  0  0  0  0  0  0
    0.1842   -4.2334    1.0043 O   0  0  0  0  0  1  0  0  0  0  0  0
    1.2769   -6.0278    1.6134 O   0  0  0  0  0  0  0  0  0  0  0  0
   -0.0160    2.9099   -0.0286 C   0  0  0  0  0  0  0  0  0  0  0  0
   -0.6801    3.2225    0.6368 H   0  0  0  0  0  0  0  0  0  0  0  0
   -0.2661    3.1973   -0.9429 H   0  0  0  0  0  0  0  0  0  0  0  0
    0.9390    3.3758    0.2144 H   0  0  0  0  0  0  0  0  0  0  0  0
   -0.0002    1.4057   -0.0003 C   0  0  0  0  0  0  0  0  0  0  0  0
   -1.1977    0.6937   -0.0001 C   0  0  0  0  0  0  0  0  0  0  0  0
   -2.0646    1.1804   -0.0013 H   0  0  0  0  0  0  0  0  0  0  0  0
   -1.2022   -0.7044    0.0000 C   0  0  0  0  0  0  0  0  0  0  0  0
   -2.0775   -1.1948    0.0016 H   0  0  0  0  0  0  0  0  0  0  0  0
    0.0007   -1.3965   -0.0004 C   0  0  0  0  0  0  0  0  0  0  0  0
    0.0001   -2.3956   -0.0016 H   0  0  0  0  0  0  0  0  0  0  0  0
    1.2022   -0.6972   -0.0000 C   0  0  0  0  0  0  0  0  0  0  0  0
    2.0844   -1.1921    0.0007 H   0  0  0  0  0  0  0  0  0  0  0  0
    1.1972    0.6986    0.0007 C   0  0  0  0  0  0  0  0  0  0  0  0
    2.0649    1.1932    0.0008 H   0  0  0  0  0  0  0  0  0  0  0  0
  1  5  1  0
  5  6  1  0
  5  7  2  0
  1  2  1  0
  1  3  1  0
  1  4  1  0
  8 12  1  0
 12 13  2  0
 13 15  1  0
 15 17  2  0
 17 19  1  0
 19 21  2  0
 21 12  1  0
  8  9  1  0
  8 10  1  0
  8 11  1  0
 13 14  1  0
 15 16  1  0
 17 18  1  0
 19 20  1  0
 21 22  1  0
M  CHG  1   6  -1
M  END
>  <PDB_ID>  (1084) 
pdb1uj8

>  <RESIDUE_NAME>  (1084) 
GLU   PHE

>  <FRAG_NAME>  (1084) 
ACET   MBZ

>  <FRAG_ATOM_NUM>  (1084) 
fragi: 7  fragj: 15

>  <atom.prop.CHAIN_ID>  (1084) 
A A A A A A A Z Z Z Z Z Z Z Z Z Z Z Z Z Z Z

>  <atom.prop.IS_HEAVY_ATOM>  (1084) 
1 0 0 0 1 1 1 1 0 0 0 1 1 0 1 0 1 0 1 0 1 0

>  <DIFUSE_FUNC_ATOM>  (1084) 
atom 6   atom 7   

>  <FINAL_SINGLE_POINT_ENERGY>  (1084) 
0

>  <NONCOV_INTER_ENERGY_QM>  (1084) 
0

>  <FF_Energy>  (1084) 
1.54

>  <QM_Energy>  (1084) 
-5.07

>  <source>  (1084) 
ACET_MBZ_00

>  <Index>  (1084) 
39871

$$$$
ACET-pdb1ug9-A-GLU-409:MBZ-pdb1ug9-A-PHE-358
     RDKit          3D

 22 21  0  0  0  0  0  0  0  0999 V2000
   -1.9848    3.2710    2.3495 C   0  0  0  0  0  0  0  0  0  0  0  0
   -1.1701    3.5858    2.8169 H   0  0  0  0  0  0  0  0  0  0  0  0
   -1.7592    2.8831    1.4666 H   0  0  0  0  0  0  0  0  0  0  0  0
   -2.4460    2.4922    2.9569 H   0  0  0  0  0  0  0  0  0  0  0  0
   -2.8637    4.4830    2.1012 C   0  0  0  0  0  0  0  0  0  0  0  0
   -3.2378    5.1791    3.0645 O   0  0  0  0  0  1  0  0  0  0  0  0
   -3.1694    4.7427    0.9194 O   0  0  0  0  0  0  0  0  0  0  0  0
    0.0004    2.8894   -0.0719 C   0  0  0  0  0  0  0  0  0  0  0  0
    0.7954    3.2227    0.4108 H   0  0  0  0  0  0  0  0  0  0  0  0
   -0.8368    3.2208    0.3355 H   0  0  0  0  0  0  0  0  0  0  0  0
    0.0468    3.2706   -1.0920 H   0  0  0  0  0  0  0  0  0  0  0  0
   -0.0010    1.4007   -0.0005 C   0  0  0  0  0  0  0  0  0  0  0  0
   -1.1984    0.6949   -0.0007 C   0  0  0  0  0  0  0  0  0  0  0  0
   -2.0645    1.1822   -0.0026 H   0  0  0  0  0  0  0  0  0  0  0  0
   -1.2003   -0.6994    0.0000 C   0  0  0  0  0  0  0  0  0  0  0  0
   -2.0764   -1.1922    0.0023 H   0  0  0  0  0  0  0  0  0  0  0  0
    0.0009   -1.3913   -0.0011 C   0  0  0  0  0  0  0  0  0  0  0  0
   -0.0005   -2.3918   -0.0031 H   0  0  0  0  0  0  0  0  0  0  0  0
    1.2003   -0.6953   -0.0000 C   0  0  0  0  0  0  0  0  0  0  0  0
    2.0823   -1.1965    0.0006 H   0  0  0  0  0  0  0  0  0  0  0  0
    1.1985    0.6903    0.0024 C   0  0  0  0  0  0  0  0  0  0  0  0
    2.0650    1.1892    0.0055 H   0  0  0  0  0  0  0  0  0  0  0  0
  1  5  1  0
  5  6  1  0
  5  7  2  0
  1  2  1  0
  1  3  1  0
  1  4  1  0
  8 12  1  0
 12 13  2  0
 13 15  1  0
 15 17  2  0
 17 19  1  0
 19 21  2  0
 21 12  1  0
  8  9  1  0
  8 10  1  0
  8 11  1  0
 13 14  1  0
 15 16  1  0
 17 18  1  0
 19 20  1  0
 21 22  1  0
M  CHG  1   6  -1
M  END
>  <PDB_ID>  (1085) 
pdb1ug9

>  <RESIDUE_NAME>  (1085) 
GLU   PHE

>  <FRAG_NAME>  (1085) 
ACET   MBZ

>  <FRAG_ATOM_NUM>  (1085) 
fragi: 7  fragj: 15

>  <atom.prop.CHAIN_ID>  (1085) 
A A A A A A A Z Z Z Z Z Z Z Z Z Z Z Z Z Z Z

>  <atom.prop.IS_HEAVY_ATOM>  (1085) 
1 0 0 0 1 1 1 1 0 0 0 1 1 0 1 0 1 0 1 0 1 0

>  <DIFUSE_FUNC_ATOM>  (1085) 
atom 6   atom 7   

>  <FINAL_SINGLE_POINT_ENERGY>  (1085) 
0

>  <NONCOV_INTER_ENERGY_QM>  (1085) 
0

>  <FF_Energy>  (1085) 
29.9

>  <QM_Energy>  (1085) 
1.52

>  <source>  (1085) 
ACET_MBZ_00

>  <Index>  (1085) 
39879

$$$$
ACET-pdb1uls-C-GLU-211:MBZ-pdb1uls-D-PHE-226
     RDKit          3D

 22 21  0  0  0  0  0  0  0  0999 V2000
    0.0442    4.8832   -4.0054 C   0  0  0  0  0  0  0  0  0  0  0  0
   -0.2253    5.7865   -3.7255 H   0  0  0  0  0  0  0  0  0  0  0  0
   -0.0154    4.7639   -4.9804 H   0  0  0  0  0  0  0  0  0  0  0  0
    1.0814    4.7312   -3.7066 H   0  0  0  0  0  0  0  0  0  0  0  0
   -0.8953    3.9002   -3.3623 C   0  0  0  0  0  0  0  0  0  0  0  0
   -0.7962    2.6955   -3.6666 O   0  0  0  0  0  1  0  0  0  0  0  0
   -1.7262    4.3343   -2.5477 O   0  0  0  0  0  0  0  0  0  0  0  0
    0.0052    2.9125   -0.0510 C   0  0  0  0  0  0  0  0  0  0  0  0
   -0.4839    3.1929   -0.8637 H   0  0  0  0  0  0  0  0  0  0  0  0
    0.9470    3.2142   -0.0760 H   0  0  0  0  0  0  0  0  0  0  0  0
   -0.4739    3.3856    0.8061 H   0  0  0  0  0  0  0  0  0  0  0  0
    0.0003    1.4087   -0.0009 C   0  0  0  0  0  0  0  0  0  0  0  0
   -1.1997    0.7066    0.0011 C   0  0  0  0  0  0  0  0  0  0  0  0
   -2.0647    1.1953    0.0017 H   0  0  0  0  0  0  0  0  0  0  0  0
   -1.2095   -0.6948   -0.0000 C   0  0  0  0  0  0  0  0  0  0  0  0
   -2.0858   -1.1836    0.0020 H   0  0  0  0  0  0  0  0  0  0  0  0
   -0.0013   -1.4049   -0.0019 C   0  0  0  0  0  0  0  0  0  0  0  0
   -0.0110   -2.3985   -0.0051 H   0  0  0  0  0  0  0  0  0  0  0  0
    1.2095   -0.7071    0.0000 C   0  0  0  0  0  0  0  0  0  0  0  0
    2.0861   -1.2022    0.0013 H   0  0  0  0  0  0  0  0  0  0  0  0
    1.2007    0.6915    0.0017 C   0  0  0  0  0  0  0  0  0  0  0  0
    2.0696    1.1875    0.0038 H   0  0  0  0  0  0  0  0  0  0  0  0
  1  5  1  0
  5  6  1  0
  5  7  2  0
  1  2  1  0
  1  3  1  0
  1  4  1  0
  8 12  1  0
 12 13  2  0
 13 15  1  0
 15 17  2  0
 17 19  1  0
 19 21  2  0
 21 12  1  0
  8  9  1  0
  8 10  1  0
  8 11  1  0
 13 14  1  0
 15 16  1  0
 17 18  1  0
 19 20  1  0
 21 22  1  0
M  CHG  1   6  -1
M  END
>  <PDB_ID>  (1086) 
pdb1uls

>  <RESIDUE_NAME>  (1086) 
GLU   PHE

>  <FRAG_NAME>  (1086) 
ACET   MBZ

>  <FRAG_ATOM_NUM>  (1086) 
fragi: 7  fragj: 15

>  <atom.prop.CHAIN_ID>  (1086) 
A A A A A A A Z Z Z Z Z Z Z Z Z Z Z Z Z Z Z

>  <atom.prop.IS_HEAVY_ATOM>  (1086) 
1 0 0 0 1 1 1 1 0 0 0 1 1 0 1 0 1 0 1 0 1 0

>  <DIFUSE_FUNC_ATOM>  (1086) 
atom 6   atom 7   

>  <FINAL_SINGLE_POINT_ENERGY>  (1086) 
0

>  <NONCOV_INTER_ENERGY_QM>  (1086) 
0

>  <FF_Energy>  (1086) 
0.84

>  <QM_Energy>  (1086) 
-5.2

>  <source>  (1086) 
ACET_MBZ_00

>  <Index>  (1086) 
39918

$$$$
ACET-pdb1uls-F-GLU-211:MBZ-pdb1uls-E-PHE-226
     RDKit          3D

 22 21  0  0  0  0  0  0  0  0999 V2000
    0.0218    4.8156   -3.8172 C   0  0  0  0  0  0  0  0  0  0  0  0
   -0.3498    5.6808   -3.5333 H   0  0  0  0  0  0  0  0  0  0  0  0
    0.0290    4.7190   -4.7962 H   0  0  0  0  0  0  0  0  0  0  0  0
    1.0502    4.7543   -3.4612 H   0  0  0  0  0  0  0  0  0  0  0  0
   -0.8620    3.7263   -3.2530 C   0  0  0  0  0  0  0  0  0  0  0  0
   -0.6673    2.5536   -3.6280 O   0  0  0  0  0  1  0  0  0  0  0  0
   -1.7488    4.0404   -2.4300 O   0  0  0  0  0  0  0  0  0  0  0  0
   -0.0018    2.9091   -0.0073 C   0  0  0  0  0  0  0  0  0  0  0  0
   -0.4745    3.2094   -0.8215 H   0  0  0  0  0  0  0  0  0  0  0  0
    0.9376    3.2156   -0.0016 H   0  0  0  0  0  0  0  0  0  0  0  0
   -0.5033    3.3508    0.8538 H   0  0  0  0  0  0  0  0  0  0  0  0
    0.0013    1.4047   -0.0007 C   0  0  0  0  0  0  0  0  0  0  0  0
   -1.1941    0.6944    0.0001 C   0  0  0  0  0  0  0  0  0  0  0  0
   -2.0622    1.1812   -0.0003 H   0  0  0  0  0  0  0  0  0  0  0  0
   -1.1965   -0.6997   -0.0000 C   0  0  0  0  0  0  0  0  0  0  0  0
   -2.0777   -1.1900    0.0007 H   0  0  0  0  0  0  0  0  0  0  0  0
   -0.0034   -1.3940    0.0015 C   0  0  0  0  0  0  0  0  0  0  0  0
   -0.0058   -2.3944    0.0034 H   0  0  0  0  0  0  0  0  0  0  0  0
    1.1965   -0.6999    0.0000 C   0  0  0  0  0  0  0  0  0  0  0  0
    2.0784   -1.1972    0.0012 H   0  0  0  0  0  0  0  0  0  0  0  0
    1.1962    0.6945   -0.0009 C   0  0  0  0  0  0  0  0  0  0  0  0
    2.0650    1.1867   -0.0023 H   0  0  0  0  0  0  0  0  0  0  0  0
  1  5  1  0
  5  6  1  0
  5  7  2  0
  1  2  1  0
  1  3  1  0
  1  4  1  0
  8 12  1  0
 12 13  2  0
 13 15  1  0
 15 17  2  0
 17 19  1  0
 19 21  2  0
 21 12  1  0
  8  9  1  0
  8 10  1  0
  8 11  1  0
 13 14  1  0
 15 16  1  0
 17 18  1  0
 19 20  1  0
 21 22  1  0
M  CHG  1   6  -1
M  END
>  <PDB_ID>  (1087) 
pdb1uls

>  <RESIDUE_NAME>  (1087) 
GLU   PHE

>  <FRAG_NAME>  (1087) 
ACET   MBZ

>  <FRAG_ATOM_NUM>  (1087) 
fragi: 7  fragj: 15

>  <atom.prop.CHAIN_ID>  (1087) 
A A A A A A A Z Z Z Z Z Z Z Z Z Z Z Z Z Z Z

>  <atom.prop.IS_HEAVY_ATOM>  (1087) 
1 0 0 0 1 1 1 1 0 0 0 1 1 0 1 0 1 0 1 0 1 0

>  <DIFUSE_FUNC_ATOM>  (1087) 
atom 6   atom 7   

>  <FINAL_SINGLE_POINT_ENERGY>  (1087) 
0

>  <NONCOV_INTER_ENERGY_QM>  (1087) 
0

>  <FF_Energy>  (1087) 
2.69

>  <QM_Energy>  (1087) 
-4.96

>  <source>  (1087) 
ACET_MBZ_00

>  <Index>  (1087) 
39920

$$$$
ACET-pdb1um0-C-ASP-106:MBZ-pdb1um0-C-PHE-100
     RDKit          3D

 22 21  0  0  0  0  0  0  0  0999 V2000
   -2.7704    2.5895    2.0269 C   0  0  0  0  0  0  0  0  0  0  0  0
   -2.0071    3.1543    1.7359 H   0  0  0  0  0  0  0  0  0  0  0  0
   -2.8927    1.8239    1.4075 H   0  0  0  0  0  0  0  0  0  0  0  0
   -2.5367    2.1911    3.0142 H   0  0  0  0  0  0  0  0  0  0  0  0
   -4.0319    3.4306    2.0203 C   0  0  0  0  0  0  0  0  0  0  0  0
   -5.1058    2.8923    2.3613 O   0  0  0  0  0  1  0  0  0  0  0  0
   -3.9486    4.6282    1.6731 O   0  0  0  0  0  0  0  0  0  0  0  0
    0.0060    2.9085    0.0259 C   0  0  0  0  0  0  0  0  0  0  0  0
    0.9274    3.2136   -0.1656 H   0  0  0  0  0  0  0  0  0  0  0  0
   -0.2899    3.2004    0.9236 H   0  0  0  0  0  0  0  0  0  0  0  0
   -0.6564    3.3673   -0.7082 H   0  0  0  0  0  0  0  0  0  0  0  0
    0.0003    1.4036    0.0005 C   0  0  0  0  0  0  0  0  0  0  0  0
   -1.1965    0.6941   -0.0006 C   0  0  0  0  0  0  0  0  0  0  0  0
   -2.0635    1.1844   -0.0032 H   0  0  0  0  0  0  0  0  0  0  0  0
   -1.2027   -0.6981    0.0000 C   0  0  0  0  0  0  0  0  0  0  0  0
   -2.0796   -1.1908    0.0012 H   0  0  0  0  0  0  0  0  0  0  0  0
   -0.0009   -1.3956    0.0007 C   0  0  0  0  0  0  0  0  0  0  0  0
   -0.0046   -2.3936    0.0011 H   0  0  0  0  0  0  0  0  0  0  0  0
    1.2027   -0.6986    0.0000 C   0  0  0  0  0  0  0  0  0  0  0  0
    2.0823   -1.1953    0.0015 H   0  0  0  0  0  0  0  0  0  0  0  0
    1.1971    0.6945   -0.0007 C   0  0  0  0  0  0  0  0  0  0  0  0
    2.0655    1.1908   -0.0027 H   0  0  0  0  0  0  0  0  0  0  0  0
  1  5  1  0
  5  6  1  0
  5  7  2  0
  1  2  1  0
  1  3  1  0
  1  4  1  0
  8 12  1  0
 12 13  2  0
 13 15  1  0
 15 17  2  0
 17 19  1  0
 19 21  2  0
 21 12  1  0
  8  9  1  0
  8 10  1  0
  8 11  1  0
 13 14  1  0
 15 16  1  0
 17 18  1  0
 19 20  1  0
 21 22  1  0
M  CHG  1   6  -1
M  END
>  <PDB_ID>  (1088) 
pdb1um0

>  <RESIDUE_NAME>  (1088) 
ASP   PHE

>  <FRAG_NAME>  (1088) 
ACET   MBZ

>  <FRAG_ATOM_NUM>  (1088) 
fragi: 7  fragj: 15

>  <atom.prop.CHAIN_ID>  (1088) 
A A A A A A A Z Z Z Z Z Z Z Z Z Z Z Z Z Z Z

>  <atom.prop.IS_HEAVY_ATOM>  (1088) 
1 0 0 0 1 1 1 1 0 0 0 1 1 0 1 0 1 0 1 0 1 0

>  <DIFUSE_FUNC_ATOM>  (1088) 
atom 6   atom 7   

>  <FINAL_SINGLE_POINT_ENERGY>  (1088) 
0

>  <NONCOV_INTER_ENERGY_QM>  (1088) 
0

>  <FF_Energy>  (1088) 
6.63

>  <QM_Energy>  (1088) 
0.63

>  <source>  (1088) 
ACET_MBZ_01

>  <Index>  (1088) 
27

$$$$
ACET-pdb1uok-A-GLU-255:MBZ-pdb1uok-A-PHE-281
     RDKit          3D

 22 21  0  0  0  0  0  0  0  0999 V2000
   -2.5712   -4.1563    0.2741 C   0  0  0  0  0  0  0  0  0  0  0  0
   -2.6370   -3.3064   -0.2190 H   0  0  0  0  0  0  0  0  0  0  0  0
   -2.3963   -4.0143    1.2321 H   0  0  0  0  0  0  0  0  0  0  0  0
   -3.5228   -4.6786    0.1761 H   0  0  0  0  0  0  0  0  0  0  0  0
   -1.3971   -4.9307   -0.2974 C   0  0  0  0  0  0  0  0  0  0  0  0
   -1.6166   -5.8837   -1.0645 O   0  0  0  0  0  1  0  0  0  0  0  0
   -0.2428   -4.5622   -0.0130 O   0  0  0  0  0  0  0  0  0  0  0  0
    0.0016    2.9078   -0.0270 C   0  0  0  0  0  0  0  0  0  0  0  0
   -0.4044    3.1980   -0.8811 H   0  0  0  0  0  0  0  0  0  0  0  0
    0.9394    3.2131    0.0468 H   0  0  0  0  0  0  0  0  0  0  0  0
   -0.5640    3.3643    0.7853 H   0  0  0  0  0  0  0  0  0  0  0  0
    0.0006    1.4030   -0.0007 C   0  0  0  0  0  0  0  0  0  0  0  0
   -1.2017    0.6919    0.0009 C   0  0  0  0  0  0  0  0  0  0  0  0
   -2.0656    1.1867    0.0010 H   0  0  0  0  0  0  0  0  0  0  0  0
   -1.2111   -0.6978    0.0000 C   0  0  0  0  0  0  0  0  0  0  0  0
   -2.0828   -1.1932    0.0021 H   0  0  0  0  0  0  0  0  0  0  0  0
    0.0006   -1.3997   -0.0013 C   0  0  0  0  0  0  0  0  0  0  0  0
   -0.0039   -2.3943   -0.0038 H   0  0  0  0  0  0  0  0  0  0  0  0
    1.2111   -0.6978   -0.0000 C   0  0  0  0  0  0  0  0  0  0  0  0
    2.0885   -1.1929    0.0012 H   0  0  0  0  0  0  0  0  0  0  0  0
    1.2004    0.7003    0.0012 C   0  0  0  0  0  0  0  0  0  0  0  0
    2.0671    1.1971    0.0029 H   0  0  0  0  0  0  0  0  0  0  0  0
  1  5  1  0
  5  6  1  0
  5  7  2  0
  1  2  1  0
  1  3  1  0
  1  4  1  0
  8 12  1  0
 12 13  2  0
 13 15  1  0
 15 17  2  0
 17 19  1  0
 19 21  2  0
 21 12  1  0
  8  9  1  0
  8 10  1  0
  8 11  1  0
 13 14  1  0
 15 16  1  0
 17 18  1  0
 19 20  1  0
 21 22  1  0
M  CHG  1   6  -1
M  END
>  <PDB_ID>  (1089) 
pdb1uok

>  <RESIDUE_NAME>  (1089) 
GLU   PHE

>  <FRAG_NAME>  (1089) 
ACET   MBZ

>  <FRAG_ATOM_NUM>  (1089) 
fragi: 7  fragj: 15

>  <atom.prop.CHAIN_ID>  (1089) 
A A A A A A A Z Z Z Z Z Z Z Z Z Z Z Z Z Z Z

>  <atom.prop.IS_HEAVY_ATOM>  (1089) 
1 0 0 0 1 1 1 1 0 0 0 1 1 0 1 0 1 0 1 0 1 0

>  <DIFUSE_FUNC_ATOM>  (1089) 
atom 6   atom 7   

>  <FINAL_SINGLE_POINT_ENERGY>  (1089) 
0

>  <NONCOV_INTER_ENERGY_QM>  (1089) 
0

>  <FF_Energy>  (1089) 
-0.73

>  <QM_Energy>  (1089) 
-5.76

>  <source>  (1089) 
ACET_MBZ_01

>  <Index>  (1089) 
96

$$$$
ACET-pdb1urr-A-GLU-52:MBZ-pdb1urr-A-PHE-91
     RDKit          3D

 22 21  0  0  0  0  0  0  0  0999 V2000
    4.0176   -0.6575   -1.4082 C   0  0  0  0  0  0  0  0  0  0  0  0
    4.4073   -1.4506   -1.8461 H   0  0  0  0  0  0  0  0  0  0  0  0
    3.6336   -0.8787   -0.5273 H   0  0  0  0  0  0  0  0  0  0  0  0
    4.8002    0.0891   -1.2735 H   0  0  0  0  0  0  0  0  0  0  0  0
    2.8682   -0.1785   -2.2900 C   0  0  0  0  0  0  0  0  0  0  0  0
    2.7892    1.0470   -2.5504 O   0  0  0  0  0  1  0  0  0  0  0  0
    2.0678   -1.0275   -2.7521 O   0  0  0  0  0  0  0  0  0  0  0  0
   -0.0129    2.8511   -0.0550 C   0  0  0  0  0  0  0  0  0  0  0  0
    0.9216    3.1715    0.0214 H   0  0  0  0  0  0  0  0  0  0  0  0
   -0.5648    3.1830    0.6974 H   0  0  0  0  0  0  0  0  0  0  0  0
   -0.4294    3.2584   -0.9763 H   0  0  0  0  0  0  0  0  0  0  0  0
   -0.0045    1.3678   -0.0111 C   0  0  0  0  0  0  0  0  0  0  0  0
   -1.1933    0.6749    0.0169 C   0  0  0  0  0  0  0  0  0  0  0  0
   -2.0572    1.1801    0.0499 H   0  0  0  0  0  0  0  0  0  0  0  0
   -1.2006   -0.6806   -0.0000 C   0  0  0  0  0  0  0  0  0  0  0  0
   -2.0661   -1.1933   -0.0141 H   0  0  0  0  0  0  0  0  0  0  0  0
    0.0104   -1.3618    0.0026 C   0  0  0  0  0  0  0  0  0  0  0  0
    0.0005   -2.3710    0.0051 H   0  0  0  0  0  0  0  0  0  0  0  0
    1.2006   -0.6821   -0.0000 C   0  0  0  0  0  0  0  0  0  0  0  0
    2.0814   -1.1855    0.0061 H   0  0  0  0  0  0  0  0  0  0  0  0
    1.1874    0.6819   -0.0084 C   0  0  0  0  0  0  0  0  0  0  0  0
    2.0529    1.1923   -0.0128 H   0  0  0  0  0  0  0  0  0  0  0  0
  1  5  1  0
  5  6  1  0
  5  7  2  0
  1  2  1  0
  1  3  1  0
  1  4  1  0
  8 12  1  0
 12 13  2  0
 13 15  1  0
 15 17  2  0
 17 19  1  0
 19 21  2  0
 21 12  1  0
  8  9  1  0
  8 10  1  0
  8 11  1  0
 13 14  1  0
 15 16  1  0
 17 18  1  0
 19 20  1  0
 21 22  1  0
M  CHG  1   6  -1
M  END
>  <PDB_ID>  (1090) 
pdb1urr

>  <RESIDUE_NAME>  (1090) 
GLU   PHE

>  <FRAG_NAME>  (1090) 
ACET   MBZ

>  <FRAG_ATOM_NUM>  (1090) 
fragi: 7  fragj: 15

>  <atom.prop.CHAIN_ID>  (1090) 
A A A A A A A Z Z Z Z Z Z Z Z Z Z Z Z Z Z Z

>  <atom.prop.IS_HEAVY_ATOM>  (1090) 
1 0 0 0 1 1 1 1 0 0 0 1 1 0 1 0 1 0 1 0 1 0

>  <DIFUSE_FUNC_ATOM>  (1090) 
atom 6   atom 7   

>  <FINAL_SINGLE_POINT_ENERGY>  (1090) 
0

>  <NONCOV_INTER_ENERGY_QM>  (1090) 
0

>  <FF_Energy>  (1090) 
18.9

>  <QM_Energy>  (1090) 
2.03

>  <source>  (1090) 
ACET_MBZ_01

>  <Index>  (1090) 
201

$$$$
ACET-pdb1up8-C-GLU-565:MBZ-pdb1up8-C-PHE-590
     RDKit          3D

 22 21  0  0  0  0  0  0  0  0999 V2000
   -3.3626    0.4294    3.6332 C   0  0  0  0  0  0  0  0  0  0  0  0
   -4.0455    0.7621    4.2519 H   0  0  0  0  0  0  0  0  0  0  0  0
   -2.6969   -0.1402    4.0696 H   0  0  0  0  0  0  0  0  0  0  0  0
   -3.8608   -0.1578    2.8617 H   0  0  0  0  0  0  0  0  0  0  0  0
   -2.6368    1.6287    3.0557 C   0  0  0  0  0  0  0  0  0  0  0  0
   -3.3175    2.4792    2.4524 O   0  0  0  0  0  1  0  0  0  0  0  0
   -1.3890    1.7330    3.1797 O   0  0  0  0  0  0  0  0  0  0  0  0
   -0.0024    2.9349   -0.0188 C   0  0  0  0  0  0  0  0  0  0  0  0
   -0.8995    3.2364    0.2720 H   0  0  0  0  0  0  0  0  0  0  0  0
    0.1881    3.2243   -0.9457 H   0  0  0  0  0  0  0  0  0  0  0  0
    0.7367    3.3963    0.6361 H   0  0  0  0  0  0  0  0  0  0  0  0
    0.0031    1.4211    0.0007 C   0  0  0  0  0  0  0  0  0  0  0  0
   -1.2022    0.7082   -0.0023 C   0  0  0  0  0  0  0  0  0  0  0  0
   -2.0669    1.1835   -0.0074 H   0  0  0  0  0  0  0  0  0  0  0  0
   -1.2000   -0.7143    0.0000 C   0  0  0  0  0  0  0  0  0  0  0  0
   -2.0779   -1.1972    0.0027 H   0  0  0  0  0  0  0  0  0  0  0  0
    0.0054   -1.4123    0.0004 C   0  0  0  0  0  0  0  0  0  0  0  0
    0.0006   -2.4086    0.0000 H   0  0  0  0  0  0  0  0  0  0  0  0
    1.2000   -0.7106   -0.0000 C   0  0  0  0  0  0  0  0  0  0  0  0
    2.0880   -1.1912    0.0007 H   0  0  0  0  0  0  0  0  0  0  0  0
    1.1937    0.7077    0.0012 C   0  0  0  0  0  0  0  0  0  0  0  0
    2.0691    1.1891    0.0020 H   0  0  0  0  0  0  0  0  0  0  0  0
  1  5  1  0
  5  6  1  0
  5  7  2  0
  1  2  1  0
  1  3  1  0
  1  4  1  0
  8 12  1  0
 12 13  2  0
 13 15  1  0
 15 17  2  0
 17 19  1  0
 19 21  2  0
 21 12  1  0
  8  9  1  0
  8 10  1  0
  8 11  1  0
 13 14  1  0
 15 16  1  0
 17 18  1  0
 19 20  1  0
 21 22  1  0
M  CHG  1   6  -1
M  END
>  <PDB_ID>  (1091) 
pdb1up8

>  <RESIDUE_NAME>  (1091) 
GLU   PHE

>  <FRAG_NAME>  (1091) 
ACET   MBZ

>  <FRAG_ATOM_NUM>  (1091) 
fragi: 7  fragj: 15

>  <atom.prop.CHAIN_ID>  (1091) 
A A A A A A A Z Z Z Z Z Z Z Z Z Z Z Z Z Z Z

>  <atom.prop.IS_HEAVY_ATOM>  (1091) 
1 0 0 0 1 1 1 1 0 0 0 1 1 0 1 0 1 0 1 0 1 0

>  <DIFUSE_FUNC_ATOM>  (1091) 
atom 6   atom 7   

>  <FINAL_SINGLE_POINT_ENERGY>  (1091) 
0

>  <NONCOV_INTER_ENERGY_QM>  (1091) 
0

>  <FF_Energy>  (1091) 
0.63

>  <QM_Energy>  (1091) 
-4.57

>  <source>  (1091) 
ACET_MBZ_01

>  <Index>  (1091) 
202

$$$$
ACET-pdb1uth-B-ASP-105:MBZ-pdb1uth-B-PHE-229
     RDKit          3D

 22 21  0  0  0  0  0  0  0  0999 V2000
   -5.2971    4.3610   -1.2434 C   0  0  0  0  0  0  0  0  0  0  0  0
   -4.7999    5.2216   -1.3128 H   0  0  0  0  0  0  0  0  0  0  0  0
   -6.1320    4.4901   -0.7156 H   0  0  0  0  0  0  0  0  0  0  0  0
   -5.5974    4.0837   -2.2538 H   0  0  0  0  0  0  0  0  0  0  0  0
   -4.4182    3.3329   -0.5441 C   0  0  0  0  0  0  0  0  0  0  0  0
   -4.4268    2.1364   -0.9057 O   0  0  0  0  0  1  0  0  0  0  0  0
   -3.6967    3.6580    0.4231 O   0  0  0  0  0  0  0  0  0  0  0  0
   -0.0066    2.9519   -0.0011 C   0  0  0  0  0  0  0  0  0  0  0  0
   -0.8526    3.2347   -0.4137 H   0  0  0  0  0  0  0  0  0  0  0  0
    0.7766    3.2509   -0.5143 H   0  0  0  0  0  0  0  0  0  0  0  0
    0.0513    3.3840    0.9979 H   0  0  0  0  0  0  0  0  0  0  0  0
    0.0086    1.4138   -0.0037 C   0  0  0  0  0  0  0  0  0  0  0  0
   -1.1899    0.6828    0.0067 C   0  0  0  0  0  0  0  0  0  0  0  0
   -2.0614    1.1616    0.0176 H   0  0  0  0  0  0  0  0  0  0  0  0
   -1.1927   -0.7309   -0.0000 C   0  0  0  0  0  0  0  0  0  0  0  0
   -2.0755   -1.2082   -0.0174 H   0  0  0  0  0  0  0  0  0  0  0  0
   -0.0080   -1.4003    0.0185 C   0  0  0  0  0  0  0  0  0  0  0  0
    0.0148   -2.4019    0.0447 H   0  0  0  0  0  0  0  0  0  0  0  0
    1.1927   -0.6889   -0.0000 C   0  0  0  0  0  0  0  0  0  0  0  0
    2.0793   -1.1764    0.0035 H   0  0  0  0  0  0  0  0  0  0  0  0
    1.1893    0.7235   -0.0216 C   0  0  0  0  0  0  0  0  0  0  0  0
    2.0642    1.2024   -0.0511 H   0  0  0  0  0  0  0  0  0  0  0  0
  1  5  1  0
  5  6  1  0
  5  7  2  0
  1  2  1  0
  1  3  1  0
  1  4  1  0
  8 12  1  0
 12 13  2  0
 13 15  1  0
 15 17  2  0
 17 19  1  0
 19 21  2  0
 21 12  1  0
  8  9  1  0
  8 10  1  0
  8 11  1  0
 13 14  1  0
 15 16  1  0
 17 18  1  0
 19 20  1  0
 21 22  1  0
M  CHG  1   6  -1
M  END
>  <PDB_ID>  (1092) 
pdb1uth

>  <RESIDUE_NAME>  (1092) 
ASP   PHE

>  <FRAG_NAME>  (1092) 
ACET   MBZ

>  <FRAG_ATOM_NUM>  (1092) 
fragi: 7  fragj: 15

>  <atom.prop.CHAIN_ID>  (1092) 
A A A A A A A Z Z Z Z Z Z Z Z Z Z Z Z Z Z Z

>  <atom.prop.IS_HEAVY_ATOM>  (1092) 
1 0 0 0 1 1 1 1 0 0 0 1 1 0 1 0 1 0 1 0 1 0

>  <DIFUSE_FUNC_ATOM>  (1092) 
atom 6   atom 7   

>  <FINAL_SINGLE_POINT_ENERGY>  (1092) 
0

>  <NONCOV_INTER_ENERGY_QM>  (1092) 
0

>  <FF_Energy>  (1092) 
-2.88

>  <QM_Energy>  (1092) 
-8.07

>  <source>  (1092) 
ACET_MBZ_01

>  <Index>  (1092) 
239

$$$$
ACET-pdb1uuq-A-GLU-181:MBZ-pdb1uuq-A-PHE-102
     RDKit          3D

 22 21  0  0  0  0  0  0  0  0999 V2000
   -0.5800    0.3334    3.4312 C   0  0  0  0  0  0  0  0  0  0  0  0
   -0.1977   -0.0567    4.2506 H   0  0  0  0  0  0  0  0  0  0  0  0
   -0.1397   -0.0084    2.6196 H   0  0  0  0  0  0  0  0  0  0  0  0
   -1.6326    0.0536    3.3869 H   0  0  0  0  0  0  0  0  0  0  0  0
   -0.3459    1.8379    3.4831 C   0  0  0  0  0  0  0  0  0  0  0  0
   -1.2696    2.6371    3.2438 O   0  0  0  0  0  1  0  0  0  0  0  0
    0.8131    2.2218    3.7582 O   0  0  0  0  0  0  0  0  0  0  0  0
    0.0113    2.8898    0.0245 C   0  0  0  0  0  0  0  0  0  0  0  0
    0.9462    3.1921   -0.1211 H   0  0  0  0  0  0  0  0  0  0  0  0
   -0.3156    3.1820    0.9163 H   0  0  0  0  0  0  0  0  0  0  0  0
   -0.6142    3.3648   -0.7313 H   0  0  0  0  0  0  0  0  0  0  0  0
   -0.0009    1.3943   -0.0057 C   0  0  0  0  0  0  0  0  0  0  0  0
   -1.1894    0.6807    0.0068 C   0  0  0  0  0  0  0  0  0  0  0  0
   -2.0599    1.1755    0.0198 H   0  0  0  0  0  0  0  0  0  0  0  0
   -1.1930   -0.6930    0.0000 C   0  0  0  0  0  0  0  0  0  0  0  0
   -2.0726   -1.1910   -0.0030 H   0  0  0  0  0  0  0  0  0  0  0  0
   -0.0033   -1.3820   -0.0004 C   0  0  0  0  0  0  0  0  0  0  0  0
   -0.0036   -2.3847   -0.0016 H   0  0  0  0  0  0  0  0  0  0  0  0
    1.1930   -0.6890   -0.0000 C   0  0  0  0  0  0  0  0  0  0  0  0
    2.0751   -1.1935    0.0025 H   0  0  0  0  0  0  0  0  0  0  0  0
    1.1936    0.6891   -0.0008 C   0  0  0  0  0  0  0  0  0  0  0  0
    2.0610    1.1883    0.0016 H   0  0  0  0  0  0  0  0  0  0  0  0
  1  5  1  0
  5  6  1  0
  5  7  2  0
  1  2  1  0
  1  3  1  0
  1  4  1  0
  8 12  1  0
 12 13  2  0
 13 15  1  0
 15 17  2  0
 17 19  1  0
 19 21  2  0
 21 12  1  0
  8  9  1  0
  8 10  1  0
  8 11  1  0
 13 14  1  0
 15 16  1  0
 17 18  1  0
 19 20  1  0
 21 22  1  0
M  CHG  1   6  -1
M  END
>  <PDB_ID>  (1093) 
pdb1uuq

>  <RESIDUE_NAME>  (1093) 
GLU   PHE

>  <FRAG_NAME>  (1093) 
ACET   MBZ

>  <FRAG_ATOM_NUM>  (1093) 
fragi: 7  fragj: 15

>  <atom.prop.CHAIN_ID>  (1093) 
A A A A A A A Z Z Z Z Z Z Z Z Z Z Z Z Z Z Z

>  <atom.prop.IS_HEAVY_ATOM>  (1093) 
1 0 0 0 1 1 1 1 0 0 0 1 1 0 1 0 1 0 1 0 1 0

>  <DIFUSE_FUNC_ATOM>  (1093) 
atom 6   atom 7   

>  <FINAL_SINGLE_POINT_ENERGY>  (1093) 
0

>  <NONCOV_INTER_ENERGY_QM>  (1093) 
0

>  <FF_Energy>  (1093) 
-0.05

>  <QM_Energy>  (1093) 
-6.35

>  <source>  (1093) 
ACET_MBZ_01

>  <Index>  (1093) 
250

$$$$
ACET-pdb1uw4-D-ASP-847:MBZ-pdb1uw4-C-PHE-136
     RDKit          3D

 22 21  0  0  0  0  0  0  0  0999 V2000
    5.3362    3.9480   -1.0946 C   0  0  0  0  0  0  0  0  0  0  0  0
    6.0635    3.3021   -1.2954 H   0  0  0  0  0  0  0  0  0  0  0  0
    5.7082    4.8515   -0.9227 H   0  0  0  0  0  0  0  0  0  0  0  0
    4.6885    4.0097   -1.9691 H   0  0  0  0  0  0  0  0  0  0  0  0
    4.6047    3.4760    0.1719 C   0  0  0  0  0  0  0  0  0  0  0  0
    3.3490    3.4919    0.2219 O   0  0  0  0  0  1  0  0  0  0  0  0
    5.2171    3.0583    1.1638 O   0  0  0  0  0  0  0  0  0  0  0  0
    0.0111    2.9177   -0.0470 C   0  0  0  0  0  0  0  0  0  0  0  0
   -0.1935    3.1912   -0.9777 H   0  0  0  0  0  0  0  0  0  0  0  0
    0.9173    3.2214    0.2192 H   0  0  0  0  0  0  0  0  0  0  0  0
   -0.7087    3.4074    0.6088 H   0  0  0  0  0  0  0  0  0  0  0  0
   -0.0034    1.4044    0.0045 C   0  0  0  0  0  0  0  0  0  0  0  0
   -1.1979    0.6905   -0.0071 C   0  0  0  0  0  0  0  0  0  0  0  0
   -2.0656    1.1806   -0.0224 H   0  0  0  0  0  0  0  0  0  0  0  0
   -1.1960   -0.6926   -0.0000 C   0  0  0  0  0  0  0  0  0  0  0  0
   -2.0711   -1.1951    0.0052 H   0  0  0  0  0  0  0  0  0  0  0  0
    0.0100   -1.3927    0.0019 C   0  0  0  0  0  0  0  0  0  0  0  0
   -0.0036   -2.3920    0.0046 H   0  0  0  0  0  0  0  0  0  0  0  0
    1.1960   -0.7018    0.0000 C   0  0  0  0  0  0  0  0  0  0  0  0
    2.0846   -1.1924   -0.0004 H   0  0  0  0  0  0  0  0  0  0  0  0
    1.1914    0.6923    0.0007 C   0  0  0  0  0  0  0  0  0  0  0  0
    2.0612    1.1871   -0.0025 H   0  0  0  0  0  0  0  0  0  0  0  0
  1  5  1  0
  5  6  1  0
  5  7  2  0
  1  2  1  0
  1  3  1  0
  1  4  1  0
  8 12  1  0
 12 13  2  0
 13 15  1  0
 15 17  2  0
 17 19  1  0
 19 21  2  0
 21 12  1  0
  8  9  1  0
  8 10  1  0
  8 11  1  0
 13 14  1  0
 15 16  1  0
 17 18  1  0
 19 20  1  0
 21 22  1  0
M  CHG  1   6  -1
M  END
>  <PDB_ID>  (1094) 
pdb1uw4

>  <RESIDUE_NAME>  (1094) 
ASP   PHE

>  <FRAG_NAME>  (1094) 
ACET   MBZ

>  <FRAG_ATOM_NUM>  (1094) 
fragi: 7  fragj: 15

>  <atom.prop.CHAIN_ID>  (1094) 
A A A A A A A Z Z Z Z Z Z Z Z Z Z Z Z Z Z Z

>  <atom.prop.IS_HEAVY_ATOM>  (1094) 
1 0 0 0 1 1 1 1 0 0 0 1 1 0 1 0 1 0 1 0 1 0

>  <DIFUSE_FUNC_ATOM>  (1094) 
atom 6   atom 7   

>  <FINAL_SINGLE_POINT_ENERGY>  (1094) 
0

>  <NONCOV_INTER_ENERGY_QM>  (1094) 
0

>  <FF_Energy>  (1094) 
-2.19

>  <QM_Energy>  (1094) 
-7.98

>  <source>  (1094) 
ACET_MBZ_01

>  <Index>  (1094) 
277

$$$$
ACET-pdb1uyp-B-GLU-271:MBZ-pdb1uyp-B-PHE-2
     RDKit          3D

 22 21  0  0  0  0  0  0  0  0999 V2000
   -5.0291    3.7675    1.1653 C   0  0  0  0  0  0  0  0  0  0  0  0
   -5.5026    3.2845    1.8885 H   0  0  0  0  0  0  0  0  0  0  0  0
   -5.0722    3.2662    0.3129 H   0  0  0  0  0  0  0  0  0  0  0  0
   -5.5072    4.7369    1.0243 H   0  0  0  0  0  0  0  0  0  0  0  0
   -3.5631    3.8472    1.5638 C   0  0  0  0  0  0  0  0  0  0  0  0
   -2.9763    2.7861    1.8510 O   0  0  0  0  0  1  0  0  0  0  0  0
   -2.9826    4.9505    1.5769 O   0  0  0  0  0  0  0  0  0  0  0  0
    0.0299    2.8743    0.0406 C   0  0  0  0  0  0  0  0  0  0  0  0
   -0.9009    3.2042    0.0755 H   0  0  0  0  0  0  0  0  0  0  0  0
    0.5018    3.2053   -0.7619 H   0  0  0  0  0  0  0  0  0  0  0  0
    0.5529    3.2560    0.9175 H   0  0  0  0  0  0  0  0  0  0  0  0
    0.0002    1.3926   -0.0122 C   0  0  0  0  0  0  0  0  0  0  0  0
   -1.2011    0.6950    0.0039 C   0  0  0  0  0  0  0  0  0  0  0  0
   -2.0650    1.1809    0.0168 H   0  0  0  0  0  0  0  0  0  0  0  0
   -1.2082   -0.7107   -0.0000 C   0  0  0  0  0  0  0  0  0  0  0  0
   -2.0802   -1.1959    0.0132 H   0  0  0  0  0  0  0  0  0  0  0  0
   -0.0053   -1.3822   -0.0197 C   0  0  0  0  0  0  0  0  0  0  0  0
    0.0116   -2.3852   -0.0485 H   0  0  0  0  0  0  0  0  0  0  0  0
    1.2082   -0.6767    0.0000 C   0  0  0  0  0  0  0  0  0  0  0  0
    2.0811   -1.1962   -0.0056 H   0  0  0  0  0  0  0  0  0  0  0  0
    1.2062    0.6820    0.0279 C   0  0  0  0  0  0  0  0  0  0  0  0
    2.0647    1.1962    0.0772 H   0  0  0  0  0  0  0  0  0  0  0  0
  1  5  1  0
  5  6  1  0
  5  7  2  0
  1  2  1  0
  1  3  1  0
  1  4  1  0
  8 12  1  0
 12 13  2  0
 13 15  1  0
 15 17  2  0
 17 19  1  0
 19 21  2  0
 21 12  1  0
  8  9  1  0
  8 10  1  0
  8 11  1  0
 13 14  1  0
 15 16  1  0
 17 18  1  0
 19 20  1  0
 21 22  1  0
M  CHG  1   6  -1
M  END
>  <PDB_ID>  (1095) 
pdb1uyp

>  <RESIDUE_NAME>  (1095) 
GLU   PHE

>  <FRAG_NAME>  (1095) 
ACET   MBZ

>  <FRAG_ATOM_NUM>  (1095) 
fragi: 7  fragj: 15

>  <atom.prop.CHAIN_ID>  (1095) 
A A A A A A A Z Z Z Z Z Z Z Z Z Z Z Z Z Z Z

>  <atom.prop.IS_HEAVY_ATOM>  (1095) 
1 0 0 0 1 1 1 1 0 0 0 1 1 0 1 0 1 0 1 0 1 0

>  <DIFUSE_FUNC_ATOM>  (1095) 
atom 6   atom 7   

>  <FINAL_SINGLE_POINT_ENERGY>  (1095) 
0

>  <NONCOV_INTER_ENERGY_QM>  (1095) 
0

>  <FF_Energy>  (1095) 
-1.55

>  <QM_Energy>  (1095) 
-6.89

>  <source>  (1095) 
ACET_MBZ_01

>  <Index>  (1095) 
334

$$$$
ACET-pdb1uzr-B-ASP-72:MBZ-pdb1uzr-B-PHE-167
     RDKit          3D

 22 21  0  0  0  0  0  0  0  0999 V2000
    0.6142   -5.1302   -0.8059 C   0  0  0  0  0  0  0  0  0  0  0  0
    1.4091   -5.3731   -0.2448 H   0  0  0  0  0  0  0  0  0  0  0  0
    0.4587   -5.8521   -1.4835 H   0  0  0  0  0  0  0  0  0  0  0  0
   -0.2603   -5.0691   -0.1582 H   0  0  0  0  0  0  0  0  0  0  0  0
    0.9104   -3.8533   -1.5259 C   0  0  0  0  0  0  0  0  0  0  0  0
   -0.0152   -3.2576   -2.2239 O   0  0  0  0  0  1  0  0  0  0  0  0
    2.1177   -3.4347   -1.4699 O   0  0  0  0  0  0  0  0  0  0  0  0
   -0.0005    2.7238    0.0121 C   0  0  0  0  0  0  0  0  0  0  0  0
   -0.9335    3.0775   -0.0824 H   0  0  0  0  0  0  0  0  0  0  0  0
    0.5637    3.0850   -0.7329 H   0  0  0  0  0  0  0  0  0  0  0  0
    0.3980    3.1496    0.9329 H   0  0  0  0  0  0  0  0  0  0  0  0
    0.0019    1.3394    0.0026 C   0  0  0  0  0  0  0  0  0  0  0  0
   -1.1639    0.6723    0.0083 C   0  0  0  0  0  0  0  0  0  0  0  0
   -2.0368    1.1628    0.0171 H   0  0  0  0  0  0  0  0  0  0  0  0
   -1.1640   -0.6888    0.0000 C   0  0  0  0  0  0  0  0  0  0  0  0
   -2.0471   -1.1864   -0.0171 H   0  0  0  0  0  0  0  0  0  0  0  0
    0.0039   -1.3346    0.0166 C   0  0  0  0  0  0  0  0  0  0  0  0
    0.0141   -2.3571    0.0418 H   0  0  0  0  0  0  0  0  0  0  0  0
    1.1640   -0.6601    0.0000 C   0  0  0  0  0  0  0  0  0  0  0  0
    2.0582   -1.1702    0.0101 H   0  0  0  0  0  0  0  0  0  0  0  0
    1.1581    0.6718   -0.0275 C   0  0  0  0  0  0  0  0  0  0  0  0
    2.0344    1.1816   -0.0715 H   0  0  0  0  0  0  0  0  0  0  0  0
  1  5  1  0
  5  6  1  0
  5  7  2  0
  1  2  1  0
  1  3  1  0
  1  4  1  0
  8 12  1  0
 12 13  2  0
 13 15  1  0
 15 17  2  0
 17 19  1  0
 19 21  2  0
 21 12  1  0
  8  9  1  0
  8 10  1  0
  8 11  1  0
 13 14  1  0
 15 16  1  0
 17 18  1  0
 19 20  1  0
 21 22  1  0
M  CHG  1   6  -1
M  END
>  <PDB_ID>  (1096) 
pdb1uzr

>  <RESIDUE_NAME>  (1096) 
ASP   PHE

>  <FRAG_NAME>  (1096) 
ACET   MBZ

>  <FRAG_ATOM_NUM>  (1096) 
fragi: 7  fragj: 15

>  <atom.prop.CHAIN_ID>  (1096) 
A A A A A A A Z Z Z Z Z Z Z Z Z Z Z Z Z Z Z

>  <atom.prop.IS_HEAVY_ATOM>  (1096) 
1 0 0 0 1 1 1 1 0 0 0 1 1 0 1 0 1 0 1 0 1 0

>  <DIFUSE_FUNC_ATOM>  (1096) 
atom 6   atom 7   

>  <FINAL_SINGLE_POINT_ENERGY>  (1096) 
0

>  <NONCOV_INTER_ENERGY_QM>  (1096) 
0

>  <FF_Energy>  (1096) 
3.58

>  <QM_Energy>  (1096) 
-2.57

>  <source>  (1096) 
ACET_MBZ_01

>  <Index>  (1096) 
374

$$$$
ACET-pdb1v2d-A-GLU-171:MBZ-pdb1v2d-A-PHE-209
     RDKit          3D

 22 21  0  0  0  0  0  0  0  0999 V2000
    1.1482   -3.7879   -1.9448 C   0  0  0  0  0  0  0  0  0  0  0  0
    1.7972   -3.4044   -2.5764 H   0  0  0  0  0  0  0  0  0  0  0  0
    0.6466   -3.0939   -1.4613 H   0  0  0  0  0  0  0  0  0  0  0  0
    0.4393   -4.3938   -2.5091 H   0  0  0  0  0  0  0  0  0  0  0  0
    1.9250   -4.5888   -0.9193 C   0  0  0  0  0  0  0  0  0  0  0  0
    2.8035   -5.3815   -1.3213 O   0  0  0  0  0  1  0  0  0  0  0  0
    1.6487   -4.4233    0.2902 O   0  0  0  0  0  0  0  0  0  0  0  0
   -0.0013    2.9093    0.0368 C   0  0  0  0  0  0  0  0  0  0  0  0
   -0.8482    3.2237   -0.3618 H   0  0  0  0  0  0  0  0  0  0  0  0
    0.7807    3.2267   -0.4765 H   0  0  0  0  0  0  0  0  0  0  0  0
    0.0688    3.3212    1.0435 H   0  0  0  0  0  0  0  0  0  0  0  0
   -0.0012    1.4047    0.0001 C   0  0  0  0  0  0  0  0  0  0  0  0
   -1.1970    0.6948    0.0003 C   0  0  0  0  0  0  0  0  0  0  0  0
   -2.0647    1.1856   -0.0007 H   0  0  0  0  0  0  0  0  0  0  0  0
   -1.2046   -0.6981    0.0000 C   0  0  0  0  0  0  0  0  0  0  0  0
   -2.0798   -1.1907    0.0013 H   0  0  0  0  0  0  0  0  0  0  0  0
   -0.0002   -1.3973    0.0001 C   0  0  0  0  0  0  0  0  0  0  0  0
   -0.0053   -2.3952   -0.0002 H   0  0  0  0  0  0  0  0  0  0  0  0
    1.2046   -0.7003   -0.0000 C   0  0  0  0  0  0  0  0  0  0  0  0
    2.0844   -1.1961    0.0022 H   0  0  0  0  0  0  0  0  0  0  0  0
    1.1983    0.6962   -0.0005 C   0  0  0  0  0  0  0  0  0  0  0  0
    2.0658    1.1912   -0.0018 H   0  0  0  0  0  0  0  0  0  0  0  0
  1  5  1  0
  5  6  1  0
  5  7  2  0
  1  2  1  0
  1  3  1  0
  1  4  1  0
  8 12  1  0
 12 13  2  0
 13 15  1  0
 15 17  2  0
 17 19  1  0
 19 21  2  0
 21 12  1  0
  8  9  1  0
  8 10  1  0
  8 11  1  0
 13 14  1  0
 15 16  1  0
 17 18  1  0
 19 20  1  0
 21 22  1  0
M  CHG  1   6  -1
M  END
>  <PDB_ID>  (1097) 
pdb1v2d

>  <RESIDUE_NAME>  (1097) 
GLU   PHE

>  <FRAG_NAME>  (1097) 
ACET   MBZ

>  <FRAG_ATOM_NUM>  (1097) 
fragi: 7  fragj: 15

>  <atom.prop.CHAIN_ID>  (1097) 
A A A A A A A Z Z Z Z Z Z Z Z Z Z Z Z Z Z Z

>  <atom.prop.IS_HEAVY_ATOM>  (1097) 
1 0 0 0 1 1 1 1 0 0 0 1 1 0 1 0 1 0 1 0 1 0

>  <DIFUSE_FUNC_ATOM>  (1097) 
atom 6   atom 7   

>  <FINAL_SINGLE_POINT_ENERGY>  (1097) 
0

>  <NONCOV_INTER_ENERGY_QM>  (1097) 
0

>  <FF_Energy>  (1097) 
4.59

>  <QM_Energy>  (1097) 
-2.25

>  <source>  (1097) 
ACET_MBZ_01

>  <Index>  (1097) 
435

$$$$
ACET-pdb1v4u-A-GLU-118:MBZ-pdb1v4u-A-PHE-115
     RDKit          3D

 22 21  0  0  0  0  0  0  0  0999 V2000
   -3.6657    4.0661    2.4083 C   0  0  0  0  0  0  0  0  0  0  0  0
   -3.7170    3.3163    3.0314 H   0  0  0  0  0  0  0  0  0  0  0  0
   -4.3653    4.7331    2.5440 H   0  0  0  0  0  0  0  0  0  0  0  0
   -2.6978    4.5512    2.5341 H   0  0  0  0  0  0  0  0  0  0  0  0
   -3.8487    3.4943    0.9878 C   0  0  0  0  0  0  0  0  0  0  0  0
   -2.9688    3.7352    0.1298 O   0  0  0  0  0  1  0  0  0  0  0  0
   -4.8812    2.8105    0.6711 O   0  0  0  0  0  0  0  0  0  0  0  0
   -0.0031    2.8910   -0.0096 C   0  0  0  0  0  0  0  0  0  0  0  0
    0.8388    3.2382    0.3509 H   0  0  0  0  0  0  0  0  0  0  0  0
   -0.7902    3.2332    0.4631 H   0  0  0  0  0  0  0  0  0  0  0  0
   -0.0753    3.2585   -1.0332 H   0  0  0  0  0  0  0  0  0  0  0  0
    0.0059    1.4145    0.0471 C   0  0  0  0  0  0  0  0  0  0  0  0
   -1.2205    0.7018   -0.0098 C   0  0  0  0  0  0  0  0  0  0  0  0
   -2.0711    1.2098   -0.0584 H   0  0  0  0  0  0  0  0  0  0  0  0
   -1.2391   -0.6872    0.0000 C   0  0  0  0  0  0  0  0  0  0  0  0
   -2.1034   -1.1857    0.0420 H   0  0  0  0  0  0  0  0  0  0  0  0
   -0.0114   -1.4071   -0.0484 C   0  0  0  0  0  0  0  0  0  0  0  0
   -0.0351   -2.4014   -0.1184 H   0  0  0  0  0  0  0  0  0  0  0  0
    1.2391   -0.7344   -0.0000 C   0  0  0  0  0  0  0  0  0  0  0  0
    2.0928   -1.2183    0.0267 H   0  0  0  0  0  0  0  0  0  0  0  0
    1.2260    0.7124    0.0111 C   0  0  0  0  0  0  0  0  0  0  0  0
    2.0857    1.1935   -0.0077 H   0  0  0  0  0  0  0  0  0  0  0  0
  1  5  1  0
  5  6  1  0
  5  7  2  0
  1  2  1  0
  1  3  1  0
  1  4  1  0
  8 12  1  0
 12 13  2  0
 13 15  1  0
 15 17  2  0
 17 19  1  0
 19 21  2  0
 21 12  1  0
  8  9  1  0
  8 10  1  0
  8 11  1  0
 13 14  1  0
 15 16  1  0
 17 18  1  0
 19 20  1  0
 21 22  1  0
M  CHG  1   6  -1
M  END
>  <PDB_ID>  (1098) 
pdb1v4u

>  <RESIDUE_NAME>  (1098) 
GLU   PHE

>  <FRAG_NAME>  (1098) 
ACET   MBZ

>  <FRAG_ATOM_NUM>  (1098) 
fragi: 7  fragj: 15

>  <atom.prop.CHAIN_ID>  (1098) 
A A A A A A A Z Z Z Z Z Z Z Z Z Z Z Z Z Z Z

>  <atom.prop.IS_HEAVY_ATOM>  (1098) 
1 0 0 0 1 1 1 1 0 0 0 1 1 0 1 0 1 0 1 0 1 0

>  <DIFUSE_FUNC_ATOM>  (1098) 
atom 6   atom 7   

>  <FINAL_SINGLE_POINT_ENERGY>  (1098) 
0

>  <NONCOV_INTER_ENERGY_QM>  (1098) 
0

>  <FF_Energy>  (1098) 
-1.44

>  <QM_Energy>  (1098) 
-8.19

>  <source>  (1098) 
ACET_MBZ_01

>  <Index>  (1098) 
519

$$$$
ACET-pdb1v73-A-GLU-213:MBZ-pdb1v73-A-PHE-247
     RDKit          3D

 22 21  0  0  0  0  0  0  0  0999 V2000
    1.7785    0.0436    3.6459 C   0  0  0  0  0  0  0  0  0  0  0  0
    0.8212    0.0712    3.4242 H   0  0  0  0  0  0  0  0  0  0  0  0
    1.9442    0.2123    4.6003 H   0  0  0  0  0  0  0  0  0  0  0  0
    2.1566   -0.9494    3.4023 H   0  0  0  0  0  0  0  0  0  0  0  0
    2.4650    1.1344    2.8613 C   0  0  0  0  0  0  0  0  0  0  0  0
    3.6283    0.9269    2.4635 O   0  0  0  0  0  1  0  0  0  0  0  0
    1.8500    2.1994    2.6532 O   0  0  0  0  0  0  0  0  0  0  0  0
   -0.0022    2.9068   -0.0499 C   0  0  0  0  0  0  0  0  0  0  0  0
    0.6034    3.2387    0.6565 H   0  0  0  0  0  0  0  0  0  0  0  0
   -0.9283    3.2181    0.0922 H   0  0  0  0  0  0  0  0  0  0  0  0
    0.3422    3.3131   -1.0009 H   0  0  0  0  0  0  0  0  0  0  0  0
   -0.0003    1.4055   -0.0003 C   0  0  0  0  0  0  0  0  0  0  0  0
   -1.1970    0.6958    0.0011 C   0  0  0  0  0  0  0  0  0  0  0  0
   -2.0638    1.1842    0.0021 H   0  0  0  0  0  0  0  0  0  0  0  0
   -1.2023   -0.6992   -0.0000 C   0  0  0  0  0  0  0  0  0  0  0  0
   -2.0786   -1.1919    0.0018 H   0  0  0  0  0  0  0  0  0  0  0  0
    0.0014   -1.3985   -0.0016 C   0  0  0  0  0  0  0  0  0  0  0  0
   -0.0039   -2.3962   -0.0045 H   0  0  0  0  0  0  0  0  0  0  0  0
    1.2023   -0.7006    0.0000 C   0  0  0  0  0  0  0  0  0  0  0  0
    2.0843   -1.1935    0.0021 H   0  0  0  0  0  0  0  0  0  0  0  0
    1.1960    0.6970    0.0007 C   0  0  0  0  0  0  0  0  0  0  0  0
    2.0651    1.1914    0.0011 H   0  0  0  0  0  0  0  0  0  0  0  0
  1  5  1  0
  5  6  1  0
  5  7  2  0
  1  2  1  0
  1  3  1  0
  1  4  1  0
  8 12  1  0
 12 13  2  0
 13 15  1  0
 15 17  2  0
 17 19  1  0
 19 21  2  0
 21 12  1  0
  8  9  1  0
  8 10  1  0
  8 11  1  0
 13 14  1  0
 15 16  1  0
 17 18  1  0
 19 20  1  0
 21 22  1  0
M  CHG  1   6  -1
M  END
>  <PDB_ID>  (1099) 
pdb1v73

>  <RESIDUE_NAME>  (1099) 
GLU   PHE

>  <FRAG_NAME>  (1099) 
ACET   MBZ

>  <FRAG_ATOM_NUM>  (1099) 
fragi: 7  fragj: 15

>  <atom.prop.CHAIN_ID>  (1099) 
A A A A A A A Z Z Z Z Z Z Z Z Z Z Z Z Z Z Z

>  <atom.prop.IS_HEAVY_ATOM>  (1099) 
1 0 0 0 1 1 1 1 0 0 0 1 1 0 1 0 1 0 1 0 1 0

>  <DIFUSE_FUNC_ATOM>  (1099) 
atom 6   atom 7   

>  <FINAL_SINGLE_POINT_ENERGY>  (1099) 
0

>  <NONCOV_INTER_ENERGY_QM>  (1099) 
0

>  <FF_Energy>  (1099) 
0.07

>  <QM_Energy>  (1099) 
-7.25

>  <source>  (1099) 
ACET_MBZ_01

>  <Index>  (1099) 
589

$$$$
ACET-pdb1v8k-A-ASP-397:MBZ-pdb1v8k-A-PHE-123
     RDKit          3D

 22 21  0  0  0  0  0  0  0  0999 V2000
    6.6058    1.1239   -0.2404 C   0  0  0  0  0  0  0  0  0  0  0  0
    6.7693    0.2598   -0.7110 H   0  0  0  0  0  0  0  0  0  0  0  0
    7.1011    1.1374    0.6244 H   0  0  0  0  0  0  0  0  0  0  0  0
    7.0029    1.9239   -0.8654 H   0  0  0  0  0  0  0  0  0  0  0  0
    5.1437    1.2687    0.0280 C   0  0  0  0  0  0  0  0  0  0  0  0
    4.6077    0.4398    0.7926 O   0  0  0  0  0  1  0  0  0  0  0  0
    4.5267    2.2020   -0.5261 O   0  0  0  0  0  0  0  0  0  0  0  0
   -0.0011    2.9209    0.1163 C   0  0  0  0  0  0  0  0  0  0  0  0
   -0.7270    3.2666   -0.4540 H   0  0  0  0  0  0  0  0  0  0  0  0
    0.8824    3.2440   -0.1797 H   0  0  0  0  0  0  0  0  0  0  0  0
   -0.1683    3.2882    1.1288 H   0  0  0  0  0  0  0  0  0  0  0  0
   -0.0047    1.4097    0.0091 C   0  0  0  0  0  0  0  0  0  0  0  0
   -1.1988    0.7047   -0.0030 C   0  0  0  0  0  0  0  0  0  0  0  0
   -2.0678    1.1900   -0.0153 H   0  0  0  0  0  0  0  0  0  0  0  0
   -1.2057   -0.6963    0.0000 C   0  0  0  0  0  0  0  0  0  0  0  0
   -2.0819   -1.1862    0.0052 H   0  0  0  0  0  0  0  0  0  0  0  0
    0.0010   -1.4019   -0.0017 C   0  0  0  0  0  0  0  0  0  0  0  0
   -0.0117   -2.4001   -0.0045 H   0  0  0  0  0  0  0  0  0  0  0  0
    1.2057   -0.7123   -0.0000 C   0  0  0  0  0  0  0  0  0  0  0  0
    2.0858   -1.2028    0.0061 H   0  0  0  0  0  0  0  0  0  0  0  0
    1.2025    0.6962   -0.0044 C   0  0  0  0  0  0  0  0  0  0  0  0
    2.0674    1.1872   -0.0186 H   0  0  0  0  0  0  0  0  0  0  0  0
  1  5  1  0
  5  6  1  0
  5  7  2  0
  1  2  1  0
  1  3  1  0
  1  4  1  0
  8 12  1  0
 12 13  2  0
 13 15  1  0
 15 17  2  0
 17 19  1  0
 19 21  2  0
 21 12  1  0
  8  9  1  0
  8 10  1  0
  8 11  1  0
 13 14  1  0
 15 16  1  0
 17 18  1  0
 19 20  1  0
 21 22  1  0
M  CHG  1   6  -1
M  END
>  <PDB_ID>  (1100) 
pdb1v8k

>  <RESIDUE_NAME>  (1100) 
ASP   PHE

>  <FRAG_NAME>  (1100) 
ACET   MBZ

>  <FRAG_ATOM_NUM>  (1100) 
fragi: 7  fragj: 15

>  <atom.prop.CHAIN_ID>  (1100) 
A A A A A A A Z Z Z Z Z Z Z Z Z Z Z Z Z Z Z

>  <atom.prop.IS_HEAVY_ATOM>  (1100) 
1 0 0 0 1 1 1 1 0 0 0 1 1 0 1 0 1 0 1 0 1 0

>  <DIFUSE_FUNC_ATOM>  (1100) 
atom 6   atom 7   

>  <FINAL_SINGLE_POINT_ENERGY>  (1100) 
0

>  <NONCOV_INTER_ENERGY_QM>  (1100) 
0

>  <FF_Energy>  (1100) 
-3.11

>  <QM_Energy>  (1100) 
-8.14

>  <source>  (1100) 
ACET_MBZ_01

>  <Index>  (1100) 
645

$$$$
ACET-pdb1v8c-B-GLU-153:MBZ-pdb1v8c-B-PHE-81
     RDKit          3D

 22 21  0  0  0  0  0  0  0  0999 V2000
    0.3001    0.4284   -3.6358 C   0  0  0  0  0  0  0  0  0  0  0  0
   -0.4393   -0.0261   -4.0945 H   0  0  0  0  0  0  0  0  0  0  0  0
    0.4246    0.1067   -2.7167 H   0  0  0  0  0  0  0  0  0  0  0  0
    1.2177    0.2433   -4.1943 H   0  0  0  0  0  0  0  0  0  0  0  0
   -0.0392    1.8996   -3.5644 C   0  0  0  0  0  0  0  0  0  0  0  0
    0.8218    2.6800   -3.1124 O   0  0  0  0  0  1  0  0  0  0  0  0
   -1.1635    2.2736   -3.9600 O   0  0  0  0  0  0  0  0  0  0  0  0
    0.0132    2.8912   -0.0068 C   0  0  0  0  0  0  0  0  0  0  0  0
   -0.6770    3.2031   -0.6474 H   0  0  0  0  0  0  0  0  0  0  0  0
    0.9157    3.1940   -0.2848 H   0  0  0  0  0  0  0  0  0  0  0  0
   -0.2034    3.3455    0.9599 H   0  0  0  0  0  0  0  0  0  0  0  0
    0.0023    1.3974    0.0007 C   0  0  0  0  0  0  0  0  0  0  0  0
   -1.1981    0.6968    0.0003 C   0  0  0  0  0  0  0  0  0  0  0  0
   -2.0609    1.1905   -0.0013 H   0  0  0  0  0  0  0  0  0  0  0  0
   -1.2054   -0.6920    0.0000 C   0  0  0  0  0  0  0  0  0  0  0  0
   -2.0806   -1.1865    0.0015 H   0  0  0  0  0  0  0  0  0  0  0  0
   -0.0013   -1.3926   -0.0008 C   0  0  0  0  0  0  0  0  0  0  0  0
   -0.0072   -2.3906   -0.0029 H   0  0  0  0  0  0  0  0  0  0  0  0
    1.2054   -0.6975   -0.0000 C   0  0  0  0  0  0  0  0  0  0  0  0
    2.0822   -1.1986    0.0021 H   0  0  0  0  0  0  0  0  0  0  0  0
    1.1971    0.6879   -0.0002 C   0  0  0  0  0  0  0  0  0  0  0  0
    2.0660    1.1879   -0.0022 H   0  0  0  0  0  0  0  0  0  0  0  0
  1  5  1  0
  5  6  1  0
  5  7  2  0
  1  2  1  0
  1  3  1  0
  1  4  1  0
  8 12  1  0
 12 13  2  0
 13 15  1  0
 15 17  2  0
 17 19  1  0
 19 21  2  0
 21 12  1  0
  8  9  1  0
  8 10  1  0
  8 11  1  0
 13 14  1  0
 15 16  1  0
 17 18  1  0
 19 20  1  0
 21 22  1  0
M  CHG  1   6  -1
M  END
>  <PDB_ID>  (1101) 
pdb1v8c

>  <RESIDUE_NAME>  (1101) 
GLU   PHE

>  <FRAG_NAME>  (1101) 
ACET   MBZ

>  <FRAG_ATOM_NUM>  (1101) 
fragi: 7  fragj: 15

>  <atom.prop.CHAIN_ID>  (1101) 
A A A A A A A Z Z Z Z Z Z Z Z Z Z Z Z Z Z Z

>  <atom.prop.IS_HEAVY_ATOM>  (1101) 
1 0 0 0 1 1 1 1 0 0 0 1 1 0 1 0 1 0 1 0 1 0

>  <DIFUSE_FUNC_ATOM>  (1101) 
atom 6   atom 7   

>  <FINAL_SINGLE_POINT_ENERGY>  (1101) 
0

>  <NONCOV_INTER_ENERGY_QM>  (1101) 
0

>  <FF_Energy>  (1101) 
0.18

>  <QM_Energy>  (1101) 
-5.51

>  <source>  (1101) 
ACET_MBZ_01

>  <Index>  (1101) 
684

$$$$
ACET-pdb1vc3-B-GLU-97:MBZ-pdb1vc3-B-PHE-93
     RDKit          3D

 22 21  0  0  0  0  0  0  0  0999 V2000
    4.4832    1.5112    0.3166 C   0  0  0  0  0  0  0  0  0  0  0  0
    3.7701    1.0798   -0.2034 H   0  0  0  0  0  0  0  0  0  0  0  0
    5.3743    1.1679    0.0875 H   0  0  0  0  0  0  0  0  0  0  0  0
    4.4621    2.5803    0.1049 H   0  0  0  0  0  0  0  0  0  0  0  0
    4.2351    1.1962    1.7849 C   0  0  0  0  0  0  0  0  0  0  0  0
    4.1533    0.0009    2.1332 O   0  0  0  0  0  1  0  0  0  0  0  0
    4.1264    2.1420    2.5907 O   0  0  0  0  0  0  0  0  0  0  0  0
    0.0143    2.8970   -0.0734 C   0  0  0  0  0  0  0  0  0  0  0  0
   -0.5499    3.1744   -0.8409 H   0  0  0  0  0  0  0  0  0  0  0  0
    0.9530    3.1904   -0.2043 H   0  0  0  0  0  0  0  0  0  0  0  0
   -0.3669    3.4009    0.8148 H   0  0  0  0  0  0  0  0  0  0  0  0
   -0.0003    1.3994   -0.0009 C   0  0  0  0  0  0  0  0  0  0  0  0
   -1.1988    0.6933    0.0017 C   0  0  0  0  0  0  0  0  0  0  0  0
   -2.0637    1.1842    0.0031 H   0  0  0  0  0  0  0  0  0  0  0  0
   -1.2034   -0.6983   -0.0000 C   0  0  0  0  0  0  0  0  0  0  0  0
   -2.0759   -1.1936    0.0017 H   0  0  0  0  0  0  0  0  0  0  0  0
    0.0043   -1.3925   -0.0027 C   0  0  0  0  0  0  0  0  0  0  0  0
    0.0006   -2.3909   -0.0073 H   0  0  0  0  0  0  0  0  0  0  0  0
    1.2034   -0.6938   -0.0000 C   0  0  0  0  0  0  0  0  0  0  0  0
    2.0852   -1.1915    0.0018 H   0  0  0  0  0  0  0  0  0  0  0  0
    1.1948    0.6918    0.0019 C   0  0  0  0  0  0  0  0  0  0  0  0
    2.0634    1.1916    0.0046 H   0  0  0  0  0  0  0  0  0  0  0  0
  1  5  1  0
  5  6  1  0
  5  7  2  0
  1  2  1  0
  1  3  1  0
  1  4  1  0
  8 12  1  0
 12 13  2  0
 13 15  1  0
 15 17  2  0
 17 19  1  0
 19 21  2  0
 21 12  1  0
  8  9  1  0
  8 10  1  0
  8 11  1  0
 13 14  1  0
 15 16  1  0
 17 18  1  0
 19 20  1  0
 21 22  1  0
M  CHG  1   6  -1
M  END
>  <PDB_ID>  (1102) 
pdb1vc3

>  <RESIDUE_NAME>  (1102) 
GLU   PHE

>  <FRAG_NAME>  (1102) 
ACET   MBZ

>  <FRAG_ATOM_NUM>  (1102) 
fragi: 7  fragj: 15

>  <atom.prop.CHAIN_ID>  (1102) 
A A A A A A A Z Z Z Z Z Z Z Z Z Z Z Z Z Z Z

>  <atom.prop.IS_HEAVY_ATOM>  (1102) 
1 0 0 0 1 1 1 1 0 0 0 1 1 0 1 0 1 0 1 0 1 0

>  <DIFUSE_FUNC_ATOM>  (1102) 
atom 6   atom 7   

>  <FINAL_SINGLE_POINT_ENERGY>  (1102) 
0

>  <NONCOV_INTER_ENERGY_QM>  (1102) 
0

>  <FF_Energy>  (1102) 
5.86

>  <QM_Energy>  (1102) 
-2.0

>  <source>  (1102) 
ACET_MBZ_01

>  <Index>  (1102) 
759

$$$$
ACET-pdb1vc8-A-ASP-21:MBZ-pdb1vc8-A-PHE-25
     RDKit          3D

 22 21  0  0  0  0  0  0  0  0999 V2000
    4.1399    5.4715   -1.8277 C   0  0  0  0  0  0  0  0  0  0  0  0
    5.0956    5.2516   -1.9895 H   0  0  0  0  0  0  0  0  0  0  0  0
    4.0591    6.1611   -1.1167 H   0  0  0  0  0  0  0  0  0  0  0  0
    3.7353    5.8923   -2.7482 H   0  0  0  0  0  0  0  0  0  0  0  0
    3.4172    4.2117   -1.3735 C   0  0  0  0  0  0  0  0  0  0  0  0
    2.8356    3.4981   -2.2147 O   0  0  0  0  0  1  0  0  0  0  0  0
    3.4551    3.9232   -0.1584 O   0  0  0  0  0  0  0  0  0  0  0  0
   -0.0021    2.9079    0.0344 C   0  0  0  0  0  0  0  0  0  0  0  0
    0.9372    3.2162    0.0046 H   0  0  0  0  0  0  0  0  0  0  0  0
   -0.4471    3.1952    0.8705 H   0  0  0  0  0  0  0  0  0  0  0  0
   -0.5306    3.3721   -0.7983 H   0  0  0  0  0  0  0  0  0  0  0  0
   -0.0003    1.4044    0.0007 C   0  0  0  0  0  0  0  0  0  0  0  0
   -1.1975    0.6949   -0.0008 C   0  0  0  0  0  0  0  0  0  0  0  0
   -2.0650    1.1844   -0.0036 H   0  0  0  0  0  0  0  0  0  0  0  0
   -1.2038   -0.7001   -0.0000 C   0  0  0  0  0  0  0  0  0  0  0  0
   -2.0796   -1.1919    0.0007 H   0  0  0  0  0  0  0  0  0  0  0  0
    0.0003   -1.3980    0.0014 C   0  0  0  0  0  0  0  0  0  0  0  0
   -0.0027   -2.3948    0.0024 H   0  0  0  0  0  0  0  0  0  0  0  0
    1.2038   -0.6986   -0.0000 C   0  0  0  0  0  0  0  0  0  0  0  0
    2.0842   -1.1934    0.0017 H   0  0  0  0  0  0  0  0  0  0  0  0
    1.1974    0.6974   -0.0013 C   0  0  0  0  0  0  0  0  0  0  0  0
    2.0648    1.1921   -0.0045 H   0  0  0  0  0  0  0  0  0  0  0  0
  1  5  1  0
  5  6  1  0
  5  7  2  0
  1  2  1  0
  1  3  1  0
  1  4  1  0
  8 12  1  0
 12 13  2  0
 13 15  1  0
 15 17  2  0
 17 19  1  0
 19 21  2  0
 21 12  1  0
  8  9  1  0
  8 10  1  0
  8 11  1  0
 13 14  1  0
 15 16  1  0
 17 18  1  0
 19 20  1  0
 21 22  1  0
M  CHG  1   6  -1
M  END
>  <PDB_ID>  (1103) 
pdb1vc8

>  <RESIDUE_NAME>  (1103) 
ASP   PHE

>  <FRAG_NAME>  (1103) 
ACET   MBZ

>  <FRAG_ATOM_NUM>  (1103) 
fragi: 7  fragj: 15

>  <atom.prop.CHAIN_ID>  (1103) 
A A A A A A A Z Z Z Z Z Z Z Z Z Z Z Z Z Z Z

>  <atom.prop.IS_HEAVY_ATOM>  (1103) 
1 0 0 0 1 1 1 1 0 0 0 1 1 0 1 0 1 0 1 0 1 0

>  <DIFUSE_FUNC_ATOM>  (1103) 
atom 6   atom 7   

>  <FINAL_SINGLE_POINT_ENERGY>  (1103) 
0

>  <NONCOV_INTER_ENERGY_QM>  (1103) 
0

>  <FF_Energy>  (1103) 
-2.05

>  <QM_Energy>  (1103) 
-7.98

>  <source>  (1103) 
ACET_MBZ_01

>  <Index>  (1103) 
766

$$$$
ACET-pdb1vch-C-ASP-34:MBZ-pdb1vch-C-PHE-37
     RDKit          3D

 22 21  0  0  0  0  0  0  0  0999 V2000
    2.9653    5.1609   -1.4527 C   0  0  0  0  0  0  0  0  0  0  0  0
    3.6671    4.8935   -2.1087 H   0  0  0  0  0  0  0  0  0  0  0  0
    3.0322    4.5952   -0.6344 H   0  0  0  0  0  0  0  0  0  0  0  0
    3.1568    6.1935   -1.1611 H   0  0  0  0  0  0  0  0  0  0  0  0
    1.6062    4.9550   -2.0804 C   0  0  0  0  0  0  0  0  0  0  0  0
    0.6594    5.7092   -1.7789 O   0  0  0  0  0  1  0  0  0  0  0  0
    1.4905    3.9982   -2.8714 O   0  0  0  0  0  0  0  0  0  0  0  0
    0.0099    2.9090   -0.0504 C   0  0  0  0  0  0  0  0  0  0  0  0
   -0.2487    3.1861   -0.9661 H   0  0  0  0  0  0  0  0  0  0  0  0
    0.9252    3.2170    0.1686 H   0  0  0  0  0  0  0  0  0  0  0  0
   -0.6778    3.3849    0.6486 H   0  0  0  0  0  0  0  0  0  0  0  0
    0.0015    1.4060   -0.0007 C   0  0  0  0  0  0  0  0  0  0  0  0
   -1.1977    0.6969    0.0001 C   0  0  0  0  0  0  0  0  0  0  0  0
   -2.0637    1.1876   -0.0002 H   0  0  0  0  0  0  0  0  0  0  0  0
   -1.2040   -0.6969    0.0000 C   0  0  0  0  0  0  0  0  0  0  0  0
   -2.0816   -1.1876    0.0016 H   0  0  0  0  0  0  0  0  0  0  0  0
   -0.0029   -1.3984   -0.0006 C   0  0  0  0  0  0  0  0  0  0  0  0
   -0.0077   -2.3949   -0.0019 H   0  0  0  0  0  0  0  0  0  0  0  0
    1.2040   -0.7018    0.0000 C   0  0  0  0  0  0  0  0  0  0  0  0
    2.0820   -1.1987    0.0010 H   0  0  0  0  0  0  0  0  0  0  0  0
    1.1991    0.6942    0.0012 C   0  0  0  0  0  0  0  0  0  0  0  0
    2.0683    1.1883    0.0026 H   0  0  0  0  0  0  0  0  0  0  0  0
  1  5  1  0
  5  6  1  0
  5  7  2  0
  1  2  1  0
  1  3  1  0
  1  4  1  0
  8 12  1  0
 12 13  2  0
 13 15  1  0
 15 17  2  0
 17 19  1  0
 19 21  2  0
 21 12  1  0
  8  9  1  0
  8 10  1  0
  8 11  1  0
 13 14  1  0
 15 16  1  0
 17 18  1  0
 19 20  1  0
 21 22  1  0
M  CHG  1   6  -1
M  END
>  <PDB_ID>  (1104) 
pdb1vch

>  <RESIDUE_NAME>  (1104) 
ASP   PHE

>  <FRAG_NAME>  (1104) 
ACET   MBZ

>  <FRAG_ATOM_NUM>  (1104) 
fragi: 7  fragj: 15

>  <atom.prop.CHAIN_ID>  (1104) 
A A A A A A A Z Z Z Z Z Z Z Z Z Z Z Z Z Z Z

>  <atom.prop.IS_HEAVY_ATOM>  (1104) 
1 0 0 0 1 1 1 1 0 0 0 1 1 0 1 0 1 0 1 0 1 0

>  <DIFUSE_FUNC_ATOM>  (1104) 
atom 6   atom 7   

>  <FINAL_SINGLE_POINT_ENERGY>  (1104) 
0

>  <NONCOV_INTER_ENERGY_QM>  (1104) 
0

>  <FF_Energy>  (1104) 
-0.44

>  <QM_Energy>  (1104) 
-5.78

>  <source>  (1104) 
ACET_MBZ_01

>  <Index>  (1104) 
782

$$$$
ACET-pdb1vd5-B-ASP-44:MBZ-pdb1vd5-B-PHE-24
     RDKit          3D

 22 21  0  0  0  0  0  0  0  0999 V2000
    2.0325    1.1842   -3.4840 C   0  0  0  0  0  0  0  0  0  0  0  0
    2.3028    0.6337   -4.2624 H   0  0  0  0  0  0  0  0  0  0  0  0
    1.7243    0.6137   -2.7354 H   0  0  0  0  0  0  0  0  0  0  0  0
    2.9030    1.7469   -3.1469 H   0  0  0  0  0  0  0  0  0  0  0  0
    0.9057    2.0989   -3.8998 C   0  0  0  0  0  0  0  0  0  0  0  0
    0.1226    2.5149   -3.0168 O   0  0  0  0  0  1  0  0  0  0  0  0
    0.8278    2.4300   -5.1037 O   0  0  0  0  0  0  0  0  0  0  0  0
    0.0161    2.9121   -0.0291 C   0  0  0  0  0  0  0  0  0  0  0  0
   -0.6536    3.2132   -0.6933 H   0  0  0  0  0  0  0  0  0  0  0  0
    0.9266    3.2047   -0.2839 H   0  0  0  0  0  0  0  0  0  0  0  0
   -0.2284    3.3826    0.9232 H   0  0  0  0  0  0  0  0  0  0  0  0
    0.0014    1.4077   -0.0003 C   0  0  0  0  0  0  0  0  0  0  0  0
   -1.2005    0.7020    0.0007 C   0  0  0  0  0  0  0  0  0  0  0  0
   -2.0646    1.1901    0.0009 H   0  0  0  0  0  0  0  0  0  0  0  0
   -1.2066   -0.6969    0.0000 C   0  0  0  0  0  0  0  0  0  0  0  0
   -2.0821   -1.1886    0.0013 H   0  0  0  0  0  0  0  0  0  0  0  0
    0.0009   -1.4024   -0.0011 C   0  0  0  0  0  0  0  0  0  0  0  0
   -0.0078   -2.3975   -0.0034 H   0  0  0  0  0  0  0  0  0  0  0  0
    1.2066   -0.7043   -0.0000 C   0  0  0  0  0  0  0  0  0  0  0  0
    2.0859   -1.1986    0.0017 H   0  0  0  0  0  0  0  0  0  0  0  0
    1.1982    0.6939    0.0007 C   0  0  0  0  0  0  0  0  0  0  0  0
    2.0685    1.1883    0.0011 H   0  0  0  0  0  0  0  0  0  0  0  0
  1  5  1  0
  5  6  1  0
  5  7  2  0
  1  2  1  0
  1  3  1  0
  1  4  1  0
  8 12  1  0
 12 13  2  0
 13 15  1  0
 15 17  2  0
 17 19  1  0
 19 21  2  0
 21 12  1  0
  8  9  1  0
  8 10  1  0
  8 11  1  0
 13 14  1  0
 15 16  1  0
 17 18  1  0
 19 20  1  0
 21 22  1  0
M  CHG  1   6  -1
M  END
>  <PDB_ID>  (1105) 
pdb1vd5

>  <RESIDUE_NAME>  (1105) 
ASP   PHE

>  <FRAG_NAME>  (1105) 
ACET   MBZ

>  <FRAG_ATOM_NUM>  (1105) 
fragi: 7  fragj: 15

>  <atom.prop.CHAIN_ID>  (1105) 
A A A A A A A Z Z Z Z Z Z Z Z Z Z Z Z Z Z Z

>  <atom.prop.IS_HEAVY_ATOM>  (1105) 
1 0 0 0 1 1 1 1 0 0 0 1 1 0 1 0 1 0 1 0 1 0

>  <DIFUSE_FUNC_ATOM>  (1105) 
atom 6   atom 7   

>  <FINAL_SINGLE_POINT_ENERGY>  (1105) 
0

>  <NONCOV_INTER_ENERGY_QM>  (1105) 
0

>  <FF_Energy>  (1105) 
2.04

>  <QM_Energy>  (1105) 
-3.83

>  <source>  (1105) 
ACET_MBZ_01

>  <Index>  (1105) 
848

$$$$
ACET-pdb1ve3-A-GLU-5:MBZ-pdb1ve3-A-PHE-187
     RDKit          3D

 22 21  0  0  0  0  0  0  0  0999 V2000
    0.9434    0.9513    3.4549 C   0  0  0  0  0  0  0  0  0  0  0  0
    0.9842    0.5882    2.5436 H   0  0  0  0  0  0  0  0  0  0  0  0
    0.5524    0.3170    4.0942 H   0  0  0  0  0  0  0  0  0  0  0  0
    1.9572    1.1878    3.7781 H   0  0  0  0  0  0  0  0  0  0  0  0
    0.0475    2.1741    3.4194 C   0  0  0  0  0  0  0  0  0  0  0  0
    0.4735    3.2112    2.8650 O   0  0  0  0  0  1  0  0  0  0  0  0
   -1.0862    2.0913    3.9447 O   0  0  0  0  0  0  0  0  0  0  0  0
    0.0025    2.9089    0.0395 C   0  0  0  0  0  0  0  0  0  0  0  0
    0.9293    3.2085    0.2183 H   0  0  0  0  0  0  0  0  0  0  0  0
   -0.6104    3.1972    0.7611 H   0  0  0  0  0  0  0  0  0  0  0  0
   -0.3275    3.3813   -0.8857 H   0  0  0  0  0  0  0  0  0  0  0  0
   -0.0006    1.4043    0.0005 C   0  0  0  0  0  0  0  0  0  0  0  0
   -1.1981    0.6944   -0.0013 C   0  0  0  0  0  0  0  0  0  0  0  0
   -2.0647    1.1848   -0.0045 H   0  0  0  0  0  0  0  0  0  0  0  0
   -1.2048   -0.6981    0.0000 C   0  0  0  0  0  0  0  0  0  0  0  0
   -2.0798   -1.1914    0.0015 H   0  0  0  0  0  0  0  0  0  0  0  0
   -0.0003   -1.3972    0.0017 C   0  0  0  0  0  0  0  0  0  0  0  0
   -0.0039   -2.3940    0.0035 H   0  0  0  0  0  0  0  0  0  0  0  0
    1.2048   -0.6978    0.0000 C   0  0  0  0  0  0  0  0  0  0  0  0
    2.0842   -1.1958    0.0010 H   0  0  0  0  0  0  0  0  0  0  0  0
    1.1990    0.6943   -0.0009 C   0  0  0  0  0  0  0  0  0  0  0  0
    2.0661    1.1913   -0.0032 H   0  0  0  0  0  0  0  0  0  0  0  0
  1  5  1  0
  5  6  1  0
  5  7  2  0
  1  2  1  0
  1  3  1  0
  1  4  1  0
  8 12  1  0
 12 13  2  0
 13 15  1  0
 15 17  2  0
 17 19  1  0
 19 21  2  0
 21 12  1  0
  8  9  1  0
  8 10  1  0
  8 11  1  0
 13 14  1  0
 15 16  1  0
 17 18  1  0
 19 20  1  0
 21 22  1  0
M  CHG  1   6  -1
M  END
>  <PDB_ID>  (1106) 
pdb1ve3

>  <RESIDUE_NAME>  (1106) 
GLU   PHE

>  <FRAG_NAME>  (1106) 
ACET   MBZ

>  <FRAG_ATOM_NUM>  (1106) 
fragi: 7  fragj: 15

>  <atom.prop.CHAIN_ID>  (1106) 
A A A A A A A Z Z Z Z Z Z Z Z Z Z Z Z Z Z Z

>  <atom.prop.IS_HEAVY_ATOM>  (1106) 
1 0 0 0 1 1 1 1 0 0 0 1 1 0 1 0 1 0 1 0 1 0

>  <DIFUSE_FUNC_ATOM>  (1106) 
atom 6   atom 7   

>  <FINAL_SINGLE_POINT_ENERGY>  (1106) 
0

>  <NONCOV_INTER_ENERGY_QM>  (1106) 
0

>  <FF_Energy>  (1106) 
2.69

>  <QM_Energy>  (1106) 
-4.2

>  <source>  (1106) 
ACET_MBZ_01

>  <Index>  (1106) 
854

$$$$
ACET-pdb1ve6-A-GLU-17:MBZ-pdb1ve6-B-PHE-9
     RDKit          3D

 22 21  0  0  0  0  0  0  0  0999 V2000
   -3.8695    3.2703   -1.8605 C   0  0  0  0  0  0  0  0  0  0  0  0
   -3.8926    2.2927   -1.8131 H   0  0  0  0  0  0  0  0  0  0  0  0
   -3.1745    3.6062   -2.4631 H   0  0  0  0  0  0  0  0  0  0  0  0
   -4.8417    3.6388   -2.1878 H   0  0  0  0  0  0  0  0  0  0  0  0
   -3.5274    3.7756   -0.4616 C   0  0  0  0  0  0  0  0  0  0  0  0
   -3.5656    5.0059   -0.2524 O   0  0  0  0  0  1  0  0  0  0  0  0
   -3.2252    2.9489    0.4275 O   0  0  0  0  0  0  0  0  0  0  0  0
    0.0011    2.9157    0.0032 C   0  0  0  0  0  0  0  0  0  0  0  0
   -0.8982    3.2235   -0.2676 H   0  0  0  0  0  0  0  0  0  0  0  0
    0.6933    3.2216   -0.6325 H   0  0  0  0  0  0  0  0  0  0  0  0
    0.2253    3.3550    0.9753 H   0  0  0  0  0  0  0  0  0  0  0  0
   -0.0021    1.4094   -0.0002 C   0  0  0  0  0  0  0  0  0  0  0  0
   -1.2018    0.7000    0.0004 C   0  0  0  0  0  0  0  0  0  0  0  0
   -2.0681    1.1893    0.0001 H   0  0  0  0  0  0  0  0  0  0  0  0
   -1.2103   -0.6993    0.0000 C   0  0  0  0  0  0  0  0  0  0  0  0
   -2.0825   -1.1920    0.0014 H   0  0  0  0  0  0  0  0  0  0  0  0
    0.0042   -1.4060    0.0000 C   0  0  0  0  0  0  0  0  0  0  0  0
   -0.0046   -2.3998   -0.0005 H   0  0  0  0  0  0  0  0  0  0  0  0
    1.2103   -0.7043   -0.0000 C   0  0  0  0  0  0  0  0  0  0  0  0
    2.0901   -1.1942    0.0013 H   0  0  0  0  0  0  0  0  0  0  0  0
    1.1996    0.7002   -0.0002 C   0  0  0  0  0  0  0  0  0  0  0  0
    2.0670    1.1947   -0.0010 H   0  0  0  0  0  0  0  0  0  0  0  0
  1  5  1  0
  5  6  1  0
  5  7  2  0
  1  2  1  0
  1  3  1  0
  1  4  1  0
  8 12  1  0
 12 13  2  0
 13 15  1  0
 15 17  2  0
 17 19  1  0
 19 21  2  0
 21 12  1  0
  8  9  1  0
  8 10  1  0
  8 11  1  0
 13 14  1  0
 15 16  1  0
 17 18  1  0
 19 20  1  0
 21 22  1  0
M  CHG  1   6  -1
M  END
>  <PDB_ID>  (1107) 
pdb1ve6

>  <RESIDUE_NAME>  (1107) 
GLU   PHE

>  <FRAG_NAME>  (1107) 
ACET   MBZ

>  <FRAG_ATOM_NUM>  (1107) 
fragi: 7  fragj: 15

>  <atom.prop.CHAIN_ID>  (1107) 
A A A A A A A Z Z Z Z Z Z Z Z Z Z Z Z Z Z Z

>  <atom.prop.IS_HEAVY_ATOM>  (1107) 
1 0 0 0 1 1 1 1 0 0 0 1 1 0 1 0 1 0 1 0 1 0

>  <DIFUSE_FUNC_ATOM>  (1107) 
atom 6   atom 7   

>  <FINAL_SINGLE_POINT_ENERGY>  (1107) 
0

>  <NONCOV_INTER_ENERGY_QM>  (1107) 
0

>  <FF_Energy>  (1107) 
0.76

>  <QM_Energy>  (1107) 
-7.89

>  <source>  (1107) 
ACET_MBZ_01

>  <Index>  (1107) 
868

$$$$
ACET-pdb1ve6-B-ASP-482:MBZ-pdb1ve6-B-PHE-485
     RDKit          3D

 22 21  0  0  0  0  0  0  0  0999 V2000
   -5.4775    3.9925   -0.4573 C   0  0  0  0  0  0  0  0  0  0  0  0
   -6.2711    4.1273    0.1269 H   0  0  0  0  0  0  0  0  0  0  0  0
   -5.7649    3.8055   -1.3909 H   0  0  0  0  0  0  0  0  0  0  0  0
   -4.9052    4.9201   -0.4630 H   0  0  0  0  0  0  0  0  0  0  0  0
   -4.6924    2.7788    0.0633 C   0  0  0  0  0  0  0  0  0  0  0  0
   -3.5717    2.9187    0.6101 O   0  0  0  0  0  1  0  0  0  0  0  0
   -5.2267    1.6549   -0.0718 O   0  0  0  0  0  0  0  0  0  0  0  0
    0.0067    2.9067    0.1357 C   0  0  0  0  0  0  0  0  0  0  0  0
   -0.8297    3.2508   -0.2490 H   0  0  0  0  0  0  0  0  0  0  0  0
    0.8007    3.2525   -0.3290 H   0  0  0  0  0  0  0  0  0  0  0  0
    0.0575    3.2336    1.1743 H   0  0  0  0  0  0  0  0  0  0  0  0
    0.0013    1.4078    0.0013 C   0  0  0  0  0  0  0  0  0  0  0  0
   -1.1972    0.6959   -0.0025 C   0  0  0  0  0  0  0  0  0  0  0  0
   -2.0627    1.1910   -0.0084 H   0  0  0  0  0  0  0  0  0  0  0  0
   -1.2057   -0.6904    0.0000 C   0  0  0  0  0  0  0  0  0  0  0  0
   -2.0846   -1.1839   -0.0002 H   0  0  0  0  0  0  0  0  0  0  0  0
   -0.0064   -1.4000    0.0043 C   0  0  0  0  0  0  0  0  0  0  0  0
   -0.0171   -2.3952    0.0099 H   0  0  0  0  0  0  0  0  0  0  0  0
    1.2057   -0.7082   -0.0000 C   0  0  0  0  0  0  0  0  0  0  0  0
    2.0814   -1.2041    0.0004 H   0  0  0  0  0  0  0  0  0  0  0  0
    1.2023    0.6950   -0.0031 C   0  0  0  0  0  0  0  0  0  0  0  0
    2.0695    1.1861   -0.0094 H   0  0  0  0  0  0  0  0  0  0  0  0
  1  5  1  0
  5  6  1  0
  5  7  2  0
  1  2  1  0
  1  3  1  0
  1  4  1  0
  8 12  1  0
 12 13  2  0
 13 15  1  0
 15 17  2  0
 17 19  1  0
 19 21  2  0
 21 12  1  0
  8  9  1  0
  8 10  1  0
  8 11  1  0
 13 14  1  0
 15 16  1  0
 17 18  1  0
 19 20  1  0
 21 22  1  0
M  CHG  1   6  -1
M  END
>  <PDB_ID>  (1108) 
pdb1ve6

>  <RESIDUE_NAME>  (1108) 
ASP   PHE

>  <FRAG_NAME>  (1108) 
ACET   MBZ

>  <FRAG_ATOM_NUM>  (1108) 
fragi: 7  fragj: 15

>  <atom.prop.CHAIN_ID>  (1108) 
A A A A A A A Z Z Z Z Z Z Z Z Z Z Z Z Z Z Z

>  <atom.prop.IS_HEAVY_ATOM>  (1108) 
1 0 0 0 1 1 1 1 0 0 0 1 1 0 1 0 1 0 1 0 1 0

>  <DIFUSE_FUNC_ATOM>  (1108) 
atom 6   atom 7   

>  <FINAL_SINGLE_POINT_ENERGY>  (1108) 
0

>  <NONCOV_INTER_ENERGY_QM>  (1108) 
0

>  <FF_Energy>  (1108) 
-2.36

>  <QM_Energy>  (1108) 
-8.28

>  <source>  (1108) 
ACET_MBZ_01

>  <Index>  (1108) 
871

$$$$
ACET-pdb1vf7-B-GLU-211:MBZ-pdb1vf7-B-PHE-254
     RDKit          3D

 22 21  0  0  0  0  0  0  0  0999 V2000
   -4.4335    4.1281   -2.4143 C   0  0  0  0  0  0  0  0  0  0  0  0
   -5.3006    4.1346   -2.8725 H   0  0  0  0  0  0  0  0  0  0  0  0
   -3.6894    4.3607   -3.0103 H   0  0  0  0  0  0  0  0  0  0  0  0
   -4.4693    4.8632   -1.6103 H   0  0  0  0  0  0  0  0  0  0  0  0
   -4.1917    2.7191   -1.9034 C   0  0  0  0  0  0  0  0  0  0  0  0
   -3.5705    2.5727   -0.8116 O   0  0  0  0  0  1  0  0  0  0  0  0
   -4.6276    1.7589   -2.5855 O   0  0  0  0  0  0  0  0  0  0  0  0
   -0.0069    2.9652   -0.0324 C   0  0  0  0  0  0  0  0  0  0  0  0
   -0.7425    3.2458   -0.6316 H   0  0  0  0  0  0  0  0  0  0  0  0
    0.8710    3.2562   -0.3843 H   0  0  0  0  0  0  0  0  0  0  0  0
   -0.1586    3.4383    0.9378 H   0  0  0  0  0  0  0  0  0  0  0  0
   -0.0026    1.4450    0.0048 C   0  0  0  0  0  0  0  0  0  0  0  0
   -1.2182    0.7117   -0.0052 C   0  0  0  0  0  0  0  0  0  0  0  0
   -2.0843    1.1906   -0.0179 H   0  0  0  0  0  0  0  0  0  0  0  0
   -1.2341   -0.7282    0.0000 C   0  0  0  0  0  0  0  0  0  0  0  0
   -2.0987   -1.2051    0.0108 H   0  0  0  0  0  0  0  0  0  0  0  0
    0.0009   -1.4408   -0.0085 C   0  0  0  0  0  0  0  0  0  0  0  0
    0.0022   -2.4247   -0.0207 H   0  0  0  0  0  0  0  0  0  0  0  0
    1.2341   -0.7171   -0.0000 C   0  0  0  0  0  0  0  0  0  0  0  0
    2.1070   -1.1956    0.0011 H   0  0  0  0  0  0  0  0  0  0  0  0
    1.2199    0.7294    0.0089 C   0  0  0  0  0  0  0  0  0  0  0  0
    2.0805    1.2124    0.0172 H   0  0  0  0  0  0  0  0  0  0  0  0
  1  5  1  0
  5  6  1  0
  5  7  2  0
  1  2  1  0
  1  3  1  0
  1  4  1  0
  8 12  1  0
 12 13  2  0
 13 15  1  0
 15 17  2  0
 17 19  1  0
 19 21  2  0
 21 12  1  0
  8  9  1  0
  8 10  1  0
  8 11  1  0
 13 14  1  0
 15 16  1  0
 17 18  1  0
 19 20  1  0
 21 22  1  0
M  CHG  1   6  -1
M  END
>  <PDB_ID>  (1109) 
pdb1vf7

>  <RESIDUE_NAME>  (1109) 
GLU   PHE

>  <FRAG_NAME>  (1109) 
ACET   MBZ

>  <FRAG_ATOM_NUM>  (1109) 
fragi: 7  fragj: 15

>  <atom.prop.CHAIN_ID>  (1109) 
A A A A A A A Z Z Z Z Z Z Z Z Z Z Z Z Z Z Z

>  <atom.prop.IS_HEAVY_ATOM>  (1109) 
1 0 0 0 1 1 1 1 0 0 0 1 1 0 1 0 1 0 1 0 1 0

>  <DIFUSE_FUNC_ATOM>  (1109) 
atom 6   atom 7   

>  <FINAL_SINGLE_POINT_ENERGY>  (1109) 
0

>  <NONCOV_INTER_ENERGY_QM>  (1109) 
0

>  <FF_Energy>  (1109) 
-0.12

>  <QM_Energy>  (1109) 
-7.79

>  <source>  (1109) 
ACET_MBZ_01

>  <Index>  (1109) 
892

$$$$
ACET-pdb1vf7-L-GLU-211:MBZ-pdb1vf7-L-PHE-254
     RDKit          3D

 22 21  0  0  0  0  0  0  0  0999 V2000
   -2.4972    2.9229   -4.3423 C   0  0  0  0  0  0  0  0  0  0  0  0
   -3.4572    3.1207   -4.3026 H   0  0  0  0  0  0  0  0  0  0  0  0
   -2.2126    2.6104   -5.2271 H   0  0  0  0  0  0  0  0  0  0  0  0
   -1.9496    3.8356   -4.1075 H   0  0  0  0  0  0  0  0  0  0  0  0
   -2.2298    1.7683   -3.3461 C   0  0  0  0  0  0  0  0  0  0  0  0
   -3.2120    1.3141   -2.6760 O   0  0  0  0  0  1  0  0  0  0  0  0
   -1.0418    1.3226   -3.2213 O   0  0  0  0  0  0  0  0  0  0  0  0
    0.0288    2.9697   -0.0313 C   0  0  0  0  0  0  0  0  0  0  0  0
   -0.1294    3.2441   -0.9703 H   0  0  0  0  0  0  0  0  0  0  0  0
    0.9238    3.2606    0.2784 H   0  0  0  0  0  0  0  0  0  0  0  0
   -0.7145    3.4699    0.5893 H   0  0  0  0  0  0  0  0  0  0  0  0
    0.0018    1.4389    0.0117 C   0  0  0  0  0  0  0  0  0  0  0  0
   -1.2124    0.7115   -0.0122 C   0  0  0  0  0  0  0  0  0  0  0  0
   -2.0758    1.1957   -0.0392 H   0  0  0  0  0  0  0  0  0  0  0  0
   -1.2252   -0.7136    0.0000 C   0  0  0  0  0  0  0  0  0  0  0  0
   -2.0974   -1.1946    0.0037 H   0  0  0  0  0  0  0  0  0  0  0  0
   -0.0049   -1.4307    0.0090 C   0  0  0  0  0  0  0  0  0  0  0  0
   -0.0097   -2.4172    0.0212 H   0  0  0  0  0  0  0  0  0  0  0  0
    1.2252   -0.7195   -0.0000 C   0  0  0  0  0  0  0  0  0  0  0  0
    2.0964   -1.2052    0.0006 H   0  0  0  0  0  0  0  0  0  0  0  0
    1.2155    0.7135   -0.0085 C   0  0  0  0  0  0  0  0  0  0  0  0
    2.0813    1.1985   -0.0295 H   0  0  0  0  0  0  0  0  0  0  0  0
  1  5  1  0
  5  6  1  0
  5  7  2  0
  1  2  1  0
  1  3  1  0
  1  4  1  0
  8 12  1  0
 12 13  2  0
 13 15  1  0
 15 17  2  0
 17 19  1  0
 19 21  2  0
 21 12  1  0
  8  9  1  0
  8 10  1  0
  8 11  1  0
 13 14  1  0
 15 16  1  0
 17 18  1  0
 19 20  1  0
 21 22  1  0
M  CHG  1   6  -1
M  END
>  <PDB_ID>  (1110) 
pdb1vf7

>  <RESIDUE_NAME>  (1110) 
GLU   PHE

>  <FRAG_NAME>  (1110) 
ACET   MBZ

>  <FRAG_ATOM_NUM>  (1110) 
fragi: 7  fragj: 15

>  <atom.prop.CHAIN_ID>  (1110) 
A A A A A A A Z Z Z Z Z Z Z Z Z Z Z Z Z Z Z

>  <atom.prop.IS_HEAVY_ATOM>  (1110) 
1 0 0 0 1 1 1 1 0 0 0 1 1 0 1 0 1 0 1 0 1 0

>  <DIFUSE_FUNC_ATOM>  (1110) 
atom 6   atom 7   

>  <FINAL_SINGLE_POINT_ENERGY>  (1110) 
0

>  <NONCOV_INTER_ENERGY_QM>  (1110) 
0

>  <FF_Energy>  (1110) 
1.88

>  <QM_Energy>  (1110) 
-3.22

>  <source>  (1110) 
ACET_MBZ_01

>  <Index>  (1110) 
905

$$$$
ACET-pdb1viu-B-GLU-40:MBZ-pdb1viu-A-PHE-18
     RDKit          3D

 22 21  0  0  0  0  0  0  0  0999 V2000
   -4.8426    3.5023    2.3009 C   0  0  0  0  0  0  0  0  0  0  0  0
   -5.3803    4.3249    2.3063 H   0  0  0  0  0  0  0  0  0  0  0  0
   -4.9497    2.9810    3.1274 H   0  0  0  0  0  0  0  0  0  0  0  0
   -5.1661    2.8869    1.4614 H   0  0  0  0  0  0  0  0  0  0  0  0
   -3.3824    3.9113    2.2053 C   0  0  0  0  0  0  0  0  0  0  0  0
   -2.8664    4.0851    1.0752 O   0  0  0  0  0  1  0  0  0  0  0  0
   -2.7497    4.0741    3.2681 O   0  0  0  0  0  0  0  0  0  0  0  0
    0.0101    2.9183    0.0459 C   0  0  0  0  0  0  0  0  0  0  0  0
   -0.9166    3.2249    0.1741 H   0  0  0  0  0  0  0  0  0  0  0  0
    0.3947    3.2438   -0.7994 H   0  0  0  0  0  0  0  0  0  0  0  0
    0.6116    3.3161    0.8632 H   0  0  0  0  0  0  0  0  0  0  0  0
   -0.0006    1.4082    0.0025 C   0  0  0  0  0  0  0  0  0  0  0  0
   -1.1972    0.6995   -0.0012 C   0  0  0  0  0  0  0  0  0  0  0  0
   -2.0647    1.1861   -0.0060 H   0  0  0  0  0  0  0  0  0  0  0  0
   -1.2038   -0.7002    0.0000 C   0  0  0  0  0  0  0  0  0  0  0  0
   -2.0802   -1.1894    0.0038 H   0  0  0  0  0  0  0  0  0  0  0  0
    0.0003   -1.4008   -0.0022 C   0  0  0  0  0  0  0  0  0  0  0  0
   -0.0050   -2.3976   -0.0054 H   0  0  0  0  0  0  0  0  0  0  0  0
    1.2038   -0.7029   -0.0000 C   0  0  0  0  0  0  0  0  0  0  0  0
    2.0849   -1.1969    0.0019 H   0  0  0  0  0  0  0  0  0  0  0  0
    1.1975    0.6961    0.0009 C   0  0  0  0  0  0  0  0  0  0  0  0
    2.0668    1.1899   -0.0006 H   0  0  0  0  0  0  0  0  0  0  0  0
  1  5  1  0
  5  6  1  0
  5  7  2  0
  1  2  1  0
  1  3  1  0
  1  4  1  0
  8 12  1  0
 12 13  2  0
 13 15  1  0
 15 17  2  0
 17 19  1  0
 19 21  2  0
 21 12  1  0
  8  9  1  0
  8 10  1  0
  8 11  1  0
 13 14  1  0
 15 16  1  0
 17 18  1  0
 19 20  1  0
 21 22  1  0
M  CHG  1   6  -1
M  END
>  <PDB_ID>  (1111) 
pdb1viu

>  <RESIDUE_NAME>  (1111) 
GLU   PHE

>  <FRAG_NAME>  (1111) 
ACET   MBZ

>  <FRAG_ATOM_NUM>  (1111) 
fragi: 7  fragj: 15

>  <atom.prop.CHAIN_ID>  (1111) 
A A A A A A A Z Z Z Z Z Z Z Z Z Z Z Z Z Z Z

>  <atom.prop.IS_HEAVY_ATOM>  (1111) 
1 0 0 0 1 1 1 1 0 0 0 1 1 0 1 0 1 0 1 0 1 0

>  <DIFUSE_FUNC_ATOM>  (1111) 
atom 6   atom 7   

>  <FINAL_SINGLE_POINT_ENERGY>  (1111) 
0

>  <NONCOV_INTER_ENERGY_QM>  (1111) 
0

>  <FF_Energy>  (1111) 
-0.84

>  <QM_Energy>  (1111) 
-6.55

>  <source>  (1111) 
ACET_MBZ_01

>  <Index>  (1111) 
1025

$$$$
ACET-pdb1viu-C-GLU-40:MBZ-pdb1viu-D-PHE-18
     RDKit          3D

 22 21  0  0  0  0  0  0  0  0999 V2000
   -5.1995    3.5510    1.5207 C   0  0  0  0  0  0  0  0  0  0  0  0
   -5.5066    4.0142    0.7122 H   0  0  0  0  0  0  0  0  0  0  0  0
   -5.6924    3.8286    2.3233 H   0  0  0  0  0  0  0  0  0  0  0  0
   -5.3282    2.4775    1.3817 H   0  0  0  0  0  0  0  0  0  0  0  0
   -3.7491    3.9183    1.7301 C   0  0  0  0  0  0  0  0  0  0  0  0
   -2.9659    3.8312    0.7592 O   0  0  0  0  0  1  0  0  0  0  0  0
   -3.3931    4.2831    2.8677 O   0  0  0  0  0  0  0  0  0  0  0  0
    0.0076    2.9105    0.0453 C   0  0  0  0  0  0  0  0  0  0  0  0
   -0.9283    3.2199    0.0424 H   0  0  0  0  0  0  0  0  0  0  0  0
    0.5026    3.2358   -0.7425 H   0  0  0  0  0  0  0  0  0  0  0  0
    0.4911    3.3137    0.9351 H   0  0  0  0  0  0  0  0  0  0  0  0
    0.0001    1.4053    0.0014 C   0  0  0  0  0  0  0  0  0  0  0  0
   -1.2005    0.6968   -0.0022 C   0  0  0  0  0  0  0  0  0  0  0  0
   -2.0653    1.1875   -0.0074 H   0  0  0  0  0  0  0  0  0  0  0  0
   -1.2076   -0.6985   -0.0000 C   0  0  0  0  0  0  0  0  0  0  0  0
   -2.0816   -1.1915    0.0016 H   0  0  0  0  0  0  0  0  0  0  0  0
   -0.0000   -1.3976    0.0012 C   0  0  0  0  0  0  0  0  0  0  0  0
   -0.0047   -2.3945    0.0028 H   0  0  0  0  0  0  0  0  0  0  0  0
    1.2076   -0.6991    0.0000 C   0  0  0  0  0  0  0  0  0  0  0  0
    2.0855   -1.1976    0.0009 H   0  0  0  0  0  0  0  0  0  0  0  0
    1.2004    0.6931   -0.0004 C   0  0  0  0  0  0  0  0  0  0  0  0
    2.0675    1.1915   -0.0025 H   0  0  0  0  0  0  0  0  0  0  0  0
  1  5  1  0
  5  6  1  0
  5  7  2  0
  1  2  1  0
  1  3  1  0
  1  4  1  0
  8 12  1  0
 12 13  2  0
 13 15  1  0
 15 17  2  0
 17 19  1  0
 19 21  2  0
 21 12  1  0
  8  9  1  0
  8 10  1  0
  8 11  1  0
 13 14  1  0
 15 16  1  0
 17 18  1  0
 19 20  1  0
 21 22  1  0
M  CHG  1   6  -1
M  END
>  <PDB_ID>  (1112) 
pdb1viu

>  <RESIDUE_NAME>  (1112) 
GLU   PHE

>  <FRAG_NAME>  (1112) 
ACET   MBZ

>  <FRAG_ATOM_NUM>  (1112) 
fragi: 7  fragj: 15

>  <atom.prop.CHAIN_ID>  (1112) 
A A A A A A A Z Z Z Z Z Z Z Z Z Z Z Z Z Z Z

>  <atom.prop.IS_HEAVY_ATOM>  (1112) 
1 0 0 0 1 1 1 1 0 0 0 1 1 0 1 0 1 0 1 0 1 0

>  <DIFUSE_FUNC_ATOM>  (1112) 
atom 6   atom 7   

>  <FINAL_SINGLE_POINT_ENERGY>  (1112) 
0

>  <NONCOV_INTER_ENERGY_QM>  (1112) 
0

>  <FF_Energy>  (1112) 
-0.6

>  <QM_Energy>  (1112) 
-7.12

>  <source>  (1112) 
ACET_MBZ_01

>  <Index>  (1112) 
1028

$$$$
ACET-pdb1vj7-A-ASP-260:MBZ-pdb1vj7-A-PHE-263
     RDKit          3D

 22 21  0  0  0  0  0  0  0  0999 V2000
    4.1602    4.5450   -0.6342 C   0  0  0  0  0  0  0  0  0  0  0  0
    4.5692    4.7523    0.2412 H   0  0  0  0  0  0  0  0  0  0  0  0
    3.2456    4.9134   -0.7002 H   0  0  0  0  0  0  0  0  0  0  0  0
    4.7724    4.9901   -1.4185 H   0  0  0  0  0  0  0  0  0  0  0  0
    4.0755    3.0198   -0.7753 C   0  0  0  0  0  0  0  0  0  0  0  0
    3.8458    2.4882   -1.8907 O   0  0  0  0  0  1  0  0  0  0  0  0
    4.2196    2.2688    0.1974 O   0  0  0  0  0  0  0  0  0  0  0  0
    0.0077    2.9225   -0.0248 C   0  0  0  0  0  0  0  0  0  0  0  0
    0.8959    3.2262    0.2503 H   0  0  0  0  0  0  0  0  0  0  0  0
   -0.7060    3.2357    0.5677 H   0  0  0  0  0  0  0  0  0  0  0  0
   -0.1884    3.3094   -1.0247 H   0  0  0  0  0  0  0  0  0  0  0  0
    0.0063    1.3972    0.0130 C   0  0  0  0  0  0  0  0  0  0  0  0
   -1.1759    0.6961   -0.0113 C   0  0  0  0  0  0  0  0  0  0  0  0
   -2.0486    1.1845   -0.0393 H   0  0  0  0  0  0  0  0  0  0  0  0
   -1.1832   -0.6896   -0.0000 C   0  0  0  0  0  0  0  0  0  0  0  0
   -2.0754   -1.1726    0.0234 H   0  0  0  0  0  0  0  0  0  0  0  0
   -0.0125   -1.3854   -0.0187 C   0  0  0  0  0  0  0  0  0  0  0  0
   -0.0182   -2.3885   -0.0460 H   0  0  0  0  0  0  0  0  0  0  0  0
    1.1832   -0.7026   -0.0000 C   0  0  0  0  0  0  0  0  0  0  0  0
    2.0648   -1.2018    0.0028 H   0  0  0  0  0  0  0  0  0  0  0  0
    1.1821    0.6843    0.0170 C   0  0  0  0  0  0  0  0  0  0  0  0
    2.0620    1.1730    0.0319 H   0  0  0  0  0  0  0  0  0  0  0  0
  1  5  1  0
  5  6  1  0
  5  7  2  0
  1  2  1  0
  1  3  1  0
  1  4  1  0
  8 12  1  0
 12 13  2  0
 13 15  1  0
 15 17  2  0
 17 19  1  0
 19 21  2  0
 21 12  1  0
  8  9  1  0
  8 10  1  0
  8 11  1  0
 13 14  1  0
 15 16  1  0
 17 18  1  0
 19 20  1  0
 21 22  1  0
M  CHG  1   6  -1
M  END
>  <PDB_ID>  (1113) 
pdb1vj7

>  <RESIDUE_NAME>  (1113) 
ASP   PHE

>  <FRAG_NAME>  (1113) 
ACET   MBZ

>  <FRAG_ATOM_NUM>  (1113) 
fragi: 7  fragj: 15

>  <atom.prop.CHAIN_ID>  (1113) 
A A A A A A A Z Z Z Z Z Z Z Z Z Z Z Z Z Z Z

>  <atom.prop.IS_HEAVY_ATOM>  (1113) 
1 0 0 0 1 1 1 1 0 0 0 1 1 0 1 0 1 0 1 0 1 0

>  <DIFUSE_FUNC_ATOM>  (1113) 
atom 6   atom 7   

>  <FINAL_SINGLE_POINT_ENERGY>  (1113) 
0

>  <NONCOV_INTER_ENERGY_QM>  (1113) 
0

>  <FF_Energy>  (1113) 
-2.42

>  <QM_Energy>  (1113) 
-7.49

>  <source>  (1113) 
ACET_MBZ_01

>  <Index>  (1113) 
1042

$$$$
ACET-pdb1vkd-A-GLU-88:MBZ-pdb1vkd-A-PHE-70
     RDKit          3D

 22 21  0  0  0  0  0  0  0  0999 V2000
    4.7696    2.4448   -1.0389 C   0  0  0  0  0  0  0  0  0  0  0  0
    5.4834    2.4708   -1.7134 H   0  0  0  0  0  0  0  0  0  0  0  0
    5.0636    2.7888   -0.1676 H   0  0  0  0  0  0  0  0  0  0  0  0
    3.9471    3.0672   -1.3911 H   0  0  0  0  0  0  0  0  0  0  0  0
    4.3611    1.0051   -0.8529 C   0  0  0  0  0  0  0  0  0  0  0  0
    4.0703    0.3373   -1.8789 O   0  0  0  0  0  1  0  0  0  0  0  0
    4.3397    0.5477    0.3166 O   0  0  0  0  0  0  0  0  0  0  0  0
    0.0150    2.9185   -0.0192 C   0  0  0  0  0  0  0  0  0  0  0  0
   -0.5691    3.2130   -0.7625 H   0  0  0  0  0  0  0  0  0  0  0  0
    0.9505    3.2095   -0.1645 H   0  0  0  0  0  0  0  0  0  0  0  0
   -0.3430    3.3969    0.8925 H   0  0  0  0  0  0  0  0  0  0  0  0
   -0.0005    1.4060    0.0120 C   0  0  0  0  0  0  0  0  0  0  0  0
   -1.2004    0.6967   -0.0078 C   0  0  0  0  0  0  0  0  0  0  0  0
   -2.0651    1.1880   -0.0294 H   0  0  0  0  0  0  0  0  0  0  0  0
   -1.2065   -0.6958   -0.0000 C   0  0  0  0  0  0  0  0  0  0  0  0
   -2.0775   -1.1929    0.0086 H   0  0  0  0  0  0  0  0  0  0  0  0
    0.0078   -1.3994   -0.0024 C   0  0  0  0  0  0  0  0  0  0  0  0
   -0.0007   -2.3941   -0.0062 H   0  0  0  0  0  0  0  0  0  0  0  0
    1.2065   -0.6985   -0.0000 C   0  0  0  0  0  0  0  0  0  0  0  0
    2.0891   -1.1921    0.0047 H   0  0  0  0  0  0  0  0  0  0  0  0
    1.1930    0.6909   -0.0017 C   0  0  0  0  0  0  0  0  0  0  0  0
    2.0647    1.1913   -0.0134 H   0  0  0  0  0  0  0  0  0  0  0  0
  1  5  1  0
  5  6  1  0
  5  7  2  0
  1  2  1  0
  1  3  1  0
  1  4  1  0
  8 12  1  0
 12 13  2  0
 13 15  1  0
 15 17  2  0
 17 19  1  0
 19 21  2  0
 21 12  1  0
  8  9  1  0
  8 10  1  0
  8 11  1  0
 13 14  1  0
 15 16  1  0
 17 18  1  0
 19 20  1  0
 21 22  1  0
M  CHG  1   6  -1
M  END
>  <PDB_ID>  (1114) 
pdb1vkd

>  <RESIDUE_NAME>  (1114) 
GLU   PHE

>  <FRAG_NAME>  (1114) 
ACET   MBZ

>  <FRAG_ATOM_NUM>  (1114) 
fragi: 7  fragj: 15

>  <atom.prop.CHAIN_ID>  (1114) 
A A A A A A A Z Z Z Z Z Z Z Z Z Z Z Z Z Z Z

>  <atom.prop.IS_HEAVY_ATOM>  (1114) 
1 0 0 0 1 1 1 1 0 0 0 1 1 0 1 0 1 0 1 0 1 0

>  <DIFUSE_FUNC_ATOM>  (1114) 
atom 6   atom 7   

>  <FINAL_SINGLE_POINT_ENERGY>  (1114) 
0

>  <NONCOV_INTER_ENERGY_QM>  (1114) 
0

>  <FF_Energy>  (1114) 
-0.46

>  <QM_Energy>  (1114) 
-6.65

>  <source>  (1114) 
ACET_MBZ_01

>  <Index>  (1114) 
1130

$$$$
ACET-pdb1vkd-E-ASP-173:MBZ-pdb1vkd-E-PHE-179
     RDKit          3D

 22 21  0  0  0  0  0  0  0  0999 V2000
   -0.0116   -3.8144    3.6325 C   0  0  0  0  0  0  0  0  0  0  0  0
   -0.4936   -3.0278    4.0185 H   0  0  0  0  0  0  0  0  0  0  0  0
    0.3074   -4.4060    4.3724 H   0  0  0  0  0  0  0  0  0  0  0  0
   -0.7450   -4.3863    3.0640 H   0  0  0  0  0  0  0  0  0  0  0  0
    1.1288   -3.3599    2.8206 C   0  0  0  0  0  0  0  0  0  0  0  0
    1.0712   -3.4586    1.5686 O   0  0  0  0  0  1  0  0  0  0  0  0
    2.1449   -2.9021    3.3779 O   0  0  0  0  0  0  0  0  0  0  0  0
    0.0040    2.9404    0.0195 C   0  0  0  0  0  0  0  0  0  0  0  0
   -0.6377    3.2480   -0.6617 H   0  0  0  0  0  0  0  0  0  0  0  0
    0.9222    3.2407   -0.1764 H   0  0  0  0  0  0  0  0  0  0  0  0
   -0.2925    3.3655    0.9783 H   0  0  0  0  0  0  0  0  0  0  0  0
    0.0019    1.4201    0.0023 C   0  0  0  0  0  0  0  0  0  0  0  0
   -1.2057    0.7008   -0.0033 C   0  0  0  0  0  0  0  0  0  0  0  0
   -2.0699    1.1873   -0.0106 H   0  0  0  0  0  0  0  0  0  0  0  0
   -1.2102   -0.7050   -0.0000 C   0  0  0  0  0  0  0  0  0  0  0  0
   -2.0858   -1.1941    0.0065 H   0  0  0  0  0  0  0  0  0  0  0  0
   -0.0010   -1.4115   -0.0039 C   0  0  0  0  0  0  0  0  0  0  0  0
   -0.0075   -2.4055   -0.0102 H   0  0  0  0  0  0  0  0  0  0  0  0
    1.2102   -0.7106   -0.0000 C   0  0  0  0  0  0  0  0  0  0  0  0
    2.0893   -1.1991    0.0005 H   0  0  0  0  0  0  0  0  0  0  0  0
    1.2049    0.7062    0.0048 C   0  0  0  0  0  0  0  0  0  0  0  0
    2.0730    1.1924    0.0091 H   0  0  0  0  0  0  0  0  0  0  0  0
  1  5  1  0
  5  6  1  0
  5  7  2  0
  1  2  1  0
  1  3  1  0
  1  4  1  0
  8 12  1  0
 12 13  2  0
 13 15  1  0
 15 17  2  0
 17 19  1  0
 19 21  2  0
 21 12  1  0
  8  9  1  0
  8 10  1  0
  8 11  1  0
 13 14  1  0
 15 16  1  0
 17 18  1  0
 19 20  1  0
 21 22  1  0
M  CHG  1   6  -1
M  END
>  <PDB_ID>  (1115) 
pdb1vkd

>  <RESIDUE_NAME>  (1115) 
ASP   PHE

>  <FRAG_NAME>  (1115) 
ACET   MBZ

>  <FRAG_ATOM_NUM>  (1115) 
fragi: 7  fragj: 15

>  <atom.prop.CHAIN_ID>  (1115) 
A A A A A A A Z Z Z Z Z Z Z Z Z Z Z Z Z Z Z

>  <atom.prop.IS_HEAVY_ATOM>  (1115) 
1 0 0 0 1 1 1 1 0 0 0 1 1 0 1 0 1 0 1 0 1 0

>  <DIFUSE_FUNC_ATOM>  (1115) 
atom 6   atom 7   

>  <FINAL_SINGLE_POINT_ENERGY>  (1115) 
0

>  <NONCOV_INTER_ENERGY_QM>  (1115) 
0

>  <FF_Energy>  (1115) 
2.31

>  <QM_Energy>  (1115) 
-3.87

>  <source>  (1115) 
ACET_MBZ_01

>  <Index>  (1115) 
1189

$$$$
ACET-pdb1vlh-A-ASP-10:MBZ-pdb1vlh-A-PHE-44
     RDKit          3D

 22 21  0  0  0  0  0  0  0  0999 V2000
    5.4310    3.2798    0.2495 C   0  0  0  0  0  0  0  0  0  0  0  0
    5.2468    4.1891    0.6147 H   0  0  0  0  0  0  0  0  0  0  0  0
    6.3773    3.2217   -0.0565 H   0  0  0  0  0  0  0  0  0  0  0  0
    5.2912    2.5587    1.0548 H   0  0  0  0  0  0  0  0  0  0  0  0
    4.5217    3.0374   -0.9337 C   0  0  0  0  0  0  0  0  0  0  0  0
    3.2983    2.8711   -0.7709 O   0  0  0  0  0  1  0  0  0  0  0  0
    4.9474    3.0212   -2.1044 O   0  0  0  0  0  0  0  0  0  0  0  0
    0.0004    2.8822   -0.0043 C   0  0  0  0  0  0  0  0  0  0  0  0
    0.8712    3.1971    0.3517 H   0  0  0  0  0  0  0  0  0  0  0  0
   -0.7479    3.2004    0.5650 H   0  0  0  0  0  0  0  0  0  0  0  0
   -0.1288    3.3261   -0.9913 H   0  0  0  0  0  0  0  0  0  0  0  0
   -0.0023    1.4026   -0.0023 C   0  0  0  0  0  0  0  0  0  0  0  0
   -1.1861    0.7068   -0.0141 C   0  0  0  0  0  0  0  0  0  0  0  0
   -2.0580    1.1850   -0.0341 H   0  0  0  0  0  0  0  0  0  0  0  0
   -1.1877   -0.6961   -0.0000 C   0  0  0  0  0  0  0  0  0  0  0  0
   -2.0768   -1.1776    0.0036 H   0  0  0  0  0  0  0  0  0  0  0  0
   -0.0060   -1.3951    0.0109 C   0  0  0  0  0  0  0  0  0  0  0  0
   -0.0106   -2.3939    0.0266 H   0  0  0  0  0  0  0  0  0  0  0  0
    1.1877   -0.7029    0.0000 C   0  0  0  0  0  0  0  0  0  0  0  0
    2.0724   -1.2044   -0.0113 H   0  0  0  0  0  0  0  0  0  0  0  0
    1.1943    0.6847    0.0056 C   0  0  0  0  0  0  0  0  0  0  0  0
    2.0632    1.1778    0.0151 H   0  0  0  0  0  0  0  0  0  0  0  0
  1  5  1  0
  5  6  1  0
  5  7  2  0
  1  2  1  0
  1  3  1  0
  1  4  1  0
  8 12  1  0
 12 13  2  0
 13 15  1  0
 15 17  2  0
 17 19  1  0
 19 21  2  0
 21 12  1  0
  8  9  1  0
  8 10  1  0
  8 11  1  0
 13 14  1  0
 15 16  1  0
 17 18  1  0
 19 20  1  0
 21 22  1  0
M  CHG  1   6  -1
M  END
>  <PDB_ID>  (1116) 
pdb1vlh

>  <RESIDUE_NAME>  (1116) 
ASP   PHE

>  <FRAG_NAME>  (1116) 
ACET   MBZ

>  <FRAG_ATOM_NUM>  (1116) 
fragi: 7  fragj: 15

>  <atom.prop.CHAIN_ID>  (1116) 
A A A A A A A Z Z Z Z Z Z Z Z Z Z Z Z Z Z Z

>  <atom.prop.IS_HEAVY_ATOM>  (1116) 
1 0 0 0 1 1 1 1 0 0 0 1 1 0 1 0 1 0 1 0 1 0

>  <DIFUSE_FUNC_ATOM>  (1116) 
atom 6   atom 7   

>  <FINAL_SINGLE_POINT_ENERGY>  (1116) 
0

>  <NONCOV_INTER_ENERGY_QM>  (1116) 
0

>  <FF_Energy>  (1116) 
-0.43

>  <QM_Energy>  (1116) 
-7.65

>  <source>  (1116) 
ACET_MBZ_01

>  <Index>  (1116) 
1265

$$$$
ACET-pdb1vr2-A-GLU-878:MBZ-pdb1vr2-A-PHE-845
     RDKit          3D

 22 21  0  0  0  0  0  0  0  0999 V2000
    4.1942    1.9992   -0.2790 C   0  0  0  0  0  0  0  0  0  0  0  0
    3.2467    2.0932   -0.5376 H   0  0  0  0  0  0  0  0  0  0  0  0
    4.5549    1.1168   -0.5343 H   0  0  0  0  0  0  0  0  0  0  0  0
    4.7677    2.7672   -0.7978 H   0  0  0  0  0  0  0  0  0  0  0  0
    4.2628    2.0969    1.2402 C   0  0  0  0  0  0  0  0  0  0  0  0
    3.3060    2.6180    1.8667 O   0  0  0  0  0  1  0  0  0  0  0  0
    5.2657    1.6249    1.8092 O   0  0  0  0  0  0  0  0  0  0  0  0
   -0.0102    2.8889   -0.0234 C   0  0  0  0  0  0  0  0  0  0  0  0
   -0.8243    3.1965   -0.5112 H   0  0  0  0  0  0  0  0  0  0  0  0
    0.8085    3.2097   -0.4949 H   0  0  0  0  0  0  0  0  0  0  0  0
   -0.0231    3.3815    0.9489 H   0  0  0  0  0  0  0  0  0  0  0  0
    0.0016    1.4001   -0.0067 C   0  0  0  0  0  0  0  0  0  0  0  0
   -1.1985    0.6927   -0.0082 C   0  0  0  0  0  0  0  0  0  0  0  0
   -2.0645    1.1935   -0.0155 H   0  0  0  0  0  0  0  0  0  0  0  0
   -1.2192   -0.6931   -0.0000 C   0  0  0  0  0  0  0  0  0  0  0  0
   -2.0876   -1.1864   -0.0102 H   0  0  0  0  0  0  0  0  0  0  0  0
   -0.0061   -1.3910    0.0246 C   0  0  0  0  0  0  0  0  0  0  0  0
   -0.0114   -2.3905    0.0605 H   0  0  0  0  0  0  0  0  0  0  0  0
    1.2192   -0.7005   -0.0000 C   0  0  0  0  0  0  0  0  0  0  0  0
    2.0852   -1.2010   -0.0099 H   0  0  0  0  0  0  0  0  0  0  0  0
    1.2030    0.6918   -0.0098 C   0  0  0  0  0  0  0  0  0  0  0  0
    2.0699    1.1939   -0.0184 H   0  0  0  0  0  0  0  0  0  0  0  0
  1  5  1  0
  5  6  1  0
  5  7  2  0
  1  2  1  0
  1  3  1  0
  1  4  1  0
  8 12  1  0
 12 13  2  0
 13 15  1  0
 15 17  2  0
 17 19  1  0
 19 21  2  0
 21 12  1  0
  8  9  1  0
  8 10  1  0
  8 11  1  0
 13 14  1  0
 15 16  1  0
 17 18  1  0
 19 20  1  0
 21 22  1  0
M  CHG  1   6  -1
M  END
>  <PDB_ID>  (1117) 
pdb1vr2

>  <RESIDUE_NAME>  (1117) 
GLU   PHE

>  <FRAG_NAME>  (1117) 
ACET   MBZ

>  <FRAG_ATOM_NUM>  (1117) 
fragi: 7  fragj: 15

>  <atom.prop.CHAIN_ID>  (1117) 
A A A A A A A Z Z Z Z Z Z Z Z Z Z Z Z Z Z Z

>  <atom.prop.IS_HEAVY_ATOM>  (1117) 
1 0 0 0 1 1 1 1 0 0 0 1 1 0 1 0 1 0 1 0 1 0

>  <DIFUSE_FUNC_ATOM>  (1117) 
atom 6   atom 7   

>  <FINAL_SINGLE_POINT_ENERGY>  (1117) 
0

>  <NONCOV_INTER_ENERGY_QM>  (1117) 
0

>  <FF_Energy>  (1117) 
20.78

>  <QM_Energy>  (1117) 
-0.79

>  <source>  (1117) 
ACET_MBZ_01

>  <Index>  (1117) 
1531

$$$$
ACET-pdb1vrp-A-GLU-231:MBZ-pdb1vrp-A-PHE-194
     RDKit          3D

 22 21  0  0  0  0  0  0  0  0999 V2000
   -0.9780    1.2261   -3.5665 C   0  0  0  0  0  0  0  0  0  0  0  0
   -1.7139    1.2988   -4.2049 H   0  0  0  0  0  0  0  0  0  0  0  0
   -1.2755    1.0687   -2.6492 H   0  0  0  0  0  0  0  0  0  0  0  0
   -0.3345    0.4010   -3.8715 H   0  0  0  0  0  0  0  0  0  0  0  0
   -0.2299    2.5590   -3.5790 C   0  0  0  0  0  0  0  0  0  0  0  0
    0.7618    2.6676   -4.3357 O   0  0  0  0  0  1  0  0  0  0  0  0
   -0.6420    3.4867   -2.8503 O   0  0  0  0  0  0  0  0  0  0  0  0
    0.0140    2.9186    0.0382 C   0  0  0  0  0  0  0  0  0  0  0  0
   -0.7594    3.2394   -0.4870 H   0  0  0  0  0  0  0  0  0  0  0  0
    0.8687    3.2224   -0.3542 H   0  0  0  0  0  0  0  0  0  0  0  0
   -0.0631    3.3343    1.0429 H   0  0  0  0  0  0  0  0  0  0  0  0
    0.0015    1.4077   -0.0001 C   0  0  0  0  0  0  0  0  0  0  0  0
   -1.1993    0.6993   -0.0006 C   0  0  0  0  0  0  0  0  0  0  0  0
   -2.0639    1.1903   -0.0025 H   0  0  0  0  0  0  0  0  0  0  0  0
   -1.2060   -0.6955    0.0000 C   0  0  0  0  0  0  0  0  0  0  0  0
   -2.0825   -1.1876   -0.0009 H   0  0  0  0  0  0  0  0  0  0  0  0
   -0.0013   -1.3998    0.0041 C   0  0  0  0  0  0  0  0  0  0  0  0
   -0.0105   -2.3968    0.0091 H   0  0  0  0  0  0  0  0  0  0  0  0
    1.2060   -0.7066   -0.0000 C   0  0  0  0  0  0  0  0  0  0  0  0
    2.0838   -1.1998    0.0014 H   0  0  0  0  0  0  0  0  0  0  0  0
    1.1990    0.6950   -0.0034 C   0  0  0  0  0  0  0  0  0  0  0  0
    2.0682    1.1878   -0.0094 H   0  0  0  0  0  0  0  0  0  0  0  0
  1  5  1  0
  5  6  1  0
  5  7  2  0
  1  2  1  0
  1  3  1  0
  1  4  1  0
  8 12  1  0
 12 13  2  0
 13 15  1  0
 15 17  2  0
 17 19  1  0
 19 21  2  0
 21 12  1  0
  8  9  1  0
  8 10  1  0
  8 11  1  0
 13 14  1  0
 15 16  1  0
 17 18  1  0
 19 20  1  0
 21 22  1  0
M  CHG  1   6  -1
M  END
>  <PDB_ID>  (1118) 
pdb1vrp

>  <RESIDUE_NAME>  (1118) 
GLU   PHE

>  <FRAG_NAME>  (1118) 
ACET   MBZ

>  <FRAG_ATOM_NUM>  (1118) 
fragi: 7  fragj: 15

>  <atom.prop.CHAIN_ID>  (1118) 
A A A A A A A Z Z Z Z Z Z Z Z Z Z Z Z Z Z Z

>  <atom.prop.IS_HEAVY_ATOM>  (1118) 
1 0 0 0 1 1 1 1 0 0 0 1 1 0 1 0 1 0 1 0 1 0

>  <DIFUSE_FUNC_ATOM>  (1118) 
atom 6   atom 7   

>  <FINAL_SINGLE_POINT_ENERGY>  (1118) 
0

>  <NONCOV_INTER_ENERGY_QM>  (1118) 
0

>  <FF_Energy>  (1118) 
0.84

>  <QM_Energy>  (1118) 
-4.39

>  <source>  (1118) 
ACET_MBZ_01

>  <Index>  (1118) 
1563

$$$$
ACET-pdb1vrg-A-ASP-129:MBZ-pdb1vrg-A-PHE-95
     RDKit          3D

 22 21  0  0  0  0  0  0  0  0999 V2000
   -3.0193    4.3337   -2.7861 C   0  0  0  0  0  0  0  0  0  0  0  0
   -3.1864    4.8107   -3.6451 H   0  0  0  0  0  0  0  0  0  0  0  0
   -2.8455    4.9912   -2.0587 H   0  0  0  0  0  0  0  0  0  0  0  0
   -3.9210    3.7778   -2.5293 H   0  0  0  0  0  0  0  0  0  0  0  0
   -1.7610    3.4595   -2.9569 C   0  0  0  0  0  0  0  0  0  0  0  0
   -1.8035    2.1957   -2.9405 O   0  0  0  0  0  1  0  0  0  0  0  0
   -0.6685    4.0773   -3.0910 O   0  0  0  0  0  0  0  0  0  0  0  0
   -0.0092    2.9035    0.0202 C   0  0  0  0  0  0  0  0  0  0  0  0
   -0.7656    3.2105   -0.5340 H   0  0  0  0  0  0  0  0  0  0  0  0
    0.8552    3.2208   -0.3364 H   0  0  0  0  0  0  0  0  0  0  0  0
   -0.1336    3.3227    1.0187 H   0  0  0  0  0  0  0  0  0  0  0  0
    0.0032    1.4007    0.0008 C   0  0  0  0  0  0  0  0  0  0  0  0
   -1.1874    0.6901    0.0059 C   0  0  0  0  0  0  0  0  0  0  0  0
   -2.0583    1.1774    0.0122 H   0  0  0  0  0  0  0  0  0  0  0  0
   -1.1970   -0.7063    0.0000 C   0  0  0  0  0  0  0  0  0  0  0  0
   -2.0827   -1.1888    0.0020 H   0  0  0  0  0  0  0  0  0  0  0  0
   -0.0132   -1.3986   -0.0070 C   0  0  0  0  0  0  0  0  0  0  0  0
   -0.0030   -2.3947   -0.0172 H   0  0  0  0  0  0  0  0  0  0  0  0
    1.1970   -0.6909   -0.0000 C   0  0  0  0  0  0  0  0  0  0  0  0
    2.0760   -1.1920    0.0062 H   0  0  0  0  0  0  0  0  0  0  0  0
    1.1975    0.7050    0.0003 C   0  0  0  0  0  0  0  0  0  0  0  0
    2.0649    1.1959   -0.0011 H   0  0  0  0  0  0  0  0  0  0  0  0
  1  5  1  0
  5  6  1  0
  5  7  2  0
  1  2  1  0
  1  3  1  0
  1  4  1  0
  8 12  1  0
 12 13  2  0
 13 15  1  0
 15 17  2  0
 17 19  1  0
 19 21  2  0
 21 12  1  0
  8  9  1  0
  8 10  1  0
  8 11  1  0
 13 14  1  0
 15 16  1  0
 17 18  1  0
 19 20  1  0
 21 22  1  0
M  CHG  1   6  -1
M  END
>  <PDB_ID>  (1119) 
pdb1vrg

>  <RESIDUE_NAME>  (1119) 
ASP   PHE

>  <FRAG_NAME>  (1119) 
ACET   MBZ

>  <FRAG_ATOM_NUM>  (1119) 
fragi: 7  fragj: 15

>  <atom.prop.CHAIN_ID>  (1119) 
A A A A A A A Z Z Z Z Z Z Z Z Z Z Z Z Z Z Z

>  <atom.prop.IS_HEAVY_ATOM>  (1119) 
1 0 0 0 1 1 1 1 0 0 0 1 1 0 1 0 1 0 1 0 1 0

>  <DIFUSE_FUNC_ATOM>  (1119) 
atom 6   atom 7   

>  <FINAL_SINGLE_POINT_ENERGY>  (1119) 
0

>  <NONCOV_INTER_ENERGY_QM>  (1119) 
0

>  <FF_Energy>  (1119) 
1.39

>  <QM_Energy>  (1119) 
-4.31

>  <source>  (1119) 
ACET_MBZ_01

>  <Index>  (1119) 
1700

$$$$
ACET-pdb3a04-A-ASP-110:MBZ-pdb3a04-A-PHE-150
     RDKit          3D

 22 21  0  0  0  0  0  0  0  0999 V2000
   -4.8925    2.2453    1.0087 C   0  0  0  0  0  0  0  0  0  0  0  0
   -5.2447    1.8059    1.8167 H   0  0  0  0  0  0  0  0  0  0  0  0
   -4.5580    1.5935    0.3507 H   0  0  0  0  0  0  0  0  0  0  0  0
   -5.7236    2.7750    0.5431 H   0  0  0  0  0  0  0  0  0  0  0  0
   -3.7322    3.1868    1.4164 C   0  0  0  0  0  0  0  0  0  0  0  0
   -3.2911    4.0545    0.5987 O   0  0  0  0  0  1  0  0  0  0  0  0
   -3.1602    3.0215    2.5584 O   0  0  0  0  0  0  0  0  0  0  0  0
   -0.0228    2.9354    0.0140 C   0  0  0  0  0  0  0  0  0  0  0  0
    0.8084    3.2476    0.4487 H   0  0  0  0  0  0  0  0  0  0  0  0
   -0.8236    3.2394    0.5078 H   0  0  0  0  0  0  0  0  0  0  0  0
   -0.0618    3.3767   -0.9819 H   0  0  0  0  0  0  0  0  0  0  0  0
   -0.0155    1.4408    0.0077 C   0  0  0  0  0  0  0  0  0  0  0  0
   -1.2093    0.7258   -0.0160 C   0  0  0  0  0  0  0  0  0  0  0  0
   -2.0827    1.1658   -0.0445 H   0  0  0  0  0  0  0  0  0  0  0  0
   -1.1880   -0.7423   -0.0000 C   0  0  0  0  0  0  0  0  0  0  0  0
   -2.0566   -1.2178    0.0127 H   0  0  0  0  0  0  0  0  0  0  0  0
    0.0369   -1.4155   -0.0011 C   0  0  0  0  0  0  0  0  0  0  0  0
    0.0164   -2.4296   -0.0037 H   0  0  0  0  0  0  0  0  0  0  0  0
    1.1880   -0.7413    0.0000 C   0  0  0  0  0  0  0  0  0  0  0  0
    2.0992   -1.1819   -0.0040 H   0  0  0  0  0  0  0  0  0  0  0  0
    1.1880    0.7325    0.0094 C   0  0  0  0  0  0  0  0  0  0  0  0
    2.0587    1.1889    0.0164 H   0  0  0  0  0  0  0  0  0  0  0  0
  1  5  1  0
  5  6  1  0
  5  7  2  0
  1  2  1  0
  1  3  1  0
  1  4  1  0
  8 12  1  0
 12 13  2  0
 13 15  1  0
 15 17  2  0
 17 19  1  0
 19 21  2  0
 21 12  1  0
  8  9  1  0
  8 10  1  0
  8 11  1  0
 13 14  1  0
 15 16  1  0
 17 18  1  0
 19 20  1  0
 21 22  1  0
M  CHG  1   6  -1
M  END
>  <PDB_ID>  (1120) 
pdb3a04

>  <RESIDUE_NAME>  (1120) 
ASP   PHE

>  <FRAG_NAME>  (1120) 
ACET   MBZ

>  <FRAG_ATOM_NUM>  (1120) 
fragi: 7  fragj: 15

>  <atom.prop.CHAIN_ID>  (1120) 
A A A A A A A Z Z Z Z Z Z Z Z Z Z Z Z Z Z Z

>  <atom.prop.IS_HEAVY_ATOM>  (1120) 
1 0 0 0 1 1 1 1 0 0 0 1 1 0 1 0 1 0 1 0 1 0

>  <DIFUSE_FUNC_ATOM>  (1120) 
atom 6   atom 7   

>  <FINAL_SINGLE_POINT_ENERGY>  (1120) 
0

>  <NONCOV_INTER_ENERGY_QM>  (1120) 
0

>  <FF_Energy>  (1120) 
-1.83

>  <QM_Energy>  (1120) 
-7.07

>  <source>  (1120) 
ACET_MBZ_01

>  <Index>  (1120) 
1725

$$$$
ACET-pdb1w18-A-ASP-169:MBZ-pdb1w18-A-PHE-470
     RDKit          3D

 22 21  0  0  0  0  0  0  0  0999 V2000
   -4.1764    2.0388    3.4069 C   0  0  0  0  0  0  0  0  0  0  0  0
   -3.5697    2.3418    4.1331 H   0  0  0  0  0  0  0  0  0  0  0  0
   -4.1585    1.0485    3.3310 H   0  0  0  0  0  0  0  0  0  0  0  0
   -5.1907    2.3370    3.6720 H   0  0  0  0  0  0  0  0  0  0  0  0
   -3.7420    2.6412    2.1177 C   0  0  0  0  0  0  0  0  0  0  0  0
   -4.6094    2.6433    1.2074 O   0  0  0  0  0  1  0  0  0  0  0  0
   -2.5861    3.1263    1.9265 O   0  0  0  0  0  0  0  0  0  0  0  0
   -0.0035    2.8903   -0.0255 C   0  0  0  0  0  0  0  0  0  0  0  0
    0.7697    3.2198    0.4998 H   0  0  0  0  0  0  0  0  0  0  0  0
   -0.8583    3.2001    0.3692 H   0  0  0  0  0  0  0  0  0  0  0  0
    0.0710    3.3148   -1.0267 H   0  0  0  0  0  0  0  0  0  0  0  0
    0.0132    1.4082   -0.0044 C   0  0  0  0  0  0  0  0  0  0  0  0
   -1.2040    0.6794    0.0019 C   0  0  0  0  0  0  0  0  0  0  0  0
   -2.0653    1.1736    0.0062 H   0  0  0  0  0  0  0  0  0  0  0  0
   -1.2157   -0.7260    0.0000 C   0  0  0  0  0  0  0  0  0  0  0  0
   -2.0926   -1.2076   -0.0022 H   0  0  0  0  0  0  0  0  0  0  0  0
   -0.0180   -1.4095    0.0027 C   0  0  0  0  0  0  0  0  0  0  0  0
    0.0151   -2.3987    0.0060 H   0  0  0  0  0  0  0  0  0  0  0  0
    1.2157   -0.6734   -0.0000 C   0  0  0  0  0  0  0  0  0  0  0  0
    2.0867   -1.1809   -0.0003 H   0  0  0  0  0  0  0  0  0  0  0  0
    1.2088    0.7212   -0.0002 C   0  0  0  0  0  0  0  0  0  0  0  0
    2.0740    1.2156    0.0017 H   0  0  0  0  0  0  0  0  0  0  0  0
  1  5  1  0
  5  6  1  0
  5  7  2  0
  1  2  1  0
  1  3  1  0
  1  4  1  0
  8 12  1  0
 12 13  2  0
 13 15  1  0
 15 17  2  0
 17 19  1  0
 19 21  2  0
 21 12  1  0
  8  9  1  0
  8 10  1  0
  8 11  1  0
 13 14  1  0
 15 16  1  0
 17 18  1  0
 19 20  1  0
 21 22  1  0
M  CHG  1   6  -1
M  END
>  <PDB_ID>  (1121) 
pdb1w18

>  <RESIDUE_NAME>  (1121) 
ASP   PHE

>  <FRAG_NAME>  (1121) 
ACET   MBZ

>  <FRAG_ATOM_NUM>  (1121) 
fragi: 7  fragj: 15

>  <atom.prop.CHAIN_ID>  (1121) 
A A A A A A A Z Z Z Z Z Z Z Z Z Z Z Z Z Z Z

>  <atom.prop.IS_HEAVY_ATOM>  (1121) 
1 0 0 0 1 1 1 1 0 0 0 1 1 0 1 0 1 0 1 0 1 0

>  <DIFUSE_FUNC_ATOM>  (1121) 
atom 6   atom 7   

>  <FINAL_SINGLE_POINT_ENERGY>  (1121) 
0

>  <NONCOV_INTER_ENERGY_QM>  (1121) 
0

>  <FF_Energy>  (1121) 
-1.28

>  <QM_Energy>  (1121) 
-8.07

>  <source>  (1121) 
ACET_MBZ_01

>  <Index>  (1121) 
1733

$$$$
ACET-pdb3a3t-A-GLU-64:MBZ-pdb3a3t-A-PHE-117
     RDKit          3D

 22 21  0  0  0  0  0  0  0  0999 V2000
    2.9259   -2.4951    2.0011 C   0  0  0  0  0  0  0  0  0  0  0  0
    2.4995   -3.2994    2.3707 H   0  0  0  0  0  0  0  0  0  0  0  0
    2.2845   -1.9103    1.5415 H   0  0  0  0  0  0  0  0  0  0  0  0
    3.3746   -1.9366    2.8227 H   0  0  0  0  0  0  0  0  0  0  0  0
    3.9473   -2.9531    0.9678 C   0  0  0  0  0  0  0  0  0  0  0  0
    5.0209   -2.3101    0.8607 O   0  0  0  0  0  1  0  0  0  0  0  0
    3.6685   -3.9474    0.2567 O   0  0  0  0  0  0  0  0  0  0  0  0
    0.0057    2.9065    0.0100 C   0  0  0  0  0  0  0  0  0  0  0  0
    0.9468    3.2071   -0.0359 H   0  0  0  0  0  0  0  0  0  0  0  0
   -0.4225    3.1991    0.8523 H   0  0  0  0  0  0  0  0  0  0  0  0
   -0.5330    3.3703   -0.8163 H   0  0  0  0  0  0  0  0  0  0  0  0
    0.0001    1.3950   -0.0121 C   0  0  0  0  0  0  0  0  0  0  0  0
   -1.1904    0.6886    0.0066 C   0  0  0  0  0  0  0  0  0  0  0  0
   -2.0587    1.1807    0.0234 H   0  0  0  0  0  0  0  0  0  0  0  0
   -1.1946   -0.6941    0.0000 C   0  0  0  0  0  0  0  0  0  0  0  0
   -2.0726   -1.1892   -0.0049 H   0  0  0  0  0  0  0  0  0  0  0  0
    0.0011   -1.3856    0.0025 C   0  0  0  0  0  0  0  0  0  0  0  0
   -0.0018   -2.3864    0.0056 H   0  0  0  0  0  0  0  0  0  0  0  0
    1.1946   -0.6906   -0.0000 C   0  0  0  0  0  0  0  0  0  0  0  0
    2.0779   -1.1915   -0.0028 H   0  0  0  0  0  0  0  0  0  0  0  0
    1.1892    0.6867    0.0030 C   0  0  0  0  0  0  0  0  0  0  0  0
    2.0604    1.1873    0.0156 H   0  0  0  0  0  0  0  0  0  0  0  0
  1  5  1  0
  5  6  1  0
  5  7  2  0
  1  2  1  0
  1  3  1  0
  1  4  1  0
  8 12  1  0
 12 13  2  0
 13 15  1  0
 15 17  2  0
 17 19  1  0
 19 21  2  0
 21 12  1  0
  8  9  1  0
  8 10  1  0
  8 11  1  0
 13 14  1  0
 15 16  1  0
 17 18  1  0
 19 20  1  0
 21 22  1  0
M  CHG  1   6  -1
M  END
>  <PDB_ID>  (1122) 
pdb3a3t

>  <RESIDUE_NAME>  (1122) 
GLU   PHE

>  <FRAG_NAME>  (1122) 
ACET   MBZ

>  <FRAG_ATOM_NUM>  (1122) 
fragi: 7  fragj: 15

>  <atom.prop.CHAIN_ID>  (1122) 
A A A A A A A Z Z Z Z Z Z Z Z Z Z Z Z Z Z Z

>  <atom.prop.IS_HEAVY_ATOM>  (1122) 
1 0 0 0 1 1 1 1 0 0 0 1 1 0 1 0 1 0 1 0 1 0

>  <DIFUSE_FUNC_ATOM>  (1122) 
atom 6   atom 7   

>  <FINAL_SINGLE_POINT_ENERGY>  (1122) 
0

>  <NONCOV_INTER_ENERGY_QM>  (1122) 
0

>  <FF_Energy>  (1122) 
8.29

>  <QM_Energy>  (1122) 
-0.19

>  <source>  (1122) 
ACET_MBZ_01

>  <Index>  (1122) 
1859

$$$$
ACET-pdb3a57-A-GLU-129:MBZ-pdb3a57-A-PHE-134
     RDKit          3D

 22 21  0  0  0  0  0  0  0  0999 V2000
   -3.8099   -0.2200   -1.3809 C   0  0  0  0  0  0  0  0  0  0  0  0
   -3.8413   -0.9090   -2.0737 H   0  0  0  0  0  0  0  0  0  0  0  0
   -2.9100   -0.0652   -1.0321 H   0  0  0  0  0  0  0  0  0  0  0  0
   -4.2698    0.7072   -1.7230 H   0  0  0  0  0  0  0  0  0  0  0  0
   -4.6169   -0.8077   -0.1810 C   0  0  0  0  0  0  0  0  0  0  0  0
   -5.6417   -0.1870    0.1994 O   0  0  0  0  0  1  0  0  0  0  0  0
   -4.2595   -1.9046    0.3326 O   0  0  0  0  0  0  0  0  0  0  0  0
    0.0357    2.8887    0.0236 C   0  0  0  0  0  0  0  0  0  0  0  0
    0.9101    3.1678    0.4011 H   0  0  0  0  0  0  0  0  0  0  0  0
   -0.7103    3.1990    0.6018 H   0  0  0  0  0  0  0  0  0  0  0  0
   -0.0760    3.3582   -0.9537 H   0  0  0  0  0  0  0  0  0  0  0  0
    0.0036    1.3912   -0.0029 C   0  0  0  0  0  0  0  0  0  0  0  0
   -1.2051    0.7061   -0.0094 C   0  0  0  0  0  0  0  0  0  0  0  0
   -2.0639    1.1733   -0.0216 H   0  0  0  0  0  0  0  0  0  0  0  0
   -1.1962   -0.7257   -0.0000 C   0  0  0  0  0  0  0  0  0  0  0  0
   -2.0617   -1.2104    0.0102 H   0  0  0  0  0  0  0  0  0  0  0  0
    0.0198   -1.3816   -0.0031 C   0  0  0  0  0  0  0  0  0  0  0  0
    0.0323   -2.3921   -0.0083 H   0  0  0  0  0  0  0  0  0  0  0  0
    1.1962   -0.6797   -0.0000 C   0  0  0  0  0  0  0  0  0  0  0  0
    2.0889   -1.1743   -0.0077 H   0  0  0  0  0  0  0  0  0  0  0  0
    1.1817    0.6897    0.0153 C   0  0  0  0  0  0  0  0  0  0  0  0
    2.0572    1.1947    0.0394 H   0  0  0  0  0  0  0  0  0  0  0  0
  1  5  1  0
  5  6  1  0
  5  7  2  0
  1  2  1  0
  1  3  1  0
  1  4  1  0
  8 12  1  0
 12 13  2  0
 13 15  1  0
 15 17  2  0
 17 19  1  0
 19 21  2  0
 21 12  1  0
  8  9  1  0
  8 10  1  0
  8 11  1  0
 13 14  1  0
 15 16  1  0
 17 18  1  0
 19 20  1  0
 21 22  1  0
M  CHG  1   6  -1
M  END
>  <PDB_ID>  (1123) 
pdb3a57

>  <RESIDUE_NAME>  (1123) 
GLU   PHE

>  <FRAG_NAME>  (1123) 
ACET   MBZ

>  <FRAG_ATOM_NUM>  (1123) 
fragi: 7  fragj: 15

>  <atom.prop.CHAIN_ID>  (1123) 
A A A A A A A Z Z Z Z Z Z Z Z Z Z Z Z Z Z Z

>  <atom.prop.IS_HEAVY_ATOM>  (1123) 
1 0 0 0 1 1 1 1 0 0 0 1 1 0 1 0 1 0 1 0 1 0

>  <DIFUSE_FUNC_ATOM>  (1123) 
atom 6   atom 7   

>  <FINAL_SINGLE_POINT_ENERGY>  (1123) 
0

>  <NONCOV_INTER_ENERGY_QM>  (1123) 
0

>  <FF_Energy>  (1123) 
26.11

>  <QM_Energy>  (1123) 
2.17

>  <source>  (1123) 
ACET_MBZ_01

>  <Index>  (1123) 
1889

$$$$
ACET-pdb3a0f-A-ASP-34:MBZ-pdb3a0f-A-PHE-15
     RDKit          3D

 22 21  0  0  0  0  0  0  0  0999 V2000
   -4.6099    3.0485   -1.9618 C   0  0  0  0  0  0  0  0  0  0  0  0
   -5.4880    3.1231   -1.5031 H   0  0  0  0  0  0  0  0  0  0  0  0
   -4.2923    2.1076   -1.9522 H   0  0  0  0  0  0  0  0  0  0  0  0
   -4.7350    3.3600   -2.9988 H   0  0  0  0  0  0  0  0  0  0  0  0
   -3.5879    3.9056   -1.1756 C   0  0  0  0  0  0  0  0  0  0  0  0
   -3.2808    3.5340   -0.0330 O   0  0  0  0  0  1  0  0  0  0  0  0
   -3.0909    4.9458   -1.6639 O   0  0  0  0  0  0  0  0  0  0  0  0
   -0.0192    2.9139    0.0341 C   0  0  0  0  0  0  0  0  0  0  0  0
    0.0564    3.1991    0.9799 H   0  0  0  0  0  0  0  0  0  0  0  0
   -0.8747    3.2177   -0.3616 H   0  0  0  0  0  0  0  0  0  0  0  0
    0.7903    3.3881   -0.5207 H   0  0  0  0  0  0  0  0  0  0  0  0
    0.0031    1.4130   -0.0029 C   0  0  0  0  0  0  0  0  0  0  0  0
   -1.2109    0.6928   -0.0011 C   0  0  0  0  0  0  0  0  0  0  0  0
   -2.0713    1.1877   -0.0019 H   0  0  0  0  0  0  0  0  0  0  0  0
   -1.2181   -0.7042   -0.0000 C   0  0  0  0  0  0  0  0  0  0  0  0
   -2.0922   -1.1963    0.0046 H   0  0  0  0  0  0  0  0  0  0  0  0
   -0.0084   -1.4119   -0.0039 C   0  0  0  0  0  0  0  0  0  0  0  0
   -0.0040   -2.4004   -0.0095 H   0  0  0  0  0  0  0  0  0  0  0  0
    1.2181   -0.6958    0.0000 C   0  0  0  0  0  0  0  0  0  0  0  0
    2.0901   -1.1986   -0.0018 H   0  0  0  0  0  0  0  0  0  0  0  0
    1.2162    0.7062    0.0079 C   0  0  0  0  0  0  0  0  0  0  0  0
    2.0760    1.2020    0.0201 H   0  0  0  0  0  0  0  0  0  0  0  0
  1  5  1  0
  5  6  1  0
  5  7  2  0
  1  2  1  0
  1  3  1  0
  1  4  1  0
  8 12  1  0
 12 13  2  0
 13 15  1  0
 15 17  2  0
 17 19  1  0
 19 21  2  0
 21 12  1  0
  8  9  1  0
  8 10  1  0
  8 11  1  0
 13 14  1  0
 15 16  1  0
 17 18  1  0
 19 20  1  0
 21 22  1  0
M  CHG  1   6  -1
M  END
>  <PDB_ID>  (1124) 
pdb3a0f

>  <RESIDUE_NAME>  (1124) 
ASP   PHE

>  <FRAG_NAME>  (1124) 
ACET   MBZ

>  <FRAG_ATOM_NUM>  (1124) 
fragi: 7  fragj: 15

>  <atom.prop.CHAIN_ID>  (1124) 
A A A A A A A Z Z Z Z Z Z Z Z Z Z Z Z Z Z Z

>  <atom.prop.IS_HEAVY_ATOM>  (1124) 
1 0 0 0 1 1 1 1 0 0 0 1 1 0 1 0 1 0 1 0 1 0

>  <DIFUSE_FUNC_ATOM>  (1124) 
atom 6   atom 7   

>  <FINAL_SINGLE_POINT_ENERGY>  (1124) 
0

>  <NONCOV_INTER_ENERGY_QM>  (1124) 
0

>  <FF_Energy>  (1124) 
-2.29

>  <QM_Energy>  (1124) 
-8.23

>  <source>  (1124) 
ACET_MBZ_01

>  <Index>  (1124) 
1928

$$$$
ACET-pdb1w2w-F-ASP-280:MBZ-pdb1w2w-F-PHE-379
     RDKit          3D

 22 21  0  0  0  0  0  0  0  0999 V2000
   -3.1980   -0.8550    3.3550 C   0  0  0  0  0  0  0  0  0  0  0  0
   -3.0020    0.1113    3.3221 H   0  0  0  0  0  0  0  0  0  0  0  0
   -2.4206   -1.3732    3.6699 H   0  0  0  0  0  0  0  0  0  0  0  0
   -4.0136   -1.0089    4.0616 H   0  0  0  0  0  0  0  0  0  0  0  0
   -3.5958   -1.3285    1.9984 C   0  0  0  0  0  0  0  0  0  0  0  0
   -4.0736   -0.4858    1.1887 O   0  0  0  0  0  1  0  0  0  0  0  0
   -3.5090   -2.5406    1.6968 O   0  0  0  0  0  0  0  0  0  0  0  0
    0.0057    2.8902   -0.0244 C   0  0  0  0  0  0  0  0  0  0  0  0
    0.8610    3.2024    0.3466 H   0  0  0  0  0  0  0  0  0  0  0  0
   -0.7652    3.2171    0.4911 H   0  0  0  0  0  0  0  0  0  0  0  0
   -0.0808    3.2884   -1.0353 H   0  0  0  0  0  0  0  0  0  0  0  0
   -0.0050    1.3950    0.0042 C   0  0  0  0  0  0  0  0  0  0  0  0
   -1.2011    0.6983   -0.0064 C   0  0  0  0  0  0  0  0  0  0  0  0
   -2.0653    1.1868   -0.0201 H   0  0  0  0  0  0  0  0  0  0  0  0
   -1.2024   -0.6923   -0.0000 C   0  0  0  0  0  0  0  0  0  0  0  0
   -2.0703   -1.1939    0.0035 H   0  0  0  0  0  0  0  0  0  0  0  0
    0.0149   -1.3888    0.0034 C   0  0  0  0  0  0  0  0  0  0  0  0
   -0.0014   -2.3904    0.0083 H   0  0  0  0  0  0  0  0  0  0  0  0
    1.2024   -0.7029    0.0000 C   0  0  0  0  0  0  0  0  0  0  0  0
    2.0890   -1.1916   -0.0003 H   0  0  0  0  0  0  0  0  0  0  0  0
    1.1912    0.6908   -0.0012 C   0  0  0  0  0  0  0  0  0  0  0  0
    2.0591    1.1885   -0.0064 H   0  0  0  0  0  0  0  0  0  0  0  0
  1  5  1  0
  5  6  1  0
  5  7  2  0
  1  2  1  0
  1  3  1  0
  1  4  1  0
  8 12  1  0
 12 13  2  0
 13 15  1  0
 15 17  2  0
 17 19  1  0
 19 21  2  0
 21 12  1  0
  8  9  1  0
  8 10  1  0
  8 11  1  0
 13 14  1  0
 15 16  1  0
 17 18  1  0
 19 20  1  0
 21 22  1  0
M  CHG  1   6  -1
M  END
>  <PDB_ID>  (1125) 
pdb1w2w

>  <RESIDUE_NAME>  (1125) 
ASP   PHE

>  <FRAG_NAME>  (1125) 
ACET   MBZ

>  <FRAG_ATOM_NUM>  (1125) 
fragi: 7  fragj: 15

>  <atom.prop.CHAIN_ID>  (1125) 
A A A A A A A Z Z Z Z Z Z Z Z Z Z Z Z Z Z Z

>  <atom.prop.IS_HEAVY_ATOM>  (1125) 
1 0 0 0 1 1 1 1 0 0 0 1 1 0 1 0 1 0 1 0 1 0

>  <DIFUSE_FUNC_ATOM>  (1125) 
atom 6   atom 7   

>  <FINAL_SINGLE_POINT_ENERGY>  (1125) 
0

>  <NONCOV_INTER_ENERGY_QM>  (1125) 
0

>  <FF_Energy>  (1125) 
-1.3

>  <QM_Energy>  (1125) 
-7.17

>  <source>  (1125) 
ACET_MBZ_01

>  <Index>  (1125) 
1939

$$$$
ACET-pdb1w5s-A-GLU-274:MBZ-pdb1w5s-A-PHE-9
     RDKit          3D

 22 21  0  0  0  0  0  0  0  0999 V2000
   -6.2594    0.3335    1.8775 C   0  0  0  0  0  0  0  0  0  0  0  0
   -7.0362    0.6686    1.3761 H   0  0  0  0  0  0  0  0  0  0  0  0
   -6.1084    0.8368    2.7089 H   0  0  0  0  0  0  0  0  0  0  0  0
   -6.3998   -0.7227    2.1070 H   0  0  0  0  0  0  0  0  0  0  0  0
   -5.0209    0.5966    0.9829 C   0  0  0  0  0  0  0  0  0  0  0  0
   -3.8706    0.1781    1.3793 O   0  0  0  0  0  1  0  0  0  0  0  0
   -5.2179    1.2392   -0.0881 O   0  0  0  0  0  0  0  0  0  0  0  0
   -0.0117    2.8913    0.0229 C   0  0  0  0  0  0  0  0  0  0  0  0
   -0.8780    3.2004   -0.3277 H   0  0  0  0  0  0  0  0  0  0  0  0
    0.7437    3.2158   -0.5206 H   0  0  0  0  0  0  0  0  0  0  0  0
    0.1040    3.3021    1.0260 H   0  0  0  0  0  0  0  0  0  0  0  0
   -0.0013    1.3872   -0.0070 C   0  0  0  0  0  0  0  0  0  0  0  0
   -1.1894    0.6699    0.0103 C   0  0  0  0  0  0  0  0  0  0  0  0
   -2.0587    1.1704    0.0295 H   0  0  0  0  0  0  0  0  0  0  0  0
   -1.1865   -0.6873   -0.0000 C   0  0  0  0  0  0  0  0  0  0  0  0
   -2.0632   -1.1967    0.0050 H   0  0  0  0  0  0  0  0  0  0  0  0
    0.0046   -1.3699   -0.0155 C   0  0  0  0  0  0  0  0  0  0  0  0
   -0.0019   -2.3776   -0.0385 H   0  0  0  0  0  0  0  0  0  0  0  0
    1.1865   -0.6887    0.0000 C   0  0  0  0  0  0  0  0  0  0  0  0
    2.0746   -1.1877    0.0044 H   0  0  0  0  0  0  0  0  0  0  0  0
    1.1860    0.6888    0.0123 C   0  0  0  0  0  0  0  0  0  0  0  0
    2.0557    1.1858    0.0345 H   0  0  0  0  0  0  0  0  0  0  0  0
  1  5  1  0
  5  6  1  0
  5  7  2  0
  1  2  1  0
  1  3  1  0
  1  4  1  0
  8 12  1  0
 12 13  2  0
 13 15  1  0
 15 17  2  0
 17 19  1  0
 19 21  2  0
 21 12  1  0
  8  9  1  0
  8 10  1  0
  8 11  1  0
 13 14  1  0
 15 16  1  0
 17 18  1  0
 19 20  1  0
 21 22  1  0
M  CHG  1   6  -1
M  END
>  <PDB_ID>  (1126) 
pdb1w5s

>  <RESIDUE_NAME>  (1126) 
GLU   PHE

>  <FRAG_NAME>  (1126) 
ACET   MBZ

>  <FRAG_ATOM_NUM>  (1126) 
fragi: 7  fragj: 15

>  <atom.prop.CHAIN_ID>  (1126) 
A A A A A A A Z Z Z Z Z Z Z Z Z Z Z Z Z Z Z

>  <atom.prop.IS_HEAVY_ATOM>  (1126) 
1 0 0 0 1 1 1 1 0 0 0 1 1 0 1 0 1 0 1 0 1 0

>  <DIFUSE_FUNC_ATOM>  (1126) 
atom 6   atom 7   

>  <FINAL_SINGLE_POINT_ENERGY>  (1126) 
0

>  <NONCOV_INTER_ENERGY_QM>  (1126) 
0

>  <FF_Energy>  (1126) 
-1.55

>  <QM_Energy>  (1126) 
-6.62

>  <source>  (1126) 
ACET_MBZ_01

>  <Index>  (1126) 
2078

$$$$
ACET-pdb3a8u-X-GLU-260:MBZ-pdb3a8u-X-PHE-272
     RDKit          3D

 22 21  0  0  0  0  0  0  0  0999 V2000
   -4.6094    3.5022    2.4911 C   0  0  0  0  0  0  0  0  0  0  0  0
   -5.1890    4.2741    2.6938 H   0  0  0  0  0  0  0  0  0  0  0  0
   -4.2223    3.1122    3.3101 H   0  0  0  0  0  0  0  0  0  0  0  0
   -5.2226    2.7390    2.0121 H   0  0  0  0  0  0  0  0  0  0  0  0
   -3.4605    4.0013    1.6316 C   0  0  0  0  0  0  0  0  0  0  0  0
   -3.5399    3.9607    0.3943 O   0  0  0  0  0  1  0  0  0  0  0  0
   -2.4541    4.4175    2.2380 O   0  0  0  0  0  0  0  0  0  0  0  0
    0.0102    2.8891   -0.0325 C   0  0  0  0  0  0  0  0  0  0  0  0
    0.9110    3.2038    0.2185 H   0  0  0  0  0  0  0  0  0  0  0  0
   -0.6781    3.2177    0.5939 H   0  0  0  0  0  0  0  0  0  0  0  0
   -0.2186    3.2973   -1.0170 H   0  0  0  0  0  0  0  0  0  0  0  0
    0.0038    1.4021   -0.0032 C   0  0  0  0  0  0  0  0  0  0  0  0
   -1.2025    0.7018    0.0020 C   0  0  0  0  0  0  0  0  0  0  0  0
   -2.0626    1.1881    0.0062 H   0  0  0  0  0  0  0  0  0  0  0  0
   -1.2012   -0.6983   -0.0000 C   0  0  0  0  0  0  0  0  0  0  0  0
   -2.0763   -1.1915   -0.0066 H   0  0  0  0  0  0  0  0  0  0  0  0
    0.0053   -1.3929    0.0089 C   0  0  0  0  0  0  0  0  0  0  0  0
   -0.0028   -2.3939    0.0220 H   0  0  0  0  0  0  0  0  0  0  0  0
    1.2012   -0.7018    0.0000 C   0  0  0  0  0  0  0  0  0  0  0  0
    2.0845   -1.1957    0.0005 H   0  0  0  0  0  0  0  0  0  0  0  0
    1.1935    0.6890   -0.0077 C   0  0  0  0  0  0  0  0  0  0  0  0
    2.0661    1.1846   -0.0176 H   0  0  0  0  0  0  0  0  0  0  0  0
  1  5  1  0
  5  6  1  0
  5  7  2  0
  1  2  1  0
  1  3  1  0
  1  4  1  0
  8 12  1  0
 12 13  2  0
 13 15  1  0
 15 17  2  0
 17 19  1  0
 19 21  2  0
 21 12  1  0
  8  9  1  0
  8 10  1  0
  8 11  1  0
 13 14  1  0
 15 16  1  0
 17 18  1  0
 19 20  1  0
 21 22  1  0
M  CHG  1   6  -1
M  END
>  <PDB_ID>  (1127) 
pdb3a8u

>  <RESIDUE_NAME>  (1127) 
GLU   PHE

>  <FRAG_NAME>  (1127) 
ACET   MBZ

>  <FRAG_ATOM_NUM>  (1127) 
fragi: 7  fragj: 15

>  <atom.prop.CHAIN_ID>  (1127) 
A A A A A A A Z Z Z Z Z Z Z Z Z Z Z Z Z Z Z

>  <atom.prop.IS_HEAVY_ATOM>  (1127) 
1 0 0 0 1 1 1 1 0 0 0 1 1 0 1 0 1 0 1 0 1 0

>  <DIFUSE_FUNC_ATOM>  (1127) 
atom 6   atom 7   

>  <FINAL_SINGLE_POINT_ENERGY>  (1127) 
0

>  <NONCOV_INTER_ENERGY_QM>  (1127) 
0

>  <FF_Energy>  (1127) 
-2.14

>  <QM_Energy>  (1127) 
-7.39

>  <source>  (1127) 
ACET_MBZ_01

>  <Index>  (1127) 
2141

$$$$
ACET-pdb3a9x-B-GLU-277:MBZ-pdb3a9x-B-PHE-83
     RDKit          3D

 22 21  0  0  0  0  0  0  0  0999 V2000
    4.2176    4.9698   -0.7025 C   0  0  0  0  0  0  0  0  0  0  0  0
    4.6014    5.0944    0.1954 H   0  0  0  0  0  0  0  0  0  0  0  0
    3.3638    5.4489   -0.8059 H   0  0  0  0  0  0  0  0  0  0  0  0
    4.9262    5.3203   -1.4529 H   0  0  0  0  0  0  0  0  0  0  0  0
    3.8953    3.4718   -0.8355 C   0  0  0  0  0  0  0  0  0  0  0  0
    3.3903    2.9768   -1.8667 O   0  0  0  0  0  1  0  0  0  0  0  0
    4.1667    2.7881    0.1332 O   0  0  0  0  0  0  0  0  0  0  0  0
   -0.0098    2.8970   -0.0814 C   0  0  0  0  0  0  0  0  0  0  0  0
    0.9175    3.2197    0.0478 H   0  0  0  0  0  0  0  0  0  0  0  0
   -0.6113    3.2458    0.6230 H   0  0  0  0  0  0  0  0  0  0  0  0
   -0.3622    3.2895   -1.0352 H   0  0  0  0  0  0  0  0  0  0  0  0
   -0.0059    1.4059   -0.0009 C   0  0  0  0  0  0  0  0  0  0  0  0
   -1.2000    0.7011    0.0021 C   0  0  0  0  0  0  0  0  0  0  0  0
   -2.0684    1.1794    0.0041 H   0  0  0  0  0  0  0  0  0  0  0  0
   -1.1986   -0.7066    0.0000 C   0  0  0  0  0  0  0  0  0  0  0  0
   -2.0662   -1.2018    0.0017 H   0  0  0  0  0  0  0  0  0  0  0  0
    0.0219   -1.3993   -0.0027 C   0  0  0  0  0  0  0  0  0  0  0  0
    0.0086   -2.4002   -0.0070 H   0  0  0  0  0  0  0  0  0  0  0  0
    1.1986   -0.7060   -0.0000 C   0  0  0  0  0  0  0  0  0  0  0  0
    2.0935   -1.1799    0.0029 H   0  0  0  0  0  0  0  0  0  0  0  0
    1.1839    0.7049    0.0015 C   0  0  0  0  0  0  0  0  0  0  0  0
    2.0569    1.1936    0.0031 H   0  0  0  0  0  0  0  0  0  0  0  0
  1  5  1  0
  5  6  1  0
  5  7  2  0
  1  2  1  0
  1  3  1  0
  1  4  1  0
  8 12  1  0
 12 13  2  0
 13 15  1  0
 15 17  2  0
 17 19  1  0
 19 21  2  0
 21 12  1  0
  8  9  1  0
  8 10  1  0
  8 11  1  0
 13 14  1  0
 15 16  1  0
 17 18  1  0
 19 20  1  0
 21 22  1  0
M  CHG  1   6  -1
M  END
>  <PDB_ID>  (1128) 
pdb3a9x

>  <RESIDUE_NAME>  (1128) 
GLU   PHE

>  <FRAG_NAME>  (1128) 
ACET   MBZ

>  <FRAG_ATOM_NUM>  (1128) 
fragi: 7  fragj: 15

>  <atom.prop.CHAIN_ID>  (1128) 
A A A A A A A Z Z Z Z Z Z Z Z Z Z Z Z Z Z Z

>  <atom.prop.IS_HEAVY_ATOM>  (1128) 
1 0 0 0 1 1 1 1 0 0 0 1 1 0 1 0 1 0 1 0 1 0

>  <DIFUSE_FUNC_ATOM>  (1128) 
atom 6   atom 7   

>  <FINAL_SINGLE_POINT_ENERGY>  (1128) 
0

>  <NONCOV_INTER_ENERGY_QM>  (1128) 
0

>  <FF_Energy>  (1128) 
-2.69

>  <QM_Energy>  (1128) 
-7.78

>  <source>  (1128) 
ACET_MBZ_01

>  <Index>  (1128) 
2249

$$$$
ACET-pdb3aax-A-ASP-110:MBZ-pdb3aax-A-PHE-208
     RDKit          3D

 22 21  0  0  0  0  0  0  0  0999 V2000
    5.8698    2.2980   -0.9325 C   0  0  0  0  0  0  0  0  0  0  0  0
    6.2687    2.2683   -0.0244 H   0  0  0  0  0  0  0  0  0  0  0  0
    6.4476    2.8126   -1.5524 H   0  0  0  0  0  0  0  0  0  0  0  0
    5.8038    1.2753   -1.3040 H   0  0  0  0  0  0  0  0  0  0  0  0
    4.5178    2.9633   -0.8535 C   0  0  0  0  0  0  0  0  0  0  0  0
    3.5424    2.3399   -1.3187 O   0  0  0  0  0  1  0  0  0  0  0  0
    4.4231    4.0883   -0.3225 O   0  0  0  0  0  0  0  0  0  0  0  0
   -0.0038    2.8989   -0.0066 C   0  0  0  0  0  0  0  0  0  0  0  0
    0.8477    3.2088    0.3879 H   0  0  0  0  0  0  0  0  0  0  0  0
   -0.7794    3.2050    0.5238 H   0  0  0  0  0  0  0  0  0  0  0  0
   -0.0876    3.3342   -1.0023 H   0  0  0  0  0  0  0  0  0  0  0  0
    0.0001    1.3948   -0.0006 C   0  0  0  0  0  0  0  0  0  0  0  0
   -1.1897    0.6862   -0.0018 C   0  0  0  0  0  0  0  0  0  0  0  0
   -2.0588    1.1793   -0.0049 H   0  0  0  0  0  0  0  0  0  0  0  0
   -1.1935   -0.6924    0.0000 C   0  0  0  0  0  0  0  0  0  0  0  0
   -2.0739   -1.1889    0.0023 H   0  0  0  0  0  0  0  0  0  0  0  0
   -0.0026   -1.3840    0.0005 C   0  0  0  0  0  0  0  0  0  0  0  0
   -0.0062   -2.3865    0.0008 H   0  0  0  0  0  0  0  0  0  0  0  0
    1.1935   -0.6947    0.0000 C   0  0  0  0  0  0  0  0  0  0  0  0
    2.0762   -1.1947   -0.0002 H   0  0  0  0  0  0  0  0  0  0  0  0
    1.1923    0.6902    0.0019 C   0  0  0  0  0  0  0  0  0  0  0  0
    2.0618    1.1859    0.0047 H   0  0  0  0  0  0  0  0  0  0  0  0
  1  5  1  0
  5  6  1  0
  5  7  2  0
  1  2  1  0
  1  3  1  0
  1  4  1  0
  8 12  1  0
 12 13  2  0
 13 15  1  0
 15 17  2  0
 17 19  1  0
 19 21  2  0
 21 12  1  0
  8  9  1  0
  8 10  1  0
  8 11  1  0
 13 14  1  0
 15 16  1  0
 17 18  1  0
 19 20  1  0
 21 22  1  0
M  CHG  1   6  -1
M  END
>  <PDB_ID>  (1129) 
pdb3aax

>  <RESIDUE_NAME>  (1129) 
ASP   PHE

>  <FRAG_NAME>  (1129) 
ACET   MBZ

>  <FRAG_ATOM_NUM>  (1129) 
fragi: 7  fragj: 15

>  <atom.prop.CHAIN_ID>  (1129) 
A A A A A A A Z Z Z Z Z Z Z Z Z Z Z Z Z Z Z

>  <atom.prop.IS_HEAVY_ATOM>  (1129) 
1 0 0 0 1 1 1 1 0 0 0 1 1 0 1 0 1 0 1 0 1 0

>  <DIFUSE_FUNC_ATOM>  (1129) 
atom 6   atom 7   

>  <FINAL_SINGLE_POINT_ENERGY>  (1129) 
0

>  <NONCOV_INTER_ENERGY_QM>  (1129) 
0

>  <FF_Energy>  (1129) 
-1.07

>  <QM_Energy>  (1129) 
-6.88

>  <source>  (1129) 
ACET_MBZ_01

>  <Index>  (1129) 
2302

$$$$
ACET-pdb3aax-B-ASP-162:MBZ-pdb3aax-B-PHE-169
     RDKit          3D

 22 21  0  0  0  0  0  0  0  0999 V2000
   -4.2712    0.5022   -1.7220 C   0  0  0  0  0  0  0  0  0  0  0  0
   -4.5324   -0.3001   -1.1961 H   0  0  0  0  0  0  0  0  0  0  0  0
   -3.3639    0.3811   -2.1092 H   0  0  0  0  0  0  0  0  0  0  0  0
   -4.9777    0.6105   -2.5450 H   0  0  0  0  0  0  0  0  0  0  0  0
   -4.2534    1.7036   -0.8024 C   0  0  0  0  0  0  0  0  0  0  0  0
   -4.2061    2.8451   -1.3022 O   0  0  0  0  0  1  0  0  0  0  0  0
   -4.2739    1.5019    0.4289 O   0  0  0  0  0  0  0  0  0  0  0  0
   -0.0058    2.9023    0.0020 C   0  0  0  0  0  0  0  0  0  0  0  0
   -0.6658    3.2048   -0.6688 H   0  0  0  0  0  0  0  0  0  0  0  0
    0.9056    3.2092   -0.2240 H   0  0  0  0  0  0  0  0  0  0  0  0
   -0.2788    3.3408    0.9618 H   0  0  0  0  0  0  0  0  0  0  0  0
   -0.0016    1.3958    0.0018 C   0  0  0  0  0  0  0  0  0  0  0  0
   -1.1938    0.6851    0.0003 C   0  0  0  0  0  0  0  0  0  0  0  0
   -2.0621    1.1778   -0.0018 H   0  0  0  0  0  0  0  0  0  0  0  0
   -1.1964   -0.6956    0.0000 C   0  0  0  0  0  0  0  0  0  0  0  0
   -2.0721   -1.1950    0.0013 H   0  0  0  0  0  0  0  0  0  0  0  0
    0.0038   -1.3860   -0.0008 C   0  0  0  0  0  0  0  0  0  0  0  0
    0.0012   -2.3862   -0.0028 H   0  0  0  0  0  0  0  0  0  0  0  0
    1.1964   -0.6901    0.0000 C   0  0  0  0  0  0  0  0  0  0  0  0
    2.0809   -1.1891    0.0031 H   0  0  0  0  0  0  0  0  0  0  0  0
    1.1916    0.6909   -0.0013 C   0  0  0  0  0  0  0  0  0  0  0  0
    2.0601    1.1904   -0.0056 H   0  0  0  0  0  0  0  0  0  0  0  0
  1  5  1  0
  5  6  1  0
  5  7  2  0
  1  2  1  0
  1  3  1  0
  1  4  1  0
  8 12  1  0
 12 13  2  0
 13 15  1  0
 15 17  2  0
 17 19  1  0
 19 21  2  0
 21 12  1  0
  8  9  1  0
  8 10  1  0
  8 11  1  0
 13 14  1  0
 15 16  1  0
 17 18  1  0
 19 20  1  0
 21 22  1  0
M  CHG  1   6  -1
M  END
>  <PDB_ID>  (1130) 
pdb3aax

>  <RESIDUE_NAME>  (1130) 
ASP   PHE

>  <FRAG_NAME>  (1130) 
ACET   MBZ

>  <FRAG_ATOM_NUM>  (1130) 
fragi: 7  fragj: 15

>  <atom.prop.CHAIN_ID>  (1130) 
A A A A A A A Z Z Z Z Z Z Z Z Z Z Z Z Z Z Z

>  <atom.prop.IS_HEAVY_ATOM>  (1130) 
1 0 0 0 1 1 1 1 0 0 0 1 1 0 1 0 1 0 1 0 1 0

>  <DIFUSE_FUNC_ATOM>  (1130) 
atom 6   atom 7   

>  <FINAL_SINGLE_POINT_ENERGY>  (1130) 
0

>  <NONCOV_INTER_ENERGY_QM>  (1130) 
0

>  <FF_Energy>  (1130) 
0.4

>  <QM_Energy>  (1130) 
-6.69

>  <source>  (1130) 
ACET_MBZ_01

>  <Index>  (1130) 
2314

$$$$
ACET-pdb3aax-A-GLU-150:MBZ-pdb3aax-A-PHE-147
     RDKit          3D

 22 21  0  0  0  0  0  0  0  0999 V2000
    3.9220    4.4177   -1.6803 C   0  0  0  0  0  0  0  0  0  0  0  0
    3.0562    4.4858   -1.2195 H   0  0  0  0  0  0  0  0  0  0  0  0
    3.8810    4.7632   -2.6008 H   0  0  0  0  0  0  0  0  0  0  0  0
    4.6566    4.9995   -1.1234 H   0  0  0  0  0  0  0  0  0  0  0  0
    4.2759    2.9378   -1.7665 C   0  0  0  0  0  0  0  0  0  0  0  0
    5.2879    2.5952   -2.4299 O   0  0  0  0  0  1  0  0  0  0  0  0
    3.5382    2.1212   -1.1664 O   0  0  0  0  0  0  0  0  0  0  0  0
    0.0028    2.8959   -0.0058 C   0  0  0  0  0  0  0  0  0  0  0  0
    0.8390    3.2053    0.4201 H   0  0  0  0  0  0  0  0  0  0  0  0
   -0.7930    3.2077    0.4892 H   0  0  0  0  0  0  0  0  0  0  0  0
   -0.0394    3.3270   -1.0060 H   0  0  0  0  0  0  0  0  0  0  0  0
    0.0010    1.3963    0.0012 C   0  0  0  0  0  0  0  0  0  0  0  0
   -1.1945    0.6895    0.0001 C   0  0  0  0  0  0  0  0  0  0  0  0
   -2.0614    1.1814   -0.0018 H   0  0  0  0  0  0  0  0  0  0  0  0
   -1.1994   -0.6964   -0.0000 C   0  0  0  0  0  0  0  0  0  0  0  0
   -2.0760   -1.1914   -0.0002 H   0  0  0  0  0  0  0  0  0  0  0  0
   -0.0003   -1.3877    0.0012 C   0  0  0  0  0  0  0  0  0  0  0  0
   -0.0014   -2.3879    0.0029 H   0  0  0  0  0  0  0  0  0  0  0  0
    1.1994   -0.6912    0.0000 C   0  0  0  0  0  0  0  0  0  0  0  0
    2.0808   -1.1926    0.0022 H   0  0  0  0  0  0  0  0  0  0  0  0
    1.1938    0.6897   -0.0026 C   0  0  0  0  0  0  0  0  0  0  0  0
    2.0630    1.1898   -0.0075 H   0  0  0  0  0  0  0  0  0  0  0  0
  1  5  1  0
  5  6  1  0
  5  7  2  0
  1  2  1  0
  1  3  1  0
  1  4  1  0
  8 12  1  0
 12 13  2  0
 13 15  1  0
 15 17  2  0
 17 19  1  0
 19 21  2  0
 21 12  1  0
  8  9  1  0
  8 10  1  0
  8 11  1  0
 13 14  1  0
 15 16  1  0
 17 18  1  0
 19 20  1  0
 21 22  1  0
M  CHG  1   6  -1
M  END
>  <PDB_ID>  (1131) 
pdb3aax

>  <RESIDUE_NAME>  (1131) 
GLU   PHE

>  <FRAG_NAME>  (1131) 
ACET   MBZ

>  <FRAG_ATOM_NUM>  (1131) 
fragi: 7  fragj: 15

>  <atom.prop.CHAIN_ID>  (1131) 
A A A A A A A Z Z Z Z Z Z Z Z Z Z Z Z Z Z Z

>  <atom.prop.IS_HEAVY_ATOM>  (1131) 
1 0 0 0 1 1 1 1 0 0 0 1 1 0 1 0 1 0 1 0 1 0

>  <DIFUSE_FUNC_ATOM>  (1131) 
atom 6   atom 7   

>  <FINAL_SINGLE_POINT_ENERGY>  (1131) 
0

>  <NONCOV_INTER_ENERGY_QM>  (1131) 
0

>  <FF_Energy>  (1131) 
2.16

>  <QM_Energy>  (1131) 
-6.29

>  <source>  (1131) 
ACET_MBZ_01

>  <Index>  (1131) 
2315

$$$$
ACET-pdb3abi-B-GLU-96:MBZ-pdb3abi-B-PHE-75
     RDKit          3D

 22 21  0  0  0  0  0  0  0  0999 V2000
    1.0857    2.1984    3.1733 C   0  0  0  0  0  0  0  0  0  0  0  0
    1.9061    2.7426    3.3687 H   0  0  0  0  0  0  0  0  0  0  0  0
    1.0650    1.9864    2.1920 H   0  0  0  0  0  0  0  0  0  0  0  0
    1.1582    1.2613    3.7253 H   0  0  0  0  0  0  0  0  0  0  0  0
   -0.0971    3.0515    3.4702 C   0  0  0  0  0  0  0  0  0  0  0  0
   -1.1922    2.5604    3.6406 O   0  0  0  0  0  1  0  0  0  0  0  0
    0.0728    4.2447    3.4630 O   0  0  0  0  0  0  0  0  0  0  0  0
   -0.0090    2.8166    0.0086 C   0  0  0  0  0  0  0  0  0  0  0  0
    0.4735    3.1293    0.8238 H   0  0  0  0  0  0  0  0  0  0  0  0
   -0.9573    3.1252    0.0374 H   0  0  0  0  0  0  0  0  0  0  0  0
    0.4661    3.2769   -0.8578 H   0  0  0  0  0  0  0  0  0  0  0  0
    0.0018    1.3513   -0.0045 C   0  0  0  0  0  0  0  0  0  0  0  0
   -1.1586    0.6628    0.0037 C   0  0  0  0  0  0  0  0  0  0  0  0
   -2.0349    1.1647    0.0114 H   0  0  0  0  0  0  0  0  0  0  0  0
   -1.1525   -0.6652    0.0000 C   0  0  0  0  0  0  0  0  0  0  0  0
   -2.0487   -1.1744   -0.0053 H   0  0  0  0  0  0  0  0  0  0  0  0
   -0.0063   -1.3308    0.0043 C   0  0  0  0  0  0  0  0  0  0  0  0
   -0.0117   -2.3528    0.0104 H   0  0  0  0  0  0  0  0  0  0  0  0
    1.1525   -0.6731   -0.0000 C   0  0  0  0  0  0  0  0  0  0  0  0
    2.0451   -1.1928    0.0008 H   0  0  0  0  0  0  0  0  0  0  0  0
    1.1631    0.6550   -0.0035 C   0  0  0  0  0  0  0  0  0  0  0  0
    2.0415    1.1621   -0.0059 H   0  0  0  0  0  0  0  0  0  0  0  0
  1  5  1  0
  5  6  1  0
  5  7  2  0
  1  2  1  0
  1  3  1  0
  1  4  1  0
  8 12  1  0
 12 13  2  0
 13 15  1  0
 15 17  2  0
 17 19  1  0
 19 21  2  0
 21 12  1  0
  8  9  1  0
  8 10  1  0
  8 11  1  0
 13 14  1  0
 15 16  1  0
 17 18  1  0
 19 20  1  0
 21 22  1  0
M  CHG  1   6  -1
M  END
>  <PDB_ID>  (1132) 
pdb3abi

>  <RESIDUE_NAME>  (1132) 
GLU   PHE

>  <FRAG_NAME>  (1132) 
ACET   MBZ

>  <FRAG_ATOM_NUM>  (1132) 
fragi: 7  fragj: 15

>  <atom.prop.CHAIN_ID>  (1132) 
A A A A A A A Z Z Z Z Z Z Z Z Z Z Z Z Z Z Z

>  <atom.prop.IS_HEAVY_ATOM>  (1132) 
1 0 0 0 1 1 1 1 0 0 0 1 1 0 1 0 1 0 1 0 1 0

>  <DIFUSE_FUNC_ATOM>  (1132) 
atom 6   atom 7   

>  <FINAL_SINGLE_POINT_ENERGY>  (1132) 
0

>  <NONCOV_INTER_ENERGY_QM>  (1132) 
0

>  <FF_Energy>  (1132) 
3.96

>  <QM_Energy>  (1132) 
-2.34

>  <source>  (1132) 
ACET_MBZ_01

>  <Index>  (1132) 
2357

$$$$
ACET-pdb3abz-C-ASP-446:MBZ-pdb3abz-C-PHE-55
     RDKit          3D

 22 21  0  0  0  0  0  0  0  0999 V2000
   -5.8565    2.0699    0.7640 C   0  0  0  0  0  0  0  0  0  0  0  0
   -6.4930    2.2558    1.5044 H   0  0  0  0  0  0  0  0  0  0  0  0
   -5.8799    1.1070    0.5191 H   0  0  0  0  0  0  0  0  0  0  0  0
   -6.1580    2.6542   -0.1053 H   0  0  0  0  0  0  0  0  0  0  0  0
   -4.4326    2.4004    1.2662 C   0  0  0  0  0  0  0  0  0  0  0  0
   -3.6713    3.1478    0.5899 O   0  0  0  0  0  1  0  0  0  0  0  0
   -4.0789    1.8945    2.3551 O   0  0  0  0  0  0  0  0  0  0  0  0
   -0.0061    2.9364   -0.0354 C   0  0  0  0  0  0  0  0  0  0  0  0
   -0.8900    3.2243   -0.3785 H   0  0  0  0  0  0  0  0  0  0  0  0
    0.7205    3.2160   -0.6488 H   0  0  0  0  0  0  0  0  0  0  0  0
    0.1580    3.4194    0.9278 H   0  0  0  0  0  0  0  0  0  0  0  0
   -0.0056    1.4217    0.0128 C   0  0  0  0  0  0  0  0  0  0  0  0
   -1.2116    0.7235    0.0085 C   0  0  0  0  0  0  0  0  0  0  0  0
   -2.0749    1.2043    0.0101 H   0  0  0  0  0  0  0  0  0  0  0  0
   -1.2270   -0.7032    0.0000 C   0  0  0  0  0  0  0  0  0  0  0  0
   -2.0967   -1.1835    0.0096 H   0  0  0  0  0  0  0  0  0  0  0  0
   -0.0025   -1.4203   -0.0196 C   0  0  0  0  0  0  0  0  0  0  0  0
   -0.0105   -2.4083   -0.0474 H   0  0  0  0  0  0  0  0  0  0  0  0
    1.2270   -0.7140   -0.0000 C   0  0  0  0  0  0  0  0  0  0  0  0
    2.0958   -1.2131    0.0162 H   0  0  0  0  0  0  0  0  0  0  0  0
    1.2198    0.6923   -0.0017 C   0  0  0  0  0  0  0  0  0  0  0  0
    2.0776    1.1933   -0.0141 H   0  0  0  0  0  0  0  0  0  0  0  0
  1  5  1  0
  5  6  1  0
  5  7  2  0
  1  2  1  0
  1  3  1  0
  1  4  1  0
  8 12  1  0
 12 13  2  0
 13 15  1  0
 15 17  2  0
 17 19  1  0
 19 21  2  0
 21 12  1  0
  8  9  1  0
  8 10  1  0
  8 11  1  0
 13 14  1  0
 15 16  1  0
 17 18  1  0
 19 20  1  0
 21 22  1  0
M  CHG  1   6  -1
M  END
>  <PDB_ID>  (1133) 
pdb3abz

>  <RESIDUE_NAME>  (1133) 
ASP   PHE

>  <FRAG_NAME>  (1133) 
ACET   MBZ

>  <FRAG_ATOM_NUM>  (1133) 
fragi: 7  fragj: 15

>  <atom.prop.CHAIN_ID>  (1133) 
A A A A A A A Z Z Z Z Z Z Z Z Z Z Z Z Z Z Z

>  <atom.prop.IS_HEAVY_ATOM>  (1133) 
1 0 0 0 1 1 1 1 0 0 0 1 1 0 1 0 1 0 1 0 1 0

>  <DIFUSE_FUNC_ATOM>  (1133) 
atom 6   atom 7   

>  <FINAL_SINGLE_POINT_ENERGY>  (1133) 
0

>  <NONCOV_INTER_ENERGY_QM>  (1133) 
0

>  <FF_Energy>  (1133) 
-2.02

>  <QM_Energy>  (1133) 
-7.06

>  <source>  (1133) 
ACET_MBZ_01

>  <Index>  (1133) 
2398

$$$$
ACET-pdb3acp-A-GLU-384:MBZ-pdb3acp-A-PHE-351
     RDKit          3D

 22 21  0  0  0  0  0  0  0  0999 V2000
   -4.5669    3.6607   -1.1890 C   0  0  0  0  0  0  0  0  0  0  0  0
   -5.4351    3.7910   -1.6435 H   0  0  0  0  0  0  0  0  0  0  0  0
   -3.8112    3.8740   -1.7894 H   0  0  0  0  0  0  0  0  0  0  0  0
   -4.5257    4.3361   -0.3344 H   0  0  0  0  0  0  0  0  0  0  0  0
   -4.4585    2.2144   -0.8115 C   0  0  0  0  0  0  0  0  0  0  0  0
   -4.0649    1.9212    0.3007 O   0  0  0  0  0  1  0  0  0  0  0  0
   -4.7397    1.3789   -1.6390 O   0  0  0  0  0  0  0  0  0  0  0  0
    0.0025    2.8965    0.0037 C   0  0  0  0  0  0  0  0  0  0  0  0
    0.9385    3.2063    0.0706 H   0  0  0  0  0  0  0  0  0  0  0  0
   -0.5381    3.2081    0.7694 H   0  0  0  0  0  0  0  0  0  0  0  0
   -0.4241    3.3378   -0.8970 H   0  0  0  0  0  0  0  0  0  0  0  0
    0.0001    1.3985    0.0024 C   0  0  0  0  0  0  0  0  0  0  0  0
   -1.1928    0.6914    0.0051 C   0  0  0  0  0  0  0  0  0  0  0  0
   -2.0616    1.1802    0.0093 H   0  0  0  0  0  0  0  0  0  0  0  0
   -1.1985   -0.7003   -0.0000 C   0  0  0  0  0  0  0  0  0  0  0  0
   -2.0770   -1.1910    0.0044 H   0  0  0  0  0  0  0  0  0  0  0  0
   -0.0027   -1.3882   -0.0085 C   0  0  0  0  0  0  0  0  0  0  0  0
   -0.0002   -2.3891   -0.0209 H   0  0  0  0  0  0  0  0  0  0  0  0
    1.1985   -0.6908    0.0000 C   0  0  0  0  0  0  0  0  0  0  0  0
    2.0788   -1.1945    0.0069 H   0  0  0  0  0  0  0  0  0  0  0  0
    1.1955    0.6895    0.0009 C   0  0  0  0  0  0  0  0  0  0  0  0
    2.0631    1.1898   -0.0003 H   0  0  0  0  0  0  0  0  0  0  0  0
  1  5  1  0
  5  6  1  0
  5  7  2  0
  1  2  1  0
  1  3  1  0
  1  4  1  0
  8 12  1  0
 12 13  2  0
 13 15  1  0
 15 17  2  0
 17 19  1  0
 19 21  2  0
 21 12  1  0
  8  9  1  0
  8 10  1  0
  8 11  1  0
 13 14  1  0
 15 16  1  0
 17 18  1  0
 19 20  1  0
 21 22  1  0
M  CHG  1   6  -1
M  END
>  <PDB_ID>  (1134) 
pdb3acp

>  <RESIDUE_NAME>  (1134) 
GLU   PHE

>  <FRAG_NAME>  (1134) 
ACET   MBZ

>  <FRAG_ATOM_NUM>  (1134) 
fragi: 7  fragj: 15

>  <atom.prop.CHAIN_ID>  (1134) 
A A A A A A A Z Z Z Z Z Z Z Z Z Z Z Z Z Z Z

>  <atom.prop.IS_HEAVY_ATOM>  (1134) 
1 0 0 0 1 1 1 1 0 0 0 1 1 0 1 0 1 0 1 0 1 0

>  <DIFUSE_FUNC_ATOM>  (1134) 
atom 6   atom 7   

>  <FINAL_SINGLE_POINT_ENERGY>  (1134) 
0

>  <NONCOV_INTER_ENERGY_QM>  (1134) 
0

>  <FF_Energy>  (1134) 
-0.02

>  <QM_Energy>  (1134) 
-7.19

>  <source>  (1134) 
ACET_MBZ_01

>  <Index>  (1134) 
2413

$$$$
ACET-pdb1wdd-A-ASP-302:MBZ-pdb1wdd-A-PHE-311
     RDKit          3D

 22 21  0  0  0  0  0  0  0  0999 V2000
   -3.2156    5.6306   -0.7022 C   0  0  0  0  0  0  0  0  0  0  0  0
   -2.3380    5.9147   -0.3304 H   0  0  0  0  0  0  0  0  0  0  0  0
   -3.7703    5.2075    0.0056 H   0  0  0  0  0  0  0  0  0  0  0  0
   -3.7350    6.5402   -1.0041 H   0  0  0  0  0  0  0  0  0  0  0  0
   -2.9885    4.6351   -1.8312 C   0  0  0  0  0  0  0  0  0  0  0  0
   -3.0309    5.0023   -3.0226 O   0  0  0  0  0  1  0  0  0  0  0  0
   -2.6736    3.4524   -1.5329 O   0  0  0  0  0  0  0  0  0  0  0  0
    0.0121    2.9225    0.0933 C   0  0  0  0  0  0  0  0  0  0  0  0
   -0.5724    3.2683   -0.6138 H   0  0  0  0  0  0  0  0  0  0  0  0
    0.9401    3.2255   -0.0007 H   0  0  0  0  0  0  0  0  0  0  0  0
   -0.3642    3.2910    1.0476 H   0  0  0  0  0  0  0  0  0  0  0  0
    0.0049    1.4029    0.0038 C   0  0  0  0  0  0  0  0  0  0  0  0
   -1.1965    0.6996   -0.0040 C   0  0  0  0  0  0  0  0  0  0  0  0
   -2.0621    1.1954   -0.0146 H   0  0  0  0  0  0  0  0  0  0  0  0
   -1.2214   -0.7015   -0.0000 C   0  0  0  0  0  0  0  0  0  0  0  0
   -2.0931   -1.1850    0.0006 H   0  0  0  0  0  0  0  0  0  0  0  0
   -0.0091   -1.4058    0.0048 C   0  0  0  0  0  0  0  0  0  0  0  0
   -0.0074   -2.3980    0.0115 H   0  0  0  0  0  0  0  0  0  0  0  0
    1.2214   -0.6988    0.0000 C   0  0  0  0  0  0  0  0  0  0  0  0
    2.0880   -1.1943    0.0014 H   0  0  0  0  0  0  0  0  0  0  0  0
    1.2007    0.7036   -0.0046 C   0  0  0  0  0  0  0  0  0  0  0  0
    2.0699    1.2014   -0.0146 H   0  0  0  0  0  0  0  0  0  0  0  0
  1  5  1  0
  5  6  1  0
  5  7  2  0
  1  2  1  0
  1  3  1  0
  1  4  1  0
  8 12  1  0
 12 13  2  0
 13 15  1  0
 15 17  2  0
 17 19  1  0
 19 21  2  0
 21 12  1  0
  8  9  1  0
  8 10  1  0
  8 11  1  0
 13 14  1  0
 15 16  1  0
 17 18  1  0
 19 20  1  0
 21 22  1  0
M  CHG  1   6  -1
M  END
>  <PDB_ID>  (1135) 
pdb1wdd

>  <RESIDUE_NAME>  (1135) 
ASP   PHE

>  <FRAG_NAME>  (1135) 
ACET   MBZ

>  <FRAG_ATOM_NUM>  (1135) 
fragi: 7  fragj: 15

>  <atom.prop.CHAIN_ID>  (1135) 
A A A A A A A Z Z Z Z Z Z Z Z Z Z Z Z Z Z Z

>  <atom.prop.IS_HEAVY_ATOM>  (1135) 
1 0 0 0 1 1 1 1 0 0 0 1 1 0 1 0 1 0 1 0 1 0

>  <DIFUSE_FUNC_ATOM>  (1135) 
atom 6   atom 7   

>  <FINAL_SINGLE_POINT_ENERGY>  (1135) 
0

>  <NONCOV_INTER_ENERGY_QM>  (1135) 
0

>  <FF_Energy>  (1135) 
-0.46

>  <QM_Energy>  (1135) 
-6.86

>  <source>  (1135) 
ACET_MBZ_01

>  <Index>  (1135) 
2448

$$$$
ACET-pdb1wdj-C-GLU-13:MBZ-pdb1wdj-C-PHE-106
     RDKit          3D

 22 21  0  0  0  0  0  0  0  0999 V2000
   -4.5781    0.4883   -0.0980 C   0  0  0  0  0  0  0  0  0  0  0  0
   -4.5935   -0.1209    0.6654 H   0  0  0  0  0  0  0  0  0  0  0  0
   -3.7098    0.5306   -0.5429 H   0  0  0  0  0  0  0  0  0  0  0  0
   -5.3390    0.1846   -0.8170 H   0  0  0  0  0  0  0  0  0  0  0  0
   -4.8803    1.8735    0.4273 C   0  0  0  0  0  0  0  0  0  0  0  0
   -5.8312    2.0237    1.2243 O   0  0  0  0  0  1  0  0  0  0  0  0
   -4.1797    2.8147    0.0140 O   0  0  0  0  0  0  0  0  0  0  0  0
    0.0053    2.9179   -0.0363 C   0  0  0  0  0  0  0  0  0  0  0  0
   -0.9332    3.2265   -0.0279 H   0  0  0  0  0  0  0  0  0  0  0  0
    0.4709    3.2032   -0.8602 H   0  0  0  0  0  0  0  0  0  0  0  0
    0.5143    3.3806    0.8093 H   0  0  0  0  0  0  0  0  0  0  0  0
    0.0015    1.4109   -0.0004 C   0  0  0  0  0  0  0  0  0  0  0  0
   -1.2095    0.6956    0.0010 C   0  0  0  0  0  0  0  0  0  0  0  0
   -2.0709    1.1833    0.0012 H   0  0  0  0  0  0  0  0  0  0  0  0
   -1.2152   -0.7123   -0.0000 C   0  0  0  0  0  0  0  0  0  0  0  0
   -2.0810   -1.2044    0.0023 H   0  0  0  0  0  0  0  0  0  0  0  0
    0.0067   -1.4043   -0.0029 C   0  0  0  0  0  0  0  0  0  0  0  0
    0.0129   -2.3977   -0.0077 H   0  0  0  0  0  0  0  0  0  0  0  0
    1.2152   -0.6883   -0.0000 C   0  0  0  0  0  0  0  0  0  0  0  0
    2.0947   -1.1867    0.0022 H   0  0  0  0  0  0  0  0  0  0  0  0
    1.2014    0.6984    0.0023 C   0  0  0  0  0  0  0  0  0  0  0  0
    2.0686    1.2027    0.0053 H   0  0  0  0  0  0  0  0  0  0  0  0
  1  5  1  0
  5  6  1  0
  5  7  2  0
  1  2  1  0
  1  3  1  0
  1  4  1  0
  8 12  1  0
 12 13  2  0
 13 15  1  0
 15 17  2  0
 17 19  1  0
 19 21  2  0
 21 12  1  0
  8  9  1  0
  8 10  1  0
  8 11  1  0
 13 14  1  0
 15 16  1  0
 17 18  1  0
 19 20  1  0
 21 22  1  0
M  CHG  1   6  -1
M  END
>  <PDB_ID>  (1136) 
pdb1wdj

>  <RESIDUE_NAME>  (1136) 
GLU   PHE

>  <FRAG_NAME>  (1136) 
ACET   MBZ

>  <FRAG_ATOM_NUM>  (1136) 
fragi: 7  fragj: 15

>  <atom.prop.CHAIN_ID>  (1136) 
A A A A A A A Z Z Z Z Z Z Z Z Z Z Z Z Z Z Z

>  <atom.prop.IS_HEAVY_ATOM>  (1136) 
1 0 0 0 1 1 1 1 0 0 0 1 1 0 1 0 1 0 1 0 1 0

>  <DIFUSE_FUNC_ATOM>  (1136) 
atom 6   atom 7   

>  <FINAL_SINGLE_POINT_ENERGY>  (1136) 
0

>  <NONCOV_INTER_ENERGY_QM>  (1136) 
0

>  <FF_Energy>  (1136) 
-1.78

>  <QM_Energy>  (1136) 
-5.06

>  <source>  (1136) 
ACET_MBZ_01

>  <Index>  (1136) 
2478

$$$$
ACET-pdb1wbf-B-ASP-87:MBZ-pdb1wbf-B-PHE-126
     RDKit          3D

 22 21  0  0  0  0  0  0  0  0999 V2000
    1.8888    5.1636   -3.4531 C   0  0  0  0  0  0  0  0  0  0  0  0
    2.0156    5.5243   -4.3715 H   0  0  0  0  0  0  0  0  0  0  0  0
    2.6035    5.4993   -2.8494 H   0  0  0  0  0  0  0  0  0  0  0  0
    0.9328    5.5294   -3.0785 H   0  0  0  0  0  0  0  0  0  0  0  0
    1.9564    3.6589   -3.5038 C   0  0  0  0  0  0  0  0  0  0  0  0
    1.8920    3.0191   -2.4296 O   0  0  0  0  0  1  0  0  0  0  0  0
    2.0577    3.1108   -4.6204 O   0  0  0  0  0  0  0  0  0  0  0  0
    0.0073    2.8860    0.1278 C   0  0  0  0  0  0  0  0  0  0  0  0
   -0.6632    3.2523   -0.4978 H   0  0  0  0  0  0  0  0  0  0  0  0
    0.9158    3.2124   -0.0834 H   0  0  0  0  0  0  0  0  0  0  0  0
   -0.2461    3.2397    1.1272 H   0  0  0  0  0  0  0  0  0  0  0  0
    0.0019    1.3984    0.0061 C   0  0  0  0  0  0  0  0  0  0  0  0
   -1.1919    0.6945   -0.0028 C   0  0  0  0  0  0  0  0  0  0  0  0
   -2.0593    1.1831   -0.0125 H   0  0  0  0  0  0  0  0  0  0  0  0
   -1.1958   -0.6955    0.0000 C   0  0  0  0  0  0  0  0  0  0  0  0
   -2.0767   -1.1868    0.0022 H   0  0  0  0  0  0  0  0  0  0  0  0
   -0.0027   -1.3912    0.0009 C   0  0  0  0  0  0  0  0  0  0  0  0
   -0.0071   -2.3915    0.0017 H   0  0  0  0  0  0  0  0  0  0  0  0
    1.1958   -0.6984   -0.0000 C   0  0  0  0  0  0  0  0  0  0  0  0
    2.0777   -1.1954    0.0036 H   0  0  0  0  0  0  0  0  0  0  0  0
    1.1928    0.6923   -0.0041 C   0  0  0  0  0  0  0  0  0  0  0  0
    2.0631    1.1854   -0.0155 H   0  0  0  0  0  0  0  0  0  0  0  0
  1  5  1  0
  5  6  1  0
  5  7  2  0
  1  2  1  0
  1  3  1  0
  1  4  1  0
  8 12  1  0
 12 13  2  0
 13 15  1  0
 15 17  2  0
 17 19  1  0
 19 21  2  0
 21 12  1  0
  8  9  1  0
  8 10  1  0
  8 11  1  0
 13 14  1  0
 15 16  1  0
 17 18  1  0
 19 20  1  0
 21 22  1  0
M  CHG  1   6  -1
M  END
>  <PDB_ID>  (1137) 
pdb1wbf

>  <RESIDUE_NAME>  (1137) 
ASP   PHE

>  <FRAG_NAME>  (1137) 
ACET   MBZ

>  <FRAG_ATOM_NUM>  (1137) 
fragi: 7  fragj: 15

>  <atom.prop.CHAIN_ID>  (1137) 
A A A A A A A Z Z Z Z Z Z Z Z Z Z Z Z Z Z Z

>  <atom.prop.IS_HEAVY_ATOM>  (1137) 
1 0 0 0 1 1 1 1 0 0 0 1 1 0 1 0 1 0 1 0 1 0

>  <DIFUSE_FUNC_ATOM>  (1137) 
atom 6   atom 7   

>  <FINAL_SINGLE_POINT_ENERGY>  (1137) 
0

>  <NONCOV_INTER_ENERGY_QM>  (1137) 
0

>  <FF_Energy>  (1137) 
0.93

>  <QM_Energy>  (1137) 
-4.39

>  <source>  (1137) 
ACET_MBZ_01

>  <Index>  (1137) 
2486

$$$$
ACET-pdb3ag5-B-GLU-196:MBZ-pdb3ag5-B-PHE-269
     RDKit          3D

 22 21  0  0  0  0  0  0  0  0999 V2000
    4.8797    1.5549   -0.0205 C   0  0  0  0  0  0  0  0  0  0  0  0
    4.6398    1.0962    0.8122 H   0  0  0  0  0  0  0  0  0  0  0  0
    5.8365    1.7654   -0.0729 H   0  0  0  0  0  0  0  0  0  0  0  0
    4.6176    0.9108   -0.8598 H   0  0  0  0  0  0  0  0  0  0  0  0
    4.1223    2.8712   -0.0499 C   0  0  0  0  0  0  0  0  0  0  0  0
    4.2047    3.5967   -1.0673 O   0  0  0  0  0  1  0  0  0  0  0  0
    3.4393    3.1813    0.9507 O   0  0  0  0  0  0  0  0  0  0  0  0
    0.0106    2.8990   -0.0332 C   0  0  0  0  0  0  0  0  0  0  0  0
   -0.5341    3.1963   -0.8054 H   0  0  0  0  0  0  0  0  0  0  0  0
    0.9500    3.1997   -0.1247 H   0  0  0  0  0  0  0  0  0  0  0  0
   -0.4003    3.3664    0.8618 H   0  0  0  0  0  0  0  0  0  0  0  0
   -0.0006    1.4039   -0.0017 C   0  0  0  0  0  0  0  0  0  0  0  0
   -1.1961    0.7008    0.0008 C   0  0  0  0  0  0  0  0  0  0  0  0
   -2.0631    1.1879    0.0020 H   0  0  0  0  0  0  0  0  0  0  0  0
   -1.2012   -0.6955    0.0000 C   0  0  0  0  0  0  0  0  0  0  0  0
   -2.0782   -1.1876    0.0005 H   0  0  0  0  0  0  0  0  0  0  0  0
    0.0031   -1.3978    0.0008 C   0  0  0  0  0  0  0  0  0  0  0  0
   -0.0066   -2.3952    0.0021 H   0  0  0  0  0  0  0  0  0  0  0  0
    1.2012   -0.7039   -0.0000 C   0  0  0  0  0  0  0  0  0  0  0  0
    2.0841   -1.1964    0.0007 H   0  0  0  0  0  0  0  0  0  0  0  0
    1.1936    0.6925    0.0001 C   0  0  0  0  0  0  0  0  0  0  0  0
    2.0641    1.1864    0.0005 H   0  0  0  0  0  0  0  0  0  0  0  0
  1  5  1  0
  5  6  1  0
  5  7  2  0
  1  2  1  0
  1  3  1  0
  1  4  1  0
  8 12  1  0
 12 13  2  0
 13 15  1  0
 15 17  2  0
 17 19  1  0
 19 21  2  0
 21 12  1  0
  8  9  1  0
  8 10  1  0
  8 11  1  0
 13 14  1  0
 15 16  1  0
 17 18  1  0
 19 20  1  0
 21 22  1  0
M  CHG  1   6  -1
M  END
>  <PDB_ID>  (1138) 
pdb3ag5

>  <RESIDUE_NAME>  (1138) 
GLU   PHE

>  <FRAG_NAME>  (1138) 
ACET   MBZ

>  <FRAG_ATOM_NUM>  (1138) 
fragi: 7  fragj: 15

>  <atom.prop.CHAIN_ID>  (1138) 
A A A A A A A Z Z Z Z Z Z Z Z Z Z Z Z Z Z Z

>  <atom.prop.IS_HEAVY_ATOM>  (1138) 
1 0 0 0 1 1 1 1 0 0 0 1 1 0 1 0 1 0 1 0 1 0

>  <DIFUSE_FUNC_ATOM>  (1138) 
atom 6   atom 7   

>  <FINAL_SINGLE_POINT_ENERGY>  (1138) 
0

>  <NONCOV_INTER_ENERGY_QM>  (1138) 
0

>  <FF_Energy>  (1138) 
-2.12

>  <QM_Energy>  (1138) 
-7.46

>  <source>  (1138) 
ACET_MBZ_01

>  <Index>  (1138) 
2601

$$$$
ACET-pdb1vrg-E-ASP-129:MBZ-pdb1vrg-E-PHE-95
     RDKit          3D

 22 21  0  0  0  0  0  0  0  0999 V2000
   -3.3476    4.0907   -2.8275 C   0  0  0  0  0  0  0  0  0  0  0  0
   -3.5558    4.6097   -3.6550 H   0  0  0  0  0  0  0  0  0  0  0  0
   -3.2183    4.7167   -2.0612 H   0  0  0  0  0  0  0  0  0  0  0  0
   -4.2098    3.4629   -2.6027 H   0  0  0  0  0  0  0  0  0  0  0  0
   -2.0795    3.3117   -3.0441 C   0  0  0  0  0  0  0  0  0  0  0  0
   -2.0955    2.0629   -2.9941 O   0  0  0  0  0  1  0  0  0  0  0  0
   -1.0381    3.9755   -3.2570 O   0  0  0  0  0  0  0  0  0  0  0  0
    0.0079    2.8872   -0.0167 C   0  0  0  0  0  0  0  0  0  0  0  0
   -0.6450    3.1873   -0.6978 H   0  0  0  0  0  0  0  0  0  0  0  0
    0.9217    3.1949   -0.2401 H   0  0  0  0  0  0  0  0  0  0  0  0
   -0.2717    3.3416    0.9338 H   0  0  0  0  0  0  0  0  0  0  0  0
    0.0094    1.3953    0.0050 C   0  0  0  0  0  0  0  0  0  0  0  0
   -1.1794    0.6905    0.0028 C   0  0  0  0  0  0  0  0  0  0  0  0
   -2.0493    1.1830    0.0022 H   0  0  0  0  0  0  0  0  0  0  0  0
   -1.1864   -0.6923   -0.0000 C   0  0  0  0  0  0  0  0  0  0  0  0
   -2.0784   -1.1775    0.0129 H   0  0  0  0  0  0  0  0  0  0  0  0
   -0.0168   -1.3832   -0.0177 C   0  0  0  0  0  0  0  0  0  0  0  0
   -0.0196   -2.3889   -0.0445 H   0  0  0  0  0  0  0  0  0  0  0  0
    1.1864   -0.7053    0.0000 C   0  0  0  0  0  0  0  0  0  0  0  0
    2.0643   -1.2011    0.0077 H   0  0  0  0  0  0  0  0  0  0  0  0
    1.1868    0.6951    0.0100 C   0  0  0  0  0  0  0  0  0  0  0  0
    2.0643    1.1774    0.0203 H   0  0  0  0  0  0  0  0  0  0  0  0
  1  5  1  0
  5  6  1  0
  5  7  2  0
  1  2  1  0
  1  3  1  0
  1  4  1  0
  8 12  1  0
 12 13  2  0
 13 15  1  0
 15 17  2  0
 17 19  1  0
 19 21  2  0
 21 12  1  0
  8  9  1  0
  8 10  1  0
  8 11  1  0
 13 14  1  0
 15 16  1  0
 17 18  1  0
 19 20  1  0
 21 22  1  0
M  CHG  1   6  -1
M  END
>  <PDB_ID>  (1139) 
pdb1vrg

>  <RESIDUE_NAME>  (1139) 
ASP   PHE

>  <FRAG_NAME>  (1139) 
ACET   MBZ

>  <FRAG_ATOM_NUM>  (1139) 
fragi: 7  fragj: 15

>  <atom.prop.CHAIN_ID>  (1139) 
A A A A A A A Z Z Z Z Z Z Z Z Z Z Z Z Z Z Z

>  <atom.prop.IS_HEAVY_ATOM>  (1139) 
1 0 0 0 1 1 1 1 0 0 0 1 1 0 1 0 1 0 1 0 1 0

>  <DIFUSE_FUNC_ATOM>  (1139) 
atom 6   atom 7   

>  <FINAL_SINGLE_POINT_ENERGY>  (1139) 
0

>  <NONCOV_INTER_ENERGY_QM>  (1139) 
0

>  <FF_Energy>  (1139) 
0.59

>  <QM_Energy>  (1139) 
-4.56

>  <source>  (1139) 
ACET_MBZ_01

>  <Index>  (1139) 
2602

$$$$
ACET-pdb3ahq-A-ASP-359:MBZ-pdb3ahq-A-PHE-36
     RDKit          3D

 22 21  0  0  0  0  0  0  0  0999 V2000
    0.4563   -3.2313    4.1268 C   0  0  0  0  0  0  0  0  0  0  0  0
    0.9545   -2.7767    4.8543 H   0  0  0  0  0  0  0  0  0  0  0  0
    0.6599   -4.2015    4.1147 H   0  0  0  0  0  0  0  0  0  0  0  0
   -0.6093   -3.1126    4.3232 H   0  0  0  0  0  0  0  0  0  0  0  0
    0.8616   -2.6273    2.8037 C   0  0  0  0  0  0  0  0  0  0  0  0
    0.0033   -2.6103    1.8988 O   0  0  0  0  0  1  0  0  0  0  0  0
    2.0209   -2.1563    2.6614 O   0  0  0  0  0  0  0  0  0  0  0  0
    0.0091    2.8942   -0.0512 C   0  0  0  0  0  0  0  0  0  0  0  0
   -0.5182    3.1838   -0.8439 H   0  0  0  0  0  0  0  0  0  0  0  0
    0.9523    3.2004   -0.1333 H   0  0  0  0  0  0  0  0  0  0  0  0
   -0.4175    3.3896    0.8210 H   0  0  0  0  0  0  0  0  0  0  0  0
   -0.0022    1.4146    0.0072 C   0  0  0  0  0  0  0  0  0  0  0  0
   -1.2035    0.7112   -0.0060 C   0  0  0  0  0  0  0  0  0  0  0  0
   -2.0699    1.1944   -0.0210 H   0  0  0  0  0  0  0  0  0  0  0  0
   -1.2197   -0.7062    0.0000 C   0  0  0  0  0  0  0  0  0  0  0  0
   -2.0896   -1.1885    0.0072 H   0  0  0  0  0  0  0  0  0  0  0  0
    0.0001   -1.4117   -0.0017 C   0  0  0  0  0  0  0  0  0  0  0  0
   -0.0066   -2.4059   -0.0051 H   0  0  0  0  0  0  0  0  0  0  0  0
    1.2197   -0.7115   -0.0000 C   0  0  0  0  0  0  0  0  0  0  0  0
    2.0932   -1.2001    0.0025 H   0  0  0  0  0  0  0  0  0  0  0  0
    1.2056    0.7037    0.0005 C   0  0  0  0  0  0  0  0  0  0  0  0
    2.0714    1.1966   -0.0049 H   0  0  0  0  0  0  0  0  0  0  0  0
  1  5  1  0
  5  6  1  0
  5  7  2  0
  1  2  1  0
  1  3  1  0
  1  4  1  0
  8 12  1  0
 12 13  2  0
 13 15  1  0
 15 17  2  0
 17 19  1  0
 19 21  2  0
 21 12  1  0
  8  9  1  0
  8 10  1  0
  8 11  1  0
 13 14  1  0
 15 16  1  0
 17 18  1  0
 19 20  1  0
 21 22  1  0
M  CHG  1   6  -1
M  END
>  <PDB_ID>  (1140) 
pdb3ahq

>  <RESIDUE_NAME>  (1140) 
ASP   PHE

>  <FRAG_NAME>  (1140) 
ACET   MBZ

>  <FRAG_ATOM_NUM>  (1140) 
fragi: 7  fragj: 15

>  <atom.prop.CHAIN_ID>  (1140) 
A A A A A A A Z Z Z Z Z Z Z Z Z Z Z Z Z Z Z

>  <atom.prop.IS_HEAVY_ATOM>  (1140) 
1 0 0 0 1 1 1 1 0 0 0 1 1 0 1 0 1 0 1 0 1 0

>  <DIFUSE_FUNC_ATOM>  (1140) 
atom 6   atom 7   

>  <FINAL_SINGLE_POINT_ENERGY>  (1140) 
0

>  <NONCOV_INTER_ENERGY_QM>  (1140) 
0

>  <FF_Energy>  (1140) 
49.42

>  <QM_Energy>  (1140) 
8.15

>  <source>  (1140) 
ACET_MBZ_01

>  <Index>  (1140) 
2682

$$$$
ACET-pdb1wkv-A-ASP-128:MBZ-pdb1wkv-A-PHE-122
     RDKit          3D

 22 21  0  0  0  0  0  0  0  0999 V2000
    4.8091    3.3420   -0.7888 C   0  0  0  0  0  0  0  0  0  0  0  0
    5.3929    3.6005   -1.5564 H   0  0  0  0  0  0  0  0  0  0  0  0
    4.8783    2.3585   -0.6312 H   0  0  0  0  0  0  0  0  0  0  0  0
    5.1758    3.8535    0.1012 H   0  0  0  0  0  0  0  0  0  0  0  0
    3.3914    3.6846   -1.1183 C   0  0  0  0  0  0  0  0  0  0  0  0
    2.8550    4.7177   -0.6430 O   0  0  0  0  0  1  0  0  0  0  0  0
    2.7622    2.9633   -1.9000 O   0  0  0  0  0  0  0  0  0  0  0  0
   -0.0032    2.9267   -0.0323 C   0  0  0  0  0  0  0  0  0  0  0  0
    0.9348    3.2264   -0.0478 H   0  0  0  0  0  0  0  0  0  0  0  0
   -0.4754    3.2324    0.7767 H   0  0  0  0  0  0  0  0  0  0  0  0
   -0.5072    3.3570   -0.8977 H   0  0  0  0  0  0  0  0  0  0  0  0
   -0.0002    1.3990   -0.0157 C   0  0  0  0  0  0  0  0  0  0  0  0
   -1.1948    0.6867   -0.0109 C   0  0  0  0  0  0  0  0  0  0  0  0
   -2.0624    1.1821   -0.0168 H   0  0  0  0  0  0  0  0  0  0  0  0
   -1.2014   -0.6941   -0.0000 C   0  0  0  0  0  0  0  0  0  0  0  0
   -2.0719   -1.1955   -0.0038 H   0  0  0  0  0  0  0  0  0  0  0  0
    0.0107   -1.3958    0.0180 C   0  0  0  0  0  0  0  0  0  0  0  0
    0.0009   -2.3907    0.0431 H   0  0  0  0  0  0  0  0  0  0  0  0
    1.2014   -0.6956    0.0000 C   0  0  0  0  0  0  0  0  0  0  0  0
    2.0877   -1.1814   -0.0181 H   0  0  0  0  0  0  0  0  0  0  0  0
    1.1843    0.6999    0.0085 C   0  0  0  0  0  0  0  0  0  0  0  0
    2.0581    1.1950    0.0319 H   0  0  0  0  0  0  0  0  0  0  0  0
  1  5  1  0
  5  6  1  0
  5  7  2  0
  1  2  1  0
  1  3  1  0
  1  4  1  0
  8 12  1  0
 12 13  2  0
 13 15  1  0
 15 17  2  0
 17 19  1  0
 19 21  2  0
 21 12  1  0
  8  9  1  0
  8 10  1  0
  8 11  1  0
 13 14  1  0
 15 16  1  0
 17 18  1  0
 19 20  1  0
 21 22  1  0
M  CHG  1   6  -1
M  END
>  <PDB_ID>  (1141) 
pdb1wkv

>  <RESIDUE_NAME>  (1141) 
ASP   PHE

>  <FRAG_NAME>  (1141) 
ACET   MBZ

>  <FRAG_ATOM_NUM>  (1141) 
fragi: 7  fragj: 15

>  <atom.prop.CHAIN_ID>  (1141) 
A A A A A A A Z Z Z Z Z Z Z Z Z Z Z Z Z Z Z

>  <atom.prop.IS_HEAVY_ATOM>  (1141) 
1 0 0 0 1 1 1 1 0 0 0 1 1 0 1 0 1 0 1 0 1 0

>  <DIFUSE_FUNC_ATOM>  (1141) 
atom 6   atom 7   

>  <FINAL_SINGLE_POINT_ENERGY>  (1141) 
0

>  <NONCOV_INTER_ENERGY_QM>  (1141) 
0

>  <FF_Energy>  (1141) 
-1.14

>  <QM_Energy>  (1141) 
-7.29

>  <source>  (1141) 
ACET_MBZ_01

>  <Index>  (1141) 
2755

$$$$
ACET-pdb1wmm-A-ASP-136:MBZ-pdb1wmm-A-PHE-113
     RDKit          3D

 22 21  0  0  0  0  0  0  0  0999 V2000
   -5.0640    2.2286    1.8161 C   0  0  0  0  0  0  0  0  0  0  0  0
   -4.6093    2.6586    2.5878 H   0  0  0  0  0  0  0  0  0  0  0  0
   -4.9127    1.2469    1.8274 H   0  0  0  0  0  0  0  0  0  0  0  0
   -6.1350    2.4042    1.9177 H   0  0  0  0  0  0  0  0  0  0  0  0
   -4.5028    2.7981    0.5366 C   0  0  0  0  0  0  0  0  0  0  0  0
   -3.2694    2.7549    0.3581 O   0  0  0  0  0  1  0  0  0  0  0  0
   -5.2935    3.2829   -0.2987 O   0  0  0  0  0  0  0  0  0  0  0  0
    0.0103    2.9175    0.0701 C   0  0  0  0  0  0  0  0  0  0  0  0
    0.8722    3.1997    0.4680 H   0  0  0  0  0  0  0  0  0  0  0  0
   -0.7520    3.2028    0.6358 H   0  0  0  0  0  0  0  0  0  0  0  0
   -0.0878    3.4195   -0.8925 H   0  0  0  0  0  0  0  0  0  0  0  0
   -0.0003    1.4092    0.0014 C   0  0  0  0  0  0  0  0  0  0  0  0
   -1.1987    0.6995   -0.0033 C   0  0  0  0  0  0  0  0  0  0  0  0
   -2.0657    1.1868   -0.0105 H   0  0  0  0  0  0  0  0  0  0  0  0
   -1.2049   -0.7007    0.0000 C   0  0  0  0  0  0  0  0  0  0  0  0
   -2.0806   -1.1904    0.0008 H   0  0  0  0  0  0  0  0  0  0  0  0
    0.0001   -1.4011    0.0033 C   0  0  0  0  0  0  0  0  0  0  0  0
   -0.0053   -2.3975    0.0074 H   0  0  0  0  0  0  0  0  0  0  0  0
    1.2049   -0.7029   -0.0000 C   0  0  0  0  0  0  0  0  0  0  0  0
    2.0854   -1.1976   -0.0001 H   0  0  0  0  0  0  0  0  0  0  0  0
    1.1988    0.6961   -0.0013 C   0  0  0  0  0  0  0  0  0  0  0  0
    2.0673    1.1899   -0.0050 H   0  0  0  0  0  0  0  0  0  0  0  0
  1  5  1  0
  5  6  1  0
  5  7  2  0
  1  2  1  0
  1  3  1  0
  1  4  1  0
  8 12  1  0
 12 13  2  0
 13 15  1  0
 15 17  2  0
 17 19  1  0
 19 21  2  0
 21 12  1  0
  8  9  1  0
  8 10  1  0
  8 11  1  0
 13 14  1  0
 15 16  1  0
 17 18  1  0
 19 20  1  0
 21 22  1  0
M  CHG  1   6  -1
M  END
>  <PDB_ID>  (1142) 
pdb1wmm

>  <RESIDUE_NAME>  (1142) 
ASP   PHE

>  <FRAG_NAME>  (1142) 
ACET   MBZ

>  <FRAG_ATOM_NUM>  (1142) 
fragi: 7  fragj: 15

>  <atom.prop.CHAIN_ID>  (1142) 
A A A A A A A Z Z Z Z Z Z Z Z Z Z Z Z Z Z Z

>  <atom.prop.IS_HEAVY_ATOM>  (1142) 
1 0 0 0 1 1 1 1 0 0 0 1 1 0 1 0 1 0 1 0 1 0

>  <DIFUSE_FUNC_ATOM>  (1142) 
atom 6   atom 7   

>  <FINAL_SINGLE_POINT_ENERGY>  (1142) 
0

>  <NONCOV_INTER_ENERGY_QM>  (1142) 
0

>  <FF_Energy>  (1142) 
5.29

>  <QM_Energy>  (1142) 
-7.53

>  <source>  (1142) 
ACET_MBZ_01

>  <Index>  (1142) 
2860

$$$$
ACET-pdb3ak1-C-GLU-126:MBZ-pdb3ak1-A-PHE-71
     RDKit          3D

 22 21  0  0  0  0  0  0  0  0999 V2000
   -0.4293    0.2849   -3.4522 C   0  0  0  0  0  0  0  0  0  0  0  0
   -1.1905   -0.0412   -2.9322 H   0  0  0  0  0  0  0  0  0  0  0  0
    0.4279   -0.0719   -3.1447 H   0  0  0  0  0  0  0  0  0  0  0  0
   -0.5723   -0.0061   -4.4928 H   0  0  0  0  0  0  0  0  0  0  0  0
   -0.3813    1.7861   -3.3074 C   0  0  0  0  0  0  0  0  0  0  0  0
    0.7256    2.3237   -3.0551 O   0  0  0  0  0  1  0  0  0  0  0  0
   -1.4500    2.4043   -3.4643 O   0  0  0  0  0  0  0  0  0  0  0  0
    0.0013    2.9066    0.0218 C   0  0  0  0  0  0  0  0  0  0  0  0
   -0.7496    3.2111   -0.5439 H   0  0  0  0  0  0  0  0  0  0  0  0
    0.8709    3.2076   -0.3393 H   0  0  0  0  0  0  0  0  0  0  0  0
   -0.1230    3.3430    1.0129 H   0  0  0  0  0  0  0  0  0  0  0  0
   -0.0011    1.3941    0.0151 C   0  0  0  0  0  0  0  0  0  0  0  0
   -1.2010    0.7086   -0.0068 C   0  0  0  0  0  0  0  0  0  0  0  0
   -2.0607    1.2029   -0.0288 H   0  0  0  0  0  0  0  0  0  0  0  0
   -1.2083   -0.6778    0.0000 C   0  0  0  0  0  0  0  0  0  0  0  0
   -2.0800   -1.1772    0.0126 H   0  0  0  0  0  0  0  0  0  0  0  0
    0.0061   -1.3925   -0.0085 C   0  0  0  0  0  0  0  0  0  0  0  0
   -0.0196   -2.3903   -0.0208 H   0  0  0  0  0  0  0  0  0  0  0  0
    1.2083   -0.7125   -0.0000 C   0  0  0  0  0  0  0  0  0  0  0  0
    2.0854   -1.2060    0.0070 H   0  0  0  0  0  0  0  0  0  0  0  0
    1.1960    0.6802    0.0002 C   0  0  0  0  0  0  0  0  0  0  0  0
    2.0651    1.1795   -0.0112 H   0  0  0  0  0  0  0  0  0  0  0  0
  1  5  1  0
  5  6  1  0
  5  7  2  0
  1  2  1  0
  1  3  1  0
  1  4  1  0
  8 12  1  0
 12 13  2  0
 13 15  1  0
 15 17  2  0
 17 19  1  0
 19 21  2  0
 21 12  1  0
  8  9  1  0
  8 10  1  0
  8 11  1  0
 13 14  1  0
 15 16  1  0
 17 18  1  0
 19 20  1  0
 21 22  1  0
M  CHG  1   6  -1
M  END
>  <PDB_ID>  (1143) 
pdb3ak1

>  <RESIDUE_NAME>  (1143) 
GLU   PHE

>  <FRAG_NAME>  (1143) 
ACET   MBZ

>  <FRAG_ATOM_NUM>  (1143) 
fragi: 7  fragj: 15

>  <atom.prop.CHAIN_ID>  (1143) 
A A A A A A A Z Z Z Z Z Z Z Z Z Z Z Z Z Z Z

>  <atom.prop.IS_HEAVY_ATOM>  (1143) 
1 0 0 0 1 1 1 1 0 0 0 1 1 0 1 0 1 0 1 0 1 0

>  <DIFUSE_FUNC_ATOM>  (1143) 
atom 6   atom 7   

>  <FINAL_SINGLE_POINT_ENERGY>  (1143) 
0

>  <NONCOV_INTER_ENERGY_QM>  (1143) 
0

>  <FF_Energy>  (1143) 
-2.08

>  <QM_Energy>  (1143) 
-5.92

>  <source>  (1143) 
ACET_MBZ_01

>  <Index>  (1143) 
2910

$$$$
ACET-pdb3alj-A-GLU-94:MBZ-pdb3alj-A-PHE-358
     RDKit          3D

 22 21  0  0  0  0  0  0  0  0999 V2000
    4.8182    4.2572    1.0845 C   0  0  0  0  0  0  0  0  0  0  0  0
    4.6482    5.2055    0.9211 H   0  0  0  0  0  0  0  0  0  0  0  0
    5.7614    4.0154    1.0083 H   0  0  0  0  0  0  0  0  0  0  0  0
    4.4716    4.0074    2.0872 H   0  0  0  0  0  0  0  0  0  0  0  0
    4.0596    3.4695    0.0212 C   0  0  0  0  0  0  0  0  0  0  0  0
    4.4765    2.3725   -0.3330 O   0  0  0  0  0  1  0  0  0  0  0  0
    3.0640    4.0146   -0.4838 O   0  0  0  0  0  0  0  0  0  0  0  0
   -0.0505    2.9156   -0.0428 C   0  0  0  0  0  0  0  0  0  0  0  0
    0.8381    3.2481    0.1727 H   0  0  0  0  0  0  0  0  0  0  0  0
   -0.7498    3.2302    0.5558 H   0  0  0  0  0  0  0  0  0  0  0  0
   -0.2974    3.2550   -1.0488 H   0  0  0  0  0  0  0  0  0  0  0  0
   -0.0174    1.3999    0.0206 C   0  0  0  0  0  0  0  0  0  0  0  0
   -1.2339    0.6901    0.0311 C   0  0  0  0  0  0  0  0  0  0  0  0
   -2.0914    1.1489    0.0572 H   0  0  0  0  0  0  0  0  0  0  0  0
   -1.2041   -0.7473    0.0000 C   0  0  0  0  0  0  0  0  0  0  0  0
   -2.0578   -1.2423    0.0048 H   0  0  0  0  0  0  0  0  0  0  0  0
    0.0240   -1.3671   -0.0328 C   0  0  0  0  0  0  0  0  0  0  0  0
    0.0315   -2.4014   -0.0860 H   0  0  0  0  0  0  0  0  0  0  0  0
    1.2041   -0.7068   -0.0000 C   0  0  0  0  0  0  0  0  0  0  0  0
    2.0953   -1.1851    0.0397 H   0  0  0  0  0  0  0  0  0  0  0  0
    1.2273    0.7311   -0.0189 C   0  0  0  0  0  0  0  0  0  0  0  0
    2.0636    1.2082   -0.0583 H   0  0  0  0  0  0  0  0  0  0  0  0
  1  5  1  0
  5  6  1  0
  5  7  2  0
  1  2  1  0
  1  3  1  0
  1  4  1  0
  8 12  1  0
 12 13  2  0
 13 15  1  0
 15 17  2  0
 17 19  1  0
 19 21  2  0
 21 12  1  0
  8  9  1  0
  8 10  1  0
  8 11  1  0
 13 14  1  0
 15 16  1  0
 17 18  1  0
 19 20  1  0
 21 22  1  0
M  CHG  1   6  -1
M  END
>  <PDB_ID>  (1144) 
pdb3alj

>  <RESIDUE_NAME>  (1144) 
GLU   PHE

>  <FRAG_NAME>  (1144) 
ACET   MBZ

>  <FRAG_ATOM_NUM>  (1144) 
fragi: 7  fragj: 15

>  <atom.prop.CHAIN_ID>  (1144) 
A A A A A A A Z Z Z Z Z Z Z Z Z Z Z Z Z Z Z

>  <atom.prop.IS_HEAVY_ATOM>  (1144) 
1 0 0 0 1 1 1 1 0 0 0 1 1 0 1 0 1 0 1 0 1 0

>  <DIFUSE_FUNC_ATOM>  (1144) 
atom 6   atom 7   

>  <FINAL_SINGLE_POINT_ENERGY>  (1144) 
0

>  <NONCOV_INTER_ENERGY_QM>  (1144) 
0

>  <FF_Energy>  (1144) 
-2.64

>  <QM_Energy>  (1144) 
-8.98

>  <source>  (1144) 
ACET_MBZ_01

>  <Index>  (1144) 
2961

$$$$
ACET-pdb3alr-A-ASP-147:MBZ-pdb3alr-D-PHE-91
     RDKit          3D

 22 21  0  0  0  0  0  0  0  0999 V2000
   -4.8268   -4.0766   -1.2367 C   0  0  0  0  0  0  0  0  0  0  0  0
   -4.7691   -4.8027   -1.9080 H   0  0  0  0  0  0  0  0  0  0  0  0
   -5.3861   -3.3299   -1.5688 H   0  0  0  0  0  0  0  0  0  0  0  0
   -5.3172   -4.4861   -0.3536 H   0  0  0  0  0  0  0  0  0  0  0  0
   -3.4003   -3.5421   -0.9653 C   0  0  0  0  0  0  0  0  0  0  0  0
   -3.0704   -3.2161    0.1892 O   0  0  0  0  0  1  0  0  0  0  0  0
   -2.5854   -3.4567   -1.9260 O   0  0  0  0  0  0  0  0  0  0  0  0
   -0.0056    2.8967    0.0012 C   0  0  0  0  0  0  0  0  0  0  0  0
   -0.7452    3.2038   -0.5834 H   0  0  0  0  0  0  0  0  0  0  0  0
    0.8700    3.2088   -0.3432 H   0  0  0  0  0  0  0  0  0  0  0  0
   -0.1532    3.3467    0.9830 H   0  0  0  0  0  0  0  0  0  0  0  0
   -0.0017    1.4041    0.0054 C   0  0  0  0  0  0  0  0  0  0  0  0
   -1.1952    0.6957   -0.0065 C   0  0  0  0  0  0  0  0  0  0  0  0
   -2.0643    1.1866   -0.0208 H   0  0  0  0  0  0  0  0  0  0  0  0
   -1.2039   -0.6950   -0.0000 C   0  0  0  0  0  0  0  0  0  0  0  0
   -2.0834   -1.1857    0.0049 H   0  0  0  0  0  0  0  0  0  0  0  0
   -0.0063   -1.3997    0.0014 C   0  0  0  0  0  0  0  0  0  0  0  0
   -0.0081   -2.3934    0.0031 H   0  0  0  0  0  0  0  0  0  0  0  0
    1.2039   -0.6969   -0.0000 C   0  0  0  0  0  0  0  0  0  0  0  0
    2.0811   -1.2011    0.0010 H   0  0  0  0  0  0  0  0  0  0  0  0
    1.2032    0.6917   -0.0004 C   0  0  0  0  0  0  0  0  0  0  0  0
    2.0676    1.1909   -0.0055 H   0  0  0  0  0  0  0  0  0  0  0  0
  1  5  1  0
  5  6  1  0
  5  7  2  0
  1  2  1  0
  1  3  1  0
  1  4  1  0
  8 12  1  0
 12 13  2  0
 13 15  1  0
 15 17  2  0
 17 19  1  0
 19 21  2  0
 21 12  1  0
  8  9  1  0
  8 10  1  0
  8 11  1  0
 13 14  1  0
 15 16  1  0
 17 18  1  0
 19 20  1  0
 21 22  1  0
M  CHG  1   6  -1
M  END
>  <PDB_ID>  (1145) 
pdb3alr

>  <RESIDUE_NAME>  (1145) 
ASP   PHE

>  <FRAG_NAME>  (1145) 
ACET   MBZ

>  <FRAG_ATOM_NUM>  (1145) 
fragi: 7  fragj: 15

>  <atom.prop.CHAIN_ID>  (1145) 
A A A A A A A Z Z Z Z Z Z Z Z Z Z Z Z Z Z Z

>  <atom.prop.IS_HEAVY_ATOM>  (1145) 
1 0 0 0 1 1 1 1 0 0 0 1 1 0 1 0 1 0 1 0 1 0

>  <DIFUSE_FUNC_ATOM>  (1145) 
atom 6   atom 7   

>  <FINAL_SINGLE_POINT_ENERGY>  (1145) 
0

>  <NONCOV_INTER_ENERGY_QM>  (1145) 
0

>  <FF_Energy>  (1145) 
-1.48

>  <QM_Energy>  (1145) 
-6.64

>  <source>  (1145) 
ACET_MBZ_01

>  <Index>  (1145) 
2984

$$$$
ACET-pdb3amc-B-GLU-180:MBZ-pdb3amc-B-PHE-237
     RDKit          3D

 22 21  0  0  0  0  0  0  0  0999 V2000
   -0.2827   -4.8425   -0.1936 C   0  0  0  0  0  0  0  0  0  0  0  0
   -1.0607   -4.9841   -0.7897 H   0  0  0  0  0  0  0  0  0  0  0  0
   -0.2364   -3.9015    0.1133 H   0  0  0  0  0  0  0  0  0  0  0  0
   -0.3909   -5.4883    0.6778 H   0  0  0  0  0  0  0  0  0  0  0  0
    0.9750   -5.0995   -1.0341 C   0  0  0  0  0  0  0  0  0  0  0  0
    1.2556   -6.3182   -1.4086 O   0  0  0  0  0  1  0  0  0  0  0  0
    1.6393   -4.0809   -1.2884 O   0  0  0  0  0  0  0  0  0  0  0  0
    0.0347    2.9331    0.0145 C   0  0  0  0  0  0  0  0  0  0  0  0
   -0.7387    3.2481   -0.5081 H   0  0  0  0  0  0  0  0  0  0  0  0
    0.8890    3.2238   -0.3828 H   0  0  0  0  0  0  0  0  0  0  0  0
   -0.0362    3.3529    1.0179 H   0  0  0  0  0  0  0  0  0  0  0  0
    0.0129    1.4196   -0.0000 C   0  0  0  0  0  0  0  0  0  0  0  0
   -1.2096    0.7154    0.0010 C   0  0  0  0  0  0  0  0  0  0  0  0
   -2.0631    1.1960    0.0009 H   0  0  0  0  0  0  0  0  0  0  0  0
   -1.2002   -0.7009    0.0000 C   0  0  0  0  0  0  0  0  0  0  0  0
   -2.0832   -1.1866    0.0002 H   0  0  0  0  0  0  0  0  0  0  0  0
   -0.0048   -1.3960    0.0005 C   0  0  0  0  0  0  0  0  0  0  0  0
   -0.0205   -2.4047    0.0010 H   0  0  0  0  0  0  0  0  0  0  0  0
    1.2002   -0.7275   -0.0000 C   0  0  0  0  0  0  0  0  0  0  0  0
    2.0772   -1.2159    0.0017 H   0  0  0  0  0  0  0  0  0  0  0  0
    1.2016    0.6894   -0.0015 C   0  0  0  0  0  0  0  0  0  0  0  0
    2.0802    1.1679   -0.0041 H   0  0  0  0  0  0  0  0  0  0  0  0
  1  5  1  0
  5  6  1  0
  5  7  2  0
  1  2  1  0
  1  3  1  0
  1  4  1  0
  8 12  1  0
 12 13  2  0
 13 15  1  0
 15 17  2  0
 17 19  1  0
 19 21  2  0
 21 12  1  0
  8  9  1  0
  8 10  1  0
  8 11  1  0
 13 14  1  0
 15 16  1  0
 17 18  1  0
 19 20  1  0
 21 22  1  0
M  CHG  1   6  -1
M  END
>  <PDB_ID>  (1146) 
pdb3amc

>  <RESIDUE_NAME>  (1146) 
GLU   PHE

>  <FRAG_NAME>  (1146) 
ACET   MBZ

>  <FRAG_ATOM_NUM>  (1146) 
fragi: 7  fragj: 15

>  <atom.prop.CHAIN_ID>  (1146) 
A A A A A A A Z Z Z Z Z Z Z Z Z Z Z Z Z Z Z

>  <atom.prop.IS_HEAVY_ATOM>  (1146) 
1 0 0 0 1 1 1 1 0 0 0 1 1 0 1 0 1 0 1 0 1 0

>  <DIFUSE_FUNC_ATOM>  (1146) 
atom 6   atom 7   

>  <FINAL_SINGLE_POINT_ENERGY>  (1146) 
0

>  <NONCOV_INTER_ENERGY_QM>  (1146) 
0

>  <FF_Energy>  (1146) 
25.82

>  <QM_Energy>  (1146) 
-0.18

>  <source>  (1146) 
ACET_MBZ_01

>  <Index>  (1146) 
3005

$$$$
ACET-pdb3amk-A-GLU-185:MBZ-pdb3amk-A-PHE-525
     RDKit          3D

 22 21  0  0  0  0  0  0  0  0999 V2000
   -4.7180    1.9722    0.7237 C   0  0  0  0  0  0  0  0  0  0  0  0
   -4.2181    1.1381    0.8119 H   0  0  0  0  0  0  0  0  0  0  0  0
   -5.6739    1.8701    0.8974 H   0  0  0  0  0  0  0  0  0  0  0  0
   -4.3129    2.6924    1.4345 H   0  0  0  0  0  0  0  0  0  0  0  0
   -4.5554    2.4628   -0.6914 C   0  0  0  0  0  0  0  0  0  0  0  0
   -3.4092    2.7319   -1.0929 O   0  0  0  0  0  1  0  0  0  0  0  0
   -5.5713    2.6010   -1.3928 O   0  0  0  0  0  0  0  0  0  0  0  0
    0.0058    2.9229    0.0048 C   0  0  0  0  0  0  0  0  0  0  0  0
   -0.7656    3.2280   -0.5271 H   0  0  0  0  0  0  0  0  0  0  0  0
    0.8613    3.2235   -0.3827 H   0  0  0  0  0  0  0  0  0  0  0  0
   -0.0818    3.3525    1.0028 H   0  0  0  0  0  0  0  0  0  0  0  0
    0.0024    1.4066   -0.0028 C   0  0  0  0  0  0  0  0  0  0  0  0
   -1.1958    0.6954    0.0066 C   0  0  0  0  0  0  0  0  0  0  0  0
   -2.0627    1.1822    0.0173 H   0  0  0  0  0  0  0  0  0  0  0  0
   -1.2011   -0.7044    0.0000 C   0  0  0  0  0  0  0  0  0  0  0  0
   -2.0786   -1.1924   -0.0043 H   0  0  0  0  0  0  0  0  0  0  0  0
   -0.0020   -1.3967    0.0011 C   0  0  0  0  0  0  0  0  0  0  0  0
   -0.0011   -2.3956    0.0022 H   0  0  0  0  0  0  0  0  0  0  0  0
    1.2011   -0.6967    0.0000 C   0  0  0  0  0  0  0  0  0  0  0  0
    2.0821   -1.1943    0.0046 H   0  0  0  0  0  0  0  0  0  0  0  0
    1.1954    0.6958   -0.0050 C   0  0  0  0  0  0  0  0  0  0  0  0
    2.0659    1.1909   -0.0113 H   0  0  0  0  0  0  0  0  0  0  0  0
  1  5  1  0
  5  6  1  0
  5  7  2  0
  1  2  1  0
  1  3  1  0
  1  4  1  0
  8 12  1  0
 12 13  2  0
 13 15  1  0
 15 17  2  0
 17 19  1  0
 19 21  2  0
 21 12  1  0
  8  9  1  0
  8 10  1  0
  8 11  1  0
 13 14  1  0
 15 16  1  0
 17 18  1  0
 19 20  1  0
 21 22  1  0
M  CHG  1   6  -1
M  END
>  <PDB_ID>  (1147) 
pdb3amk

>  <RESIDUE_NAME>  (1147) 
GLU   PHE

>  <FRAG_NAME>  (1147) 
ACET   MBZ

>  <FRAG_ATOM_NUM>  (1147) 
fragi: 7  fragj: 15

>  <atom.prop.CHAIN_ID>  (1147) 
A A A A A A A Z Z Z Z Z Z Z Z Z Z Z Z Z Z Z

>  <atom.prop.IS_HEAVY_ATOM>  (1147) 
1 0 0 0 1 1 1 1 0 0 0 1 1 0 1 0 1 0 1 0 1 0

>  <DIFUSE_FUNC_ATOM>  (1147) 
atom 6   atom 7   

>  <FINAL_SINGLE_POINT_ENERGY>  (1147) 
0

>  <NONCOV_INTER_ENERGY_QM>  (1147) 
0

>  <FF_Energy>  (1147) 
-1.34

>  <QM_Energy>  (1147) 
-7.11

>  <source>  (1147) 
ACET_MBZ_01

>  <Index>  (1147) 
3022

$$$$
ACET-pdb1wqa-B-GLU-125:MBZ-pdb1wqa-B-PHE-5
     RDKit          3D

 22 21  0  0  0  0  0  0  0  0999 V2000
   -2.1456    1.6515   -3.1305 C   0  0  0  0  0  0  0  0  0  0  0  0
   -2.8270    1.8583   -2.4533 H   0  0  0  0  0  0  0  0  0  0  0  0
   -1.6350    0.8406   -2.9105 H   0  0  0  0  0  0  0  0  0  0  0  0
   -2.6389    1.5076   -4.0918 H   0  0  0  0  0  0  0  0  0  0  0  0
   -1.1676    2.8076   -3.1570 C   0  0  0  0  0  0  0  0  0  0  0  0
   -1.6172    3.9768   -3.0572 O   0  0  0  0  0  1  0  0  0  0  0  0
    0.0499    2.5519   -3.2866 O   0  0  0  0  0  0  0  0  0  0  0  0
    0.0037    2.8986    0.0046 C   0  0  0  0  0  0  0  0  0  0  0  0
   -0.8600    3.2147   -0.3627 H   0  0  0  0  0  0  0  0  0  0  0  0
    0.7630    3.2111   -0.5491 H   0  0  0  0  0  0  0  0  0  0  0  0
    0.1192    3.3346    0.9969 H   0  0  0  0  0  0  0  0  0  0  0  0
   -0.0015    1.4014   -0.0092 C   0  0  0  0  0  0  0  0  0  0  0  0
   -1.2018    0.6974    0.0015 C   0  0  0  0  0  0  0  0  0  0  0  0
   -2.0658    1.1884    0.0091 H   0  0  0  0  0  0  0  0  0  0  0  0
   -1.2073   -0.6946   -0.0000 C   0  0  0  0  0  0  0  0  0  0  0  0
   -2.0794   -1.1909   -0.0061 H   0  0  0  0  0  0  0  0  0  0  0  0
    0.0044   -1.3957    0.0090 C   0  0  0  0  0  0  0  0  0  0  0  0
   -0.0043   -2.3927    0.0216 H   0  0  0  0  0  0  0  0  0  0  0  0
    1.2073   -0.7001    0.0000 C   0  0  0  0  0  0  0  0  0  0  0  0
    2.0869   -1.1965   -0.0038 H   0  0  0  0  0  0  0  0  0  0  0  0
    1.1990    0.6916   -0.0012 C   0  0  0  0  0  0  0  0  0  0  0  0
    2.0655    1.1910    0.0027 H   0  0  0  0  0  0  0  0  0  0  0  0
  1  5  1  0
  5  6  1  0
  5  7  2  0
  1  2  1  0
  1  3  1  0
  1  4  1  0
  8 12  1  0
 12 13  2  0
 13 15  1  0
 15 17  2  0
 17 19  1  0
 19 21  2  0
 21 12  1  0
  8  9  1  0
  8 10  1  0
  8 11  1  0
 13 14  1  0
 15 16  1  0
 17 18  1  0
 19 20  1  0
 21 22  1  0
M  CHG  1   6  -1
M  END
>  <PDB_ID>  (1148) 
pdb1wqa

>  <RESIDUE_NAME>  (1148) 
GLU   PHE

>  <FRAG_NAME>  (1148) 
ACET   MBZ

>  <FRAG_ATOM_NUM>  (1148) 
fragi: 7  fragj: 15

>  <atom.prop.CHAIN_ID>  (1148) 
A A A A A A A Z Z Z Z Z Z Z Z Z Z Z Z Z Z Z

>  <atom.prop.IS_HEAVY_ATOM>  (1148) 
1 0 0 0 1 1 1 1 0 0 0 1 1 0 1 0 1 0 1 0 1 0

>  <DIFUSE_FUNC_ATOM>  (1148) 
atom 6   atom 7   

>  <FINAL_SINGLE_POINT_ENERGY>  (1148) 
0

>  <NONCOV_INTER_ENERGY_QM>  (1148) 
0

>  <FF_Energy>  (1148) 
0.47

>  <QM_Energy>  (1148) 
-5.06

>  <source>  (1148) 
ACET_MBZ_01

>  <Index>  (1148) 
3216

$$$$
ACET-pdb1ws6-A-GLU-76:MBZ-pdb1ws6-A-PHE-46
     RDKit          3D

 22 21  0  0  0  0  0  0  0  0999 V2000
   -2.7194    2.2371    4.5589 C   0  0  0  0  0  0  0  0  0  0  0  0
   -2.9815    3.0148    5.1072 H   0  0  0  0  0  0  0  0  0  0  0  0
   -2.1263    1.6249    5.0568 H   0  0  0  0  0  0  0  0  0  0  0  0
   -3.6247    1.6914    4.2928 H   0  0  0  0  0  0  0  0  0  0  0  0
   -1.9432    2.7573    3.3654 C   0  0  0  0  0  0  0  0  0  0  0  0
   -2.5579    3.3075    2.4215 O   0  0  0  0  0  1  0  0  0  0  0  0
   -0.7005    2.6315    3.3874 O   0  0  0  0  0  0  0  0  0  0  0  0
   -0.0102    2.9046   -0.1501 C   0  0  0  0  0  0  0  0  0  0  0  0
    0.8732    3.2422    0.1150 H   0  0  0  0  0  0  0  0  0  0  0  0
   -0.7311    3.2592    0.4145 H   0  0  0  0  0  0  0  0  0  0  0  0
   -0.1985    3.2233   -1.1753 H   0  0  0  0  0  0  0  0  0  0  0  0
    0.0018    1.4011   -0.0020 C   0  0  0  0  0  0  0  0  0  0  0  0
   -1.1871    0.6854    0.0025 C   0  0  0  0  0  0  0  0  0  0  0  0
   -2.0590    1.1754    0.0066 H   0  0  0  0  0  0  0  0  0  0  0  0
   -1.1918   -0.7002   -0.0000 C   0  0  0  0  0  0  0  0  0  0  0  0
   -2.0762   -1.1908    0.0014 H   0  0  0  0  0  0  0  0  0  0  0  0
   -0.0070   -1.3912   -0.0026 C   0  0  0  0  0  0  0  0  0  0  0  0
   -0.0035   -2.3908   -0.0070 H   0  0  0  0  0  0  0  0  0  0  0  0
    1.1918   -0.6928   -0.0000 C   0  0  0  0  0  0  0  0  0  0  0  0
    2.0751   -1.1922    0.0016 H   0  0  0  0  0  0  0  0  0  0  0  0
    1.1923    0.6978    0.0021 C   0  0  0  0  0  0  0  0  0  0  0  0
    2.0626    1.1898    0.0053 H   0  0  0  0  0  0  0  0  0  0  0  0
  1  5  1  0
  5  6  1  0
  5  7  2  0
  1  2  1  0
  1  3  1  0
  1  4  1  0
  8 12  1  0
 12 13  2  0
 13 15  1  0
 15 17  2  0
 17 19  1  0
 19 21  2  0
 21 12  1  0
  8  9  1  0
  8 10  1  0
  8 11  1  0
 13 14  1  0
 15 16  1  0
 17 18  1  0
 19 20  1  0
 21 22  1  0
M  CHG  1   6  -1
M  END
>  <PDB_ID>  (1149) 
pdb1ws6

>  <RESIDUE_NAME>  (1149) 
GLU   PHE

>  <FRAG_NAME>  (1149) 
ACET   MBZ

>  <FRAG_ATOM_NUM>  (1149) 
fragi: 7  fragj: 15

>  <atom.prop.CHAIN_ID>  (1149) 
A A A A A A A Z Z Z Z Z Z Z Z Z Z Z Z Z Z Z

>  <atom.prop.IS_HEAVY_ATOM>  (1149) 
1 0 0 0 1 1 1 1 0 0 0 1 1 0 1 0 1 0 1 0 1 0

>  <DIFUSE_FUNC_ATOM>  (1149) 
atom 6   atom 7   

>  <FINAL_SINGLE_POINT_ENERGY>  (1149) 
0

>  <NONCOV_INTER_ENERGY_QM>  (1149) 
0

>  <FF_Energy>  (1149) 
0.27

>  <QM_Energy>  (1149) 
-5.91

>  <source>  (1149) 
ACET_MBZ_01

>  <Index>  (1149) 
3310

$$$$
ACET-pdb1wty-D-GLU-71:MBZ-pdb1wty-D-PHE-64
     RDKit          3D

 22 21  0  0  0  0  0  0  0  0999 V2000
   -0.1491    2.5889    4.8967 C   0  0  0  0  0  0  0  0  0  0  0  0
   -1.0324    3.0013    4.7751 H   0  0  0  0  0  0  0  0  0  0  0  0
    0.3504    2.9880    5.6421 H   0  0  0  0  0  0  0  0  0  0  0  0
   -0.2940    1.5297    5.1092 H   0  0  0  0  0  0  0  0  0  0  0  0
    0.6482    2.8255    3.6309 C   0  0  0  0  0  0  0  0  0  0  0  0
    1.0268    3.9903    3.3732 O   0  0  0  0  0  1  0  0  0  0  0  0
    0.8932    1.8467    2.8909 O   0  0  0  0  0  0  0  0  0  0  0  0
    0.0121    2.9119    0.0616 C   0  0  0  0  0  0  0  0  0  0  0  0
    0.8007    3.2319   -0.4439 H   0  0  0  0  0  0  0  0  0  0  0  0
    0.0675    3.1795    1.0135 H   0  0  0  0  0  0  0  0  0  0  0  0
   -0.8697    3.3901   -0.3648 H   0  0  0  0  0  0  0  0  0  0  0  0
   -0.0025    1.4078    0.0001 C   0  0  0  0  0  0  0  0  0  0  0  0
   -1.2021    0.6986   -0.0012 C   0  0  0  0  0  0  0  0  0  0  0  0
   -2.0681    1.1848   -0.0040 H   0  0  0  0  0  0  0  0  0  0  0  0
   -1.2035   -0.6992    0.0000 C   0  0  0  0  0  0  0  0  0  0  0  0
   -2.0770   -1.1940    0.0011 H   0  0  0  0  0  0  0  0  0  0  0  0
    0.0070   -1.4000    0.0019 C   0  0  0  0  0  0  0  0  0  0  0  0
   -0.0014   -2.3967    0.0038 H   0  0  0  0  0  0  0  0  0  0  0  0
    1.2035   -0.7026    0.0000 C   0  0  0  0  0  0  0  0  0  0  0  0
    2.0879   -1.1944    0.0003 H   0  0  0  0  0  0  0  0  0  0  0  0
    1.1976    0.6953   -0.0008 C   0  0  0  0  0  0  0  0  0  0  0  0
    2.0650    1.1901   -0.0029 H   0  0  0  0  0  0  0  0  0  0  0  0
  1  5  1  0
  5  6  1  0
  5  7  2  0
  1  2  1  0
  1  3  1  0
  1  4  1  0
  8 12  1  0
 12 13  2  0
 13 15  1  0
 15 17  2  0
 17 19  1  0
 19 21  2  0
 21 12  1  0
  8  9  1  0
  8 10  1  0
  8 11  1  0
 13 14  1  0
 15 16  1  0
 17 18  1  0
 19 20  1  0
 21 22  1  0
M  CHG  1   6  -1
M  END
>  <PDB_ID>  (1150) 
pdb1wty

>  <RESIDUE_NAME>  (1150) 
GLU   PHE

>  <FRAG_NAME>  (1150) 
ACET   MBZ

>  <FRAG_ATOM_NUM>  (1150) 
fragi: 7  fragj: 15

>  <atom.prop.CHAIN_ID>  (1150) 
A A A A A A A Z Z Z Z Z Z Z Z Z Z Z Z Z Z Z

>  <atom.prop.IS_HEAVY_ATOM>  (1150) 
1 0 0 0 1 1 1 1 0 0 0 1 1 0 1 0 1 0 1 0 1 0

>  <DIFUSE_FUNC_ATOM>  (1150) 
atom 6   atom 7   

>  <FINAL_SINGLE_POINT_ENERGY>  (1150) 
0

>  <NONCOV_INTER_ENERGY_QM>  (1150) 
0

>  <FF_Energy>  (1150) 
3.42

>  <QM_Energy>  (1150) 
-4.7

>  <source>  (1150) 
ACET_MBZ_01

>  <Index>  (1150) 
3391

$$$$
ACET-pdb1wtj-A-GLU-260:MBZ-pdb1wtj-A-PHE-257
     RDKit          3D

 22 21  0  0  0  0  0  0  0  0999 V2000
    3.5310    4.4543   -0.8094 C   0  0  0  0  0  0  0  0  0  0  0  0
    4.4400    4.5938   -0.4472 H   0  0  0  0  0  0  0  0  0  0  0  0
    2.8468    4.5180   -0.0982 H   0  0  0  0  0  0  0  0  0  0  0  0
    3.3353    5.2408   -1.5383 H   0  0  0  0  0  0  0  0  0  0  0  0
    3.4725    3.0512   -1.3774 C   0  0  0  0  0  0  0  0  0  0  0  0
    2.6658    2.8003   -2.2920 O   0  0  0  0  0  1  0  0  0  0  0  0
    4.2315    2.1885   -0.8817 O   0  0  0  0  0  0  0  0  0  0  0  0
    0.0042    2.9042    0.0408 C   0  0  0  0  0  0  0  0  0  0  0  0
    0.9422    3.2117   -0.0406 H   0  0  0  0  0  0  0  0  0  0  0  0
   -0.3907    3.1898    0.9030 H   0  0  0  0  0  0  0  0  0  0  0  0
   -0.5696    3.3732   -0.7585 H   0  0  0  0  0  0  0  0  0  0  0  0
    0.0004    1.4041    0.0002 C   0  0  0  0  0  0  0  0  0  0  0  0
   -1.1992    0.6952    0.0003 C   0  0  0  0  0  0  0  0  0  0  0  0
   -2.0649    1.1852   -0.0008 H   0  0  0  0  0  0  0  0  0  0  0  0
   -1.2055   -0.6993   -0.0000 C   0  0  0  0  0  0  0  0  0  0  0  0
   -2.0797   -1.1921    0.0012 H   0  0  0  0  0  0  0  0  0  0  0  0
    0.0004   -1.3982    0.0002 C   0  0  0  0  0  0  0  0  0  0  0  0
   -0.0017   -2.3939    0.0000 H   0  0  0  0  0  0  0  0  0  0  0  0
    1.2055   -0.6961    0.0000 C   0  0  0  0  0  0  0  0  0  0  0  0
    2.0855   -1.1941    0.0021 H   0  0  0  0  0  0  0  0  0  0  0  0
    1.1984    0.6943   -0.0007 C   0  0  0  0  0  0  0  0  0  0  0  0
    2.0664    1.1921   -0.0028 H   0  0  0  0  0  0  0  0  0  0  0  0
  1  5  1  0
  5  6  1  0
  5  7  2  0
  1  2  1  0
  1  3  1  0
  1  4  1  0
  8 12  1  0
 12 13  2  0
 13 15  1  0
 15 17  2  0
 17 19  1  0
 19 21  2  0
 21 12  1  0
  8  9  1  0
  8 10  1  0
  8 11  1  0
 13 14  1  0
 15 16  1  0
 17 18  1  0
 19 20  1  0
 21 22  1  0
M  CHG  1   6  -1
M  END
>  <PDB_ID>  (1151) 
pdb1wtj

>  <RESIDUE_NAME>  (1151) 
GLU   PHE

>  <FRAG_NAME>  (1151) 
ACET   MBZ

>  <FRAG_ATOM_NUM>  (1151) 
fragi: 7  fragj: 15

>  <atom.prop.CHAIN_ID>  (1151) 
A A A A A A A Z Z Z Z Z Z Z Z Z Z Z Z Z Z Z

>  <atom.prop.IS_HEAVY_ATOM>  (1151) 
1 0 0 0 1 1 1 1 0 0 0 1 1 0 1 0 1 0 1 0 1 0

>  <DIFUSE_FUNC_ATOM>  (1151) 
atom 6   atom 7   

>  <FINAL_SINGLE_POINT_ENERGY>  (1151) 
0

>  <NONCOV_INTER_ENERGY_QM>  (1151) 
0

>  <FF_Energy>  (1151) 
-1.44

>  <QM_Energy>  (1151) 
-6.93

>  <source>  (1151) 
ACET_MBZ_01

>  <Index>  (1151) 
3466

$$$$
ACET-pdb3axb-B-GLU-424:MBZ-pdb3axb-B-PHE-55
     RDKit          3D

 22 21  0  0  0  0  0  0  0  0999 V2000
   -4.9954    2.3384    0.8932 C   0  0  0  0  0  0  0  0  0  0  0  0
   -4.5864    1.5132    1.2143 H   0  0  0  0  0  0  0  0  0  0  0  0
   -5.5973    2.2084    0.1375 H   0  0  0  0  0  0  0  0  0  0  0  0
   -5.5588    2.7856    1.7121 H   0  0  0  0  0  0  0  0  0  0  0  0
   -3.8706    3.2594    0.4305 C   0  0  0  0  0  0  0  0  0  0  0  0
   -3.0401    3.6431    1.2858 O   0  0  0  0  0  1  0  0  0  0  0  0
   -3.7728    3.5508   -0.7844 O   0  0  0  0  0  0  0  0  0  0  0  0
   -0.0264    2.9336   -0.0197 C   0  0  0  0  0  0  0  0  0  0  0  0
    0.8190    3.2564    0.3661 H   0  0  0  0  0  0  0  0  0  0  0  0
   -0.8091    3.2273    0.4995 H   0  0  0  0  0  0  0  0  0  0  0  0
   -0.1158    3.3476   -1.0240 H   0  0  0  0  0  0  0  0  0  0  0  0
    0.0021    1.4166   -0.0006 C   0  0  0  0  0  0  0  0  0  0  0  0
   -1.1928    0.7005    0.0040 C   0  0  0  0  0  0  0  0  0  0  0  0
   -2.0647    1.1836    0.0085 H   0  0  0  0  0  0  0  0  0  0  0  0
   -1.2075   -0.7122   -0.0000 C   0  0  0  0  0  0  0  0  0  0  0  0
   -2.0950   -1.1825    0.0005 H   0  0  0  0  0  0  0  0  0  0  0  0
   -0.0272   -1.4006   -0.0029 C   0  0  0  0  0  0  0  0  0  0  0  0
   -0.0197   -2.4050   -0.0083 H   0  0  0  0  0  0  0  0  0  0  0  0
    1.2075   -0.7149   -0.0000 C   0  0  0  0  0  0  0  0  0  0  0  0
    2.0723   -1.2141    0.0034 H   0  0  0  0  0  0  0  0  0  0  0  0
    1.2179    0.7106   -0.0005 C   0  0  0  0  0  0  0  0  0  0  0  0
    2.0772    1.1904   -0.0013 H   0  0  0  0  0  0  0  0  0  0  0  0
  1  5  1  0
  5  6  1  0
  5  7  2  0
  1  2  1  0
  1  3  1  0
  1  4  1  0
  8 12  1  0
 12 13  2  0
 13 15  1  0
 15 17  2  0
 17 19  1  0
 19 21  2  0
 21 12  1  0
  8  9  1  0
  8 10  1  0
  8 11  1  0
 13 14  1  0
 15 16  1  0
 17 18  1  0
 19 20  1  0
 21 22  1  0
M  CHG  1   6  -1
M  END
>  <PDB_ID>  (1152) 
pdb3axb

>  <RESIDUE_NAME>  (1152) 
GLU   PHE

>  <FRAG_NAME>  (1152) 
ACET   MBZ

>  <FRAG_ATOM_NUM>  (1152) 
fragi: 7  fragj: 15

>  <atom.prop.CHAIN_ID>  (1152) 
A A A A A A A Z Z Z Z Z Z Z Z Z Z Z Z Z Z Z

>  <atom.prop.IS_HEAVY_ATOM>  (1152) 
1 0 0 0 1 1 1 1 0 0 0 1 1 0 1 0 1 0 1 0 1 0

>  <DIFUSE_FUNC_ATOM>  (1152) 
atom 6   atom 7   

>  <FINAL_SINGLE_POINT_ENERGY>  (1152) 
0

>  <NONCOV_INTER_ENERGY_QM>  (1152) 
0

>  <FF_Energy>  (1152) 
-2.11

>  <QM_Energy>  (1152) 
-8.29

>  <source>  (1152) 
ACET_MBZ_01

>  <Index>  (1152) 
3566

$$$$
ACET-pdb1ww8-B-ASP-160:MBZ-pdb1ww8-B-PHE-332
     RDKit          3D

 22 21  0  0  0  0  0  0  0  0999 V2000
    2.6766    3.0152   -4.1135 C   0  0  0  0  0  0  0  0  0  0  0  0
    1.7076    3.1675   -3.9754 H   0  0  0  0  0  0  0  0  0  0  0  0
    2.8356    2.4130   -4.8828 H   0  0  0  0  0  0  0  0  0  0  0  0
    3.1430    3.9759   -4.3319 H   0  0  0  0  0  0  0  0  0  0  0  0
    3.2536    2.3789   -2.8668 C   0  0  0  0  0  0  0  0  0  0  0  0
    3.1018    2.9867   -1.7888 O   0  0  0  0  0  1  0  0  0  0  0  0
    3.8682    1.2957   -2.9613 O   0  0  0  0  0  0  0  0  0  0  0  0
   -0.0013    2.9190   -0.0191 C   0  0  0  0  0  0  0  0  0  0  0  0
   -0.7906    3.2220   -0.5337 H   0  0  0  0  0  0  0  0  0  0  0  0
    0.8393    3.2229   -0.4436 H   0  0  0  0  0  0  0  0  0  0  0  0
   -0.0558    3.3876    0.9635 H   0  0  0  0  0  0  0  0  0  0  0  0
   -0.0009    1.4103   -0.0008 C   0  0  0  0  0  0  0  0  0  0  0  0
   -1.2002    0.7015    0.0000 C   0  0  0  0  0  0  0  0  0  0  0  0
   -2.0667    1.1880   -0.0005 H   0  0  0  0  0  0  0  0  0  0  0  0
   -1.2049   -0.6990    0.0000 C   0  0  0  0  0  0  0  0  0  0  0  0
   -2.0793   -1.1905    0.0006 H   0  0  0  0  0  0  0  0  0  0  0  0
    0.0030   -1.4008    0.0009 C   0  0  0  0  0  0  0  0  0  0  0  0
   -0.0065   -2.3989    0.0017 H   0  0  0  0  0  0  0  0  0  0  0  0
    1.2049   -0.7071   -0.0000 C   0  0  0  0  0  0  0  0  0  0  0  0
    2.0858   -1.1985    0.0013 H   0  0  0  0  0  0  0  0  0  0  0  0
    1.1981    0.6952   -0.0001 C   0  0  0  0  0  0  0  0  0  0  0  0
    2.0676    1.1876   -0.0008 H   0  0  0  0  0  0  0  0  0  0  0  0
  1  5  1  0
  5  6  1  0
  5  7  2  0
  1  2  1  0
  1  3  1  0
  1  4  1  0
  8 12  1  0
 12 13  2  0
 13 15  1  0
 15 17  2  0
 17 19  1  0
 19 21  2  0
 21 12  1  0
  8  9  1  0
  8 10  1  0
  8 11  1  0
 13 14  1  0
 15 16  1  0
 17 18  1  0
 19 20  1  0
 21 22  1  0
M  CHG  1   6  -1
M  END
>  <PDB_ID>  (1153) 
pdb1ww8

>  <RESIDUE_NAME>  (1153) 
ASP   PHE

>  <FRAG_NAME>  (1153) 
ACET   MBZ

>  <FRAG_ATOM_NUM>  (1153) 
fragi: 7  fragj: 15

>  <atom.prop.CHAIN_ID>  (1153) 
A A A A A A A Z Z Z Z Z Z Z Z Z Z Z Z Z Z Z

>  <atom.prop.IS_HEAVY_ATOM>  (1153) 
1 0 0 0 1 1 1 1 0 0 0 1 1 0 1 0 1 0 1 0 1 0

>  <DIFUSE_FUNC_ATOM>  (1153) 
atom 6   atom 7   

>  <FINAL_SINGLE_POINT_ENERGY>  (1153) 
0

>  <NONCOV_INTER_ENERGY_QM>  (1153) 
0

>  <FF_Energy>  (1153) 
-1.89

>  <QM_Energy>  (1153) 
-7.05

>  <source>  (1153) 
ACET_MBZ_01

>  <Index>  (1153) 
3602

$$$$
ACET-pdb1wtj-B-GLU-260:MBZ-pdb1wtj-B-PHE-257
     RDKit          3D

 22 21  0  0  0  0  0  0  0  0999 V2000
    3.5033    4.3416   -0.9341 C   0  0  0  0  0  0  0  0  0  0  0  0
    4.4131    4.5229   -0.6058 H   0  0  0  0  0  0  0  0  0  0  0  0
    2.8346    4.3911   -0.2125 H   0  0  0  0  0  0  0  0  0  0  0  0
    3.2551    5.0938   -1.6829 H   0  0  0  0  0  0  0  0  0  0  0  0
    3.4843    2.9331   -1.4817 C   0  0  0  0  0  0  0  0  0  0  0  0
    2.6239    2.6354   -2.3393 O   0  0  0  0  0  1  0  0  0  0  0  0
    4.3196    2.1118   -1.0386 O   0  0  0  0  0  0  0  0  0  0  0  0
    0.0018    2.9120    0.0503 C   0  0  0  0  0  0  0  0  0  0  0  0
    0.9347    3.2211   -0.0651 H   0  0  0  0  0  0  0  0  0  0  0  0
   -0.3613    3.1895    0.9282 H   0  0  0  0  0  0  0  0  0  0  0  0
   -0.6030    3.3851   -0.7234 H   0  0  0  0  0  0  0  0  0  0  0  0
    0.0004    1.4076    0.0003 C   0  0  0  0  0  0  0  0  0  0  0  0
   -1.1983    0.6959   -0.0012 C   0  0  0  0  0  0  0  0  0  0  0  0
   -2.0652    1.1863   -0.0044 H   0  0  0  0  0  0  0  0  0  0  0  0
   -1.2045   -0.6984   -0.0000 C   0  0  0  0  0  0  0  0  0  0  0  0
   -2.0802   -1.1909    0.0005 H   0  0  0  0  0  0  0  0  0  0  0  0
   -0.0003   -1.4004    0.0024 C   0  0  0  0  0  0  0  0  0  0  0  0
   -0.0061   -2.3961    0.0052 H   0  0  0  0  0  0  0  0  0  0  0  0
    1.2045   -0.7017    0.0000 C   0  0  0  0  0  0  0  0  0  0  0  0
    2.0846   -1.1956    0.0007 H   0  0  0  0  0  0  0  0  0  0  0  0
    1.1982    0.6970   -0.0016 C   0  0  0  0  0  0  0  0  0  0  0  0
    2.0670    1.1905   -0.0055 H   0  0  0  0  0  0  0  0  0  0  0  0
  1  5  1  0
  5  6  1  0
  5  7  2  0
  1  2  1  0
  1  3  1  0
  1  4  1  0
  8 12  1  0
 12 13  2  0
 13 15  1  0
 15 17  2  0
 17 19  1  0
 19 21  2  0
 21 12  1  0
  8  9  1  0
  8 10  1  0
  8 11  1  0
 13 14  1  0
 15 16  1  0
 17 18  1  0
 19 20  1  0
 21 22  1  0
M  CHG  1   6  -1
M  END
>  <PDB_ID>  (1154) 
pdb1wtj

>  <RESIDUE_NAME>  (1154) 
GLU   PHE

>  <FRAG_NAME>  (1154) 
ACET   MBZ

>  <FRAG_ATOM_NUM>  (1154) 
fragi: 7  fragj: 15

>  <atom.prop.CHAIN_ID>  (1154) 
A A A A A A A Z Z Z Z Z Z Z Z Z Z Z Z Z Z Z

>  <atom.prop.IS_HEAVY_ATOM>  (1154) 
1 0 0 0 1 1 1 1 0 0 0 1 1 0 1 0 1 0 1 0 1 0

>  <DIFUSE_FUNC_ATOM>  (1154) 
atom 6   atom 7   

>  <FINAL_SINGLE_POINT_ENERGY>  (1154) 
0

>  <NONCOV_INTER_ENERGY_QM>  (1154) 
0

>  <FF_Energy>  (1154) 
-1.16

>  <QM_Energy>  (1154) 
-6.41

>  <source>  (1154) 
ACET_MBZ_01

>  <Index>  (1154) 
3619

$$$$
ACET-pdb3ayx-A-ASP-67:MBZ-pdb3ayx-B-PHE-272
     RDKit          3D

 22 21  0  0  0  0  0  0  0  0999 V2000
    3.9983    1.3174   -2.9646 C   0  0  0  0  0  0  0  0  0  0  0  0
    4.4977    1.0406   -3.7875 H   0  0  0  0  0  0  0  0  0  0  0  0
    3.5830    0.5089   -2.5443 H   0  0  0  0  0  0  0  0  0  0  0  0
    4.7237    1.7216   -2.2585 H   0  0  0  0  0  0  0  0  0  0  0  0
    2.9129    2.2806   -3.3514 C   0  0  0  0  0  0  0  0  0  0  0  0
    2.3137    2.9045   -2.3863 O   0  0  0  0  0  1  0  0  0  0  0  0
    2.6662    2.5102   -4.5661 O   0  0  0  0  0  0  0  0  0  0  0  0
   -0.1026    2.9249   -0.0987 C   0  0  0  0  0  0  0  0  0  0  0  0
    0.8037    3.2539   -0.2760 H   0  0  0  0  0  0  0  0  0  0  0  0
   -0.4602    3.2374    0.7585 H   0  0  0  0  0  0  0  0  0  0  0  0
   -0.7630    3.2543   -0.9008 H   0  0  0  0  0  0  0  0  0  0  0  0
   -0.0257    1.4061   -0.0280 C   0  0  0  0  0  0  0  0  0  0  0  0
   -1.1642    0.6568   -0.0183 C   0  0  0  0  0  0  0  0  0  0  0  0
   -2.0692    1.1502   -0.0262 H   0  0  0  0  0  0  0  0  0  0  0  0
   -1.1936   -0.7087    0.0000 C   0  0  0  0  0  0  0  0  0  0  0  0
   -2.0560   -1.2053   -0.0196 H   0  0  0  0  0  0  0  0  0  0  0  0
    0.0134   -1.3708    0.0492 C   0  0  0  0  0  0  0  0  0  0  0  0
    0.0131   -2.3823    0.1224 H   0  0  0  0  0  0  0  0  0  0  0  0
    1.1936   -0.6911   -0.0000 C   0  0  0  0  0  0  0  0  0  0  0  0
    2.0818   -1.1712   -0.0331 H   0  0  0  0  0  0  0  0  0  0  0  0
    1.1765    0.7076   -0.0029 C   0  0  0  0  0  0  0  0  0  0  0  0
    2.0411    1.2082    0.0131 H   0  0  0  0  0  0  0  0  0  0  0  0
  1  5  1  0
  5  6  1  0
  5  7  2  0
  1  2  1  0
  1  3  1  0
  1  4  1  0
  8 12  1  0
 12 13  2  0
 13 15  1  0
 15 17  2  0
 17 19  1  0
 19 21  2  0
 21 12  1  0
  8  9  1  0
  8 10  1  0
  8 11  1  0
 13 14  1  0
 15 16  1  0
 17 18  1  0
 19 20  1  0
 21 22  1  0
M  CHG  1   6  -1
M  END
>  <PDB_ID>  (1155) 
pdb3ayx

>  <RESIDUE_NAME>  (1155) 
ASP   PHE

>  <FRAG_NAME>  (1155) 
ACET   MBZ

>  <FRAG_ATOM_NUM>  (1155) 
fragi: 7  fragj: 15

>  <atom.prop.CHAIN_ID>  (1155) 
A A A A A A A Z Z Z Z Z Z Z Z Z Z Z Z Z Z Z

>  <atom.prop.IS_HEAVY_ATOM>  (1155) 
1 0 0 0 1 1 1 1 0 0 0 1 1 0 1 0 1 0 1 0 1 0

>  <DIFUSE_FUNC_ATOM>  (1155) 
atom 6   atom 7   

>  <FINAL_SINGLE_POINT_ENERGY>  (1155) 
0

>  <NONCOV_INTER_ENERGY_QM>  (1155) 
0

>  <FF_Energy>  (1155) 
-0.39

>  <QM_Energy>  (1155) 
-5.51

>  <source>  (1155) 
ACET_MBZ_01

>  <Index>  (1155) 
3645

$$$$
ACET-pdb1wvg-B-ASP-1005:MBZ-pdb1wvg-B-PHE-1008
     RDKit          3D

 22 21  0  0  0  0  0  0  0  0999 V2000
   -0.0876    5.6131   -2.5373 C   0  0  0  0  0  0  0  0  0  0  0  0
   -0.4510    5.8707   -3.4224 H   0  0  0  0  0  0  0  0  0  0  0  0
   -0.0039    4.6291   -2.4623 H   0  0  0  0  0  0  0  0  0  0  0  0
    0.9117    6.0398   -2.4516 H   0  0  0  0  0  0  0  0  0  0  0  0
   -0.9829    6.1213   -1.4638 C   0  0  0  0  0  0  0  0  0  0  0  0
   -1.1381    7.3109   -1.2574 O   0  0  0  0  0  1  0  0  0  0  0  0
   -1.5413    5.1651   -0.7705 O   0  0  0  0  0  0  0  0  0  0  0  0
   -0.0205    2.9495    0.0051 C   0  0  0  0  0  0  0  0  0  0  0  0
   -0.7109    3.2464   -0.6071 H   0  0  0  0  0  0  0  0  0  0  0  0
    0.8728    3.2598   -0.2099 H   0  0  0  0  0  0  0  0  0  0  0  0
   -0.2733    3.3080    1.0030 H   0  0  0  0  0  0  0  0  0  0  0  0
   -0.0050    1.4272   -0.0083 C   0  0  0  0  0  0  0  0  0  0  0  0
   -1.1905    0.6878    0.0064 C   0  0  0  0  0  0  0  0  0  0  0  0
   -2.0693    1.1728    0.0210 H   0  0  0  0  0  0  0  0  0  0  0  0
   -1.2012   -0.7113    0.0000 C   0  0  0  0  0  0  0  0  0  0  0  0
   -2.0773   -1.1996   -0.0075 H   0  0  0  0  0  0  0  0  0  0  0  0
    0.0034   -1.4145    0.0066 C   0  0  0  0  0  0  0  0  0  0  0  0
    0.0071   -2.4030    0.0153 H   0  0  0  0  0  0  0  0  0  0  0  0
    1.2012   -0.6940    0.0000 C   0  0  0  0  0  0  0  0  0  0  0  0
    2.0892   -1.1845    0.0000 H   0  0  0  0  0  0  0  0  0  0  0  0
    1.1920    0.7047   -0.0047 C   0  0  0  0  0  0  0  0  0  0  0  0
    2.0640    1.2002   -0.0062 H   0  0  0  0  0  0  0  0  0  0  0  0
  1  5  1  0
  5  6  1  0
  5  7  2  0
  1  2  1  0
  1  3  1  0
  1  4  1  0
  8 12  1  0
 12 13  2  0
 13 15  1  0
 15 17  2  0
 17 19  1  0
 19 21  2  0
 21 12  1  0
  8  9  1  0
  8 10  1  0
  8 11  1  0
 13 14  1  0
 15 16  1  0
 17 18  1  0
 19 20  1  0
 21 22  1  0
M  CHG  1   6  -1
M  END
>  <PDB_ID>  (1156) 
pdb1wvg

>  <RESIDUE_NAME>  (1156) 
ASP   PHE

>  <FRAG_NAME>  (1156) 
ACET   MBZ

>  <FRAG_ATOM_NUM>  (1156) 
fragi: 7  fragj: 15

>  <atom.prop.CHAIN_ID>  (1156) 
A A A A A A A Z Z Z Z Z Z Z Z Z Z Z Z Z Z Z

>  <atom.prop.IS_HEAVY_ATOM>  (1156) 
1 0 0 0 1 1 1 1 0 0 0 1 1 0 1 0 1 0 1 0 1 0

>  <DIFUSE_FUNC_ATOM>  (1156) 
atom 6   atom 7   

>  <FINAL_SINGLE_POINT_ENERGY>  (1156) 
0

>  <NONCOV_INTER_ENERGY_QM>  (1156) 
0

>  <FF_Energy>  (1156) 
3.95

>  <QM_Energy>  (1156) 
-4.01

>  <source>  (1156) 
ACET_MBZ_01

>  <Index>  (1156) 
3695

$$$$
ACET-pdb1wxr-A-ASP-943:MBZ-pdb1wxr-A-PHE-911
     RDKit          3D

 22 21  0  0  0  0  0  0  0  0999 V2000
    0.4202    1.6528   -3.5947 C   0  0  0  0  0  0  0  0  0  0  0  0
   -0.5485    1.6826   -3.8329 H   0  0  0  0  0  0  0  0  0  0  0  0
    0.5609    1.0277   -2.8307 H   0  0  0  0  0  0  0  0  0  0  0  0
    0.9645    1.2610   -4.4539 H   0  0  0  0  0  0  0  0  0  0  0  0
    0.8743    3.0079   -3.2128 C   0  0  0  0  0  0  0  0  0  0  0  0
    2.0984    3.1643   -2.9896 O   0  0  0  0  0  1  0  0  0  0  0  0
    0.0912    3.9796   -3.0930 O   0  0  0  0  0  0  0  0  0  0  0  0
    0.0193    2.8904    0.0065 C   0  0  0  0  0  0  0  0  0  0  0  0
   -0.7666    3.2090   -0.5035 H   0  0  0  0  0  0  0  0  0  0  0  0
    0.8640    3.1930   -0.4118 H   0  0  0  0  0  0  0  0  0  0  0  0
   -0.0323    3.3195    1.0071 H   0  0  0  0  0  0  0  0  0  0  0  0
    0.0050    1.3976   -0.0032 C   0  0  0  0  0  0  0  0  0  0  0  0
   -1.2037    0.7024   -0.0023 C   0  0  0  0  0  0  0  0  0  0  0  0
   -2.0613    1.2057   -0.0044 H   0  0  0  0  0  0  0  0  0  0  0  0
   -1.2165   -0.6770    0.0000 C   0  0  0  0  0  0  0  0  0  0  0  0
   -2.0861   -1.1794    0.0037 H   0  0  0  0  0  0  0  0  0  0  0  0
    0.0028   -1.3973   -0.0011 C   0  0  0  0  0  0  0  0  0  0  0  0
   -0.0200   -2.3908   -0.0033 H   0  0  0  0  0  0  0  0  0  0  0  0
    1.2165   -0.7087   -0.0000 C   0  0  0  0  0  0  0  0  0  0  0  0
    2.0879   -1.2029   -0.0020 H   0  0  0  0  0  0  0  0  0  0  0  0
    1.1959    0.6830    0.0066 C   0  0  0  0  0  0  0  0  0  0  0  0
    2.0693    1.1846    0.0178 H   0  0  0  0  0  0  0  0  0  0  0  0
  1  5  1  0
  5  6  1  0
  5  7  2  0
  1  2  1  0
  1  3  1  0
  1  4  1  0
  8 12  1  0
 12 13  2  0
 13 15  1  0
 15 17  2  0
 17 19  1  0
 19 21  2  0
 21 12  1  0
  8  9  1  0
  8 10  1  0
  8 11  1  0
 13 14  1  0
 15 16  1  0
 17 18  1  0
 19 20  1  0
 21 22  1  0
M  CHG  1   6  -1
M  END
>  <PDB_ID>  (1157) 
pdb1wxr

>  <RESIDUE_NAME>  (1157) 
ASP   PHE

>  <FRAG_NAME>  (1157) 
ACET   MBZ

>  <FRAG_ATOM_NUM>  (1157) 
fragi: 7  fragj: 15

>  <atom.prop.CHAIN_ID>  (1157) 
A A A A A A A Z Z Z Z Z Z Z Z Z Z Z Z Z Z Z

>  <atom.prop.IS_HEAVY_ATOM>  (1157) 
1 0 0 0 1 1 1 1 0 0 0 1 1 0 1 0 1 0 1 0 1 0

>  <DIFUSE_FUNC_ATOM>  (1157) 
atom 6   atom 7   

>  <FINAL_SINGLE_POINT_ENERGY>  (1157) 
0

>  <NONCOV_INTER_ENERGY_QM>  (1157) 
0

>  <FF_Energy>  (1157) 
-1.09

>  <QM_Energy>  (1157) 
-6.39

>  <source>  (1157) 
ACET_MBZ_01

>  <Index>  (1157) 
3736

$$$$
ACET-pdb1wyd-B-ASP-9:MBZ-pdb1wyd-B-PHE-6
     RDKit          3D

 22 21  0  0  0  0  0  0  0  0999 V2000
   -3.1089    6.1818    0.0092 C   0  0  0  0  0  0  0  0  0  0  0  0
   -2.4459    6.1750    0.7552 H   0  0  0  0  0  0  0  0  0  0  0  0
   -4.0074    6.4387    0.3580 H   0  0  0  0  0  0  0  0  0  0  0  0
   -2.7986    6.9468   -0.7026 H   0  0  0  0  0  0  0  0  0  0  0  0
   -3.1890    4.8035   -0.5883 C   0  0  0  0  0  0  0  0  0  0  0  0
   -3.4632    3.8609    0.1817 O   0  0  0  0  0  1  0  0  0  0  0  0
   -3.0264    4.5602   -1.7931 O   0  0  0  0  0  0  0  0  0  0  0  0
    0.0017    2.9083   -0.0030 C   0  0  0  0  0  0  0  0  0  0  0  0
   -0.8675    3.2106   -0.3671 H   0  0  0  0  0  0  0  0  0  0  0  0
    0.7521    3.2128   -0.5715 H   0  0  0  0  0  0  0  0  0  0  0  0
    0.1258    3.3484    0.9864 H   0  0  0  0  0  0  0  0  0  0  0  0
    0.0051    1.4124    0.0034 C   0  0  0  0  0  0  0  0  0  0  0  0
   -1.2049    0.7022    0.0052 C   0  0  0  0  0  0  0  0  0  0  0  0
   -2.0666    1.1925    0.0092 H   0  0  0  0  0  0  0  0  0  0  0  0
   -1.2153   -0.7045    0.0000 C   0  0  0  0  0  0  0  0  0  0  0  0
   -2.0922   -1.1891    0.0015 H   0  0  0  0  0  0  0  0  0  0  0  0
   -0.0109   -1.4075   -0.0047 C   0  0  0  0  0  0  0  0  0  0  0  0
   -0.0118   -2.4033   -0.0122 H   0  0  0  0  0  0  0  0  0  0  0  0
    1.2153   -0.7082   -0.0000 C   0  0  0  0  0  0  0  0  0  0  0  0
    2.0857   -1.2039    0.0074 H   0  0  0  0  0  0  0  0  0  0  0  0
    1.2108    0.7057   -0.0038 C   0  0  0  0  0  0  0  0  0  0  0  0
    2.0759    1.1939   -0.0124 H   0  0  0  0  0  0  0  0  0  0  0  0
  1  5  1  0
  5  6  1  0
  5  7  2  0
  1  2  1  0
  1  3  1  0
  1  4  1  0
  8 12  1  0
 12 13  2  0
 13 15  1  0
 15 17  2  0
 17 19  1  0
 19 21  2  0
 21 12  1  0
  8  9  1  0
  8 10  1  0
  8 11  1  0
 13 14  1  0
 15 16  1  0
 17 18  1  0
 19 20  1  0
 21 22  1  0
M  CHG  1   6  -1
M  END
>  <PDB_ID>  (1158) 
pdb1wyd

>  <RESIDUE_NAME>  (1158) 
ASP   PHE

>  <FRAG_NAME>  (1158) 
ACET   MBZ

>  <FRAG_ATOM_NUM>  (1158) 
fragi: 7  fragj: 15

>  <atom.prop.CHAIN_ID>  (1158) 
A A A A A A A Z Z Z Z Z Z Z Z Z Z Z Z Z Z Z

>  <atom.prop.IS_HEAVY_ATOM>  (1158) 
1 0 0 0 1 1 1 1 0 0 0 1 1 0 1 0 1 0 1 0 1 0

>  <DIFUSE_FUNC_ATOM>  (1158) 
atom 6   atom 7   

>  <FINAL_SINGLE_POINT_ENERGY>  (1158) 
0

>  <NONCOV_INTER_ENERGY_QM>  (1158) 
0

>  <FF_Energy>  (1158) 
-2.26

>  <QM_Energy>  (1158) 
-7.5

>  <source>  (1158) 
ACET_MBZ_01

>  <Index>  (1158) 
3785

$$$$
ACET-pdb1wyt-B-GLU-422:MBZ-pdb1wyt-B-PHE-68
     RDKit          3D

 22 21  0  0  0  0  0  0  0  0999 V2000
   -4.1015   -0.6512   -1.2529 C   0  0  0  0  0  0  0  0  0  0  0  0
   -4.9302   -0.9588   -0.8161 H   0  0  0  0  0  0  0  0  0  0  0  0
   -3.3016   -0.8897   -0.7283 H   0  0  0  0  0  0  0  0  0  0  0  0
   -4.0294   -1.1397   -2.2246 H   0  0  0  0  0  0  0  0  0  0  0  0
   -4.1616    0.8717   -1.3282 C   0  0  0  0  0  0  0  0  0  0  0  0
   -3.8746    1.4512   -2.3969 O   0  0  0  0  0  1  0  0  0  0  0  0
   -4.4890    1.4976   -0.3000 O   0  0  0  0  0  0  0  0  0  0  0  0
    0.0120    2.9131   -0.0714 C   0  0  0  0  0  0  0  0  0  0  0  0
   -0.2099    3.1760   -0.9999 H   0  0  0  0  0  0  0  0  0  0  0  0
    0.9186    3.2210    0.1807 H   0  0  0  0  0  0  0  0  0  0  0  0
   -0.7029    3.3982    0.5932 H   0  0  0  0  0  0  0  0  0  0  0  0
   -0.0008    1.4075   -0.0009 C   0  0  0  0  0  0  0  0  0  0  0  0
   -1.1989    0.7010    0.0007 C   0  0  0  0  0  0  0  0  0  0  0  0
   -2.0651    1.1872    0.0015 H   0  0  0  0  0  0  0  0  0  0  0  0
   -1.2022   -0.6979    0.0000 C   0  0  0  0  0  0  0  0  0  0  0  0
   -2.0778   -1.1909    0.0025 H   0  0  0  0  0  0  0  0  0  0  0  0
    0.0052   -1.3992   -0.0022 C   0  0  0  0  0  0  0  0  0  0  0  0
   -0.0042   -2.3961   -0.0061 H   0  0  0  0  0  0  0  0  0  0  0  0
    1.2022   -0.7036    0.0000 C   0  0  0  0  0  0  0  0  0  0  0  0
    2.0857   -1.1963    0.0018 H   0  0  0  0  0  0  0  0  0  0  0  0
    1.1946    0.6922    0.0025 C   0  0  0  0  0  0  0  0  0  0  0  0
    2.0653    1.1873    0.0055 H   0  0  0  0  0  0  0  0  0  0  0  0
  1  5  1  0
  5  6  1  0
  5  7  2  0
  1  2  1  0
  1  3  1  0
  1  4  1  0
  8 12  1  0
 12 13  2  0
 13 15  1  0
 15 17  2  0
 17 19  1  0
 19 21  2  0
 21 12  1  0
  8  9  1  0
  8 10  1  0
  8 11  1  0
 13 14  1  0
 15 16  1  0
 17 18  1  0
 19 20  1  0
 21 22  1  0
M  CHG  1   6  -1
M  END
>  <PDB_ID>  (1159) 
pdb1wyt

>  <RESIDUE_NAME>  (1159) 
GLU   PHE

>  <FRAG_NAME>  (1159) 
ACET   MBZ

>  <FRAG_ATOM_NUM>  (1159) 
fragi: 7  fragj: 15

>  <atom.prop.CHAIN_ID>  (1159) 
A A A A A A A Z Z Z Z Z Z Z Z Z Z Z Z Z Z Z

>  <atom.prop.IS_HEAVY_ATOM>  (1159) 
1 0 0 0 1 1 1 1 0 0 0 1 1 0 1 0 1 0 1 0 1 0

>  <DIFUSE_FUNC_ATOM>  (1159) 
atom 6   atom 7   

>  <FINAL_SINGLE_POINT_ENERGY>  (1159) 
0

>  <NONCOV_INTER_ENERGY_QM>  (1159) 
0

>  <FF_Energy>  (1159) 
47.93

>  <QM_Energy>  (1159) 
1.06

>  <source>  (1159) 
ACET_MBZ_01

>  <Index>  (1159) 
3809

$$$$
ACET-pdb1wyt-D-GLU-422:MBZ-pdb1wyt-D-PHE-68
     RDKit          3D

 22 21  0  0  0  0  0  0  0  0999 V2000
   -4.0957   -0.1964   -1.5032 C   0  0  0  0  0  0  0  0  0  0  0  0
   -5.0181   -0.4029   -1.2304 H   0  0  0  0  0  0  0  0  0  0  0  0
   -3.4326   -0.5844   -0.8880 H   0  0  0  0  0  0  0  0  0  0  0  0
   -3.9337   -0.6318   -2.4892 H   0  0  0  0  0  0  0  0  0  0  0  0
   -3.9305    1.3245   -1.4593 C   0  0  0  0  0  0  0  0  0  0  0  0
   -3.1972    1.8873   -2.2970 O   0  0  0  0  0  1  0  0  0  0  0  0
   -4.5180    1.9583   -0.5595 O   0  0  0  0  0  0  0  0  0  0  0  0
    0.0134    2.9153   -0.0743 C   0  0  0  0  0  0  0  0  0  0  0  0
   -0.2378    3.1766   -0.9968 H   0  0  0  0  0  0  0  0  0  0  0  0
    0.9304    3.2217    0.1437 H   0  0  0  0  0  0  0  0  0  0  0  0
   -0.6755    3.4079    0.6120 H   0  0  0  0  0  0  0  0  0  0  0  0
    0.0005    1.4089   -0.0010 C   0  0  0  0  0  0  0  0  0  0  0  0
   -1.1979    0.6980    0.0015 C   0  0  0  0  0  0  0  0  0  0  0  0
   -2.0643    1.1839    0.0033 H   0  0  0  0  0  0  0  0  0  0  0  0
   -1.2013   -0.7010   -0.0000 C   0  0  0  0  0  0  0  0  0  0  0  0
   -2.0793   -1.1912    0.0020 H   0  0  0  0  0  0  0  0  0  0  0  0
   -0.0003   -1.3994   -0.0029 C   0  0  0  0  0  0  0  0  0  0  0  0
   -0.0038   -2.3967   -0.0071 H   0  0  0  0  0  0  0  0  0  0  0  0
    1.2013   -0.7018    0.0000 C   0  0  0  0  0  0  0  0  0  0  0  0
    2.0829   -1.1975    0.0021 H   0  0  0  0  0  0  0  0  0  0  0  0
    1.1977    0.6953    0.0023 C   0  0  0  0  0  0  0  0  0  0  0  0
    2.0668    1.1882    0.0053 H   0  0  0  0  0  0  0  0  0  0  0  0
  1  5  1  0
  5  6  1  0
  5  7  2  0
  1  2  1  0
  1  3  1  0
  1  4  1  0
  8 12  1  0
 12 13  2  0
 13 15  1  0
 15 17  2  0
 17 19  1  0
 19 21  2  0
 21 12  1  0
  8  9  1  0
  8 10  1  0
  8 11  1  0
 13 14  1  0
 15 16  1  0
 17 18  1  0
 19 20  1  0
 21 22  1  0
M  CHG  1   6  -1
M  END
>  <PDB_ID>  (1160) 
pdb1wyt

>  <RESIDUE_NAME>  (1160) 
GLU   PHE

>  <FRAG_NAME>  (1160) 
ACET   MBZ

>  <FRAG_ATOM_NUM>  (1160) 
fragi: 7  fragj: 15

>  <atom.prop.CHAIN_ID>  (1160) 
A A A A A A A Z Z Z Z Z Z Z Z Z Z Z Z Z Z Z

>  <atom.prop.IS_HEAVY_ATOM>  (1160) 
1 0 0 0 1 1 1 1 0 0 0 1 1 0 1 0 1 0 1 0 1 0

>  <DIFUSE_FUNC_ATOM>  (1160) 
atom 6   atom 7   

>  <FINAL_SINGLE_POINT_ENERGY>  (1160) 
0

>  <NONCOV_INTER_ENERGY_QM>  (1160) 
0

>  <FF_Energy>  (1160) 
8.54

>  <QM_Energy>  (1160) 
-2.95

>  <source>  (1160) 
ACET_MBZ_01

>  <Index>  (1160) 
3820

$$$$
ACET-pdb3a0o-B-ASP-535:MBZ-pdb3a0o-B-PHE-414
     RDKit          3D

 22 21  0  0  0  0  0  0  0  0999 V2000
   -4.2960    0.8535    2.6748 C   0  0  0  0  0  0  0  0  0  0  0  0
   -3.7658    0.1348    2.2430 H   0  0  0  0  0  0  0  0  0  0  0  0
   -5.0476    1.1343    2.0924 H   0  0  0  0  0  0  0  0  0  0  0  0
   -4.7173    0.4515    3.5963 H   0  0  0  0  0  0  0  0  0  0  0  0
   -3.3835    2.0589    2.9122 C   0  0  0  0  0  0  0  0  0  0  0  0
   -3.1137    2.3879    4.0855 O   0  0  0  0  0  1  0  0  0  0  0  0
   -2.9357    2.6809    1.9210 O   0  0  0  0  0  0  0  0  0  0  0  0
   -0.0063    2.9259    0.0029 C   0  0  0  0  0  0  0  0  0  0  0  0
    0.8458    3.2283    0.4035 H   0  0  0  0  0  0  0  0  0  0  0  0
   -0.7814    3.2215    0.5417 H   0  0  0  0  0  0  0  0  0  0  0  0
   -0.0923    3.3826   -0.9831 H   0  0  0  0  0  0  0  0  0  0  0  0
   -0.0003    1.4094   -0.0077 C   0  0  0  0  0  0  0  0  0  0  0  0
   -1.1941    0.6949    0.0076 C   0  0  0  0  0  0  0  0  0  0  0  0
   -2.0639    1.1840    0.0234 H   0  0  0  0  0  0  0  0  0  0  0  0
   -1.2026   -0.7000   -0.0000 C   0  0  0  0  0  0  0  0  0  0  0  0
   -2.0825   -1.1886   -0.0050 H   0  0  0  0  0  0  0  0  0  0  0  0
   -0.0056   -1.3997    0.0017 C   0  0  0  0  0  0  0  0  0  0  0  0
   -0.0089   -2.3978    0.0037 H   0  0  0  0  0  0  0  0  0  0  0  0
    1.2026   -0.7044    0.0000 C   0  0  0  0  0  0  0  0  0  0  0  0
    2.0805   -1.1989    0.0016 H   0  0  0  0  0  0  0  0  0  0  0  0
    1.2000    0.6999   -0.0016 C   0  0  0  0  0  0  0  0  0  0  0  0
    2.0672    1.1900    0.0006 H   0  0  0  0  0  0  0  0  0  0  0  0
  1  5  1  0
  5  6  1  0
  5  7  2  0
  1  2  1  0
  1  3  1  0
  1  4  1  0
  8 12  1  0
 12 13  2  0
 13 15  1  0
 15 17  2  0
 17 19  1  0
 19 21  2  0
 21 12  1  0
  8  9  1  0
  8 10  1  0
  8 11  1  0
 13 14  1  0
 15 16  1  0
 17 18  1  0
 19 20  1  0
 21 22  1  0
M  CHG  1   6  -1
M  END
>  <PDB_ID>  (1161) 
pdb3a0o

>  <RESIDUE_NAME>  (1161) 
ASP   PHE

>  <FRAG_NAME>  (1161) 
ACET   MBZ

>  <FRAG_ATOM_NUM>  (1161) 
fragi: 7  fragj: 15

>  <atom.prop.CHAIN_ID>  (1161) 
A A A A A A A Z Z Z Z Z Z Z Z Z Z Z Z Z Z Z

>  <atom.prop.IS_HEAVY_ATOM>  (1161) 
1 0 0 0 1 1 1 1 0 0 0 1 1 0 1 0 1 0 1 0 1 0

>  <DIFUSE_FUNC_ATOM>  (1161) 
atom 6   atom 7   

>  <FINAL_SINGLE_POINT_ENERGY>  (1161) 
0

>  <NONCOV_INTER_ENERGY_QM>  (1161) 
0

>  <FF_Energy>  (1161) 
-1.24

>  <QM_Energy>  (1161) 
-6.78

>  <source>  (1161) 
ACET_MBZ_01

>  <Index>  (1161) 
3830

$$$$
ACET-pdb1ww9-A-ASP-359:MBZ-pdb1ww9-A-PHE-356
     RDKit          3D

 22 21  0  0  0  0  0  0  0  0999 V2000
   -5.1351    0.8723   -2.2786 C   0  0  0  0  0  0  0  0  0  0  0  0
   -4.6324    1.7254   -2.3413 H   0  0  0  0  0  0  0  0  0  0  0  0
   -6.1107    1.0411   -2.2292 H   0  0  0  0  0  0  0  0  0  0  0  0
   -4.9380    0.2981   -3.1839 H   0  0  0  0  0  0  0  0  0  0  0  0
   -4.7007    0.1399   -1.0208 C   0  0  0  0  0  0  0  0  0  0  0  0
   -4.9084   -1.0928   -0.9561 O   0  0  0  0  0  1  0  0  0  0  0  0
   -4.1614    0.7931   -0.1011 O   0  0  0  0  0  0  0  0  0  0  0  0
   -0.0099    2.8869    0.0304 C   0  0  0  0  0  0  0  0  0  0  0  0
    0.7881    3.2074   -0.4239 H   0  0  0  0  0  0  0  0  0  0  0  0
   -0.0849    3.1749    0.9560 H   0  0  0  0  0  0  0  0  0  0  0  0
   -0.8792    3.2608   -0.5105 H   0  0  0  0  0  0  0  0  0  0  0  0
   -0.0003    1.3863    0.0011 C   0  0  0  0  0  0  0  0  0  0  0  0
   -1.2042    0.6926   -0.0005 C   0  0  0  0  0  0  0  0  0  0  0  0
   -2.0632    1.1821   -0.0035 H   0  0  0  0  0  0  0  0  0  0  0  0
   -1.1990   -0.6952   -0.0000 C   0  0  0  0  0  0  0  0  0  0  0  0
   -2.0773   -1.1946    0.0023 H   0  0  0  0  0  0  0  0  0  0  0  0
    0.0012   -1.3931   -0.0015 C   0  0  0  0  0  0  0  0  0  0  0  0
   -0.0014   -2.3899   -0.0040 H   0  0  0  0  0  0  0  0  0  0  0  0
    1.1990   -0.6912    0.0000 C   0  0  0  0  0  0  0  0  0  0  0  0
    2.0839   -1.1912    0.0024 H   0  0  0  0  0  0  0  0  0  0  0  0
    1.2032    0.7005    0.0009 C   0  0  0  0  0  0  0  0  0  0  0  0
    2.0635    1.1951    0.0005 H   0  0  0  0  0  0  0  0  0  0  0  0
  1  5  1  0
  5  6  1  0
  5  7  2  0
  1  2  1  0
  1  3  1  0
  1  4  1  0
  8 12  1  0
 12 13  2  0
 13 15  1  0
 15 17  2  0
 17 19  1  0
 19 21  2  0
 21 12  1  0
  8  9  1  0
  8 10  1  0
  8 11  1  0
 13 14  1  0
 15 16  1  0
 17 18  1  0
 19 20  1  0
 21 22  1  0
M  CHG  1   6  -1
M  END
>  <PDB_ID>  (1162) 
pdb1ww9

>  <RESIDUE_NAME>  (1162) 
ASP   PHE

>  <FRAG_NAME>  (1162) 
ACET   MBZ

>  <FRAG_ATOM_NUM>  (1162) 
fragi: 7  fragj: 15

>  <atom.prop.CHAIN_ID>  (1162) 
A A A A A A A Z Z Z Z Z Z Z Z Z Z Z Z Z Z Z

>  <atom.prop.IS_HEAVY_ATOM>  (1162) 
1 0 0 0 1 1 1 1 0 0 0 1 1 0 1 0 1 0 1 0 1 0

>  <DIFUSE_FUNC_ATOM>  (1162) 
atom 6   atom 7   

>  <FINAL_SINGLE_POINT_ENERGY>  (1162) 
0

>  <NONCOV_INTER_ENERGY_QM>  (1162) 
0

>  <FF_Energy>  (1162) 
-0.12

>  <QM_Energy>  (1162) 
-7.57

>  <source>  (1162) 
ACET_MBZ_01

>  <Index>  (1162) 
3840

$$$$
ACET-pdb1wz8-B-GLU-6:MBZ-pdb1wz8-B-PHE-14
     RDKit          3D

 22 21  0  0  0  0  0  0  0  0999 V2000
   -4.3610    1.7402   -0.9537 C   0  0  0  0  0  0  0  0  0  0  0  0
   -3.6442    1.2657   -0.4779 H   0  0  0  0  0  0  0  0  0  0  0  0
   -4.0502    2.1365   -1.7979 H   0  0  0  0  0  0  0  0  0  0  0  0
   -5.1534    1.0265   -1.1796 H   0  0  0  0  0  0  0  0  0  0  0  0
   -4.8309    2.8746   -0.0616 C   0  0  0  0  0  0  0  0  0  0  0  0
   -5.9056    3.4492   -0.3430 O   0  0  0  0  0  1  0  0  0  0  0  0
   -4.1209    3.1949    0.9162 O   0  0  0  0  0  0  0  0  0  0  0  0
    0.0010    2.9007    0.0329 C   0  0  0  0  0  0  0  0  0  0  0  0
   -0.7263    3.2234   -0.5553 H   0  0  0  0  0  0  0  0  0  0  0  0
    0.8841    3.2147   -0.2832 H   0  0  0  0  0  0  0  0  0  0  0  0
   -0.1647    3.3183    1.0260 H   0  0  0  0  0  0  0  0  0  0  0  0
   -0.0012    1.4024   -0.0009 C   0  0  0  0  0  0  0  0  0  0  0  0
   -1.1987    0.6936    0.0005 C   0  0  0  0  0  0  0  0  0  0  0  0
   -2.0650    1.1828    0.0006 H   0  0  0  0  0  0  0  0  0  0  0  0
   -1.2026   -0.6998    0.0000 C   0  0  0  0  0  0  0  0  0  0  0  0
   -2.0762   -1.1947   -0.0002 H   0  0  0  0  0  0  0  0  0  0  0  0
    0.0038   -1.3946    0.0018 C   0  0  0  0  0  0  0  0  0  0  0  0
    0.0006   -2.3931    0.0035 H   0  0  0  0  0  0  0  0  0  0  0  0
    1.2026   -0.6962   -0.0000 C   0  0  0  0  0  0  0  0  0  0  0  0
    2.0851   -1.1918    0.0010 H   0  0  0  0  0  0  0  0  0  0  0  0
    1.1961    0.6946   -0.0014 C   0  0  0  0  0  0  0  0  0  0  0  0
    2.0635    1.1916   -0.0039 H   0  0  0  0  0  0  0  0  0  0  0  0
  1  5  1  0
  5  6  1  0
  5  7  2  0
  1  2  1  0
  1  3  1  0
  1  4  1  0
  8 12  1  0
 12 13  2  0
 13 15  1  0
 15 17  2  0
 17 19  1  0
 19 21  2  0
 21 12  1  0
  8  9  1  0
  8 10  1  0
  8 11  1  0
 13 14  1  0
 15 16  1  0
 17 18  1  0
 19 20  1  0
 21 22  1  0
M  CHG  1   6  -1
M  END
>  <PDB_ID>  (1163) 
pdb1wz8

>  <RESIDUE_NAME>  (1163) 
GLU   PHE

>  <FRAG_NAME>  (1163) 
ACET   MBZ

>  <FRAG_ATOM_NUM>  (1163) 
fragi: 7  fragj: 15

>  <atom.prop.CHAIN_ID>  (1163) 
A A A A A A A Z Z Z Z Z Z Z Z Z Z Z Z Z Z Z

>  <atom.prop.IS_HEAVY_ATOM>  (1163) 
1 0 0 0 1 1 1 1 0 0 0 1 1 0 1 0 1 0 1 0 1 0

>  <DIFUSE_FUNC_ATOM>  (1163) 
atom 6   atom 7   

>  <FINAL_SINGLE_POINT_ENERGY>  (1163) 
0

>  <NONCOV_INTER_ENERGY_QM>  (1163) 
0

>  <FF_Energy>  (1163) 
8.23

>  <QM_Energy>  (1163) 
-2.09

>  <source>  (1163) 
ACET_MBZ_01

>  <Index>  (1163) 
3858

$$$$
ACET-pdb3b2n-A-GLU-58:MBZ-pdb3b2n-A-PHE-86
     RDKit          3D

 22 21  0  0  0  0  0  0  0  0999 V2000
   -2.7093   -5.0970    0.4399 C   0  0  0  0  0  0  0  0  0  0  0  0
   -2.4307   -5.9065    0.8909 H   0  0  0  0  0  0  0  0  0  0  0  0
   -3.5843   -5.1412    0.0264 H   0  0  0  0  0  0  0  0  0  0  0  0
   -2.6947   -4.2725    1.1526 H   0  0  0  0  0  0  0  0  0  0  0  0
   -1.7032   -4.8033   -0.6425 C   0  0  0  0  0  0  0  0  0  0  0  0
   -1.5327   -3.5862   -0.9207 O   0  0  0  0  0  1  0  0  0  0  0  0
   -1.0791   -5.7566   -1.1817 O   0  0  0  0  0  0  0  0  0  0  0  0
   -0.0131    2.9194    0.0029 C   0  0  0  0  0  0  0  0  0  0  0  0
   -0.7572    3.2177    0.5795 H   0  0  0  0  0  0  0  0  0  0  0  0
   -0.1287    3.2286   -0.9277 H   0  0  0  0  0  0  0  0  0  0  0  0
    0.9025    3.3687    0.3872 H   0  0  0  0  0  0  0  0  0  0  0  0
   -0.0040    1.4069   -0.0044 C   0  0  0  0  0  0  0  0  0  0  0  0
   -1.2094    0.6905    0.0060 C   0  0  0  0  0  0  0  0  0  0  0  0
   -2.0724    1.1781    0.0165 H   0  0  0  0  0  0  0  0  0  0  0  0
   -1.2074   -0.7054   -0.0000 C   0  0  0  0  0  0  0  0  0  0  0  0
   -2.0727   -1.2067   -0.0101 H   0  0  0  0  0  0  0  0  0  0  0  0
    0.0133   -1.3957    0.0103 C   0  0  0  0  0  0  0  0  0  0  0  0
    0.0090   -2.3944    0.0241 H   0  0  0  0  0  0  0  0  0  0  0  0
    1.2074   -0.6945   -0.0000 C   0  0  0  0  0  0  0  0  0  0  0  0
    2.0926   -1.1872    0.0025 H   0  0  0  0  0  0  0  0  0  0  0  0
    1.2002    0.6981   -0.0119 C   0  0  0  0  0  0  0  0  0  0  0  0
    2.0643    1.1973   -0.0265 H   0  0  0  0  0  0  0  0  0  0  0  0
  1  5  1  0
  5  6  1  0
  5  7  2  0
  1  2  1  0
  1  3  1  0
  1  4  1  0
  8 12  1  0
 12 13  2  0
 13 15  1  0
 15 17  2  0
 17 19  1  0
 19 21  2  0
 21 12  1  0
  8  9  1  0
  8 10  1  0
  8 11  1  0
 13 14  1  0
 15 16  1  0
 17 18  1  0
 19 20  1  0
 21 22  1  0
M  CHG  1   6  -1
M  END
>  <PDB_ID>  (1164) 
pdb3b2n

>  <RESIDUE_NAME>  (1164) 
GLU   PHE

>  <FRAG_NAME>  (1164) 
ACET   MBZ

>  <FRAG_ATOM_NUM>  (1164) 
fragi: 7  fragj: 15

>  <atom.prop.CHAIN_ID>  (1164) 
A A A A A A A Z Z Z Z Z Z Z Z Z Z Z Z Z Z Z

>  <atom.prop.IS_HEAVY_ATOM>  (1164) 
1 0 0 0 1 1 1 1 0 0 0 1 1 0 1 0 1 0 1 0 1 0

>  <DIFUSE_FUNC_ATOM>  (1164) 
atom 6   atom 7   

>  <FINAL_SINGLE_POINT_ENERGY>  (1164) 
0

>  <NONCOV_INTER_ENERGY_QM>  (1164) 
0

>  <FF_Energy>  (1164) 
1.58

>  <QM_Energy>  (1164) 
-4.96

>  <source>  (1164) 
ACET_MBZ_01

>  <Index>  (1164) 
3938

$$$$
ACET-pdb3b49-A-GLU-144:MBZ-pdb3b49-A-PHE-26
     RDKit          3D

 22 21  0  0  0  0  0  0  0  0999 V2000
   -4.8615    1.9693    0.0917 C   0  0  0  0  0  0  0  0  0  0  0  0
   -4.3610    1.1219    0.1988 H   0  0  0  0  0  0  0  0  0  0  0  0
   -5.6545    1.8422   -0.4878 H   0  0  0  0  0  0  0  0  0  0  0  0
   -5.1931    2.3070    1.0736 H   0  0  0  0  0  0  0  0  0  0  0  0
   -3.9292    2.9445   -0.6434 C   0  0  0  0  0  0  0  0  0  0  0  0
   -3.6654    4.0608   -0.1482 O   0  0  0  0  0  1  0  0  0  0  0  0
   -3.4572    2.5737   -1.7435 O   0  0  0  0  0  0  0  0  0  0  0  0
   -0.0034    2.8911    0.0446 C   0  0  0  0  0  0  0  0  0  0  0  0
   -0.8033    3.2255   -0.4226 H   0  0  0  0  0  0  0  0  0  0  0  0
    0.8282    3.2248   -0.3631 H   0  0  0  0  0  0  0  0  0  0  0  0
   -0.0406    3.2721    1.0651 H   0  0  0  0  0  0  0  0  0  0  0  0
   -0.0008    1.4048   -0.0154 C   0  0  0  0  0  0  0  0  0  0  0  0
   -1.1952    0.6930   -0.0002 C   0  0  0  0  0  0  0  0  0  0  0  0
   -2.0634    1.1658    0.0092 H   0  0  0  0  0  0  0  0  0  0  0  0
   -1.1825   -0.7162   -0.0000 C   0  0  0  0  0  0  0  0  0  0  0  0
   -2.0652   -1.2024   -0.0104 H   0  0  0  0  0  0  0  0  0  0  0  0
    0.0031   -1.3827    0.0153 C   0  0  0  0  0  0  0  0  0  0  0  0
    0.0083   -2.3944    0.0376 H   0  0  0  0  0  0  0  0  0  0  0  0
    1.1825   -0.6967    0.0000 C   0  0  0  0  0  0  0  0  0  0  0  0
    2.0752   -1.1916   -0.0107 H   0  0  0  0  0  0  0  0  0  0  0  0
    1.1929    0.6978    0.0003 C   0  0  0  0  0  0  0  0  0  0  0  0
    2.0617    1.1842    0.0109 H   0  0  0  0  0  0  0  0  0  0  0  0
  1  5  1  0
  5  6  1  0
  5  7  2  0
  1  2  1  0
  1  3  1  0
  1  4  1  0
  8 12  1  0
 12 13  2  0
 13 15  1  0
 15 17  2  0
 17 19  1  0
 19 21  2  0
 21 12  1  0
  8  9  1  0
  8 10  1  0
  8 11  1  0
 13 14  1  0
 15 16  1  0
 17 18  1  0
 19 20  1  0
 21 22  1  0
M  CHG  1   6  -1
M  END
>  <PDB_ID>  (1165) 
pdb3b49

>  <RESIDUE_NAME>  (1165) 
GLU   PHE

>  <FRAG_NAME>  (1165) 
ACET   MBZ

>  <FRAG_ATOM_NUM>  (1165) 
fragi: 7  fragj: 15

>  <atom.prop.CHAIN_ID>  (1165) 
A A A A A A A Z Z Z Z Z Z Z Z Z Z Z Z Z Z Z

>  <atom.prop.IS_HEAVY_ATOM>  (1165) 
1 0 0 0 1 1 1 1 0 0 0 1 1 0 1 0 1 0 1 0 1 0

>  <DIFUSE_FUNC_ATOM>  (1165) 
atom 6   atom 7   

>  <FINAL_SINGLE_POINT_ENERGY>  (1165) 
0

>  <NONCOV_INTER_ENERGY_QM>  (1165) 
0

>  <FF_Energy>  (1165) 
-1.72

>  <QM_Energy>  (1165) 
-6.9

>  <source>  (1165) 
ACET_MBZ_01

>  <Index>  (1165) 
4049

$$$$
ACET-pdb1x1o-C-GLU-62:MBZ-pdb1x1o-C-PHE-74
     RDKit          3D

 22 21  0  0  0  0  0  0  0  0999 V2000
   -0.7546    2.5024    3.4028 C   0  0  0  0  0  0  0  0  0  0  0  0
   -0.6248    2.9068    4.2893 H   0  0  0  0  0  0  0  0  0  0  0  0
   -0.2365    2.9619    2.7047 H   0  0  0  0  0  0  0  0  0  0  0  0
   -0.4226    1.4653    3.4495 H   0  0  0  0  0  0  0  0  0  0  0  0
   -2.2196    2.6329    3.0476 C   0  0  0  0  0  0  0  0  0  0  0  0
   -3.0470    1.9314    3.6668 O   0  0  0  0  0  1  0  0  0  0  0  0
   -2.5449    3.4416    2.1534 O   0  0  0  0  0  0  0  0  0  0  0  0
    0.0071    2.9063    0.0221 C   0  0  0  0  0  0  0  0  0  0  0  0
    0.9116    3.2043    0.2930 H   0  0  0  0  0  0  0  0  0  0  0  0
   -0.6768    3.2060    0.6724 H   0  0  0  0  0  0  0  0  0  0  0  0
   -0.2218    3.3673   -0.9387 H   0  0  0  0  0  0  0  0  0  0  0  0
    0.0005    1.4032    0.0004 C   0  0  0  0  0  0  0  0  0  0  0  0
   -1.1968    0.6961   -0.0011 C   0  0  0  0  0  0  0  0  0  0  0  0
   -2.0627    1.1846   -0.0046 H   0  0  0  0  0  0  0  0  0  0  0  0
   -1.2012   -0.6973    0.0000 C   0  0  0  0  0  0  0  0  0  0  0  0
   -2.0785   -1.1894    0.0008 H   0  0  0  0  0  0  0  0  0  0  0  0
    0.0001   -1.3960    0.0013 C   0  0  0  0  0  0  0  0  0  0  0  0
   -0.0048   -2.3938    0.0028 H   0  0  0  0  0  0  0  0  0  0  0  0
    1.2012   -0.6995    0.0000 C   0  0  0  0  0  0  0  0  0  0  0  0
    2.0823   -1.1956    0.0009 H   0  0  0  0  0  0  0  0  0  0  0  0
    1.1962    0.6936   -0.0007 C   0  0  0  0  0  0  0  0  0  0  0  0
    2.0655    1.1885   -0.0024 H   0  0  0  0  0  0  0  0  0  0  0  0
  1  5  1  0
  5  6  1  0
  5  7  2  0
  1  2  1  0
  1  3  1  0
  1  4  1  0
  8 12  1  0
 12 13  2  0
 13 15  1  0
 15 17  2  0
 17 19  1  0
 19 21  2  0
 21 12  1  0
  8  9  1  0
  8 10  1  0
  8 11  1  0
 13 14  1  0
 15 16  1  0
 17 18  1  0
 19 20  1  0
 21 22  1  0
M  CHG  1   6  -1
M  END
>  <PDB_ID>  (1166) 
pdb1x1o

>  <RESIDUE_NAME>  (1166) 
GLU   PHE

>  <FRAG_NAME>  (1166) 
ACET   MBZ

>  <FRAG_ATOM_NUM>  (1166) 
fragi: 7  fragj: 15

>  <atom.prop.CHAIN_ID>  (1166) 
A A A A A A A Z Z Z Z Z Z Z Z Z Z Z Z Z Z Z

>  <atom.prop.IS_HEAVY_ATOM>  (1166) 
1 0 0 0 1 1 1 1 0 0 0 1 1 0 1 0 1 0 1 0 1 0

>  <DIFUSE_FUNC_ATOM>  (1166) 
atom 6   atom 7   

>  <FINAL_SINGLE_POINT_ENERGY>  (1166) 
0

>  <NONCOV_INTER_ENERGY_QM>  (1166) 
0

>  <FF_Energy>  (1166) 
-0.56

>  <QM_Energy>  (1166) 
-6.18

>  <source>  (1166) 
ACET_MBZ_01

>  <Index>  (1166) 
4081

$$$$
ACET-pdb1x3x-A-GLU-37:MBZ-pdb1x3x-A-PHE-34
     RDKit          3D

 22 21  0  0  0  0  0  0  0  0999 V2000
   -3.1302    0.8781    2.6190 C   0  0  0  0  0  0  0  0  0  0  0  0
   -2.6899    1.7251    2.8531 H   0  0  0  0  0  0  0  0  0  0  0  0
   -2.5374    0.2762    2.1171 H   0  0  0  0  0  0  0  0  0  0  0  0
   -3.4359    0.3796    3.5388 H   0  0  0  0  0  0  0  0  0  0  0  0
   -4.3068    1.2125    1.7174 C   0  0  0  0  0  0  0  0  0  0  0  0
   -4.0753    1.7038    0.5934 O   0  0  0  0  0  1  0  0  0  0  0  0
   -5.4635    0.9908    2.1328 O   0  0  0  0  0  0  0  0  0  0  0  0
    0.0045    2.9077   -0.0341 C   0  0  0  0  0  0  0  0  0  0  0  0
   -0.5454    3.1994   -0.8035 H   0  0  0  0  0  0  0  0  0  0  0  0
    0.9419    3.2096   -0.1321 H   0  0  0  0  0  0  0  0  0  0  0  0
   -0.4028    3.3773    0.8613 H   0  0  0  0  0  0  0  0  0  0  0  0
   -0.0001    1.4058   -0.0001 C   0  0  0  0  0  0  0  0  0  0  0  0
   -1.1979    0.6947    0.0007 C   0  0  0  0  0  0  0  0  0  0  0  0
   -2.0653    1.1836    0.0001 H   0  0  0  0  0  0  0  0  0  0  0  0
   -1.2036   -0.6999   -0.0000 C   0  0  0  0  0  0  0  0  0  0  0  0
   -2.0792   -1.1920    0.0020 H   0  0  0  0  0  0  0  0  0  0  0  0
    0.0002   -1.3979   -0.0021 C   0  0  0  0  0  0  0  0  0  0  0  0
   -0.0035   -2.3947   -0.0054 H   0  0  0  0  0  0  0  0  0  0  0  0
    1.2036   -0.6991    0.0000 C   0  0  0  0  0  0  0  0  0  0  0  0
    2.0843   -1.1944    0.0018 H   0  0  0  0  0  0  0  0  0  0  0  0
    1.1979    0.6964    0.0015 C   0  0  0  0  0  0  0  0  0  0  0  0
    2.0656    1.1912    0.0035 H   0  0  0  0  0  0  0  0  0  0  0  0
  1  5  1  0
  5  6  1  0
  5  7  2  0
  1  2  1  0
  1  3  1  0
  1  4  1  0
  8 12  1  0
 12 13  2  0
 13 15  1  0
 15 17  2  0
 17 19  1  0
 19 21  2  0
 21 12  1  0
  8  9  1  0
  8 10  1  0
  8 11  1  0
 13 14  1  0
 15 16  1  0
 17 18  1  0
 19 20  1  0
 21 22  1  0
M  CHG  1   6  -1
M  END
>  <PDB_ID>  (1167) 
pdb1x3x

>  <RESIDUE_NAME>  (1167) 
GLU   PHE

>  <FRAG_NAME>  (1167) 
ACET   MBZ

>  <FRAG_ATOM_NUM>  (1167) 
fragi: 7  fragj: 15

>  <atom.prop.CHAIN_ID>  (1167) 
A A A A A A A Z Z Z Z Z Z Z Z Z Z Z Z Z Z Z

>  <atom.prop.IS_HEAVY_ATOM>  (1167) 
1 0 0 0 1 1 1 1 0 0 0 1 1 0 1 0 1 0 1 0 1 0

>  <DIFUSE_FUNC_ATOM>  (1167) 
atom 6   atom 7   

>  <FINAL_SINGLE_POINT_ENERGY>  (1167) 
0

>  <NONCOV_INTER_ENERGY_QM>  (1167) 
0

>  <FF_Energy>  (1167) 
1.18

>  <QM_Energy>  (1167) 
-5.72

>  <source>  (1167) 
ACET_MBZ_01

>  <Index>  (1167) 
4155

$$$$
ACET-pdb1x74-B-ASP-210:MBZ-pdb1x74-A-PHE-304
     RDKit          3D

 22 21  0  0  0  0  0  0  0  0999 V2000
   -4.9151    3.5622    1.5430 C   0  0  0  0  0  0  0  0  0  0  0  0
   -5.6569    4.2203    1.5065 H   0  0  0  0  0  0  0  0  0  0  0  0
   -4.5844    3.4551    2.4713 H   0  0  0  0  0  0  0  0  0  0  0  0
   -5.3200    2.5999    1.2297 H   0  0  0  0  0  0  0  0  0  0  0  0
   -3.7853    4.0333    0.6604 C   0  0  0  0  0  0  0  0  0  0  0  0
   -3.5028    3.3755   -0.3811 O   0  0  0  0  0  1  0  0  0  0  0  0
   -3.1439    5.0930    0.9182 O   0  0  0  0  0  0  0  0  0  0  0  0
    0.0156    2.9017   -0.0181 C   0  0  0  0  0  0  0  0  0  0  0  0
   -0.9213    3.2212   -0.0374 H   0  0  0  0  0  0  0  0  0  0  0  0
    0.5129    3.2057   -0.8188 H   0  0  0  0  0  0  0  0  0  0  0  0
    0.4946    3.3514    0.8516 H   0  0  0  0  0  0  0  0  0  0  0  0
    0.0089    1.4154   -0.0013 C   0  0  0  0  0  0  0  0  0  0  0  0
   -1.1932    0.7055   -0.0026 C   0  0  0  0  0  0  0  0  0  0  0  0
   -2.0590    1.1890   -0.0067 H   0  0  0  0  0  0  0  0  0  0  0  0
   -1.2009   -0.7056   -0.0000 C   0  0  0  0  0  0  0  0  0  0  0  0
   -2.0918   -1.1810    0.0068 H   0  0  0  0  0  0  0  0  0  0  0  0
   -0.0196   -1.4111   -0.0044 C   0  0  0  0  0  0  0  0  0  0  0  0
   -0.0126   -2.4028   -0.0109 H   0  0  0  0  0  0  0  0  0  0  0  0
    1.2009   -0.7027   -0.0000 C   0  0  0  0  0  0  0  0  0  0  0  0
    2.0747   -1.2061   -0.0011 H   0  0  0  0  0  0  0  0  0  0  0  0
    1.2038    0.6987    0.0083 C   0  0  0  0  0  0  0  0  0  0  0  0
    2.0743    1.1860    0.0206 H   0  0  0  0  0  0  0  0  0  0  0  0
  1  5  1  0
  5  6  1  0
  5  7  2  0
  1  2  1  0
  1  3  1  0
  1  4  1  0
  8 12  1  0
 12 13  2  0
 13 15  1  0
 15 17  2  0
 17 19  1  0
 19 21  2  0
 21 12  1  0
  8  9  1  0
  8 10  1  0
  8 11  1  0
 13 14  1  0
 15 16  1  0
 17 18  1  0
 19 20  1  0
 21 22  1  0
M  CHG  1   6  -1
M  END
>  <PDB_ID>  (1168) 
pdb1x74

>  <RESIDUE_NAME>  (1168) 
ASP   PHE

>  <FRAG_NAME>  (1168) 
ACET   MBZ

>  <FRAG_ATOM_NUM>  (1168) 
fragi: 7  fragj: 15

>  <atom.prop.CHAIN_ID>  (1168) 
A A A A A A A Z Z Z Z Z Z Z Z Z Z Z Z Z Z Z

>  <atom.prop.IS_HEAVY_ATOM>  (1168) 
1 0 0 0 1 1 1 1 0 0 0 1 1 0 1 0 1 0 1 0 1 0

>  <DIFUSE_FUNC_ATOM>  (1168) 
atom 6   atom 7   

>  <FINAL_SINGLE_POINT_ENERGY>  (1168) 
0

>  <NONCOV_INTER_ENERGY_QM>  (1168) 
0

>  <FF_Energy>  (1168) 
-2.69

>  <QM_Energy>  (1168) 
-8.46

>  <source>  (1168) 
ACET_MBZ_01

>  <Index>  (1168) 
4188

$$$$
ACET-pdb1x7f-A-GLU-107:MBZ-pdb1x7f-A-PHE-102
     RDKit          3D

 22 21  0  0  0  0  0  0  0  0999 V2000
   -5.2444    1.8329    0.2400 C   0  0  0  0  0  0  0  0  0  0  0  0
   -5.8003    1.8726    1.0531 H   0  0  0  0  0  0  0  0  0  0  0  0
   -4.9880    0.9074    0.0175 H   0  0  0  0  0  0  0  0  0  0  0  0
   -5.8245    2.2367   -0.5898 H   0  0  0  0  0  0  0  0  0  0  0  0
   -3.9621    2.6049    0.5262 C   0  0  0  0  0  0  0  0  0  0  0  0
   -3.3821    3.2136   -0.3928 O   0  0  0  0  0  1  0  0  0  0  0  0
   -3.5225    2.5958    1.6911 O   0  0  0  0  0  0  0  0  0  0  0  0
   -0.0037    2.9195    0.0101 C   0  0  0  0  0  0  0  0  0  0  0  0
   -0.8413    3.2248   -0.4106 H   0  0  0  0  0  0  0  0  0  0  0  0
    0.7902    3.2311   -0.4859 H   0  0  0  0  0  0  0  0  0  0  0  0
    0.0412    3.3507    1.0101 H   0  0  0  0  0  0  0  0  0  0  0  0
    0.0005    1.4079   -0.0012 C   0  0  0  0  0  0  0  0  0  0  0  0
   -1.1976    0.6936    0.0007 C   0  0  0  0  0  0  0  0  0  0  0  0
   -2.0649    1.1826    0.0012 H   0  0  0  0  0  0  0  0  0  0  0  0
   -1.2034   -0.7017    0.0000 C   0  0  0  0  0  0  0  0  0  0  0  0
   -2.0810   -1.1923    0.0001 H   0  0  0  0  0  0  0  0  0  0  0  0
   -0.0025   -1.3982    0.0017 C   0  0  0  0  0  0  0  0  0  0  0  0
   -0.0044   -2.3958    0.0037 H   0  0  0  0  0  0  0  0  0  0  0  0
    1.2034   -0.7001    0.0000 C   0  0  0  0  0  0  0  0  0  0  0  0
    2.0827   -1.1962    0.0009 H   0  0  0  0  0  0  0  0  0  0  0  0
    1.1997    0.6986   -0.0012 C   0  0  0  0  0  0  0  0  0  0  0  0
    2.0673    1.1918   -0.0026 H   0  0  0  0  0  0  0  0  0  0  0  0
  1  5  1  0
  5  6  1  0
  5  7  2  0
  1  2  1  0
  1  3  1  0
  1  4  1  0
  8 12  1  0
 12 13  2  0
 13 15  1  0
 15 17  2  0
 17 19  1  0
 19 21  2  0
 21 12  1  0
  8  9  1  0
  8 10  1  0
  8 11  1  0
 13 14  1  0
 15 16  1  0
 17 18  1  0
 19 20  1  0
 21 22  1  0
M  CHG  1   6  -1
M  END
>  <PDB_ID>  (1169) 
pdb1x7f

>  <RESIDUE_NAME>  (1169) 
GLU   PHE

>  <FRAG_NAME>  (1169) 
ACET   MBZ

>  <FRAG_ATOM_NUM>  (1169) 
fragi: 7  fragj: 15

>  <atom.prop.CHAIN_ID>  (1169) 
A A A A A A A Z Z Z Z Z Z Z Z Z Z Z Z Z Z Z

>  <atom.prop.IS_HEAVY_ATOM>  (1169) 
1 0 0 0 1 1 1 1 0 0 0 1 1 0 1 0 1 0 1 0 1 0

>  <DIFUSE_FUNC_ATOM>  (1169) 
atom 6   atom 7   

>  <FINAL_SINGLE_POINT_ENERGY>  (1169) 
0

>  <NONCOV_INTER_ENERGY_QM>  (1169) 
0

>  <FF_Energy>  (1169) 
-0.32

>  <QM_Energy>  (1169) 
-8.19

>  <source>  (1169) 
ACET_MBZ_01

>  <Index>  (1169) 
4225

$$$$
ACET-pdb3b9f-I-ASP-28:MBZ-pdb3b9f-I-PHE-31
     RDKit          3D

 22 21  0  0  0  0  0  0  0  0999 V2000
    5.1572    1.5249   -1.2378 C   0  0  0  0  0  0  0  0  0  0  0  0
    5.9208    1.5290   -1.8825 H   0  0  0  0  0  0  0  0  0  0  0  0
    5.4086    1.0032   -0.4243 H   0  0  0  0  0  0  0  0  0  0  0  0
    4.9745    2.5547   -0.9309 H   0  0  0  0  0  0  0  0  0  0  0  0
    3.9679    0.8551   -1.8974 C   0  0  0  0  0  0  0  0  0  0  0  0
    2.8987    1.4829   -2.0465 O   0  0  0  0  0  1  0  0  0  0  0  0
    4.1275   -0.3153   -2.2793 O   0  0  0  0  0  0  0  0  0  0  0  0
   -0.0042    2.9003   -0.1143 C   0  0  0  0  0  0  0  0  0  0  0  0
    0.9116    3.2226    0.0474 H   0  0  0  0  0  0  0  0  0  0  0  0
   -0.6433    3.2544    0.5453 H   0  0  0  0  0  0  0  0  0  0  0  0
   -0.3129    3.2460   -1.1009 H   0  0  0  0  0  0  0  0  0  0  0  0
    0.0010    1.4030   -0.0013 C   0  0  0  0  0  0  0  0  0  0  0  0
   -1.1980    0.6931    0.0017 C   0  0  0  0  0  0  0  0  0  0  0  0
   -2.0641    1.1841    0.0039 H   0  0  0  0  0  0  0  0  0  0  0  0
   -1.2044   -0.6992   -0.0000 C   0  0  0  0  0  0  0  0  0  0  0  0
   -2.0807   -1.1919    0.0026 H   0  0  0  0  0  0  0  0  0  0  0  0
   -0.0012   -1.3968   -0.0032 C   0  0  0  0  0  0  0  0  0  0  0  0
   -0.0031   -2.3940   -0.0077 H   0  0  0  0  0  0  0  0  0  0  0  0
    1.2044   -0.6967    0.0000 C   0  0  0  0  0  0  0  0  0  0  0  0
    2.0837   -1.1946    0.0017 H   0  0  0  0  0  0  0  0  0  0  0  0
    1.1981    0.6966    0.0028 C   0  0  0  0  0  0  0  0  0  0  0  0
    2.0662    1.1928    0.0074 H   0  0  0  0  0  0  0  0  0  0  0  0
  1  5  1  0
  5  6  1  0
  5  7  2  0
  1  2  1  0
  1  3  1  0
  1  4  1  0
  8 12  1  0
 12 13  2  0
 13 15  1  0
 15 17  2  0
 17 19  1  0
 19 21  2  0
 21 12  1  0
  8  9  1  0
  8 10  1  0
  8 11  1  0
 13 14  1  0
 15 16  1  0
 17 18  1  0
 19 20  1  0
 21 22  1  0
M  CHG  1   6  -1
M  END
>  <PDB_ID>  (1170) 
pdb3b9f

>  <RESIDUE_NAME>  (1170) 
ASP   PHE

>  <FRAG_NAME>  (1170) 
ACET   MBZ

>  <FRAG_ATOM_NUM>  (1170) 
fragi: 7  fragj: 15

>  <atom.prop.CHAIN_ID>  (1170) 
A A A A A A A Z Z Z Z Z Z Z Z Z Z Z Z Z Z Z

>  <atom.prop.IS_HEAVY_ATOM>  (1170) 
1 0 0 0 1 1 1 1 0 0 0 1 1 0 1 0 1 0 1 0 1 0

>  <DIFUSE_FUNC_ATOM>  (1170) 
atom 6   atom 7   

>  <FINAL_SINGLE_POINT_ENERGY>  (1170) 
0

>  <NONCOV_INTER_ENERGY_QM>  (1170) 
0

>  <FF_Energy>  (1170) 
3.15

>  <QM_Energy>  (1170) 
-3.48

>  <source>  (1170) 
ACET_MBZ_01

>  <Index>  (1170) 
4361

$$$$
ACET-pdb3bb5-A-ASP-27:MBZ-pdb3bb5-A-PHE-39
     RDKit          3D

 22 21  0  0  0  0  0  0  0  0999 V2000
    5.3740   -0.2049   -1.9909 C   0  0  0  0  0  0  0  0  0  0  0  0
    5.7112   -1.0359   -2.4170 H   0  0  0  0  0  0  0  0  0  0  0  0
    6.0588    0.5121   -2.0341 H   0  0  0  0  0  0  0  0  0  0  0  0
    4.4976    0.1285   -2.5465 H   0  0  0  0  0  0  0  0  0  0  0  0
    5.0763   -0.5020   -0.5176 C   0  0  0  0  0  0  0  0  0  0  0  0
    4.1202    0.0828    0.0322 O   0  0  0  0  0  1  0  0  0  0  0  0
    5.7653   -1.3657    0.0854 O   0  0  0  0  0  0  0  0  0  0  0  0
   -0.0070    2.9169    0.0445 C   0  0  0  0  0  0  0  0  0  0  0  0
   -0.7114    3.2280   -0.5685 H   0  0  0  0  0  0  0  0  0  0  0  0
    0.8863    3.2294   -0.2269 H   0  0  0  0  0  0  0  0  0  0  0  0
   -0.2192    3.3162    1.0363 H   0  0  0  0  0  0  0  0  0  0  0  0
    0.0034    1.3968    0.0014 C   0  0  0  0  0  0  0  0  0  0  0  0
   -1.1790    0.6839    0.0000 C   0  0  0  0  0  0  0  0  0  0  0  0
   -2.0535    1.1760   -0.0023 H   0  0  0  0  0  0  0  0  0  0  0  0
   -1.1871   -0.6958   -0.0000 C   0  0  0  0  0  0  0  0  0  0  0  0
   -2.0799   -1.1804    0.0031 H   0  0  0  0  0  0  0  0  0  0  0  0
   -0.0205   -1.3834   -0.0019 C   0  0  0  0  0  0  0  0  0  0  0  0
   -0.0108   -2.3851   -0.0049 H   0  0  0  0  0  0  0  0  0  0  0  0
    1.1871   -0.6886    0.0000 C   0  0  0  0  0  0  0  0  0  0  0  0
    2.0636   -1.2022    0.0029 H   0  0  0  0  0  0  0  0  0  0  0  0
    1.1962    0.6870    0.0005 C   0  0  0  0  0  0  0  0  0  0  0  0
    2.0646    1.1836   -0.0006 H   0  0  0  0  0  0  0  0  0  0  0  0
  1  5  1  0
  5  6  1  0
  5  7  2  0
  1  2  1  0
  1  3  1  0
  1  4  1  0
  8 12  1  0
 12 13  2  0
 13 15  1  0
 15 17  2  0
 17 19  1  0
 19 21  2  0
 21 12  1  0
  8  9  1  0
  8 10  1  0
  8 11  1  0
 13 14  1  0
 15 16  1  0
 17 18  1  0
 19 20  1  0
 21 22  1  0
M  CHG  1   6  -1
M  END
>  <PDB_ID>  (1171) 
pdb3bb5

>  <RESIDUE_NAME>  (1171) 
ASP   PHE

>  <FRAG_NAME>  (1171) 
ACET   MBZ

>  <FRAG_ATOM_NUM>  (1171) 
fragi: 7  fragj: 15

>  <atom.prop.CHAIN_ID>  (1171) 
A A A A A A A Z Z Z Z Z Z Z Z Z Z Z Z Z Z Z

>  <atom.prop.IS_HEAVY_ATOM>  (1171) 
1 0 0 0 1 1 1 1 0 0 0 1 1 0 1 0 1 0 1 0 1 0

>  <DIFUSE_FUNC_ATOM>  (1171) 
atom 6   atom 7   

>  <FINAL_SINGLE_POINT_ENERGY>  (1171) 
0

>  <NONCOV_INTER_ENERGY_QM>  (1171) 
0

>  <FF_Energy>  (1171) 
-1.05

>  <QM_Energy>  (1171) 
-6.61

>  <source>  (1171) 
ACET_MBZ_01

>  <Index>  (1171) 
4417

$$$$
ACET-pdb1xeb-D-GLU-39:MBZ-pdb1xeb-D-PHE-29
     RDKit          3D

 22 21  0  0  0  0  0  0  0  0999 V2000
   -5.0832    4.1509   -1.9598 C   0  0  0  0  0  0  0  0  0  0  0  0
   -5.2244    4.2842   -0.9989 H   0  0  0  0  0  0  0  0  0  0  0  0
   -5.8891    3.8333   -2.4198 H   0  0  0  0  0  0  0  0  0  0  0  0
   -4.7975    5.1081   -2.3959 H   0  0  0  0  0  0  0  0  0  0  0  0
   -4.0090    3.0960   -2.1280 C   0  0  0  0  0  0  0  0  0  0  0  0
   -2.8482    3.3748   -1.7441 O   0  0  0  0  0  1  0  0  0  0  0  0
   -4.3213    1.9933   -2.6376 O   0  0  0  0  0  0  0  0  0  0  0  0
    0.0077    2.8876    0.0500 C   0  0  0  0  0  0  0  0  0  0  0  0
   -0.9280    3.2057    0.0052 H   0  0  0  0  0  0  0  0  0  0  0  0
    0.5391    3.2242   -0.7136 H   0  0  0  0  0  0  0  0  0  0  0  0
    0.4491    3.2902    0.9616 H   0  0  0  0  0  0  0  0  0  0  0  0
    0.0026    1.4012    0.0005 C   0  0  0  0  0  0  0  0  0  0  0  0
   -1.1917    0.7009    0.0003 C   0  0  0  0  0  0  0  0  0  0  0  0
   -2.0601    1.1861   -0.0010 H   0  0  0  0  0  0  0  0  0  0  0  0
   -1.2008   -0.7016    0.0000 C   0  0  0  0  0  0  0  0  0  0  0  0
   -2.0819   -1.1848   -0.0001 H   0  0  0  0  0  0  0  0  0  0  0  0
   -0.0071   -1.3976    0.0014 C   0  0  0  0  0  0  0  0  0  0  0  0
   -0.0053   -2.3954    0.0033 H   0  0  0  0  0  0  0  0  0  0  0  0
    1.2008   -0.6972   -0.0000 C   0  0  0  0  0  0  0  0  0  0  0  0
    2.0790   -1.1972    0.0019 H   0  0  0  0  0  0  0  0  0  0  0  0
    1.1961    0.6944   -0.0022 C   0  0  0  0  0  0  0  0  0  0  0  0
    2.0659    1.1890   -0.0062 H   0  0  0  0  0  0  0  0  0  0  0  0
  1  5  1  0
  5  6  1  0
  5  7  2  0
  1  2  1  0
  1  3  1  0
  1  4  1  0
  8 12  1  0
 12 13  2  0
 13 15  1  0
 15 17  2  0
 17 19  1  0
 19 21  2  0
 21 12  1  0
  8  9  1  0
  8 10  1  0
  8 11  1  0
 13 14  1  0
 15 16  1  0
 17 18  1  0
 19 20  1  0
 21 22  1  0
M  CHG  1   6  -1
M  END
>  <PDB_ID>  (1172) 
pdb1xeb

>  <RESIDUE_NAME>  (1172) 
GLU   PHE

>  <FRAG_NAME>  (1172) 
ACET   MBZ

>  <FRAG_ATOM_NUM>  (1172) 
fragi: 7  fragj: 15

>  <atom.prop.CHAIN_ID>  (1172) 
A A A A A A A Z Z Z Z Z Z Z Z Z Z Z Z Z Z Z

>  <atom.prop.IS_HEAVY_ATOM>  (1172) 
1 0 0 0 1 1 1 1 0 0 0 1 1 0 1 0 1 0 1 0 1 0

>  <DIFUSE_FUNC_ATOM>  (1172) 
atom 6   atom 7   

>  <FINAL_SINGLE_POINT_ENERGY>  (1172) 
0

>  <NONCOV_INTER_ENERGY_QM>  (1172) 
0

>  <FF_Energy>  (1172) 
-1.18

>  <QM_Energy>  (1172) 
-6.23

>  <source>  (1172) 
ACET_MBZ_01

>  <Index>  (1172) 
4492

$$$$
ACET-pdb1xed-F-GLU-8:MBZ-pdb1xed-F-PHE-103
     RDKit          3D

 22 21  0  0  0  0  0  0  0  0999 V2000
    0.2374   -4.5027    1.4813 C   0  0  0  0  0  0  0  0  0  0  0  0
   -0.0034   -4.0139    2.3022 H   0  0  0  0  0  0  0  0  0  0  0  0
    0.1888   -3.9277    0.6830 H   0  0  0  0  0  0  0  0  0  0  0  0
    1.2625   -4.8586    1.5847 H   0  0  0  0  0  0  0  0  0  0  0  0
   -0.7757   -5.6214    1.3009 C   0  0  0  0  0  0  0  0  0  0  0  0
   -0.8344   -6.2166    0.1948 O   0  0  0  0  0  1  0  0  0  0  0  0
   -1.5138   -5.9023    2.2684 O   0  0  0  0  0  0  0  0  0  0  0  0
    0.0014    2.8820    0.0314 C   0  0  0  0  0  0  0  0  0  0  0  0
   -0.7504    3.2081   -0.5234 H   0  0  0  0  0  0  0  0  0  0  0  0
    0.8701    3.2015   -0.3203 H   0  0  0  0  0  0  0  0  0  0  0  0
   -0.1224    3.2928    1.0334 H   0  0  0  0  0  0  0  0  0  0  0  0
   -0.0005    1.4003    0.0004 C   0  0  0  0  0  0  0  0  0  0  0  0
   -1.1969    0.6961    0.0007 C   0  0  0  0  0  0  0  0  0  0  0  0
   -2.0634    1.1817    0.0000 H   0  0  0  0  0  0  0  0  0  0  0  0
   -1.1983   -0.6997   -0.0000 C   0  0  0  0  0  0  0  0  0  0  0  0
   -2.0751   -1.1930    0.0018 H   0  0  0  0  0  0  0  0  0  0  0  0
    0.0037   -1.3954   -0.0014 C   0  0  0  0  0  0  0  0  0  0  0  0
   -0.0003   -2.3932   -0.0039 H   0  0  0  0  0  0  0  0  0  0  0  0
    1.1983   -0.6960   -0.0000 C   0  0  0  0  0  0  0  0  0  0  0  0
    2.0841   -1.1914    0.0022 H   0  0  0  0  0  0  0  0  0  0  0  0
    1.1937    0.6947    0.0004 C   0  0  0  0  0  0  0  0  0  0  0  0
    2.0625    1.1899   -0.0002 H   0  0  0  0  0  0  0  0  0  0  0  0
  1  5  1  0
  5  6  1  0
  5  7  2  0
  1  2  1  0
  1  3  1  0
  1  4  1  0
  8 12  1  0
 12 13  2  0
 13 15  1  0
 15 17  2  0
 17 19  1  0
 19 21  2  0
 21 12  1  0
  8  9  1  0
  8 10  1  0
  8 11  1  0
 13 14  1  0
 15 16  1  0
 17 18  1  0
 19 20  1  0
 21 22  1  0
M  CHG  1   6  -1
M  END
>  <PDB_ID>  (1173) 
pdb1xed

>  <RESIDUE_NAME>  (1173) 
GLU   PHE

>  <FRAG_NAME>  (1173) 
ACET   MBZ

>  <FRAG_ATOM_NUM>  (1173) 
fragi: 7  fragj: 15

>  <atom.prop.CHAIN_ID>  (1173) 
A A A A A A A Z Z Z Z Z Z Z Z Z Z Z Z Z Z Z

>  <atom.prop.IS_HEAVY_ATOM>  (1173) 
1 0 0 0 1 1 1 1 0 0 0 1 1 0 1 0 1 0 1 0 1 0

>  <DIFUSE_FUNC_ATOM>  (1173) 
atom 6   atom 7   

>  <FINAL_SINGLE_POINT_ENERGY>  (1173) 
0

>  <NONCOV_INTER_ENERGY_QM>  (1173) 
0

>  <FF_Energy>  (1173) 
6.01

>  <QM_Energy>  (1173) 
0.31

>  <source>  (1173) 
ACET_MBZ_01

>  <Index>  (1173) 
4504

$$$$
ACET-pdb1xeb-B-GLU-39:MBZ-pdb1xeb-B-PHE-29
     RDKit          3D

 22 21  0  0  0  0  0  0  0  0999 V2000
   -4.9064    4.4721   -1.2450 C   0  0  0  0  0  0  0  0  0  0  0  0
   -4.9314    4.6489   -0.2771 H   0  0  0  0  0  0  0  0  0  0  0  0
   -5.7893    4.2171   -1.5975 H   0  0  0  0  0  0  0  0  0  0  0  0
   -4.5642    5.3700   -1.7596 H   0  0  0  0  0  0  0  0  0  0  0  0
   -3.9789    3.2851   -1.4603 C   0  0  0  0  0  0  0  0  0  0  0  0
   -2.7713    3.4457   -1.2295 O   0  0  0  0  0  1  0  0  0  0  0  0
   -4.4558    2.1930   -1.8430 O   0  0  0  0  0  0  0  0  0  0  0  0
    0.0251    2.8909    0.0776 C   0  0  0  0  0  0  0  0  0  0  0  0
   -0.8774    3.1984    0.3242 H   0  0  0  0  0  0  0  0  0  0  0  0
    0.3077    3.2386   -0.7995 H   0  0  0  0  0  0  0  0  0  0  0  0
    0.7224    3.2662    0.8267 H   0  0  0  0  0  0  0  0  0  0  0  0
    0.0040    1.3912    0.0009 C   0  0  0  0  0  0  0  0  0  0  0  0
   -1.1920    0.6973   -0.0012 C   0  0  0  0  0  0  0  0  0  0  0  0
   -2.0558    1.1957   -0.0053 H   0  0  0  0  0  0  0  0  0  0  0  0
   -1.2056   -0.6846    0.0000 C   0  0  0  0  0  0  0  0  0  0  0  0
   -2.0871   -1.1749    0.0008 H   0  0  0  0  0  0  0  0  0  0  0  0
   -0.0144   -1.3865    0.0017 C   0  0  0  0  0  0  0  0  0  0  0  0
   -0.0180   -2.3854    0.0036 H   0  0  0  0  0  0  0  0  0  0  0  0
    1.2056   -0.6959   -0.0000 C   0  0  0  0  0  0  0  0  0  0  0  0
    2.0741   -1.2097    0.0010 H   0  0  0  0  0  0  0  0  0  0  0  0
    1.2024    0.6784   -0.0015 C   0  0  0  0  0  0  0  0  0  0  0  0
    2.0691    1.1827   -0.0049 H   0  0  0  0  0  0  0  0  0  0  0  0
  1  5  1  0
  5  6  1  0
  5  7  2  0
  1  2  1  0
  1  3  1  0
  1  4  1  0
  8 12  1  0
 12 13  2  0
 13 15  1  0
 15 17  2  0
 17 19  1  0
 19 21  2  0
 21 12  1  0
  8  9  1  0
  8 10  1  0
  8 11  1  0
 13 14  1  0
 15 16  1  0
 17 18  1  0
 19 20  1  0
 21 22  1  0
M  CHG  1   6  -1
M  END
>  <PDB_ID>  (1174) 
pdb1xeb

>  <RESIDUE_NAME>  (1174) 
GLU   PHE

>  <FRAG_NAME>  (1174) 
ACET   MBZ

>  <FRAG_ATOM_NUM>  (1174) 
fragi: 7  fragj: 15

>  <atom.prop.CHAIN_ID>  (1174) 
A A A A A A A Z Z Z Z Z Z Z Z Z Z Z Z Z Z Z

>  <atom.prop.IS_HEAVY_ATOM>  (1174) 
1 0 0 0 1 1 1 1 0 0 0 1 1 0 1 0 1 0 1 0 1 0

>  <DIFUSE_FUNC_ATOM>  (1174) 
atom 6   atom 7   

>  <FINAL_SINGLE_POINT_ENERGY>  (1174) 
0

>  <NONCOV_INTER_ENERGY_QM>  (1174) 
0

>  <FF_Energy>  (1174) 
-1.21

>  <QM_Energy>  (1174) 
-7.46

>  <source>  (1174) 
ACET_MBZ_01

>  <Index>  (1174) 
4509

$$$$
ACET-pdb3bcz-B-ASP-217:MBZ-pdb3bcz-B-PHE-190
     RDKit          3D

 22 21  0  0  0  0  0  0  0  0999 V2000
    3.7019    3.2853   -2.5339 C   0  0  0  0  0  0  0  0  0  0  0  0
    3.9832    3.8329   -3.3063 H   0  0  0  0  0  0  0  0  0  0  0  0
    3.0235    2.6167   -2.7930 H   0  0  0  0  0  0  0  0  0  0  0  0
    4.5776    2.7500   -2.1666 H   0  0  0  0  0  0  0  0  0  0  0  0
    3.0882    4.2189   -1.4687 C   0  0  0  0  0  0  0  0  0  0  0  0
    3.0993    3.8821   -0.2648 O   0  0  0  0  0  1  0  0  0  0  0  0
    2.6124    5.2964   -1.8250 O   0  0  0  0  0  0  0  0  0  0  0  0
   -0.0293    2.9215    0.0795 C   0  0  0  0  0  0  0  0  0  0  0  0
   -0.6174    3.2506   -0.6315 H   0  0  0  0  0  0  0  0  0  0  0  0
    0.8935    3.2394   -0.0117 H   0  0  0  0  0  0  0  0  0  0  0  0
   -0.4170    3.2816    1.0325 H   0  0  0  0  0  0  0  0  0  0  0  0
   -0.0088    1.4033    0.0011 C   0  0  0  0  0  0  0  0  0  0  0  0
   -1.1945    0.6853    0.0102 C   0  0  0  0  0  0  0  0  0  0  0  0
   -2.0697    1.1758    0.0233 H   0  0  0  0  0  0  0  0  0  0  0  0
   -1.2105   -0.7076   -0.0000 C   0  0  0  0  0  0  0  0  0  0  0  0
   -2.0785   -1.1998    0.0020 H   0  0  0  0  0  0  0  0  0  0  0  0
    0.0041   -1.3971   -0.0105 C   0  0  0  0  0  0  0  0  0  0  0  0
    0.0073   -2.3949   -0.0265 H   0  0  0  0  0  0  0  0  0  0  0  0
    1.2105   -0.6911    0.0000 C   0  0  0  0  0  0  0  0  0  0  0  0
    2.0909   -1.1837    0.0095 H   0  0  0  0  0  0  0  0  0  0  0  0
    1.1993    0.7071   -0.0008 C   0  0  0  0  0  0  0  0  0  0  0  0
    2.0605    1.2065   -0.0033 H   0  0  0  0  0  0  0  0  0  0  0  0
  1  5  1  0
  5  6  1  0
  5  7  2  0
  1  2  1  0
  1  3  1  0
  1  4  1  0
  8 12  1  0
 12 13  2  0
 13 15  1  0
 15 17  2  0
 17 19  1  0
 19 21  2  0
 21 12  1  0
  8  9  1  0
  8 10  1  0
  8 11  1  0
 13 14  1  0
 15 16  1  0
 17 18  1  0
 19 20  1  0
 21 22  1  0
M  CHG  1   6  -1
M  END
>  <PDB_ID>  (1175) 
pdb3bcz

>  <RESIDUE_NAME>  (1175) 
ASP   PHE

>  <FRAG_NAME>  (1175) 
ACET   MBZ

>  <FRAG_ATOM_NUM>  (1175) 
fragi: 7  fragj: 15

>  <atom.prop.CHAIN_ID>  (1175) 
A A A A A A A Z Z Z Z Z Z Z Z Z Z Z Z Z Z Z

>  <atom.prop.IS_HEAVY_ATOM>  (1175) 
1 0 0 0 1 1 1 1 0 0 0 1 1 0 1 0 1 0 1 0 1 0

>  <DIFUSE_FUNC_ATOM>  (1175) 
atom 6   atom 7   

>  <FINAL_SINGLE_POINT_ENERGY>  (1175) 
0

>  <NONCOV_INTER_ENERGY_QM>  (1175) 
0

>  <FF_Energy>  (1175) 
-1.66

>  <QM_Energy>  (1175) 
-7.88

>  <source>  (1175) 
ACET_MBZ_01

>  <Index>  (1175) 
4551

$$$$
ACET-pdb1xks-A-GLU-181:MBZ-pdb1xks-A-PHE-149
     RDKit          3D

 22 21  0  0  0  0  0  0  0  0999 V2000
   -6.3276   -0.1876   -0.3738 C   0  0  0  0  0  0  0  0  0  0  0  0
   -6.9370    0.5312   -0.6466 H   0  0  0  0  0  0  0  0  0  0  0  0
   -6.6662   -0.7007    0.3902 H   0  0  0  0  0  0  0  0  0  0  0  0
   -6.1807   -0.8632   -1.2164 H   0  0  0  0  0  0  0  0  0  0  0  0
   -5.0205    0.4801    0.0789 C   0  0  0  0  0  0  0  0  0  0  0  0
   -4.1631   -0.2297    0.6716 O   0  0  0  0  0  1  0  0  0  0  0  0
   -4.8649    1.7172   -0.1581 O   0  0  0  0  0  0  0  0  0  0  0  0
    0.0187    2.9234    0.0965 C   0  0  0  0  0  0  0  0  0  0  0  0
   -0.8538    3.2617   -0.2083 H   0  0  0  0  0  0  0  0  0  0  0  0
    0.7595    3.2591   -0.4588 H   0  0  0  0  0  0  0  0  0  0  0  0
    0.1770    3.2823    1.1135 H   0  0  0  0  0  0  0  0  0  0  0  0
    0.0022    1.4303    0.0062 C   0  0  0  0  0  0  0  0  0  0  0  0
   -1.2095    0.7342    0.0017 C   0  0  0  0  0  0  0  0  0  0  0  0
   -2.0722    1.2126   -0.0012 H   0  0  0  0  0  0  0  0  0  0  0  0
   -1.2330   -0.7080    0.0000 C   0  0  0  0  0  0  0  0  0  0  0  0
   -2.1040   -1.1782   -0.0012 H   0  0  0  0  0  0  0  0  0  0  0  0
   -0.0067   -1.4336    0.0016 C   0  0  0  0  0  0  0  0  0  0  0  0
   -0.0166   -2.4181    0.0032 H   0  0  0  0  0  0  0  0  0  0  0  0
    1.2330   -0.7249   -0.0000 C   0  0  0  0  0  0  0  0  0  0  0  0
    2.0975   -1.2120    0.0070 H   0  0  0  0  0  0  0  0  0  0  0  0
    1.2140    0.7021   -0.0096 C   0  0  0  0  0  0  0  0  0  0  0  0
    2.0814    1.1928   -0.0287 H   0  0  0  0  0  0  0  0  0  0  0  0
  1  5  1  0
  5  6  1  0
  5  7  2  0
  1  2  1  0
  1  3  1  0
  1  4  1  0
  8 12  1  0
 12 13  2  0
 13 15  1  0
 15 17  2  0
 17 19  1  0
 19 21  2  0
 21 12  1  0
  8  9  1  0
  8 10  1  0
  8 11  1  0
 13 14  1  0
 15 16  1  0
 17 18  1  0
 19 20  1  0
 21 22  1  0
M  CHG  1   6  -1
M  END
>  <PDB_ID>  (1176) 
pdb1xks

>  <RESIDUE_NAME>  (1176) 
GLU   PHE

>  <FRAG_NAME>  (1176) 
ACET   MBZ

>  <FRAG_ATOM_NUM>  (1176) 
fragi: 7  fragj: 15

>  <atom.prop.CHAIN_ID>  (1176) 
A A A A A A A Z Z Z Z Z Z Z Z Z Z Z Z Z Z Z

>  <atom.prop.IS_HEAVY_ATOM>  (1176) 
1 0 0 0 1 1 1 1 0 0 0 1 1 0 1 0 1 0 1 0 1 0

>  <DIFUSE_FUNC_ATOM>  (1176) 
atom 6   atom 7   

>  <FINAL_SINGLE_POINT_ENERGY>  (1176) 
0

>  <NONCOV_INTER_ENERGY_QM>  (1176) 
0

>  <FF_Energy>  (1176) 
-2.18

>  <QM_Energy>  (1176) 
-8.5

>  <source>  (1176) 
ACET_MBZ_01

>  <Index>  (1176) 
4810

$$$$
ACET-pdb1xkn-A-ASP-161:MBZ-pdb1xkn-A-PHE-224
     RDKit          3D

 22 21  0  0  0  0  0  0  0  0999 V2000
    5.1775    2.5705   -1.8279 C   0  0  0  0  0  0  0  0  0  0  0  0
    5.7783    2.9598   -2.5161 H   0  0  0  0  0  0  0  0  0  0  0  0
    4.7661    1.7305   -2.1580 H   0  0  0  0  0  0  0  0  0  0  0  0
    5.7803    2.3296   -0.9522 H   0  0  0  0  0  0  0  0  0  0  0  0
    4.0751    3.5679   -1.5216 C   0  0  0  0  0  0  0  0  0  0  0  0
    2.9722    3.1384   -1.1298 O   0  0  0  0  0  1  0  0  0  0  0  0
    4.3242    4.7837   -1.6590 O   0  0  0  0  0  0  0  0  0  0  0  0
   -0.0052    2.8977   -0.0276 C   0  0  0  0  0  0  0  0  0  0  0  0
    0.9234    3.2126    0.1074 H   0  0  0  0  0  0  0  0  0  0  0  0
   -0.6003    3.2172    0.6957 H   0  0  0  0  0  0  0  0  0  0  0  0
   -0.3655    3.3239   -0.9639 H   0  0  0  0  0  0  0  0  0  0  0  0
   -0.0000    1.3992   -0.0014 C   0  0  0  0  0  0  0  0  0  0  0  0
   -1.1999    0.6896    0.0008 C   0  0  0  0  0  0  0  0  0  0  0  0
   -2.0650    1.1813    0.0019 H   0  0  0  0  0  0  0  0  0  0  0  0
   -1.2052   -0.7017    0.0000 C   0  0  0  0  0  0  0  0  0  0  0  0
   -2.0789   -1.1965    0.0005 H   0  0  0  0  0  0  0  0  0  0  0  0
    0.0004   -1.3940   -0.0004 C   0  0  0  0  0  0  0  0  0  0  0  0
    0.0027   -2.3910   -0.0015 H   0  0  0  0  0  0  0  0  0  0  0  0
    1.2052   -0.6892   -0.0000 C   0  0  0  0  0  0  0  0  0  0  0  0
    2.0858   -1.1908    0.0011 H   0  0  0  0  0  0  0  0  0  0  0  0
    1.1995    0.6961    0.0011 C   0  0  0  0  0  0  0  0  0  0  0  0
    2.0649    1.1971    0.0032 H   0  0  0  0  0  0  0  0  0  0  0  0
  1  5  1  0
  5  6  1  0
  5  7  2  0
  1  2  1  0
  1  3  1  0
  1  4  1  0
  8 12  1  0
 12 13  2  0
 13 15  1  0
 15 17  2  0
 17 19  1  0
 19 21  2  0
 21 12  1  0
  8  9  1  0
  8 10  1  0
  8 11  1  0
 13 14  1  0
 15 16  1  0
 17 18  1  0
 19 20  1  0
 21 22  1  0
M  CHG  1   6  -1
M  END
>  <PDB_ID>  (1177) 
pdb1xkn

>  <RESIDUE_NAME>  (1177) 
ASP   PHE

>  <FRAG_NAME>  (1177) 
ACET   MBZ

>  <FRAG_ATOM_NUM>  (1177) 
fragi: 7  fragj: 15

>  <atom.prop.CHAIN_ID>  (1177) 
A A A A A A A Z Z Z Z Z Z Z Z Z Z Z Z Z Z Z

>  <atom.prop.IS_HEAVY_ATOM>  (1177) 
1 0 0 0 1 1 1 1 0 0 0 1 1 0 1 0 1 0 1 0 1 0

>  <DIFUSE_FUNC_ATOM>  (1177) 
atom 6   atom 7   

>  <FINAL_SINGLE_POINT_ENERGY>  (1177) 
0

>  <NONCOV_INTER_ENERGY_QM>  (1177) 
0

>  <FF_Energy>  (1177) 
-0.95

>  <QM_Energy>  (1177) 
-7.6

>  <source>  (1177) 
ACET_MBZ_01

>  <Index>  (1177) 
4827

$$$$
ACET-pdb3bgh-B-GLU-229:MBZ-pdb3bgh-B-PHE-169
     RDKit          3D

 22 21  0  0  0  0  0  0  0  0999 V2000
    0.6819   -0.6872    3.0263 C   0  0  0  0  0  0  0  0  0  0  0  0
    0.9283   -1.6429    3.1372 H   0  0  0  0  0  0  0  0  0  0  0  0
    0.3906   -0.5093    2.0930 H   0  0  0  0  0  0  0  0  0  0  0  0
   -0.1433   -0.4584    3.7008 H   0  0  0  0  0  0  0  0  0  0  0  0
    1.9281    0.1266    3.2680 C   0  0  0  0  0  0  0  0  0  0  0  0
    1.8446    1.3833    3.2444 O   0  0  0  0  0  1  0  0  0  0  0  0
    3.0017   -0.4907    3.4210 O   0  0  0  0  0  0  0  0  0  0  0  0
    0.0293    2.9319   -0.0240 C   0  0  0  0  0  0  0  0  0  0  0  0
    0.6555    3.2375    0.6744 H   0  0  0  0  0  0  0  0  0  0  0  0
   -0.8896    3.2483    0.1447 H   0  0  0  0  0  0  0  0  0  0  0  0
    0.3583    3.3474   -0.9764 H   0  0  0  0  0  0  0  0  0  0  0  0
    0.0091    1.4176    0.0024 C   0  0  0  0  0  0  0  0  0  0  0  0
   -1.2069    0.7148   -0.0080 C   0  0  0  0  0  0  0  0  0  0  0  0
   -2.0655    1.1924   -0.0219 H   0  0  0  0  0  0  0  0  0  0  0  0
   -1.2101   -0.7135    0.0000 C   0  0  0  0  0  0  0  0  0  0  0  0
   -2.0875   -1.1912    0.0081 H   0  0  0  0  0  0  0  0  0  0  0  0
   -0.0046   -1.4098   -0.0014 C   0  0  0  0  0  0  0  0  0  0  0  0
    0.0003   -2.4044   -0.0036 H   0  0  0  0  0  0  0  0  0  0  0  0
    1.2101   -0.7009   -0.0000 C   0  0  0  0  0  0  0  0  0  0  0  0
    2.0865   -1.2011   -0.0028 H   0  0  0  0  0  0  0  0  0  0  0  0
    1.2024    0.6918    0.0069 C   0  0  0  0  0  0  0  0  0  0  0  0
    2.0753    1.1882    0.0141 H   0  0  0  0  0  0  0  0  0  0  0  0
  1  5  1  0
  5  6  1  0
  5  7  2  0
  1  2  1  0
  1  3  1  0
  1  4  1  0
  8 12  1  0
 12 13  2  0
 13 15  1  0
 15 17  2  0
 17 19  1  0
 19 21  2  0
 21 12  1  0
  8  9  1  0
  8 10  1  0
  8 11  1  0
 13 14  1  0
 15 16  1  0
 17 18  1  0
 19 20  1  0
 21 22  1  0
M  CHG  1   6  -1
M  END
>  <PDB_ID>  (1178) 
pdb3bgh

>  <RESIDUE_NAME>  (1178) 
GLU   PHE

>  <FRAG_NAME>  (1178) 
ACET   MBZ

>  <FRAG_ATOM_NUM>  (1178) 
fragi: 7  fragj: 15

>  <atom.prop.CHAIN_ID>  (1178) 
A A A A A A A Z Z Z Z Z Z Z Z Z Z Z Z Z Z Z

>  <atom.prop.IS_HEAVY_ATOM>  (1178) 
1 0 0 0 1 1 1 1 0 0 0 1 1 0 1 0 1 0 1 0 1 0

>  <DIFUSE_FUNC_ATOM>  (1178) 
atom 6   atom 7   

>  <FINAL_SINGLE_POINT_ENERGY>  (1178) 
0

>  <NONCOV_INTER_ENERGY_QM>  (1178) 
0

>  <FF_Energy>  (1178) 
9.15

>  <QM_Energy>  (1178) 
-0.02

>  <source>  (1178) 
ACET_MBZ_01

>  <Index>  (1178) 
4832

$$$$
ACET-pdb3bh8-B-GLU-69:MBZ-pdb3bh8-B-PHE-22
     RDKit          3D

 22 21  0  0  0  0  0  0  0  0999 V2000
    1.5691   -1.5302    2.9138 C   0  0  0  0  0  0  0  0  0  0  0  0
    1.0703   -1.1454    2.1437 H   0  0  0  0  0  0  0  0  0  0  0  0
    2.5492   -1.4281    2.7730 H   0  0  0  0  0  0  0  0  0  0  0  0
    1.2939   -0.9720    3.8087 H   0  0  0  0  0  0  0  0  0  0  0  0
    1.2676   -2.9984    2.9634 C   0  0  0  0  0  0  0  0  0  0  0  0
    0.2919   -3.4060    3.6374 O   0  0  0  0  0  1  0  0  0  0  0  0
    2.0143   -3.7364    2.2947 O   0  0  0  0  0  0  0  0  0  0  0  0
    0.0202    2.9049   -0.0189 C   0  0  0  0  0  0  0  0  0  0  0  0
   -0.6752    3.2070   -0.6539 H   0  0  0  0  0  0  0  0  0  0  0  0
    0.9196    3.1996   -0.3056 H   0  0  0  0  0  0  0  0  0  0  0  0
   -0.1880    3.3684    0.9454 H   0  0  0  0  0  0  0  0  0  0  0  0
    0.0072    1.4041    0.0087 C   0  0  0  0  0  0  0  0  0  0  0  0
   -1.2005    0.7120   -0.0126 C   0  0  0  0  0  0  0  0  0  0  0  0
   -2.0599    1.2019   -0.0381 H   0  0  0  0  0  0  0  0  0  0  0  0
   -1.2159   -0.6961    0.0000 C   0  0  0  0  0  0  0  0  0  0  0  0
   -2.0970   -1.1753    0.0134 H   0  0  0  0  0  0  0  0  0  0  0  0
   -0.0186   -1.4032   -0.0041 C   0  0  0  0  0  0  0  0  0  0  0  0
   -0.0204   -2.3982   -0.0101 H   0  0  0  0  0  0  0  0  0  0  0  0
    1.2159   -0.7084   -0.0000 C   0  0  0  0  0  0  0  0  0  0  0  0
    2.0798   -1.2139   -0.0020 H   0  0  0  0  0  0  0  0  0  0  0  0
    1.2119    0.6915    0.0081 C   0  0  0  0  0  0  0  0  0  0  0  0
    2.0771    1.1865    0.0125 H   0  0  0  0  0  0  0  0  0  0  0  0
  1  5  1  0
  5  6  1  0
  5  7  2  0
  1  2  1  0
  1  3  1  0
  1  4  1  0
  8 12  1  0
 12 13  2  0
 13 15  1  0
 15 17  2  0
 17 19  1  0
 19 21  2  0
 21 12  1  0
  8  9  1  0
  8 10  1  0
  8 11  1  0
 13 14  1  0
 15 16  1  0
 17 18  1  0
 19 20  1  0
 21 22  1  0
M  CHG  1   6  -1
M  END
>  <PDB_ID>  (1179) 
pdb3bh8

>  <RESIDUE_NAME>  (1179) 
GLU   PHE

>  <FRAG_NAME>  (1179) 
ACET   MBZ

>  <FRAG_ATOM_NUM>  (1179) 
fragi: 7  fragj: 15

>  <atom.prop.CHAIN_ID>  (1179) 
A A A A A A A Z Z Z Z Z Z Z Z Z Z Z Z Z Z Z

>  <atom.prop.IS_HEAVY_ATOM>  (1179) 
1 0 0 0 1 1 1 1 0 0 0 1 1 0 1 0 1 0 1 0 1 0

>  <DIFUSE_FUNC_ATOM>  (1179) 
atom 6   atom 7   

>  <FINAL_SINGLE_POINT_ENERGY>  (1179) 
0

>  <NONCOV_INTER_ENERGY_QM>  (1179) 
0

>  <FF_Energy>  (1179) 
6.36

>  <QM_Energy>  (1179) 
0.51

>  <source>  (1179) 
ACET_MBZ_01

>  <Index>  (1179) 
4879

$$$$
ACET-pdb3bjd-C-GLU-217:MBZ-pdb3bjd-C-PHE-149
     RDKit          3D

 22 21  0  0  0  0  0  0  0  0999 V2000
    0.3134    2.6868    4.1267 C   0  0  0  0  0  0  0  0  0  0  0  0
   -0.5067    2.1804    4.0194 H   0  0  0  0  0  0  0  0  0  0  0  0
    0.2502    3.6178    3.8621 H   0  0  0  0  0  0  0  0  0  0  0  0
    0.6189    2.6389    5.1719 H   0  0  0  0  0  0  0  0  0  0  0  0
    1.3744    2.0359    3.2755 C   0  0  0  0  0  0  0  0  0  0  0  0
    1.5367    0.7871    3.3830 O   0  0  0  0  0  1  0  0  0  0  0  0
    2.1061    2.7593    2.5751 O   0  0  0  0  0  0  0  0  0  0  0  0
   -0.0088    2.9168   -0.0089 C   0  0  0  0  0  0  0  0  0  0  0  0
    0.8933    3.2297    0.2384 H   0  0  0  0  0  0  0  0  0  0  0  0
   -0.6905    3.2228    0.6349 H   0  0  0  0  0  0  0  0  0  0  0  0
   -0.2551    3.3376   -0.9838 H   0  0  0  0  0  0  0  0  0  0  0  0
   -0.0002    1.4183   -0.0024 C   0  0  0  0  0  0  0  0  0  0  0  0
   -1.2123    0.6976    0.0086 C   0  0  0  0  0  0  0  0  0  0  0  0
   -2.0742    1.1885    0.0217 H   0  0  0  0  0  0  0  0  0  0  0  0
   -1.2197   -0.7066   -0.0000 C   0  0  0  0  0  0  0  0  0  0  0  0
   -2.0858   -1.2020   -0.0109 H   0  0  0  0  0  0  0  0  0  0  0  0
    0.0067   -1.4157    0.0094 C   0  0  0  0  0  0  0  0  0  0  0  0
   -0.0023   -2.4074    0.0216 H   0  0  0  0  0  0  0  0  0  0  0  0
    1.2197   -0.7110   -0.0000 C   0  0  0  0  0  0  0  0  0  0  0  0
    2.0980   -1.1902    0.0056 H   0  0  0  0  0  0  0  0  0  0  0  0
    1.2059    0.7175   -0.0156 C   0  0  0  0  0  0  0  0  0  0  0  0
    2.0713    1.2029   -0.0361 H   0  0  0  0  0  0  0  0  0  0  0  0
  1  5  1  0
  5  6  1  0
  5  7  2  0
  1  2  1  0
  1  3  1  0
  1  4  1  0
  8 12  1  0
 12 13  2  0
 13 15  1  0
 15 17  2  0
 17 19  1  0
 19 21  2  0
 21 12  1  0
  8  9  1  0
  8 10  1  0
  8 11  1  0
 13 14  1  0
 15 16  1  0
 17 18  1  0
 19 20  1  0
 21 22  1  0
M  CHG  1   6  -1
M  END
>  <PDB_ID>  (1180) 
pdb3bjd

>  <RESIDUE_NAME>  (1180) 
GLU   PHE

>  <FRAG_NAME>  (1180) 
ACET   MBZ

>  <FRAG_ATOM_NUM>  (1180) 
fragi: 7  fragj: 15

>  <atom.prop.CHAIN_ID>  (1180) 
A A A A A A A Z Z Z Z Z Z Z Z Z Z Z Z Z Z Z

>  <atom.prop.IS_HEAVY_ATOM>  (1180) 
1 0 0 0 1 1 1 1 0 0 0 1 1 0 1 0 1 0 1 0 1 0

>  <DIFUSE_FUNC_ATOM>  (1180) 
atom 6   atom 7   

>  <FINAL_SINGLE_POINT_ENERGY>  (1180) 
0

>  <NONCOV_INTER_ENERGY_QM>  (1180) 
0

>  <FF_Energy>  (1180) 
1.13

>  <QM_Energy>  (1180) 
-4.13

>  <source>  (1180) 
ACET_MBZ_01

>  <Index>  (1180) 
5073

$$$$
ACET-pdb1xq5-A-GLU-86:MBZ-pdb1xq5-A-PHE-90
     RDKit          3D

 22 21  0  0  0  0  0  0  0  0999 V2000
   -5.8155    0.2951   -1.2115 C   0  0  0  0  0  0  0  0  0  0  0  0
   -6.2442   -0.3728   -0.6400 H   0  0  0  0  0  0  0  0  0  0  0  0
   -6.2979    0.4520   -2.0474 H   0  0  0  0  0  0  0  0  0  0  0  0
   -5.7669    1.2349   -0.6616 H   0  0  0  0  0  0  0  0  0  0  0  0
   -4.4276   -0.2314   -1.5739 C   0  0  0  0  0  0  0  0  0  0  0  0
   -4.2604   -1.4546   -1.7168 O   0  0  0  0  0  1  0  0  0  0  0  0
   -3.5080    0.5903   -1.7344 O   0  0  0  0  0  0  0  0  0  0  0  0
    0.0009    2.9235    0.0472 C   0  0  0  0  0  0  0  0  0  0  0  0
   -0.8817    3.2422   -0.2464 H   0  0  0  0  0  0  0  0  0  0  0  0
    0.7256    3.2487   -0.5331 H   0  0  0  0  0  0  0  0  0  0  0  0
    0.1782    3.3179    1.0478 H   0  0  0  0  0  0  0  0  0  0  0  0
   -0.0021    1.4159   -0.0014 C   0  0  0  0  0  0  0  0  0  0  0  0
   -1.1976    0.6997    0.0094 C   0  0  0  0  0  0  0  0  0  0  0  0
   -2.0679    1.1792    0.0224 H   0  0  0  0  0  0  0  0  0  0  0  0
   -1.2017   -0.7118    0.0000 C   0  0  0  0  0  0  0  0  0  0  0  0
   -2.0768   -1.1979    0.0086 H   0  0  0  0  0  0  0  0  0  0  0  0
    0.0050   -1.4061   -0.0187 C   0  0  0  0  0  0  0  0  0  0  0  0
    0.0053   -2.4015   -0.0455 H   0  0  0  0  0  0  0  0  0  0  0  0
    1.2017   -0.6988    0.0000 C   0  0  0  0  0  0  0  0  0  0  0  0
    2.0877   -1.1898    0.0076 H   0  0  0  0  0  0  0  0  0  0  0  0
    1.1947    0.7012    0.0107 C   0  0  0  0  0  0  0  0  0  0  0  0
    2.0652    1.1941    0.0268 H   0  0  0  0  0  0  0  0  0  0  0  0
  1  5  1  0
  5  6  1  0
  5  7  2  0
  1  2  1  0
  1  3  1  0
  1  4  1  0
  8 12  1  0
 12 13  2  0
 13 15  1  0
 15 17  2  0
 17 19  1  0
 19 21  2  0
 21 12  1  0
  8  9  1  0
  8 10  1  0
  8 11  1  0
 13 14  1  0
 15 16  1  0
 17 18  1  0
 19 20  1  0
 21 22  1  0
M  CHG  1   6  -1
M  END
>  <PDB_ID>  (1181) 
pdb1xq5

>  <RESIDUE_NAME>  (1181) 
GLU   PHE

>  <FRAG_NAME>  (1181) 
ACET   MBZ

>  <FRAG_ATOM_NUM>  (1181) 
fragi: 7  fragj: 15

>  <atom.prop.CHAIN_ID>  (1181) 
A A A A A A A Z Z Z Z Z Z Z Z Z Z Z Z Z Z Z

>  <atom.prop.IS_HEAVY_ATOM>  (1181) 
1 0 0 0 1 1 1 1 0 0 0 1 1 0 1 0 1 0 1 0 1 0

>  <DIFUSE_FUNC_ATOM>  (1181) 
atom 6   atom 7   

>  <FINAL_SINGLE_POINT_ENERGY>  (1181) 
0

>  <NONCOV_INTER_ENERGY_QM>  (1181) 
0

>  <FF_Energy>  (1181) 
0.08

>  <QM_Energy>  (1181) 
-5.29

>  <source>  (1181) 
ACET_MBZ_01

>  <Index>  (1181) 
5114

$$$$
ACET-pdb3bkr-A-ASP-114:MBZ-pdb3bkr-A-PHE-92
     RDKit          3D

 22 21  0  0  0  0  0  0  0  0999 V2000
    5.0415    3.7833   -1.2624 C   0  0  0  0  0  0  0  0  0  0  0  0
    5.2659    4.2763   -0.4226 H   0  0  0  0  0  0  0  0  0  0  0  0
    5.4208    4.2692   -2.0481 H   0  0  0  0  0  0  0  0  0  0  0  0
    5.5127    2.8016   -1.2128 H   0  0  0  0  0  0  0  0  0  0  0  0
    3.5180    3.7497   -1.4075 C   0  0  0  0  0  0  0  0  0  0  0  0
    2.8923    2.7035   -1.7298 O   0  0  0  0  0  1  0  0  0  0  0  0
    2.9248    4.8556   -1.2159 O   0  0  0  0  0  0  0  0  0  0  0  0
   -0.0283    2.9119    0.0130 C   0  0  0  0  0  0  0  0  0  0  0  0
    0.9062    3.2279    0.0676 H   0  0  0  0  0  0  0  0  0  0  0  0
   -0.5532    3.2038    0.7982 H   0  0  0  0  0  0  0  0  0  0  0  0
   -0.4810    3.3498   -0.8766 H   0  0  0  0  0  0  0  0  0  0  0  0
   -0.0060    1.4033    0.0066 C   0  0  0  0  0  0  0  0  0  0  0  0
   -1.1890    0.6969    0.0033 C   0  0  0  0  0  0  0  0  0  0  0  0
   -2.0634    1.1735    0.0021 H   0  0  0  0  0  0  0  0  0  0  0  0
   -1.1910   -0.7081   -0.0000 C   0  0  0  0  0  0  0  0  0  0  0  0
   -2.0714   -1.1933    0.0100 H   0  0  0  0  0  0  0  0  0  0  0  0
    0.0030   -1.3981   -0.0146 C   0  0  0  0  0  0  0  0  0  0  0  0
    0.0068   -2.3958   -0.0360 H   0  0  0  0  0  0  0  0  0  0  0  0
    1.1910   -0.6920    0.0000 C   0  0  0  0  0  0  0  0  0  0  0  0
    2.0811   -1.1877    0.0094 H   0  0  0  0  0  0  0  0  0  0  0  0
    1.1920    0.6980    0.0047 C   0  0  0  0  0  0  0  0  0  0  0  0
    2.0583    1.1922    0.0062 H   0  0  0  0  0  0  0  0  0  0  0  0
  1  5  1  0
  5  6  1  0
  5  7  2  0
  1  2  1  0
  1  3  1  0
  1  4  1  0
  8 12  1  0
 12 13  2  0
 13 15  1  0
 15 17  2  0
 17 19  1  0
 19 21  2  0
 21 12  1  0
  8  9  1  0
  8 10  1  0
  8 11  1  0
 13 14  1  0
 15 16  1  0
 17 18  1  0
 19 20  1  0
 21 22  1  0
M  CHG  1   6  -1
M  END
>  <PDB_ID>  (1182) 
pdb3bkr

>  <RESIDUE_NAME>  (1182) 
ASP   PHE

>  <FRAG_NAME>  (1182) 
ACET   MBZ

>  <FRAG_ATOM_NUM>  (1182) 
fragi: 7  fragj: 15

>  <atom.prop.CHAIN_ID>  (1182) 
A A A A A A A Z Z Z Z Z Z Z Z Z Z Z Z Z Z Z

>  <atom.prop.IS_HEAVY_ATOM>  (1182) 
1 0 0 0 1 1 1 1 0 0 0 1 1 0 1 0 1 0 1 0 1 0

>  <DIFUSE_FUNC_ATOM>  (1182) 
atom 6   atom 7   

>  <FINAL_SINGLE_POINT_ENERGY>  (1182) 
0

>  <NONCOV_INTER_ENERGY_QM>  (1182) 
0

>  <FF_Energy>  (1182) 
-1.1

>  <QM_Energy>  (1182) 
-7.32

>  <source>  (1182) 
ACET_MBZ_01

>  <Index>  (1182) 
5186

$$$$
ACET-pdb1xse-A-GLU-293:MBZ-pdb1xse-B-PHE-128
     RDKit          3D

 22 21  0  0  0  0  0  0  0  0999 V2000
   -4.4263    1.0613   -1.6423 C   0  0  0  0  0  0  0  0  0  0  0  0
   -3.7416    0.4836   -2.0496 H   0  0  0  0  0  0  0  0  0  0  0  0
   -5.2151    1.1647   -2.2225 H   0  0  0  0  0  0  0  0  0  0  0  0
   -4.7436    0.6106   -0.7019 H   0  0  0  0  0  0  0  0  0  0  0  0
   -3.8092    2.4419   -1.4673 C   0  0  0  0  0  0  0  0  0  0  0  0
   -3.7920    2.9786   -0.3322 O   0  0  0  0  0  1  0  0  0  0  0  0
   -3.3232    2.9854   -2.4831 O   0  0  0  0  0  0  0  0  0  0  0  0
    0.0080    2.8790    0.0202 C   0  0  0  0  0  0  0  0  0  0  0  0
   -0.9265    3.1990    0.0389 H   0  0  0  0  0  0  0  0  0  0  0  0
    0.4846    3.2004   -0.7825 H   0  0  0  0  0  0  0  0  0  0  0  0
    0.5148    3.2937    0.8915 H   0  0  0  0  0  0  0  0  0  0  0  0
   -0.0015    1.3921    0.0001 C   0  0  0  0  0  0  0  0  0  0  0  0
   -1.1921    0.6986    0.0110 C   0  0  0  0  0  0  0  0  0  0  0  0
   -2.0589    1.1936    0.0258 H   0  0  0  0  0  0  0  0  0  0  0  0
   -1.1994   -0.6796   -0.0000 C   0  0  0  0  0  0  0  0  0  0  0  0
   -2.0819   -1.1744   -0.0006 H   0  0  0  0  0  0  0  0  0  0  0  0
   -0.0078   -1.3868   -0.0090 C   0  0  0  0  0  0  0  0  0  0  0  0
   -0.0203   -2.3853   -0.0225 H   0  0  0  0  0  0  0  0  0  0  0  0
    1.1994   -0.7019   -0.0000 C   0  0  0  0  0  0  0  0  0  0  0  0
    2.0748   -1.2102    0.0101 H   0  0  0  0  0  0  0  0  0  0  0  0
    1.2014    0.6776   -0.0021 C   0  0  0  0  0  0  0  0  0  0  0  0
    2.0654    1.1790   -0.0065 H   0  0  0  0  0  0  0  0  0  0  0  0
  1  5  1  0
  5  6  1  0
  5  7  2  0
  1  2  1  0
  1  3  1  0
  1  4  1  0
  8 12  1  0
 12 13  2  0
 13 15  1  0
 15 17  2  0
 17 19  1  0
 19 21  2  0
 21 12  1  0
  8  9  1  0
  8 10  1  0
  8 11  1  0
 13 14  1  0
 15 16  1  0
 17 18  1  0
 19 20  1  0
 21 22  1  0
M  CHG  1   6  -1
M  END
>  <PDB_ID>  (1183) 
pdb1xse

>  <RESIDUE_NAME>  (1183) 
GLU   PHE

>  <FRAG_NAME>  (1183) 
ACET   MBZ

>  <FRAG_ATOM_NUM>  (1183) 
fragi: 7  fragj: 15

>  <atom.prop.CHAIN_ID>  (1183) 
A A A A A A A Z Z Z Z Z Z Z Z Z Z Z Z Z Z Z

>  <atom.prop.IS_HEAVY_ATOM>  (1183) 
1 0 0 0 1 1 1 1 0 0 0 1 1 0 1 0 1 0 1 0 1 0

>  <DIFUSE_FUNC_ATOM>  (1183) 
atom 6   atom 7   

>  <FINAL_SINGLE_POINT_ENERGY>  (1183) 
0

>  <NONCOV_INTER_ENERGY_QM>  (1183) 
0

>  <FF_Energy>  (1183) 
-1.81

>  <QM_Energy>  (1183) 
-7.71

>  <source>  (1183) 
ACET_MBZ_01

>  <Index>  (1183) 
5213

$$$$
ACET-pdb3bm3-A-GLU-71:MBZ-pdb3bm3-A-PHE-92
     RDKit          3D

 22 21  0  0  0  0  0  0  0  0999 V2000
   -0.0160    0.3462    3.5733 C   0  0  0  0  0  0  0  0  0  0  0  0
    0.7483   -0.2054    3.2901 H   0  0  0  0  0  0  0  0  0  0  0  0
   -0.7075    0.4061    2.8748 H   0  0  0  0  0  0  0  0  0  0  0  0
   -0.4588   -0.1091    4.4592 H   0  0  0  0  0  0  0  0  0  0  0  0
    0.4896    1.7305    3.8387 C   0  0  0  0  0  0  0  0  0  0  0  0
    1.5326    1.8522    4.5056 O   0  0  0  0  0  1  0  0  0  0  0  0
   -0.1542    2.6915    3.3947 O   0  0  0  0  0  0  0  0  0  0  0  0
    0.0237    2.9016    0.0637 C   0  0  0  0  0  0  0  0  0  0  0  0
    0.8649    3.1996   -0.3811 H   0  0  0  0  0  0  0  0  0  0  0  0
    0.0382    3.1590    1.0264 H   0  0  0  0  0  0  0  0  0  0  0  0
   -0.8171    3.4035   -0.4150 H   0  0  0  0  0  0  0  0  0  0  0  0
   -0.0110    1.4002    0.0000 C   0  0  0  0  0  0  0  0  0  0  0  0
   -1.1934    0.6609   -0.0231 C   0  0  0  0  0  0  0  0  0  0  0  0
   -2.0714    1.1371   -0.0586 H   0  0  0  0  0  0  0  0  0  0  0  0
   -1.1832   -0.7345    0.0000 C   0  0  0  0  0  0  0  0  0  0  0  0
   -2.0505   -1.2329    0.0100 H   0  0  0  0  0  0  0  0  0  0  0  0
    0.0212   -1.3818    0.0098 C   0  0  0  0  0  0  0  0  0  0  0  0
    0.0505   -2.3868    0.0238 H   0  0  0  0  0  0  0  0  0  0  0  0
    1.1832   -0.6577    0.0000 C   0  0  0  0  0  0  0  0  0  0  0  0
    2.0891   -1.1535   -0.0166 H   0  0  0  0  0  0  0  0  0  0  0  0
    1.1832    0.7129    0.0133 C   0  0  0  0  0  0  0  0  0  0  0  0
    2.0464    1.2155    0.0315 H   0  0  0  0  0  0  0  0  0  0  0  0
  1  5  1  0
  5  6  1  0
  5  7  2  0
  1  2  1  0
  1  3  1  0
  1  4  1  0
  8 12  1  0
 12 13  2  0
 13 15  1  0
 15 17  2  0
 17 19  1  0
 19 21  2  0
 21 12  1  0
  8  9  1  0
  8 10  1  0
  8 11  1  0
 13 14  1  0
 15 16  1  0
 17 18  1  0
 19 20  1  0
 21 22  1  0
M  CHG  1   6  -1
M  END
>  <PDB_ID>  (1184) 
pdb3bm3

>  <RESIDUE_NAME>  (1184) 
GLU   PHE

>  <FRAG_NAME>  (1184) 
ACET   MBZ

>  <FRAG_ATOM_NUM>  (1184) 
fragi: 7  fragj: 15

>  <atom.prop.CHAIN_ID>  (1184) 
A A A A A A A Z Z Z Z Z Z Z Z Z Z Z Z Z Z Z

>  <atom.prop.IS_HEAVY_ATOM>  (1184) 
1 0 0 0 1 1 1 1 0 0 0 1 1 0 1 0 1 0 1 0 1 0

>  <DIFUSE_FUNC_ATOM>  (1184) 
atom 6   atom 7   

>  <FINAL_SINGLE_POINT_ENERGY>  (1184) 
0

>  <NONCOV_INTER_ENERGY_QM>  (1184) 
0

>  <FF_Energy>  (1184) 
-0.11

>  <QM_Energy>  (1184) 
-5.49

>  <source>  (1184) 
ACET_MBZ_01

>  <Index>  (1184) 
5236

$$$$
ACET-pdb3bm3-B-GLU-71:MBZ-pdb3bm3-B-PHE-92
     RDKit          3D

 22 21  0  0  0  0  0  0  0  0999 V2000
    0.0077    0.2843    3.4965 C   0  0  0  0  0  0  0  0  0  0  0  0
    0.7640   -0.2504    3.1700 H   0  0  0  0  0  0  0  0  0  0  0  0
   -0.6993    0.3860    2.8230 H   0  0  0  0  0  0  0  0  0  0  0  0
   -0.4110   -0.1990    4.3793 H   0  0  0  0  0  0  0  0  0  0  0  0
    0.5340    1.6671    3.8101 C   0  0  0  0  0  0  0  0  0  0  0  0
    1.5577    1.7435    4.4871 O   0  0  0  0  0  1  0  0  0  0  0  0
   -0.0813    2.6576    3.4029 O   0  0  0  0  0  0  0  0  0  0  0  0
    0.0357    2.9186    0.0717 C   0  0  0  0  0  0  0  0  0  0  0  0
    0.8426    3.2183   -0.4186 H   0  0  0  0  0  0  0  0  0  0  0  0
    0.0855    3.1753    1.0281 H   0  0  0  0  0  0  0  0  0  0  0  0
   -0.8322    3.4100   -0.3682 H   0  0  0  0  0  0  0  0  0  0  0  0
   -0.0115    1.4190    0.0025 C   0  0  0  0  0  0  0  0  0  0  0  0
   -1.2091    0.6955    0.0182 C   0  0  0  0  0  0  0  0  0  0  0  0
   -2.0803    1.1587    0.0406 H   0  0  0  0  0  0  0  0  0  0  0  0
   -1.2009   -0.7407    0.0000 C   0  0  0  0  0  0  0  0  0  0  0  0
   -2.0611   -1.2277   -0.0106 H   0  0  0  0  0  0  0  0  0  0  0  0
    0.0292   -1.4046    0.0005 C   0  0  0  0  0  0  0  0  0  0  0  0
    0.0410   -2.4072    0.0006 H   0  0  0  0  0  0  0  0  0  0  0  0
    1.2009   -0.6879   -0.0000 C   0  0  0  0  0  0  0  0  0  0  0  0
    2.1028   -1.1650    0.0161 H   0  0  0  0  0  0  0  0  0  0  0  0
    1.1914    0.7188   -0.0212 C   0  0  0  0  0  0  0  0  0  0  0  0
    2.0560    1.2116   -0.0547 H   0  0  0  0  0  0  0  0  0  0  0  0
  1  5  1  0
  5  6  1  0
  5  7  2  0
  1  2  1  0
  1  3  1  0
  1  4  1  0
  8 12  1  0
 12 13  2  0
 13 15  1  0
 15 17  2  0
 17 19  1  0
 19 21  2  0
 21 12  1  0
  8  9  1  0
  8 10  1  0
  8 11  1  0
 13 14  1  0
 15 16  1  0
 17 18  1  0
 19 20  1  0
 21 22  1  0
M  CHG  1   6  -1
M  END
>  <PDB_ID>  (1185) 
pdb3bm3

>  <RESIDUE_NAME>  (1185) 
GLU   PHE

>  <FRAG_NAME>  (1185) 
ACET   MBZ

>  <FRAG_ATOM_NUM>  (1185) 
fragi: 7  fragj: 15

>  <atom.prop.CHAIN_ID>  (1185) 
A A A A A A A Z Z Z Z Z Z Z Z Z Z Z Z Z Z Z

>  <atom.prop.IS_HEAVY_ATOM>  (1185) 
1 0 0 0 1 1 1 1 0 0 0 1 1 0 1 0 1 0 1 0 1 0

>  <DIFUSE_FUNC_ATOM>  (1185) 
atom 6   atom 7   

>  <FINAL_SINGLE_POINT_ENERGY>  (1185) 
0

>  <NONCOV_INTER_ENERGY_QM>  (1185) 
0

>  <FF_Energy>  (1185) 
0.02

>  <QM_Energy>  (1185) 
-5.29

>  <source>  (1185) 
ACET_MBZ_01

>  <Index>  (1185) 
5240

$$$$
ACET-pdb1xsz-B-ASP-314:MBZ-pdb1xsz-B-PHE-234
     RDKit          3D

 22 21  0  0  0  0  0  0  0  0999 V2000
    4.5205    2.2672   -0.4774 C   0  0  0  0  0  0  0  0  0  0  0  0
    3.9341    1.6214   -0.9502 H   0  0  0  0  0  0  0  0  0  0  0  0
    4.4106    2.1880    0.5045 H   0  0  0  0  0  0  0  0  0  0  0  0
    5.5551    2.0274   -0.7225 H   0  0  0  0  0  0  0  0  0  0  0  0
    4.1361    3.6739   -0.9006 C   0  0  0  0  0  0  0  0  0  0  0  0
    5.0532    4.5041   -1.1023 O   0  0  0  0  0  1  0  0  0  0  0  0
    2.9261    3.9603   -1.0165 O   0  0  0  0  0  0  0  0  0  0  0  0
    0.0031    2.8987    0.0067 C   0  0  0  0  0  0  0  0  0  0  0  0
   -0.9224    3.2097   -0.1530 H   0  0  0  0  0  0  0  0  0  0  0  0
    0.6135    3.2096   -0.7081 H   0  0  0  0  0  0  0  0  0  0  0  0
    0.3427    3.3358    0.9457 H   0  0  0  0  0  0  0  0  0  0  0  0
    0.0003    1.4009   -0.0001 C   0  0  0  0  0  0  0  0  0  0  0  0
   -1.1978    0.6949    0.0002 C   0  0  0  0  0  0  0  0  0  0  0  0
   -2.0634    1.1842   -0.0002 H   0  0  0  0  0  0  0  0  0  0  0  0
   -1.2017   -0.6985    0.0000 C   0  0  0  0  0  0  0  0  0  0  0  0
   -2.0781   -1.1910    0.0010 H   0  0  0  0  0  0  0  0  0  0  0  0
    0.0001   -1.3940   -0.0000 C   0  0  0  0  0  0  0  0  0  0  0  0
   -0.0030   -2.3928   -0.0005 H   0  0  0  0  0  0  0  0  0  0  0  0
    1.2017   -0.6972   -0.0000 C   0  0  0  0  0  0  0  0  0  0  0  0
    2.0825   -1.1949    0.0016 H   0  0  0  0  0  0  0  0  0  0  0  0
    1.1974    0.6939   -0.0001 C   0  0  0  0  0  0  0  0  0  0  0  0
    2.0650    1.1899   -0.0010 H   0  0  0  0  0  0  0  0  0  0  0  0
  1  5  1  0
  5  6  1  0
  5  7  2  0
  1  2  1  0
  1  3  1  0
  1  4  1  0
  8 12  1  0
 12 13  2  0
 13 15  1  0
 15 17  2  0
 17 19  1  0
 19 21  2  0
 21 12  1  0
  8  9  1  0
  8 10  1  0
  8 11  1  0
 13 14  1  0
 15 16  1  0
 17 18  1  0
 19 20  1  0
 21 22  1  0
M  CHG  1   6  -1
M  END
>  <PDB_ID>  (1186) 
pdb1xsz

>  <RESIDUE_NAME>  (1186) 
ASP   PHE

>  <FRAG_NAME>  (1186) 
ACET   MBZ

>  <FRAG_ATOM_NUM>  (1186) 
fragi: 7  fragj: 15

>  <atom.prop.CHAIN_ID>  (1186) 
A A A A A A A Z Z Z Z Z Z Z Z Z Z Z Z Z Z Z

>  <atom.prop.IS_HEAVY_ATOM>  (1186) 
1 0 0 0 1 1 1 1 0 0 0 1 1 0 1 0 1 0 1 0 1 0

>  <DIFUSE_FUNC_ATOM>  (1186) 
atom 6   atom 7   

>  <FINAL_SINGLE_POINT_ENERGY>  (1186) 
0

>  <NONCOV_INTER_ENERGY_QM>  (1186) 
0

>  <FF_Energy>  (1186) 
-1.38

>  <QM_Energy>  (1186) 
-6.39

>  <source>  (1186) 
ACET_MBZ_01

>  <Index>  (1186) 
5304

$$$$
ACET-pdb1xu7-C-ASP-132:MBZ-pdb1xu7-C-PHE-129
     RDKit          3D

 22 21  0  0  0  0  0  0  0  0999 V2000
   -4.0177   -0.5898    3.5383 C   0  0  0  0  0  0  0  0  0  0  0  0
   -4.9394   -0.7718    3.2132 H   0  0  0  0  0  0  0  0  0  0  0  0
   -4.0336   -0.3175    4.4938 H   0  0  0  0  0  0  0  0  0  0  0  0
   -3.4502   -1.5175    3.4658 H   0  0  0  0  0  0  0  0  0  0  0  0
   -3.4217    0.5379    2.7152 C   0  0  0  0  0  0  0  0  0  0  0  0
   -2.4133    1.1361    3.1610 O   0  0  0  0  0  1  0  0  0  0  0  0
   -3.9089    0.9113    1.6215 O   0  0  0  0  0  0  0  0  0  0  0  0
    0.0006    2.9066    0.0141 C   0  0  0  0  0  0  0  0  0  0  0  0
   -0.6952    3.2170   -0.6135 H   0  0  0  0  0  0  0  0  0  0  0  0
    0.8983    3.2148   -0.2546 H   0  0  0  0  0  0  0  0  0  0  0  0
   -0.2193    3.3296    0.9943 H   0  0  0  0  0  0  0  0  0  0  0  0
    0.0021    1.4014   -0.0010 C   0  0  0  0  0  0  0  0  0  0  0  0
   -1.1954    0.6941    0.0000 C   0  0  0  0  0  0  0  0  0  0  0  0
   -2.0614    1.1843   -0.0004 H   0  0  0  0  0  0  0  0  0  0  0  0
   -1.2009   -0.6985   -0.0000 C   0  0  0  0  0  0  0  0  0  0  0  0
   -2.0792   -1.1894    0.0058 H   0  0  0  0  0  0  0  0  0  0  0  0
   -0.0039   -1.3928   -0.0056 C   0  0  0  0  0  0  0  0  0  0  0  0
   -0.0048   -2.3930   -0.0141 H   0  0  0  0  0  0  0  0  0  0  0  0
    1.2009   -0.6967    0.0000 C   0  0  0  0  0  0  0  0  0  0  0  0
    2.0795   -1.1970    0.0010 H   0  0  0  0  0  0  0  0  0  0  0  0
    1.1972    0.6925    0.0066 C   0  0  0  0  0  0  0  0  0  0  0  0
    2.0660    1.1880    0.0161 H   0  0  0  0  0  0  0  0  0  0  0  0
  1  5  1  0
  5  6  1  0
  5  7  2  0
  1  2  1  0
  1  3  1  0
  1  4  1  0
  8 12  1  0
 12 13  2  0
 13 15  1  0
 15 17  2  0
 17 19  1  0
 19 21  2  0
 21 12  1  0
  8  9  1  0
  8 10  1  0
  8 11  1  0
 13 14  1  0
 15 16  1  0
 17 18  1  0
 19 20  1  0
 21 22  1  0
M  CHG  1   6  -1
M  END
>  <PDB_ID>  (1187) 
pdb1xu7

>  <RESIDUE_NAME>  (1187) 
ASP   PHE

>  <FRAG_NAME>  (1187) 
ACET   MBZ

>  <FRAG_ATOM_NUM>  (1187) 
fragi: 7  fragj: 15

>  <atom.prop.CHAIN_ID>  (1187) 
A A A A A A A Z Z Z Z Z Z Z Z Z Z Z Z Z Z Z

>  <atom.prop.IS_HEAVY_ATOM>  (1187) 
1 0 0 0 1 1 1 1 0 0 0 1 1 0 1 0 1 0 1 0 1 0

>  <DIFUSE_FUNC_ATOM>  (1187) 
atom 6   atom 7   

>  <FINAL_SINGLE_POINT_ENERGY>  (1187) 
0

>  <NONCOV_INTER_ENERGY_QM>  (1187) 
0

>  <FF_Energy>  (1187) 
-0.27

>  <QM_Energy>  (1187) 
-5.68

>  <source>  (1187) 
ACET_MBZ_01

>  <Index>  (1187) 
5428

$$$$
ACET-pdb3bo5-A-ASP-265:MBZ-pdb3bo5-A-PHE-286
     RDKit          3D

 22 21  0  0  0  0  0  0  0  0999 V2000
   -0.1828    1.7485    3.5738 C   0  0  0  0  0  0  0  0  0  0  0  0
    0.1898    1.0565    4.1910 H   0  0  0  0  0  0  0  0  0  0  0  0
   -0.4855    1.3141    2.7274 H   0  0  0  0  0  0  0  0  0  0  0  0
   -1.0513    2.1990    4.0541 H   0  0  0  0  0  0  0  0  0  0  0  0
    0.9137    2.7399    3.2426 C   0  0  0  0  0  0  0  0  0  0  0  0
    0.5819    3.9191    2.9927 O   0  0  0  0  0  1  0  0  0  0  0  0
    2.1364    2.2854    3.1650 O   0  0  0  0  0  0  0  0  0  0  0  0
    0.0256    2.8896    0.0224 C   0  0  0  0  0  0  0  0  0  0  0  0
    0.9543    3.1863    0.2266 H   0  0  0  0  0  0  0  0  0  0  0  0
   -0.5972    3.1970    0.7355 H   0  0  0  0  0  0  0  0  0  0  0  0
   -0.2756    3.3768   -0.9050 H   0  0  0  0  0  0  0  0  0  0  0  0
    0.0020    1.4155   -0.0190 C   0  0  0  0  0  0  0  0  0  0  0  0
   -1.2109    0.7002    0.0054 C   0  0  0  0  0  0  0  0  0  0  0  0
   -2.0719    1.1840    0.0248 H   0  0  0  0  0  0  0  0  0  0  0  0
   -1.2147   -0.7157   -0.0000 C   0  0  0  0  0  0  0  0  0  0  0  0
   -2.0858   -1.2039   -0.0113 H   0  0  0  0  0  0  0  0  0  0  0  0
    0.0037   -1.4194    0.0117 C   0  0  0  0  0  0  0  0  0  0  0  0
    0.0205   -2.3994    0.0270 H   0  0  0  0  0  0  0  0  0  0  0  0
    1.2147   -0.6745    0.0000 C   0  0  0  0  0  0  0  0  0  0  0  0
    2.0968   -1.1852   -0.0079 H   0  0  0  0  0  0  0  0  0  0  0  0
    1.2052    0.6939    0.0019 C   0  0  0  0  0  0  0  0  0  0  0  0
    2.0704    1.2066    0.0180 H   0  0  0  0  0  0  0  0  0  0  0  0
  1  5  1  0
  5  6  1  0
  5  7  2  0
  1  2  1  0
  1  3  1  0
  1  4  1  0
  8 12  1  0
 12 13  2  0
 13 15  1  0
 15 17  2  0
 17 19  1  0
 19 21  2  0
 21 12  1  0
  8  9  1  0
  8 10  1  0
  8 11  1  0
 13 14  1  0
 15 16  1  0
 17 18  1  0
 19 20  1  0
 21 22  1  0
M  CHG  1   6  -1
M  END
>  <PDB_ID>  (1188) 
pdb3bo5

>  <RESIDUE_NAME>  (1188) 
ASP   PHE

>  <FRAG_NAME>  (1188) 
ACET   MBZ

>  <FRAG_ATOM_NUM>  (1188) 
fragi: 7  fragj: 15

>  <atom.prop.CHAIN_ID>  (1188) 
A A A A A A A Z Z Z Z Z Z Z Z Z Z Z Z Z Z Z

>  <atom.prop.IS_HEAVY_ATOM>  (1188) 
1 0 0 0 1 1 1 1 0 0 0 1 1 0 1 0 1 0 1 0 1 0

>  <DIFUSE_FUNC_ATOM>  (1188) 
atom 6   atom 7   

>  <FINAL_SINGLE_POINT_ENERGY>  (1188) 
0

>  <NONCOV_INTER_ENERGY_QM>  (1188) 
0

>  <FF_Energy>  (1188) 
-0.6

>  <QM_Energy>  (1188) 
-5.81

>  <source>  (1188) 
ACET_MBZ_01

>  <Index>  (1188) 
5445

$$$$
ACET-pdb1xuc-A-ASP-202:MBZ-pdb1xuc-A-PHE-178
     RDKit          3D

 22 21  0  0  0  0  0  0  0  0999 V2000
   -0.0130    0.7188    3.5482 C   0  0  0  0  0  0  0  0  0  0  0  0
   -0.5370    0.3773    2.7751 H   0  0  0  0  0  0  0  0  0  0  0  0
   -0.4762    0.5046    4.4006 H   0  0  0  0  0  0  0  0  0  0  0  0
    0.9527    0.2133    3.5517 H   0  0  0  0  0  0  0  0  0  0  0  0
    0.1102    2.2247    3.4255 C   0  0  0  0  0  0  0  0  0  0  0  0
    1.2228    2.7790    3.5414 O   0  0  0  0  0  1  0  0  0  0  0  0
   -0.9330    2.8611    3.2145 O   0  0  0  0  0  0  0  0  0  0  0  0
   -0.0102    2.9027   -0.0016 C   0  0  0  0  0  0  0  0  0  0  0  0
    0.9104    3.2135   -0.1666 H   0  0  0  0  0  0  0  0  0  0  0  0
   -0.3498    3.2066    0.8729 H   0  0  0  0  0  0  0  0  0  0  0  0
   -0.6509    3.3261   -0.7751 H   0  0  0  0  0  0  0  0  0  0  0  0
    0.0002    1.3971   -0.0003 C   0  0  0  0  0  0  0  0  0  0  0  0
   -1.1938    0.6890    0.0000 C   0  0  0  0  0  0  0  0  0  0  0  0
   -2.0616    1.1817   -0.0007 H   0  0  0  0  0  0  0  0  0  0  0  0
   -1.1989   -0.6958    0.0000 C   0  0  0  0  0  0  0  0  0  0  0  0
   -2.0760   -1.1907    0.0015 H   0  0  0  0  0  0  0  0  0  0  0  0
   -0.0010   -1.3885    0.0002 C   0  0  0  0  0  0  0  0  0  0  0  0
   -0.0033   -2.3885   -0.0002 H   0  0  0  0  0  0  0  0  0  0  0  0
    1.1989   -0.6936    0.0000 C   0  0  0  0  0  0  0  0  0  0  0  0
    2.0802   -1.1939    0.0015 H   0  0  0  0  0  0  0  0  0  0  0  0
    1.1946    0.6919    0.0000 C   0  0  0  0  0  0  0  0  0  0  0  0
    2.0627    1.1898   -0.0009 H   0  0  0  0  0  0  0  0  0  0  0  0
  1  5  1  0
  5  6  1  0
  5  7  2  0
  1  2  1  0
  1  3  1  0
  1  4  1  0
  8 12  1  0
 12 13  2  0
 13 15  1  0
 15 17  2  0
 17 19  1  0
 19 21  2  0
 21 12  1  0
  8  9  1  0
  8 10  1  0
  8 11  1  0
 13 14  1  0
 15 16  1  0
 17 18  1  0
 19 20  1  0
 21 22  1  0
M  CHG  1   6  -1
M  END
>  <PDB_ID>  (1189) 
pdb1xuc

>  <RESIDUE_NAME>  (1189) 
ASP   PHE

>  <FRAG_NAME>  (1189) 
ACET   MBZ

>  <FRAG_ATOM_NUM>  (1189) 
fragi: 7  fragj: 15

>  <atom.prop.CHAIN_ID>  (1189) 
A A A A A A A Z Z Z Z Z Z Z Z Z Z Z Z Z Z Z

>  <atom.prop.IS_HEAVY_ATOM>  (1189) 
1 0 0 0 1 1 1 1 0 0 0 1 1 0 1 0 1 0 1 0 1 0

>  <DIFUSE_FUNC_ATOM>  (1189) 
atom 6   atom 7   

>  <FINAL_SINGLE_POINT_ENERGY>  (1189) 
0

>  <NONCOV_INTER_ENERGY_QM>  (1189) 
0

>  <FF_Energy>  (1189) 
-0.08

>  <QM_Energy>  (1189) 
-6.61

>  <source>  (1189) 
ACET_MBZ_01

>  <Index>  (1189) 
5448

$$$$
ACET-pdb1xuc-B-ASP-202:MBZ-pdb1xuc-B-PHE-178
     RDKit          3D

 22 21  0  0  0  0  0  0  0  0999 V2000
    0.0790    0.8465    3.6245 C   0  0  0  0  0  0  0  0  0  0  0  0
   -0.4928    0.4879    2.8944 H   0  0  0  0  0  0  0  0  0  0  0  0
   -0.3411    0.6753    4.5087 H   0  0  0  0  0  0  0  0  0  0  0  0
    1.0310    0.3164    3.5960 H   0  0  0  0  0  0  0  0  0  0  0  0
    0.2322    2.3418    3.4361 C   0  0  0  0  0  0  0  0  0  0  0  0
    1.3608    2.8626    3.4661 O   0  0  0  0  0  1  0  0  0  0  0  0
   -0.7994    3.0086    3.2559 O   0  0  0  0  0  0  0  0  0  0  0  0
   -0.0147    2.9045    0.0014 C   0  0  0  0  0  0  0  0  0  0  0  0
    0.9002    3.2184   -0.1930 H   0  0  0  0  0  0  0  0  0  0  0  0
   -0.3228    3.2051    0.8888 H   0  0  0  0  0  0  0  0  0  0  0  0
   -0.6821    3.3296   -0.7483 H   0  0  0  0  0  0  0  0  0  0  0  0
   -0.0000    1.3998    0.0000 C   0  0  0  0  0  0  0  0  0  0  0  0
   -1.1927    0.6889   -0.0006 C   0  0  0  0  0  0  0  0  0  0  0  0
   -2.0619    1.1791   -0.0031 H   0  0  0  0  0  0  0  0  0  0  0  0
   -1.1977   -0.6994   -0.0000 C   0  0  0  0  0  0  0  0  0  0  0  0
   -2.0756   -1.1921    0.0026 H   0  0  0  0  0  0  0  0  0  0  0  0
   -0.0015   -1.3906   -0.0002 C   0  0  0  0  0  0  0  0  0  0  0  0
   -0.0017   -2.3909   -0.0004 H   0  0  0  0  0  0  0  0  0  0  0  0
    1.1977   -0.6934    0.0000 C   0  0  0  0  0  0  0  0  0  0  0  0
    2.0799   -1.1915    0.0012 H   0  0  0  0  0  0  0  0  0  0  0  0
    1.1942    0.6947    0.0008 C   0  0  0  0  0  0  0  0  0  0  0  0
    2.0630    1.1910    0.0011 H   0  0  0  0  0  0  0  0  0  0  0  0
  1  5  1  0
  5  6  1  0
  5  7  2  0
  1  2  1  0
  1  3  1  0
  1  4  1  0
  8 12  1  0
 12 13  2  0
 13 15  1  0
 15 17  2  0
 17 19  1  0
 19 21  2  0
 21 12  1  0
  8  9  1  0
  8 10  1  0
  8 11  1  0
 13 14  1  0
 15 16  1  0
 17 18  1  0
 19 20  1  0
 21 22  1  0
M  CHG  1   6  -1
M  END
>  <PDB_ID>  (1190) 
pdb1xuc

>  <RESIDUE_NAME>  (1190) 
ASP   PHE

>  <FRAG_NAME>  (1190) 
ACET   MBZ

>  <FRAG_ATOM_NUM>  (1190) 
fragi: 7  fragj: 15

>  <atom.prop.CHAIN_ID>  (1190) 
A A A A A A A Z Z Z Z Z Z Z Z Z Z Z Z Z Z Z

>  <atom.prop.IS_HEAVY_ATOM>  (1190) 
1 0 0 0 1 1 1 1 0 0 0 1 1 0 1 0 1 0 1 0 1 0

>  <DIFUSE_FUNC_ATOM>  (1190) 
atom 6   atom 7   

>  <FINAL_SINGLE_POINT_ENERGY>  (1190) 
0

>  <NONCOV_INTER_ENERGY_QM>  (1190) 
0

>  <FF_Energy>  (1190) 
-0.25

>  <QM_Energy>  (1190) 
-6.7

>  <source>  (1190) 
ACET_MBZ_01

>  <Index>  (1190) 
5451

$$$$
ACET-pdb1xrh-C-ASP-235:MBZ-pdb1xrh-C-PHE-246
     RDKit          3D

 22 21  0  0  0  0  0  0  0  0999 V2000
   -3.0260    6.6179   -2.1527 C   0  0  0  0  0  0  0  0  0  0  0  0
   -3.6028    7.2382   -1.6431 H   0  0  0  0  0  0  0  0  0  0  0  0
   -3.5635    5.9724   -2.6734 H   0  0  0  0  0  0  0  0  0  0  0  0
   -2.4081    7.1966   -2.8393 H   0  0  0  0  0  0  0  0  0  0  0  0
   -2.1814    5.8009   -1.1171 C   0  0  0  0  0  0  0  0  0  0  0  0
   -2.0537    4.5530   -1.3417 O   0  0  0  0  0  1  0  0  0  0  0  0
   -1.6547    6.3993   -0.1015 O   0  0  0  0  0  0  0  0  0  0  0  0
    0.0041    2.9043   -0.0095 C   0  0  0  0  0  0  0  0  0  0  0  0
   -0.8198    3.2112   -0.4633 H   0  0  0  0  0  0  0  0  0  0  0  0
    0.8126    3.2041   -0.4935 H   0  0  0  0  0  0  0  0  0  0  0  0
    0.0244    3.3507    0.9847 H   0  0  0  0  0  0  0  0  0  0  0  0
   -0.0018    1.4010   -0.0025 C   0  0  0  0  0  0  0  0  0  0  0  0
   -1.1924    0.6887    0.0007 C   0  0  0  0  0  0  0  0  0  0  0  0
   -2.0625    1.1858    0.0025 H   0  0  0  0  0  0  0  0  0  0  0  0
   -1.2036   -0.6887   -0.0000 C   0  0  0  0  0  0  0  0  0  0  0  0
   -2.0802   -1.1852    0.0019 H   0  0  0  0  0  0  0  0  0  0  0  0
   -0.0044   -1.3876   -0.0017 C   0  0  0  0  0  0  0  0  0  0  0  0
   -0.0148   -2.3898   -0.0050 H   0  0  0  0  0  0  0  0  0  0  0  0
    1.2036   -0.7043    0.0000 C   0  0  0  0  0  0  0  0  0  0  0  0
    2.0797   -1.2020    0.0004 H   0  0  0  0  0  0  0  0  0  0  0  0
    1.1986    0.6909    0.0035 C   0  0  0  0  0  0  0  0  0  0  0  0
    2.0654    1.1867    0.0090 H   0  0  0  0  0  0  0  0  0  0  0  0
  1  5  1  0
  5  6  1  0
  5  7  2  0
  1  2  1  0
  1  3  1  0
  1  4  1  0
  8 12  1  0
 12 13  2  0
 13 15  1  0
 15 17  2  0
 17 19  1  0
 19 21  2  0
 21 12  1  0
  8  9  1  0
  8 10  1  0
  8 11  1  0
 13 14  1  0
 15 16  1  0
 17 18  1  0
 19 20  1  0
 21 22  1  0
M  CHG  1   6  -1
M  END
>  <PDB_ID>  (1191) 
pdb1xrh

>  <RESIDUE_NAME>  (1191) 
ASP   PHE

>  <FRAG_NAME>  (1191) 
ACET   MBZ

>  <FRAG_ATOM_NUM>  (1191) 
fragi: 7  fragj: 15

>  <atom.prop.CHAIN_ID>  (1191) 
A A A A A A A Z Z Z Z Z Z Z Z Z Z Z Z Z Z Z

>  <atom.prop.IS_HEAVY_ATOM>  (1191) 
1 0 0 0 1 1 1 1 0 0 0 1 1 0 1 0 1 0 1 0 1 0

>  <DIFUSE_FUNC_ATOM>  (1191) 
atom 6   atom 7   

>  <FINAL_SINGLE_POINT_ENERGY>  (1191) 
0

>  <NONCOV_INTER_ENERGY_QM>  (1191) 
0

>  <FF_Energy>  (1191) 
4.52

>  <QM_Energy>  (1191) 
-5.32

>  <source>  (1191) 
ACET_MBZ_01

>  <Index>  (1191) 
5548

$$$$
ACET-pdb1xxg-A-GLU-153:MBZ-pdb1xxg-A-PHE-83
     RDKit          3D

 22 21  0  0  0  0  0  0  0  0999 V2000
   -0.2242    0.3896    3.2926 C   0  0  0  0  0  0  0  0  0  0  0  0
   -0.2217   -0.3699    3.9167 H   0  0  0  0  0  0  0  0  0  0  0  0
   -0.2289    0.1014    2.3532 H   0  0  0  0  0  0  0  0  0  0  0  0
   -1.1274    0.9723    3.4737 H   0  0  0  0  0  0  0  0  0  0  0  0
    1.0572    1.1810    3.5245 C   0  0  0  0  0  0  0  0  0  0  0  0
    1.0934    2.3850    3.1753 O   0  0  0  0  0  1  0  0  0  0  0  0
    2.0360    0.5911    4.0430 O   0  0  0  0  0  0  0  0  0  0  0  0
    0.0044    2.9172   -0.0613 C   0  0  0  0  0  0  0  0  0  0  0  0
    0.9326    3.2216    0.0703 H   0  0  0  0  0  0  0  0  0  0  0  0
   -0.5952    3.2499    0.6474 H   0  0  0  0  0  0  0  0  0  0  0  0
   -0.3482    3.3132   -1.0137 H   0  0  0  0  0  0  0  0  0  0  0  0
   -0.0009    1.4062   -0.0006 C   0  0  0  0  0  0  0  0  0  0  0  0
   -1.1970    0.6953    0.0007 C   0  0  0  0  0  0  0  0  0  0  0  0
   -2.0644    1.1861    0.0014 H   0  0  0  0  0  0  0  0  0  0  0  0
   -1.2047   -0.6966    0.0000 C   0  0  0  0  0  0  0  0  0  0  0  0
   -2.0805   -1.1896    0.0020 H   0  0  0  0  0  0  0  0  0  0  0  0
   -0.0009   -1.3993   -0.0015 C   0  0  0  0  0  0  0  0  0  0  0  0
   -0.0059   -2.3949   -0.0044 H   0  0  0  0  0  0  0  0  0  0  0  0
    1.2047   -0.6989   -0.0000 C   0  0  0  0  0  0  0  0  0  0  0  0
    2.0844   -1.1967    0.0015 H   0  0  0  0  0  0  0  0  0  0  0  0
    1.1989    0.6933    0.0014 C   0  0  0  0  0  0  0  0  0  0  0  0
    2.0661    1.1912    0.0035 H   0  0  0  0  0  0  0  0  0  0  0  0
  1  5  1  0
  5  6  1  0
  5  7  2  0
  1  2  1  0
  1  3  1  0
  1  4  1  0
  8 12  1  0
 12 13  2  0
 13 15  1  0
 15 17  2  0
 17 19  1  0
 19 21  2  0
 21 12  1  0
  8  9  1  0
  8 10  1  0
  8 11  1  0
 13 14  1  0
 15 16  1  0
 17 18  1  0
 19 20  1  0
 21 22  1  0
M  CHG  1   6  -1
M  END
>  <PDB_ID>  (1192) 
pdb1xxg

>  <RESIDUE_NAME>  (1192) 
GLU   PHE

>  <FRAG_NAME>  (1192) 
ACET   MBZ

>  <FRAG_ATOM_NUM>  (1192) 
fragi: 7  fragj: 15

>  <atom.prop.CHAIN_ID>  (1192) 
A A A A A A A Z Z Z Z Z Z Z Z Z Z Z Z Z Z Z

>  <atom.prop.IS_HEAVY_ATOM>  (1192) 
1 0 0 0 1 1 1 1 0 0 0 1 1 0 1 0 1 0 1 0 1 0

>  <DIFUSE_FUNC_ATOM>  (1192) 
atom 6   atom 7   

>  <FINAL_SINGLE_POINT_ENERGY>  (1192) 
0

>  <NONCOV_INTER_ENERGY_QM>  (1192) 
0

>  <FF_Energy>  (1192) 
-0.27

>  <QM_Energy>  (1192) 
-3.69

>  <source>  (1192) 
ACET_MBZ_01

>  <Index>  (1192) 
5579

$$$$
ACET-pdb3bro-C-ASP-111:MBZ-pdb3bro-C-PHE-20
     RDKit          3D

 22 21  0  0  0  0  0  0  0  0999 V2000
   -4.4517   -2.4756    1.3265 C   0  0  0  0  0  0  0  0  0  0  0  0
   -4.5093   -1.8004    2.0454 H   0  0  0  0  0  0  0  0  0  0  0  0
   -3.6031   -2.9777    1.3712 H   0  0  0  0  0  0  0  0  0  0  0  0
   -5.2773   -3.1778    1.4422 H   0  0  0  0  0  0  0  0  0  0  0  0
   -4.5048   -1.7405   -0.0275 C   0  0  0  0  0  0  0  0  0  0  0  0
   -5.3473   -0.8270   -0.1756 O   0  0  0  0  0  1  0  0  0  0  0  0
   -3.7188   -2.0838   -0.9442 O   0  0  0  0  0  0  0  0  0  0  0  0
    0.0544    2.9052   -0.0313 C   0  0  0  0  0  0  0  0  0  0  0  0
    0.1782    3.1859   -0.9750 H   0  0  0  0  0  0  0  0  0  0  0  0
    0.8138    3.2097    0.5295 H   0  0  0  0  0  0  0  0  0  0  0  0
   -0.8415    3.4036    0.3391 H   0  0  0  0  0  0  0  0  0  0  0  0
    0.0078    1.4067    0.0125 C   0  0  0  0  0  0  0  0  0  0  0  0
   -1.1909    0.7028   -0.0121 C   0  0  0  0  0  0  0  0  0  0  0  0
   -2.0566    1.1872   -0.0398 H   0  0  0  0  0  0  0  0  0  0  0  0
   -1.1961   -0.7005    0.0000 C   0  0  0  0  0  0  0  0  0  0  0  0
   -2.0776   -1.1857    0.0061 H   0  0  0  0  0  0  0  0  0  0  0  0
    0.0008   -1.4038    0.0050 C   0  0  0  0  0  0  0  0  0  0  0  0
   -0.0047   -2.3986    0.0118 H   0  0  0  0  0  0  0  0  0  0  0  0
    1.1961   -0.7026   -0.0000 C   0  0  0  0  0  0  0  0  0  0  0  0
    2.0818   -1.1893    0.0017 H   0  0  0  0  0  0  0  0  0  0  0  0
    1.1824    0.6975   -0.0054 C   0  0  0  0  0  0  0  0  0  0  0  0
    2.0634    1.1857   -0.0237 H   0  0  0  0  0  0  0  0  0  0  0  0
  1  5  1  0
  5  6  1  0
  5  7  2  0
  1  2  1  0
  1  3  1  0
  1  4  1  0
  8 12  1  0
 12 13  2  0
 13 15  1  0
 15 17  2  0
 17 19  1  0
 19 21  2  0
 21 12  1  0
  8  9  1  0
  8 10  1  0
  8 11  1  0
 13 14  1  0
 15 16  1  0
 17 18  1  0
 19 20  1  0
 21 22  1  0
M  CHG  1   6  -1
M  END
>  <PDB_ID>  (1193) 
pdb3bro

>  <RESIDUE_NAME>  (1193) 
ASP   PHE

>  <FRAG_NAME>  (1193) 
ACET   MBZ

>  <FRAG_ATOM_NUM>  (1193) 
fragi: 7  fragj: 15

>  <atom.prop.CHAIN_ID>  (1193) 
A A A A A A A Z Z Z Z Z Z Z Z Z Z Z Z Z Z Z

>  <atom.prop.IS_HEAVY_ATOM>  (1193) 
1 0 0 0 1 1 1 1 0 0 0 1 1 0 1 0 1 0 1 0 1 0

>  <DIFUSE_FUNC_ATOM>  (1193) 
atom 6   atom 7   

>  <FINAL_SINGLE_POINT_ENERGY>  (1193) 
0

>  <NONCOV_INTER_ENERGY_QM>  (1193) 
0

>  <FF_Energy>  (1193) 
2.43

>  <QM_Energy>  (1193) 
-4.85

>  <source>  (1193) 
ACET_MBZ_01

>  <Index>  (1193) 
5609

$$$$
ACET-pdb1xyn-A-ASP-81:MBZ-pdb1xyn-A-PHE-54
     RDKit          3D

 22 21  0  0  0  0  0  0  0  0999 V2000
    4.1346    0.1494   -3.1163 C   0  0  0  0  0  0  0  0  0  0  0  0
    4.2941    0.9847   -3.6402 H   0  0  0  0  0  0  0  0  0  0  0  0
    3.1558   -0.0403   -3.0781 H   0  0  0  0  0  0  0  0  0  0  0  0
    4.6156   -0.6743   -3.6439 H   0  0  0  0  0  0  0  0  0  0  0  0
    4.6518    0.3354   -1.7296 C   0  0  0  0  0  0  0  0  0  0  0  0
    5.7469   -0.1646   -1.3882 O   0  0  0  0  0  1  0  0  0  0  0  0
    3.9255    1.0057   -0.9837 O   0  0  0  0  0  0  0  0  0  0  0  0
    0.0119    2.8976   -0.0129 C   0  0  0  0  0  0  0  0  0  0  0  0
   -0.6174    3.2025   -0.7124 H   0  0  0  0  0  0  0  0  0  0  0  0
    0.9349    3.1952   -0.2073 H   0  0  0  0  0  0  0  0  0  0  0  0
   -0.2926    3.3499    0.9308 H   0  0  0  0  0  0  0  0  0  0  0  0
    0.0009    1.3968    0.0004 C   0  0  0  0  0  0  0  0  0  0  0  0
   -1.1937    0.6982   -0.0003 C   0  0  0  0  0  0  0  0  0  0  0  0
   -2.0599    1.1881   -0.0021 H   0  0  0  0  0  0  0  0  0  0  0  0
   -1.1990   -0.6913   -0.0000 C   0  0  0  0  0  0  0  0  0  0  0  0
   -2.0788   -1.1836    0.0025 H   0  0  0  0  0  0  0  0  0  0  0  0
   -0.0022   -1.3885   -0.0016 C   0  0  0  0  0  0  0  0  0  0  0  0
   -0.0086   -2.3889   -0.0042 H   0  0  0  0  0  0  0  0  0  0  0  0
    1.1990   -0.6982   -0.0000 C   0  0  0  0  0  0  0  0  0  0  0  0
    2.0785   -1.2014    0.0017 H   0  0  0  0  0  0  0  0  0  0  0  0
    1.1950    0.6829    0.0016 C   0  0  0  0  0  0  0  0  0  0  0  0
    2.0646    1.1829    0.0027 H   0  0  0  0  0  0  0  0  0  0  0  0
  1  5  1  0
  5  6  1  0
  5  7  2  0
  1  2  1  0
  1  3  1  0
  1  4  1  0
  8 12  1  0
 12 13  2  0
 13 15  1  0
 15 17  2  0
 17 19  1  0
 19 21  2  0
 21 12  1  0
  8  9  1  0
  8 10  1  0
  8 11  1  0
 13 14  1  0
 15 16  1  0
 17 18  1  0
 19 20  1  0
 21 22  1  0
M  CHG  1   6  -1
M  END
>  <PDB_ID>  (1194) 
pdb1xyn

>  <RESIDUE_NAME>  (1194) 
ASP   PHE

>  <FRAG_NAME>  (1194) 
ACET   MBZ

>  <FRAG_ATOM_NUM>  (1194) 
fragi: 7  fragj: 15

>  <atom.prop.CHAIN_ID>  (1194) 
A A A A A A A Z Z Z Z Z Z Z Z Z Z Z Z Z Z Z

>  <atom.prop.IS_HEAVY_ATOM>  (1194) 
1 0 0 0 1 1 1 1 0 0 0 1 1 0 1 0 1 0 1 0 1 0

>  <DIFUSE_FUNC_ATOM>  (1194) 
atom 6   atom 7   

>  <FINAL_SINGLE_POINT_ENERGY>  (1194) 
0

>  <NONCOV_INTER_ENERGY_QM>  (1194) 
0

>  <FF_Energy>  (1194) 
1.26

>  <QM_Energy>  (1194) 
-6.06

>  <source>  (1194) 
ACET_MBZ_01

>  <Index>  (1194) 
5631

$$$$
ACET-pdb3btn-B-GLU-182:MBZ-pdb3btn-B-PHE-225
     RDKit          3D

 22 21  0  0  0  0  0  0  0  0999 V2000
   -1.6764   -3.5877    1.2179 C   0  0  0  0  0  0  0  0  0  0  0  0
   -2.3960   -3.3400    0.6050 H   0  0  0  0  0  0  0  0  0  0  0  0
   -0.8921   -3.0082    1.1464 H   0  0  0  0  0  0  0  0  0  0  0  0
   -2.0547   -3.5478    2.2394 H   0  0  0  0  0  0  0  0  0  0  0  0
   -1.1810   -5.0485    0.7400 C   0  0  0  0  0  0  0  0  0  0  0  0
   -1.6511   -6.0816    1.3566 O   0  0  0  0  0  1  0  0  0  0  0  0
   -0.3341   -5.1234   -0.2413 O   0  0  0  0  0  0  0  0  0  0  0  0
   -0.0434    2.9000    0.0073 C   0  0  0  0  0  0  0  0  0  0  0  0
    0.7892    3.2184    0.4418 H   0  0  0  0  0  0  0  0  0  0  0  0
   -0.8408    3.1846    0.5234 H   0  0  0  0  0  0  0  0  0  0  0  0
   -0.1028    3.3551   -0.9814 H   0  0  0  0  0  0  0  0  0  0  0  0
   -0.0137    1.4116   -0.0165 C   0  0  0  0  0  0  0  0  0  0  0  0
   -1.2167    0.6836    0.0097 C   0  0  0  0  0  0  0  0  0  0  0  0
   -2.0846    1.1593    0.0338 H   0  0  0  0  0  0  0  0  0  0  0  0
   -1.2104   -0.7334   -0.0000 C   0  0  0  0  0  0  0  0  0  0  0  0
   -2.0561   -1.2391   -0.0162 H   0  0  0  0  0  0  0  0  0  0  0  0
    0.0478   -1.4146    0.0161 C   0  0  0  0  0  0  0  0  0  0  0  0
    0.0532   -2.4034    0.0384 H   0  0  0  0  0  0  0  0  0  0  0  0
    1.2104   -0.6759   -0.0000 C   0  0  0  0  0  0  0  0  0  0  0  0
    2.1187   -1.1419   -0.0043 H   0  0  0  0  0  0  0  0  0  0  0  0
    1.1826    0.7287   -0.0094 C   0  0  0  0  0  0  0  0  0  0  0  0
    2.0490    1.2285   -0.0117 H   0  0  0  0  0  0  0  0  0  0  0  0
  1  5  1  0
  5  6  1  0
  5  7  2  0
  1  2  1  0
  1  3  1  0
  1  4  1  0
  8 12  1  0
 12 13  2  0
 13 15  1  0
 15 17  2  0
 17 19  1  0
 19 21  2  0
 21 12  1  0
  8  9  1  0
  8 10  1  0
  8 11  1  0
 13 14  1  0
 15 16  1  0
 17 18  1  0
 19 20  1  0
 21 22  1  0
M  CHG  1   6  -1
M  END
>  <PDB_ID>  (1195) 
pdb3btn

>  <RESIDUE_NAME>  (1195) 
GLU   PHE

>  <FRAG_NAME>  (1195) 
ACET   MBZ

>  <FRAG_ATOM_NUM>  (1195) 
fragi: 7  fragj: 15

>  <atom.prop.CHAIN_ID>  (1195) 
A A A A A A A Z Z Z Z Z Z Z Z Z Z Z Z Z Z Z

>  <atom.prop.IS_HEAVY_ATOM>  (1195) 
1 0 0 0 1 1 1 1 0 0 0 1 1 0 1 0 1 0 1 0 1 0

>  <DIFUSE_FUNC_ATOM>  (1195) 
atom 6   atom 7   

>  <FINAL_SINGLE_POINT_ENERGY>  (1195) 
0

>  <NONCOV_INTER_ENERGY_QM>  (1195) 
0

>  <FF_Energy>  (1195) 
24.81

>  <QM_Energy>  (1195) 
2.74

>  <source>  (1195) 
ACET_MBZ_01

>  <Index>  (1195) 
5698

$$$$
ACET-pdb3btp-A-GLU-413:MBZ-pdb3btp-A-PHE-420
     RDKit          3D

 22 21  0  0  0  0  0  0  0  0999 V2000
    1.6923    0.2574   -3.0048 C   0  0  0  0  0  0  0  0  0  0  0  0
    2.1453    1.1287   -3.1276 H   0  0  0  0  0  0  0  0  0  0  0  0
    1.6390    0.0160   -2.0464 H   0  0  0  0  0  0  0  0  0  0  0  0
    0.6800    0.3331   -3.4019 H   0  0  0  0  0  0  0  0  0  0  0  0
    2.5293   -0.7878   -3.6881 C   0  0  0  0  0  0  0  0  0  0  0  0
    2.0097   -1.7460   -4.3319 O   0  0  0  0  0  1  0  0  0  0  0  0
    3.7509   -0.6458   -3.5815 O   0  0  0  0  0  0  0  0  0  0  0  0
    0.0028    2.9538    0.0033 C   0  0  0  0  0  0  0  0  0  0  0  0
   -0.6411    3.2476   -0.6877 H   0  0  0  0  0  0  0  0  0  0  0  0
    0.9225    3.2440   -0.2146 H   0  0  0  0  0  0  0  0  0  0  0  0
   -0.2820    3.4176    0.9478 H   0  0  0  0  0  0  0  0  0  0  0  0
   -0.0051    1.4284    0.0199 C   0  0  0  0  0  0  0  0  0  0  0  0
   -1.2110    0.7163    0.0036 C   0  0  0  0  0  0  0  0  0  0  0  0
   -2.0786    1.1848   -0.0074 H   0  0  0  0  0  0  0  0  0  0  0  0
   -1.2194   -0.7298   -0.0000 C   0  0  0  0  0  0  0  0  0  0  0  0
   -2.0873   -1.2035    0.0157 H   0  0  0  0  0  0  0  0  0  0  0  0
    0.0062   -1.4278   -0.0244 C   0  0  0  0  0  0  0  0  0  0  0  0
    0.0215   -2.4114   -0.0583 H   0  0  0  0  0  0  0  0  0  0  0  0
    1.2194   -0.6892    0.0000 C   0  0  0  0  0  0  0  0  0  0  0  0
    2.1008   -1.1893    0.0181 H   0  0  0  0  0  0  0  0  0  0  0  0
    1.2099    0.7021    0.0008 C   0  0  0  0  0  0  0  0  0  0  0  0
    2.0719    1.2077   -0.0129 H   0  0  0  0  0  0  0  0  0  0  0  0
  1  5  1  0
  5  6  1  0
  5  7  2  0
  1  2  1  0
  1  3  1  0
  1  4  1  0
  8 12  1  0
 12 13  2  0
 13 15  1  0
 15 17  2  0
 17 19  1  0
 19 21  2  0
 21 12  1  0
  8  9  1  0
  8 10  1  0
  8 11  1  0
 13 14  1  0
 15 16  1  0
 17 18  1  0
 19 20  1  0
 21 22  1  0
M  CHG  1   6  -1
M  END
>  <PDB_ID>  (1196) 
pdb3btp

>  <RESIDUE_NAME>  (1196) 
GLU   PHE

>  <FRAG_NAME>  (1196) 
ACET   MBZ

>  <FRAG_ATOM_NUM>  (1196) 
fragi: 7  fragj: 15

>  <atom.prop.CHAIN_ID>  (1196) 
A A A A A A A Z Z Z Z Z Z Z Z Z Z Z Z Z Z Z

>  <atom.prop.IS_HEAVY_ATOM>  (1196) 
1 0 0 0 1 1 1 1 0 0 0 1 1 0 1 0 1 0 1 0 1 0

>  <DIFUSE_FUNC_ATOM>  (1196) 
atom 6   atom 7   

>  <FINAL_SINGLE_POINT_ENERGY>  (1196) 
0

>  <NONCOV_INTER_ENERGY_QM>  (1196) 
0

>  <FF_Energy>  (1196) 
10.69

>  <QM_Energy>  (1196) 
3.73

>  <source>  (1196) 
ACET_MBZ_01

>  <Index>  (1196) 
5700

$$$$
ACET-pdb1y2a-C-ASP-192:MBZ-pdb1y2a-C-PHE-196
     RDKit          3D

 22 21  0  0  0  0  0  0  0  0999 V2000
    4.3976    2.0932   -0.5120 C   0  0  0  0  0  0  0  0  0  0  0  0
    4.7779    1.8370    0.3670 H   0  0  0  0  0  0  0  0  0  0  0  0
    3.4314    2.2981   -0.4314 H   0  0  0  0  0  0  0  0  0  0  0  0
    4.9073    2.9957   -0.8494 H   0  0  0  0  0  0  0  0  0  0  0  0
    4.5771    0.9443   -1.4772 C   0  0  0  0  0  0  0  0  0  0  0  0
    5.7300    0.5133   -1.6621 O   0  0  0  0  0  1  0  0  0  0  0  0
    3.5752    0.4881   -2.0661 O   0  0  0  0  0  0  0  0  0  0  0  0
    0.0077    2.9149    0.0160 C   0  0  0  0  0  0  0  0  0  0  0  0
    0.7228    3.2234   -0.5926 H   0  0  0  0  0  0  0  0  0  0  0  0
    0.1745    3.2089    0.9452 H   0  0  0  0  0  0  0  0  0  0  0  0
   -0.9267    3.3699   -0.3126 H   0  0  0  0  0  0  0  0  0  0  0  0
    0.0009    1.4054   -0.0007 C   0  0  0  0  0  0  0  0  0  0  0  0
   -1.1927    0.6934    0.0012 C   0  0  0  0  0  0  0  0  0  0  0  0
   -2.0618    1.1803    0.0021 H   0  0  0  0  0  0  0  0  0  0  0  0
   -1.1957   -0.7008   -0.0000 C   0  0  0  0  0  0  0  0  0  0  0  0
   -2.0771   -1.1907    0.0002 H   0  0  0  0  0  0  0  0  0  0  0  0
   -0.0028   -1.3947   -0.0001 C   0  0  0  0  0  0  0  0  0  0  0  0
   -0.0057   -2.3953   -0.0004 H   0  0  0  0  0  0  0  0  0  0  0  0
    1.1957   -0.7012   -0.0000 C   0  0  0  0  0  0  0  0  0  0  0  0
    2.0790   -1.1951    0.0022 H   0  0  0  0  0  0  0  0  0  0  0  0
    1.1946    0.6979   -0.0004 C   0  0  0  0  0  0  0  0  0  0  0  0
    2.0644    1.1876   -0.0010 H   0  0  0  0  0  0  0  0  0  0  0  0
  1  5  1  0
  5  6  1  0
  5  7  2  0
  1  2  1  0
  1  3  1  0
  1  4  1  0
  8 12  1  0
 12 13  2  0
 13 15  1  0
 15 17  2  0
 17 19  1  0
 19 21  2  0
 21 12  1  0
  8  9  1  0
  8 10  1  0
  8 11  1  0
 13 14  1  0
 15 16  1  0
 17 18  1  0
 19 20  1  0
 21 22  1  0
M  CHG  1   6  -1
M  END
>  <PDB_ID>  (1197) 
pdb1y2a

>  <RESIDUE_NAME>  (1197) 
ASP   PHE

>  <FRAG_NAME>  (1197) 
ACET   MBZ

>  <FRAG_ATOM_NUM>  (1197) 
fragi: 7  fragj: 15

>  <atom.prop.CHAIN_ID>  (1197) 
A A A A A A A Z Z Z Z Z Z Z Z Z Z Z Z Z Z Z

>  <atom.prop.IS_HEAVY_ATOM>  (1197) 
1 0 0 0 1 1 1 1 0 0 0 1 1 0 1 0 1 0 1 0 1 0

>  <DIFUSE_FUNC_ATOM>  (1197) 
atom 6   atom 7   

>  <FINAL_SINGLE_POINT_ENERGY>  (1197) 
0

>  <NONCOV_INTER_ENERGY_QM>  (1197) 
0

>  <FF_Energy>  (1197) 
2.65

>  <QM_Energy>  (1197) 
-2.66

>  <source>  (1197) 
ACET_MBZ_01

>  <Index>  (1197) 
5841

$$$$
ACET-pdb3byb-A-GLU-52:MBZ-pdb3byb-A-PHE-47
     RDKit          3D

 22 21  0  0  0  0  0  0  0  0999 V2000
   -3.9266    2.5037    1.1358 C   0  0  0  0  0  0  0  0  0  0  0  0
   -3.1076    1.9911    0.9662 H   0  0  0  0  0  0  0  0  0  0  0  0
   -4.6823    1.9343    1.3942 H   0  0  0  0  0  0  0  0  0  0  0  0
   -3.7302    3.2038    1.9479 H   0  0  0  0  0  0  0  0  0  0  0  0
   -4.3063    3.2036   -0.1675 C   0  0  0  0  0  0  0  0  0  0  0  0
   -3.4252    3.4206   -1.0714 O   0  0  0  0  0  1  0  0  0  0  0  0
   -5.5009    3.5580   -0.2797 O   0  0  0  0  0  0  0  0  0  0  0  0
    0.0155    2.8857   -0.0506 C   0  0  0  0  0  0  0  0  0  0  0  0
    0.8563    3.2102    0.3478 H   0  0  0  0  0  0  0  0  0  0  0  0
   -0.7746    3.2267    0.4296 H   0  0  0  0  0  0  0  0  0  0  0  0
   -0.0323    3.2643   -1.0716 H   0  0  0  0  0  0  0  0  0  0  0  0
    0.0037    1.4002    0.0109 C   0  0  0  0  0  0  0  0  0  0  0  0
   -1.1938    0.7042   -0.0122 C   0  0  0  0  0  0  0  0  0  0  0  0
   -2.0578    1.1957   -0.0387 H   0  0  0  0  0  0  0  0  0  0  0  0
   -1.2002   -0.6859    0.0000 C   0  0  0  0  0  0  0  0  0  0  0  0
   -2.0834   -1.1756    0.0105 H   0  0  0  0  0  0  0  0  0  0  0  0
   -0.0088   -1.3918    0.0000 C   0  0  0  0  0  0  0  0  0  0  0  0
   -0.0217   -2.3922   -0.0005 H   0  0  0  0  0  0  0  0  0  0  0  0
    1.2002   -0.7106    0.0000 C   0  0  0  0  0  0  0  0  0  0  0  0
    2.0750   -1.2113    0.0006 H   0  0  0  0  0  0  0  0  0  0  0  0
    1.1990    0.6839    0.0013 C   0  0  0  0  0  0  0  0  0  0  0  0
    2.0697    1.1766   -0.0058 H   0  0  0  0  0  0  0  0  0  0  0  0
  1  5  1  0
  5  6  1  0
  5  7  2  0
  1  2  1  0
  1  3  1  0
  1  4  1  0
  8 12  1  0
 12 13  2  0
 13 15  1  0
 15 17  2  0
 17 19  1  0
 19 21  2  0
 21 12  1  0
  8  9  1  0
  8 10  1  0
  8 11  1  0
 13 14  1  0
 15 16  1  0
 17 18  1  0
 19 20  1  0
 21 22  1  0
M  CHG  1   6  -1
M  END
>  <PDB_ID>  (1198) 
pdb3byb

>  <RESIDUE_NAME>  (1198) 
GLU   PHE

>  <FRAG_NAME>  (1198) 
ACET   MBZ

>  <FRAG_ATOM_NUM>  (1198) 
fragi: 7  fragj: 15

>  <atom.prop.CHAIN_ID>  (1198) 
A A A A A A A Z Z Z Z Z Z Z Z Z Z Z Z Z Z Z

>  <atom.prop.IS_HEAVY_ATOM>  (1198) 
1 0 0 0 1 1 1 1 0 0 0 1 1 0 1 0 1 0 1 0 1 0

>  <DIFUSE_FUNC_ATOM>  (1198) 
atom 6   atom 7   

>  <FINAL_SINGLE_POINT_ENERGY>  (1198) 
0

>  <NONCOV_INTER_ENERGY_QM>  (1198) 
0

>  <FF_Energy>  (1198) 
7.76

>  <QM_Energy>  (1198) 
-3.33

>  <source>  (1198) 
ACET_MBZ_01

>  <Index>  (1198) 
6000

$$$$
ACET-pdb1y71-B-GLU-9:MBZ-pdb1y71-B-PHE-5
     RDKit          3D

 22 21  0  0  0  0  0  0  0  0999 V2000
    3.9198    3.3131   -2.2560 C   0  0  0  0  0  0  0  0  0  0  0  0
    3.2668    2.7811   -2.7571 H   0  0  0  0  0  0  0  0  0  0  0  0
    4.8364    3.1949   -2.5830 H   0  0  0  0  0  0  0  0  0  0  0  0
    3.6527    4.3654   -2.3534 H   0  0  0  0  0  0  0  0  0  0  0  0
    3.8834    2.8428   -0.8111 C   0  0  0  0  0  0  0  0  0  0  0  0
    4.2307    1.6723   -0.5882 O   0  0  0  0  0  1  0  0  0  0  0  0
    3.5187    3.6347    0.0926 O   0  0  0  0  0  0  0  0  0  0  0  0
   -0.0067    2.9102    0.0058 C   0  0  0  0  0  0  0  0  0  0  0  0
   -0.9394    3.2135   -0.1174 H   0  0  0  0  0  0  0  0  0  0  0  0
    0.5725    3.2178   -0.7350 H   0  0  0  0  0  0  0  0  0  0  0  0
    0.3691    3.3526    0.9284 H   0  0  0  0  0  0  0  0  0  0  0  0
   -0.0040    1.4043    0.0030 C   0  0  0  0  0  0  0  0  0  0  0  0
   -1.1975    0.6984    0.0019 C   0  0  0  0  0  0  0  0  0  0  0  0
   -2.0662    1.1789    0.0006 H   0  0  0  0  0  0  0  0  0  0  0  0
   -1.1964   -0.7040   -0.0000 C   0  0  0  0  0  0  0  0  0  0  0  0
   -2.0686   -1.1976    0.0042 H   0  0  0  0  0  0  0  0  0  0  0  0
    0.0136   -1.3928   -0.0059 C   0  0  0  0  0  0  0  0  0  0  0  0
    0.0068   -2.3947   -0.0150 H   0  0  0  0  0  0  0  0  0  0  0  0
    1.1964   -0.6974    0.0000 C   0  0  0  0  0  0  0  0  0  0  0  0
    2.0865   -1.1875    0.0051 H   0  0  0  0  0  0  0  0  0  0  0  0
    1.1879    0.6915    0.0010 C   0  0  0  0  0  0  0  0  0  0  0  0
    2.0594    1.1887   -0.0005 H   0  0  0  0  0  0  0  0  0  0  0  0
  1  5  1  0
  5  6  1  0
  5  7  2  0
  1  2  1  0
  1  3  1  0
  1  4  1  0
  8 12  1  0
 12 13  2  0
 13 15  1  0
 15 17  2  0
 17 19  1  0
 19 21  2  0
 21 12  1  0
  8  9  1  0
  8 10  1  0
  8 11  1  0
 13 14  1  0
 15 16  1  0
 17 18  1  0
 19 20  1  0
 21 22  1  0
M  CHG  1   6  -1
M  END
>  <PDB_ID>  (1199) 
pdb1y71

>  <RESIDUE_NAME>  (1199) 
GLU   PHE

>  <FRAG_NAME>  (1199) 
ACET   MBZ

>  <FRAG_ATOM_NUM>  (1199) 
fragi: 7  fragj: 15

>  <atom.prop.CHAIN_ID>  (1199) 
A A A A A A A Z Z Z Z Z Z Z Z Z Z Z Z Z Z Z

>  <atom.prop.IS_HEAVY_ATOM>  (1199) 
1 0 0 0 1 1 1 1 0 0 0 1 1 0 1 0 1 0 1 0 1 0

>  <DIFUSE_FUNC_ATOM>  (1199) 
atom 6   atom 7   

>  <FINAL_SINGLE_POINT_ENERGY>  (1199) 
0

>  <NONCOV_INTER_ENERGY_QM>  (1199) 
0

>  <FF_Energy>  (1199) 
-1.91

>  <QM_Energy>  (1199) 
-8.26

>  <source>  (1199) 
ACET_MBZ_01

>  <Index>  (1199) 
6021

$$$$
ACET-pdb3c02-A-GLU-125:MBZ-pdb3c02-A-PHE-122
     RDKit          3D

 22 21  0  0  0  0  0  0  0  0999 V2000
   -4.1472    5.0230    1.4673 C   0  0  0  0  0  0  0  0  0  0  0  0
   -3.4288    5.6837    1.5213 H   0  0  0  0  0  0  0  0  0  0  0  0
   -4.2749    4.5225    2.2973 H   0  0  0  0  0  0  0  0  0  0  0  0
   -5.0734    5.5569    1.2545 H   0  0  0  0  0  0  0  0  0  0  0  0
   -3.7828    4.0236    0.3693 C   0  0  0  0  0  0  0  0  0  0  0  0
   -3.7986    4.4032   -0.8233 O   0  0  0  0  0  1  0  0  0  0  0  0
   -3.4762    2.8678    0.7030 O   0  0  0  0  0  0  0  0  0  0  0  0
   -0.0104    2.9061   -0.0688 C   0  0  0  0  0  0  0  0  0  0  0  0
    0.9077    3.2300    0.0582 H   0  0  0  0  0  0  0  0  0  0  0  0
   -0.6245    3.2392    0.6211 H   0  0  0  0  0  0  0  0  0  0  0  0
   -0.3604    3.2890   -1.0275 H   0  0  0  0  0  0  0  0  0  0  0  0
    0.0037    1.3981   -0.0055 C   0  0  0  0  0  0  0  0  0  0  0  0
   -1.2041    0.6697    0.0061 C   0  0  0  0  0  0  0  0  0  0  0  0
   -2.0671    1.1603    0.0178 H   0  0  0  0  0  0  0  0  0  0  0  0
   -1.1997   -0.7200   -0.0000 C   0  0  0  0  0  0  0  0  0  0  0  0
   -2.0694   -1.2189   -0.0090 H   0  0  0  0  0  0  0  0  0  0  0  0
    0.0032   -1.3792    0.0082 C   0  0  0  0  0  0  0  0  0  0  0  0
    0.0225   -2.3877    0.0196 H   0  0  0  0  0  0  0  0  0  0  0  0
    1.1997   -0.6751    0.0000 C   0  0  0  0  0  0  0  0  0  0  0  0
    2.0844   -1.1767    0.0025 H   0  0  0  0  0  0  0  0  0  0  0  0
    1.1971    0.7065   -0.0087 C   0  0  0  0  0  0  0  0  0  0  0  0
    2.0635    1.2052   -0.0183 H   0  0  0  0  0  0  0  0  0  0  0  0
  1  5  1  0
  5  6  1  0
  5  7  2  0
  1  2  1  0
  1  3  1  0
  1  4  1  0
  8 12  1  0
 12 13  2  0
 13 15  1  0
 15 17  2  0
 17 19  1  0
 19 21  2  0
 21 12  1  0
  8  9  1  0
  8 10  1  0
  8 11  1  0
 13 14  1  0
 15 16  1  0
 17 18  1  0
 19 20  1  0
 21 22  1  0
M  CHG  1   6  -1
M  END
>  <PDB_ID>  (1200) 
pdb3c02

>  <RESIDUE_NAME>  (1200) 
GLU   PHE

>  <FRAG_NAME>  (1200) 
ACET   MBZ

>  <FRAG_ATOM_NUM>  (1200) 
fragi: 7  fragj: 15

>  <atom.prop.CHAIN_ID>  (1200) 
A A A A A A A Z Z Z Z Z Z Z Z Z Z Z Z Z Z Z

>  <atom.prop.IS_HEAVY_ATOM>  (1200) 
1 0 0 0 1 1 1 1 0 0 0 1 1 0 1 0 1 0 1 0 1 0

>  <DIFUSE_FUNC_ATOM>  (1200) 
atom 6   atom 7   

>  <FINAL_SINGLE_POINT_ENERGY>  (1200) 
0

>  <NONCOV_INTER_ENERGY_QM>  (1200) 
0

>  <FF_Energy>  (1200) 
-1.81

>  <QM_Energy>  (1200) 
-8.21

>  <source>  (1200) 
ACET_MBZ_01

>  <Index>  (1200) 
6072

$$$$
ACET-pdb1y37-B-ASP-219:MBZ-pdb1y37-B-PHE-79
     RDKit          3D

 22 21  0  0  0  0  0  0  0  0999 V2000
    4.4134    1.3135   -2.1187 C   0  0  0  0  0  0  0  0  0  0  0  0
    4.7266    0.4333   -2.4553 H   0  0  0  0  0  0  0  0  0  0  0  0
    4.4105    1.3269   -1.1263 H   0  0  0  0  0  0  0  0  0  0  0  0
    5.1153    2.0728   -2.4634 H   0  0  0  0  0  0  0  0  0  0  0  0
    3.0074    1.5570   -2.6169 C   0  0  0  0  0  0  0  0  0  0  0  0
    2.5762    2.7278   -2.4650 O   0  0  0  0  0  1  0  0  0  0  0  0
    2.3202    0.6294   -3.1021 O   0  0  0  0  0  0  0  0  0  0  0  0
   -0.0441    2.8809   -0.0257 C   0  0  0  0  0  0  0  0  0  0  0  0
    0.8803    3.2074   -0.0615 H   0  0  0  0  0  0  0  0  0  0  0  0
   -0.5266    3.1958    0.7676 H   0  0  0  0  0  0  0  0  0  0  0  0
   -0.5641    3.2667   -0.9025 H   0  0  0  0  0  0  0  0  0  0  0  0
   -0.0161    1.3799    0.0012 C   0  0  0  0  0  0  0  0  0  0  0  0
   -1.1990    0.6675    0.0036 C   0  0  0  0  0  0  0  0  0  0  0  0
   -2.0718    1.1600    0.0066 H   0  0  0  0  0  0  0  0  0  0  0  0
   -1.1991   -0.7029   -0.0000 C   0  0  0  0  0  0  0  0  0  0  0  0
   -2.0511   -1.2210    0.0039 H   0  0  0  0  0  0  0  0  0  0  0  0
    0.0357   -1.3740   -0.0069 C   0  0  0  0  0  0  0  0  0  0  0  0
    0.0281   -2.3817   -0.0179 H   0  0  0  0  0  0  0  0  0  0  0  0
    1.1991   -0.6799    0.0000 C   0  0  0  0  0  0  0  0  0  0  0  0
    2.0991   -1.1577    0.0047 H   0  0  0  0  0  0  0  0  0  0  0  0
    1.1794    0.7093    0.0021 C   0  0  0  0  0  0  0  0  0  0  0  0
    2.0421    1.2121    0.0039 H   0  0  0  0  0  0  0  0  0  0  0  0
  1  5  1  0
  5  6  1  0
  5  7  2  0
  1  2  1  0
  1  3  1  0
  1  4  1  0
  8 12  1  0
 12 13  2  0
 13 15  1  0
 15 17  2  0
 17 19  1  0
 19 21  2  0
 21 12  1  0
  8  9  1  0
  8 10  1  0
  8 11  1  0
 13 14  1  0
 15 16  1  0
 17 18  1  0
 19 20  1  0
 21 22  1  0
M  CHG  1   6  -1
M  END
>  <PDB_ID>  (1201) 
pdb1y37

>  <RESIDUE_NAME>  (1201) 
ASP   PHE

>  <FRAG_NAME>  (1201) 
ACET   MBZ

>  <FRAG_ATOM_NUM>  (1201) 
fragi: 7  fragj: 15

>  <atom.prop.CHAIN_ID>  (1201) 
A A A A A A A Z Z Z Z Z Z Z Z Z Z Z Z Z Z Z

>  <atom.prop.IS_HEAVY_ATOM>  (1201) 
1 0 0 0 1 1 1 1 0 0 0 1 1 0 1 0 1 0 1 0 1 0

>  <DIFUSE_FUNC_ATOM>  (1201) 
atom 6   atom 7   

>  <FINAL_SINGLE_POINT_ENERGY>  (1201) 
0

>  <NONCOV_INTER_ENERGY_QM>  (1201) 
0

>  <FF_Energy>  (1201) 
1.01

>  <QM_Energy>  (1201) 
-4.05

>  <source>  (1201) 
ACET_MBZ_01

>  <Index>  (1201) 
6121

$$$$
ACET-pdb1ya7-O-GLU-18:MBZ-pdb1ya7-O-PHE-22
     RDKit          3D

 22 21  0  0  0  0  0  0  0  0999 V2000
   -0.5029    5.8454   -4.5176 C   0  0  0  0  0  0  0  0  0  0  0  0
   -1.2774    6.3320   -4.1444 H   0  0  0  0  0  0  0  0  0  0  0  0
   -0.6435    5.6189   -5.4691 H   0  0  0  0  0  0  0  0  0  0  0  0
    0.3754    6.4864   -4.4416 H   0  0  0  0  0  0  0  0  0  0  0  0
   -0.3792    4.5380   -3.7545 C   0  0  0  0  0  0  0  0  0  0  0  0
    0.6344    3.8187   -3.9356 O   0  0  0  0  0  1  0  0  0  0  0  0
   -1.3164    4.2033   -2.9996 O   0  0  0  0  0  0  0  0  0  0  0  0
   -0.0031    2.9150    0.0004 C   0  0  0  0  0  0  0  0  0  0  0  0
   -0.4069    3.2205   -0.8512 H   0  0  0  0  0  0  0  0  0  0  0  0
    0.9360    3.2212    0.0773 H   0  0  0  0  0  0  0  0  0  0  0  0
   -0.5693    3.3608    0.8181 H   0  0  0  0  0  0  0  0  0  0  0  0
   -0.0047    1.4199    0.0053 C   0  0  0  0  0  0  0  0  0  0  0  0
   -1.1948    0.7138   -0.0083 C   0  0  0  0  0  0  0  0  0  0  0  0
   -2.0676    1.1968   -0.0252 H   0  0  0  0  0  0  0  0  0  0  0  0
   -1.2138   -0.6991    0.0000 C   0  0  0  0  0  0  0  0  0  0  0  0
   -2.0916   -1.1791    0.0045 H   0  0  0  0  0  0  0  0  0  0  0  0
   -0.0042   -1.4235    0.0030 C   0  0  0  0  0  0  0  0  0  0  0  0
   -0.0186   -2.4111    0.0061 H   0  0  0  0  0  0  0  0  0  0  0  0
    1.2138   -0.7222    0.0000 C   0  0  0  0  0  0  0  0  0  0  0  0
    2.0898   -1.2034   -0.0004 H   0  0  0  0  0  0  0  0  0  0  0  0
    1.2037    0.7111    0.0000 C   0  0  0  0  0  0  0  0  0  0  0  0
    2.0694    1.1935   -0.0046 H   0  0  0  0  0  0  0  0  0  0  0  0
  1  5  1  0
  5  6  1  0
  5  7  2  0
  1  2  1  0
  1  3  1  0
  1  4  1  0
  8 12  1  0
 12 13  2  0
 13 15  1  0
 15 17  2  0
 17 19  1  0
 19 21  2  0
 21 12  1  0
  8  9  1  0
  8 10  1  0
  8 11  1  0
 13 14  1  0
 15 16  1  0
 17 18  1  0
 19 20  1  0
 21 22  1  0
M  CHG  1   6  -1
M  END
>  <PDB_ID>  (1202) 
pdb1ya7

>  <RESIDUE_NAME>  (1202) 
GLU   PHE

>  <FRAG_NAME>  (1202) 
ACET   MBZ

>  <FRAG_ATOM_NUM>  (1202) 
fragi: 7  fragj: 15

>  <atom.prop.CHAIN_ID>  (1202) 
A A A A A A A Z Z Z Z Z Z Z Z Z Z Z Z Z Z Z

>  <atom.prop.IS_HEAVY_ATOM>  (1202) 
1 0 0 0 1 1 1 1 0 0 0 1 1 0 1 0 1 0 1 0 1 0

>  <DIFUSE_FUNC_ATOM>  (1202) 
atom 6   atom 7   

>  <FINAL_SINGLE_POINT_ENERGY>  (1202) 
0

>  <NONCOV_INTER_ENERGY_QM>  (1202) 
0

>  <FF_Energy>  (1202) 
-0.07

>  <QM_Energy>  (1202) 
-5.18

>  <source>  (1202) 
ACET_MBZ_01

>  <Index>  (1202) 
6402

$$$$
ACET-pdb3c1m-A-GLU-278:MBZ-pdb3c1m-B-PHE-389
     RDKit          3D

 22 21  0  0  0  0  0  0  0  0999 V2000
    5.7156    0.4446   -0.4778 C   0  0  0  0  0  0  0  0  0  0  0  0
    5.1148   -0.1186   -1.0096 H   0  0  0  0  0  0  0  0  0  0  0  0
    6.4554   -0.0608   -0.0802 H   0  0  0  0  0  0  0  0  0  0  0  0
    6.1180    1.2369   -1.1090 H   0  0  0  0  0  0  0  0  0  0  0  0
    4.8914    1.0081    0.6760 C   0  0  0  0  0  0  0  0  0  0  0  0
    5.0938    0.5450    1.8220 O   0  0  0  0  0  1  0  0  0  0  0  0
    4.0502    1.9194    0.4272 O   0  0  0  0  0  0  0  0  0  0  0  0
   -0.0042    2.9163    0.0048 C   0  0  0  0  0  0  0  0  0  0  0  0
   -0.8658    3.2190   -0.3712 H   0  0  0  0  0  0  0  0  0  0  0  0
    0.7575    3.2223   -0.5434 H   0  0  0  0  0  0  0  0  0  0  0  0
    0.1002    3.3579    0.9959 H   0  0  0  0  0  0  0  0  0  0  0  0
   -0.0011    1.4031    0.0016 C   0  0  0  0  0  0  0  0  0  0  0  0
   -1.1976    0.6914   -0.0005 C   0  0  0  0  0  0  0  0  0  0  0  0
   -2.0650    1.1802   -0.0034 H   0  0  0  0  0  0  0  0  0  0  0  0
   -1.2005   -0.6996   -0.0000 C   0  0  0  0  0  0  0  0  0  0  0  0
   -2.0749   -1.1946    0.0010 H   0  0  0  0  0  0  0  0  0  0  0  0
    0.0038   -1.3919    0.0013 C   0  0  0  0  0  0  0  0  0  0  0  0
    0.0009   -2.3915    0.0024 H   0  0  0  0  0  0  0  0  0  0  0  0
    1.2005   -0.6943   -0.0000 C   0  0  0  0  0  0  0  0  0  0  0  0
    2.0841   -1.1923    0.0027 H   0  0  0  0  0  0  0  0  0  0  0  0
    1.1949    0.6913   -0.0024 C   0  0  0  0  0  0  0  0  0  0  0  0
    2.0637    1.1910   -0.0079 H   0  0  0  0  0  0  0  0  0  0  0  0
  1  5  1  0
  5  6  1  0
  5  7  2  0
  1  2  1  0
  1  3  1  0
  1  4  1  0
  8 12  1  0
 12 13  2  0
 13 15  1  0
 15 17  2  0
 17 19  1  0
 19 21  2  0
 21 12  1  0
  8  9  1  0
  8 10  1  0
  8 11  1  0
 13 14  1  0
 15 16  1  0
 17 18  1  0
 19 20  1  0
 21 22  1  0
M  CHG  1   6  -1
M  END
>  <PDB_ID>  (1203) 
pdb3c1m

>  <RESIDUE_NAME>  (1203) 
GLU   PHE

>  <FRAG_NAME>  (1203) 
ACET   MBZ

>  <FRAG_ATOM_NUM>  (1203) 
fragi: 7  fragj: 15

>  <atom.prop.CHAIN_ID>  (1203) 
A A A A A A A Z Z Z Z Z Z Z Z Z Z Z Z Z Z Z

>  <atom.prop.IS_HEAVY_ATOM>  (1203) 
1 0 0 0 1 1 1 1 0 0 0 1 1 0 1 0 1 0 1 0 1 0

>  <DIFUSE_FUNC_ATOM>  (1203) 
atom 6   atom 7   

>  <FINAL_SINGLE_POINT_ENERGY>  (1203) 
0

>  <NONCOV_INTER_ENERGY_QM>  (1203) 
0

>  <FF_Energy>  (1203) 
-0.04

>  <QM_Energy>  (1203) 
-6.68

>  <source>  (1203) 
ACET_MBZ_01

>  <Index>  (1203) 
6469

$$$$
ACET-pdb3c4r-B-GLU-21:MBZ-pdb3c4r-B-PHE-59
     RDKit          3D

 22 21  0  0  0  0  0  0  0  0999 V2000
   -1.2623    0.2147   -3.1280 C   0  0  0  0  0  0  0  0  0  0  0  0
   -1.6916    1.1022   -3.1273 H   0  0  0  0  0  0  0  0  0  0  0  0
   -1.3423   -0.2308   -2.2525 H   0  0  0  0  0  0  0  0  0  0  0  0
   -1.7579   -0.4047   -3.8756 H   0  0  0  0  0  0  0  0  0  0  0  0
    0.2194    0.4251   -3.3980 C   0  0  0  0  0  0  0  0  0  0  0  0
    0.9438   -0.5859   -3.4808 O   0  0  0  0  0  1  0  0  0  0  0  0
    0.6614    1.5973   -3.5210 O   0  0  0  0  0  0  0  0  0  0  0  0
    0.0043    2.9000    0.1066 C   0  0  0  0  0  0  0  0  0  0  0  0
   -0.8289    3.2376   -0.2948 H   0  0  0  0  0  0  0  0  0  0  0  0
    0.8029    3.2388   -0.3606 H   0  0  0  0  0  0  0  0  0  0  0  0
    0.0456    3.2482    1.1387 H   0  0  0  0  0  0  0  0  0  0  0  0
    0.0013    1.4042    0.0001 C   0  0  0  0  0  0  0  0  0  0  0  0
   -1.2012    0.6900    0.0006 C   0  0  0  0  0  0  0  0  0  0  0  0
   -2.0662    1.1810    0.0004 H   0  0  0  0  0  0  0  0  0  0  0  0
   -1.2087   -0.7064    0.0000 C   0  0  0  0  0  0  0  0  0  0  0  0
   -2.0822   -1.1983   -0.0009 H   0  0  0  0  0  0  0  0  0  0  0  0
   -0.0014   -1.3999    0.0021 C   0  0  0  0  0  0  0  0  0  0  0  0
    0.0050   -2.3945    0.0047 H   0  0  0  0  0  0  0  0  0  0  0  0
    1.2087   -0.6896   -0.0000 C   0  0  0  0  0  0  0  0  0  0  0  0
    2.0870   -1.1888    0.0020 H   0  0  0  0  0  0  0  0  0  0  0  0
    1.2013    0.7017   -0.0028 C   0  0  0  0  0  0  0  0  0  0  0  0
    2.0665    1.2006   -0.0080 H   0  0  0  0  0  0  0  0  0  0  0  0
  1  5  1  0
  5  6  1  0
  5  7  2  0
  1  2  1  0
  1  3  1  0
  1  4  1  0
  8 12  1  0
 12 13  2  0
 13 15  1  0
 15 17  2  0
 17 19  1  0
 19 21  2  0
 21 12  1  0
  8  9  1  0
  8 10  1  0
  8 11  1  0
 13 14  1  0
 15 16  1  0
 17 18  1  0
 19 20  1  0
 21 22  1  0
M  CHG  1   6  -1
M  END
>  <PDB_ID>  (1204) 
pdb3c4r

>  <RESIDUE_NAME>  (1204) 
GLU   PHE

>  <FRAG_NAME>  (1204) 
ACET   MBZ

>  <FRAG_ATOM_NUM>  (1204) 
fragi: 7  fragj: 15

>  <atom.prop.CHAIN_ID>  (1204) 
A A A A A A A Z Z Z Z Z Z Z Z Z Z Z Z Z Z Z

>  <atom.prop.IS_HEAVY_ATOM>  (1204) 
1 0 0 0 1 1 1 1 0 0 0 1 1 0 1 0 1 0 1 0 1 0

>  <DIFUSE_FUNC_ATOM>  (1204) 
atom 6   atom 7   

>  <FINAL_SINGLE_POINT_ENERGY>  (1204) 
0

>  <NONCOV_INTER_ENERGY_QM>  (1204) 
0

>  <FF_Energy>  (1204) 
6.96

>  <QM_Energy>  (1204) 
0.9

>  <source>  (1204) 
ACET_MBZ_01

>  <Index>  (1204) 
6574

$$$$
ACET-pdb1yce-n-ASP-2:MBZ-pdb1yce-n-PHE-5
     RDKit          3D

 22 21  0  0  0  0  0  0  0  0999 V2000
   -4.1211    6.0437   -0.7829 C   0  0  0  0  0  0  0  0  0  0  0  0
   -4.3663    7.0081   -0.7290 H   0  0  0  0  0  0  0  0  0  0  0  0
   -4.9224    5.4787   -0.6059 H   0  0  0  0  0  0  0  0  0  0  0  0
   -3.7902    5.8416   -1.8016 H   0  0  0  0  0  0  0  0  0  0  0  0
   -3.0690    5.7502    0.3107 C   0  0  0  0  0  0  0  0  0  0  0  0
   -2.3513    4.7349    0.3114 O   0  0  0  0  0  1  0  0  0  0  0  0
   -3.0064    6.5671    1.2489 O   0  0  0  0  0  0  0  0  0  0  0  0
   -0.0982    2.9491   -0.0093 C   0  0  0  0  0  0  0  0  0  0  0  0
   -0.4529    3.2293    0.8761 H   0  0  0  0  0  0  0  0  0  0  0  0
   -0.7290    3.2045   -0.7332 H   0  0  0  0  0  0  0  0  0  0  0  0
    0.8320    3.4919   -0.1774 H   0  0  0  0  0  0  0  0  0  0  0  0
   -0.0052    1.4128   -0.0016 C   0  0  0  0  0  0  0  0  0  0  0  0
   -1.2042    0.6584   -0.0076 C   0  0  0  0  0  0  0  0  0  0  0  0
   -2.0770    1.1410   -0.0184 H   0  0  0  0  0  0  0  0  0  0  0  0
   -1.1936   -0.7381   -0.0000 C   0  0  0  0  0  0  0  0  0  0  0  0
   -2.0570   -1.2410    0.0027 H   0  0  0  0  0  0  0  0  0  0  0  0
    0.0221   -1.3947    0.0053 C   0  0  0  0  0  0  0  0  0  0  0  0
    0.0521   -2.3932    0.0125 H   0  0  0  0  0  0  0  0  0  0  0  0
    1.1936   -0.6587    0.0000 C   0  0  0  0  0  0  0  0  0  0  0  0
    2.0968   -1.1508   -0.0059 H   0  0  0  0  0  0  0  0  0  0  0  0
    1.1874    0.7204    0.0040 C   0  0  0  0  0  0  0  0  0  0  0  0
    2.0535    1.2218    0.0100 H   0  0  0  0  0  0  0  0  0  0  0  0
  1  5  1  0
  5  6  1  0
  5  7  2  0
  1  2  1  0
  1  3  1  0
  1  4  1  0
  8 12  1  0
 12 13  2  0
 13 15  1  0
 15 17  2  0
 17 19  1  0
 19 21  2  0
 21 12  1  0
  8  9  1  0
  8 10  1  0
  8 11  1  0
 13 14  1  0
 15 16  1  0
 17 18  1  0
 19 20  1  0
 21 22  1  0
M  CHG  1   6  -1
M  END
>  <PDB_ID>  (1205) 
pdb1yce

>  <RESIDUE_NAME>  (1205) 
ASP   PHE

>  <FRAG_NAME>  (1205) 
ACET   MBZ

>  <FRAG_ATOM_NUM>  (1205) 
fragi: 7  fragj: 15

>  <atom.prop.CHAIN_ID>  (1205) 
A A A A A A A Z Z Z Z Z Z Z Z Z Z Z Z Z Z Z

>  <atom.prop.IS_HEAVY_ATOM>  (1205) 
1 0 0 0 1 1 1 1 0 0 0 1 1 0 1 0 1 0 1 0 1 0

>  <DIFUSE_FUNC_ATOM>  (1205) 
atom 6   atom 7   

>  <FINAL_SINGLE_POINT_ENERGY>  (1205) 
0

>  <NONCOV_INTER_ENERGY_QM>  (1205) 
0

>  <FF_Energy>  (1205) 
0.2

>  <QM_Energy>  (1205) 
-5.19

>  <source>  (1205) 
ACET_MBZ_01

>  <Index>  (1205) 
6649

$$$$
ACET-pdb1yce-s-ASP-2:MBZ-pdb1yce-s-PHE-5
     RDKit          3D

 22 21  0  0  0  0  0  0  0  0999 V2000
   -3.8342    6.3406    0.2485 C   0  0  0  0  0  0  0  0  0  0  0  0
   -3.8250    7.3387    0.2954 H   0  0  0  0  0  0  0  0  0  0  0  0
   -4.7110    5.9985    0.5836 H   0  0  0  0  0  0  0  0  0  0  0  0
   -3.7419    6.0548   -0.7993 H   0  0  0  0  0  0  0  0  0  0  0  0
   -2.7297    5.8021    1.1403 C   0  0  0  0  0  0  0  0  0  0  0  0
   -1.8635    5.0663    0.7125 O   0  0  0  0  0  1  0  0  0  0  0  0
   -2.7380    6.1697    2.3203 O   0  0  0  0  0  0  0  0  0  0  0  0
   -0.0581    2.8920   -0.0350 C   0  0  0  0  0  0  0  0  0  0  0  0
   -0.3465    3.2064    0.8614 H   0  0  0  0  0  0  0  0  0  0  0  0
   -0.7102    3.1688   -0.7308 H   0  0  0  0  0  0  0  0  0  0  0  0
    0.8891    3.3805   -0.2636 H   0  0  0  0  0  0  0  0  0  0  0  0
   -0.0097    1.3900   -0.0099 C   0  0  0  0  0  0  0  0  0  0  0  0
   -1.1915    0.6798    0.0042 C   0  0  0  0  0  0  0  0  0  0  0  0
   -2.0640    1.1671    0.0168 H   0  0  0  0  0  0  0  0  0  0  0  0
   -1.1822   -0.6935   -0.0000 C   0  0  0  0  0  0  0  0  0  0  0  0
   -2.0493   -1.2061   -0.0076 H   0  0  0  0  0  0  0  0  0  0  0  0
    0.0301   -1.3735    0.0078 C   0  0  0  0  0  0  0  0  0  0  0  0
    0.0162   -2.3812    0.0193 H   0  0  0  0  0  0  0  0  0  0  0  0
    1.1822   -0.6869    0.0000 C   0  0  0  0  0  0  0  0  0  0  0  0
    2.0860   -1.1728   -0.0029 H   0  0  0  0  0  0  0  0  0  0  0  0
    1.1711    0.6841   -0.0021 C   0  0  0  0  0  0  0  0  0  0  0  0
    2.0461    1.1871    0.0015 H   0  0  0  0  0  0  0  0  0  0  0  0
  1  5  1  0
  5  6  1  0
  5  7  2  0
  1  2  1  0
  1  3  1  0
  1  4  1  0
  8 12  1  0
 12 13  2  0
 13 15  1  0
 15 17  2  0
 17 19  1  0
 19 21  2  0
 21 12  1  0
  8  9  1  0
  8 10  1  0
  8 11  1  0
 13 14  1  0
 15 16  1  0
 17 18  1  0
 19 20  1  0
 21 22  1  0
M  CHG  1   6  -1
M  END
>  <PDB_ID>  (1206) 
pdb1yce

>  <RESIDUE_NAME>  (1206) 
ASP   PHE

>  <FRAG_NAME>  (1206) 
ACET   MBZ

>  <FRAG_ATOM_NUM>  (1206) 
fragi: 7  fragj: 15

>  <atom.prop.CHAIN_ID>  (1206) 
A A A A A A A Z Z Z Z Z Z Z Z Z Z Z Z Z Z Z

>  <atom.prop.IS_HEAVY_ATOM>  (1206) 
1 0 0 0 1 1 1 1 0 0 0 1 1 0 1 0 1 0 1 0 1 0

>  <DIFUSE_FUNC_ATOM>  (1206) 
atom 6   atom 7   

>  <FINAL_SINGLE_POINT_ENERGY>  (1206) 
0

>  <NONCOV_INTER_ENERGY_QM>  (1206) 
0

>  <FF_Energy>  (1206) 
0.18

>  <QM_Energy>  (1206) 
-4.89

>  <source>  (1206) 
ACET_MBZ_01

>  <Index>  (1206) 
6653

$$$$
ACET-pdb3c5x-C-GLU-18:MBZ-pdb3c5x-C-PHE-1
     RDKit          3D

 22 21  0  0  0  0  0  0  0  0999 V2000
   -4.6410    5.0895    0.3142 C   0  0  0  0  0  0  0  0  0  0  0  0
   -5.2500    4.4555   -0.1270 H   0  0  0  0  0  0  0  0  0  0  0  0
   -4.7485    6.0056   -0.0281 H   0  0  0  0  0  0  0  0  0  0  0  0
   -4.8770    5.0966    1.3783 H   0  0  0  0  0  0  0  0  0  0  0  0
   -3.2396    4.6543    0.0479 C   0  0  0  0  0  0  0  0  0  0  0  0
   -2.3316    5.5110    0.0975 O   0  0  0  0  0  1  0  0  0  0  0  0
   -3.0484    3.4426   -0.1915 O   0  0  0  0  0  0  0  0  0  0  0  0
    0.0024    2.9000   -0.0469 C   0  0  0  0  0  0  0  0  0  0  0  0
    0.8673    3.2167    0.3099 H   0  0  0  0  0  0  0  0  0  0  0  0
   -0.7555    3.2273    0.4950 H   0  0  0  0  0  0  0  0  0  0  0  0
   -0.1094    3.3037   -1.0533 H   0  0  0  0  0  0  0  0  0  0  0  0
   -0.0022    1.4002    0.0001 C   0  0  0  0  0  0  0  0  0  0  0  0
   -1.1941    0.6981    0.0001 C   0  0  0  0  0  0  0  0  0  0  0  0
   -2.0628    1.1868   -0.0018 H   0  0  0  0  0  0  0  0  0  0  0  0
   -1.2004   -0.6933   -0.0000 C   0  0  0  0  0  0  0  0  0  0  0  0
   -2.0768   -1.1861    0.0019 H   0  0  0  0  0  0  0  0  0  0  0  0
    0.0025   -1.3924   -0.0005 C   0  0  0  0  0  0  0  0  0  0  0  0
   -0.0069   -2.3920   -0.0019 H   0  0  0  0  0  0  0  0  0  0  0  0
    1.2004   -0.7009   -0.0000 C   0  0  0  0  0  0  0  0  0  0  0  0
    2.0817   -1.1973    0.0018 H   0  0  0  0  0  0  0  0  0  0  0  0
    1.1938    0.6883    0.0003 C   0  0  0  0  0  0  0  0  0  0  0  0
    2.0628    1.1861    0.0002 H   0  0  0  0  0  0  0  0  0  0  0  0
  1  5  1  0
  5  6  1  0
  5  7  2  0
  1  2  1  0
  1  3  1  0
  1  4  1  0
  8 12  1  0
 12 13  2  0
 13 15  1  0
 15 17  2  0
 17 19  1  0
 19 21  2  0
 21 12  1  0
  8  9  1  0
  8 10  1  0
  8 11  1  0
 13 14  1  0
 15 16  1  0
 17 18  1  0
 19 20  1  0
 21 22  1  0
M  CHG  1   6  -1
M  END
>  <PDB_ID>  (1207) 
pdb3c5x

>  <RESIDUE_NAME>  (1207) 
GLU   PHE

>  <FRAG_NAME>  (1207) 
ACET   MBZ

>  <FRAG_ATOM_NUM>  (1207) 
fragi: 7  fragj: 15

>  <atom.prop.CHAIN_ID>  (1207) 
A A A A A A A Z Z Z Z Z Z Z Z Z Z Z Z Z Z Z

>  <atom.prop.IS_HEAVY_ATOM>  (1207) 
1 0 0 0 1 1 1 1 0 0 0 1 1 0 1 0 1 0 1 0 1 0

>  <DIFUSE_FUNC_ATOM>  (1207) 
atom 6   atom 7   

>  <FINAL_SINGLE_POINT_ENERGY>  (1207) 
0

>  <NONCOV_INTER_ENERGY_QM>  (1207) 
0

>  <FF_Energy>  (1207) 
-1.46

>  <QM_Energy>  (1207) 
-8.5

>  <source>  (1207) 
ACET_MBZ_01

>  <Index>  (1207) 
6690

$$$$
ACET-pdb1yde-P-GLU-50:MBZ-pdb1yde-P-PHE-58
     RDKit          3D

 22 21  0  0  0  0  0  0  0  0999 V2000
    1.6076    5.8748   -2.5529 C   0  0  0  0  0  0  0  0  0  0  0  0
    1.8402    5.4661   -3.4143 H   0  0  0  0  0  0  0  0  0  0  0  0
    1.9579    6.7872   -2.4633 H   0  0  0  0  0  0  0  0  0  0  0  0
    0.5208    5.9183   -2.4804 H   0  0  0  0  0  0  0  0  0  0  0  0
    2.2140    5.0367   -1.4633 C   0  0  0  0  0  0  0  0  0  0  0  0
    2.9148    4.0583   -1.7955 O   0  0  0  0  0  1  0  0  0  0  0  0
    1.9740    5.3479   -0.2761 O   0  0  0  0  0  0  0  0  0  0  0  0
   -0.0010    2.9003    0.0049 C   0  0  0  0  0  0  0  0  0  0  0  0
   -0.5292    3.2087   -0.7717 H   0  0  0  0  0  0  0  0  0  0  0  0
    0.9367    3.2075   -0.0528 H   0  0  0  0  0  0  0  0  0  0  0  0
   -0.4409    3.3360    0.9020 H   0  0  0  0  0  0  0  0  0  0  0  0
    0.0004    1.3984    0.0011 C   0  0  0  0  0  0  0  0  0  0  0  0
   -1.1953    0.6931    0.0014 C   0  0  0  0  0  0  0  0  0  0  0  0
   -2.0617    1.1849    0.0011 H   0  0  0  0  0  0  0  0  0  0  0  0
   -1.2011   -0.6948    0.0000 C   0  0  0  0  0  0  0  0  0  0  0  0
   -2.0787   -1.1879    0.0034 H   0  0  0  0  0  0  0  0  0  0  0  0
   -0.0022   -1.3910   -0.0045 C   0  0  0  0  0  0  0  0  0  0  0  0
   -0.0052   -2.3897   -0.0112 H   0  0  0  0  0  0  0  0  0  0  0  0
    1.2011   -0.6951   -0.0000 C   0  0  0  0  0  0  0  0  0  0  0  0
    2.0802   -1.1970    0.0037 H   0  0  0  0  0  0  0  0  0  0  0  0
    1.1971    0.6894    0.0020 C   0  0  0  0  0  0  0  0  0  0  0  0
    2.0645    1.1888    0.0028 H   0  0  0  0  0  0  0  0  0  0  0  0
  1  5  1  0
  5  6  1  0
  5  7  2  0
  1  2  1  0
  1  3  1  0
  1  4  1  0
  8 12  1  0
 12 13  2  0
 13 15  1  0
 15 17  2  0
 17 19  1  0
 19 21  2  0
 21 12  1  0
  8  9  1  0
  8 10  1  0
  8 11  1  0
 13 14  1  0
 15 16  1  0
 17 18  1  0
 19 20  1  0
 21 22  1  0
M  CHG  1   6  -1
M  END
>  <PDB_ID>  (1208) 
pdb1yde

>  <RESIDUE_NAME>  (1208) 
GLU   PHE

>  <FRAG_NAME>  (1208) 
ACET   MBZ

>  <FRAG_ATOM_NUM>  (1208) 
fragi: 7  fragj: 15

>  <atom.prop.CHAIN_ID>  (1208) 
A A A A A A A Z Z Z Z Z Z Z Z Z Z Z Z Z Z Z

>  <atom.prop.IS_HEAVY_ATOM>  (1208) 
1 0 0 0 1 1 1 1 0 0 0 1 1 0 1 0 1 0 1 0 1 0

>  <DIFUSE_FUNC_ATOM>  (1208) 
atom 6   atom 7   

>  <FINAL_SINGLE_POINT_ENERGY>  (1208) 
0

>  <NONCOV_INTER_ENERGY_QM>  (1208) 
0

>  <FF_Energy>  (1208) 
-0.83

>  <QM_Energy>  (1208) 
-6.68

>  <source>  (1208) 
ACET_MBZ_01

>  <Index>  (1208) 
6714

$$$$
ACET-pdb1ydn-D-GLU-3:MBZ-pdb1ydn-D-PHE-262
     RDKit          3D

 22 21  0  0  0  0  0  0  0  0999 V2000
   -4.5838   -1.0883   -0.1861 C   0  0  0  0  0  0  0  0  0  0  0  0
   -3.7582   -1.0694    0.3465 H   0  0  0  0  0  0  0  0  0  0  0  0
   -5.3439   -0.6856    0.2883 H   0  0  0  0  0  0  0  0  0  0  0  0
   -4.4133   -0.5279   -1.1054 H   0  0  0  0  0  0  0  0  0  0  0  0
   -4.9277   -2.5445   -0.4458 C   0  0  0  0  0  0  0  0  0  0  0  0
   -4.2592   -3.1835   -1.2847 O   0  0  0  0  0  1  0  0  0  0  0  0
   -5.8648   -3.0543    0.1970 O   0  0  0  0  0  0  0  0  0  0  0  0
    0.0035    2.8965    0.0495 C   0  0  0  0  0  0  0  0  0  0  0  0
    0.9378    3.1993    0.1802 H   0  0  0  0  0  0  0  0  0  0  0  0
   -0.5714    3.1846    0.8036 H   0  0  0  0  0  0  0  0  0  0  0  0
   -0.3750    3.3731   -0.8547 H   0  0  0  0  0  0  0  0  0  0  0  0
   -0.0013    1.4036    0.0015 C   0  0  0  0  0  0  0  0  0  0  0  0
   -1.1984    0.6977   -0.0021 C   0  0  0  0  0  0  0  0  0  0  0  0
   -2.0644    1.1860   -0.0075 H   0  0  0  0  0  0  0  0  0  0  0  0
   -1.2043   -0.6980   -0.0000 C   0  0  0  0  0  0  0  0  0  0  0  0
   -2.0795   -1.1907    0.0012 H   0  0  0  0  0  0  0  0  0  0  0  0
    0.0030   -1.4014    0.0013 C   0  0  0  0  0  0  0  0  0  0  0  0
   -0.0036   -2.3957    0.0030 H   0  0  0  0  0  0  0  0  0  0  0  0
    1.2043   -0.6996    0.0000 C   0  0  0  0  0  0  0  0  0  0  0  0
    2.0864   -1.1923    0.0013 H   0  0  0  0  0  0  0  0  0  0  0  0
    1.1967    0.6977   -0.0007 C   0  0  0  0  0  0  0  0  0  0  0  0
    2.0643    1.1924   -0.0030 H   0  0  0  0  0  0  0  0  0  0  0  0
  1  5  1  0
  5  6  1  0
  5  7  2  0
  1  2  1  0
  1  3  1  0
  1  4  1  0
  8 12  1  0
 12 13  2  0
 13 15  1  0
 15 17  2  0
 17 19  1  0
 19 21  2  0
 21 12  1  0
  8  9  1  0
  8 10  1  0
  8 11  1  0
 13 14  1  0
 15 16  1  0
 17 18  1  0
 19 20  1  0
 21 22  1  0
M  CHG  1   6  -1
M  END
>  <PDB_ID>  (1209) 
pdb1ydn

>  <RESIDUE_NAME>  (1209) 
GLU   PHE

>  <FRAG_NAME>  (1209) 
ACET   MBZ

>  <FRAG_ATOM_NUM>  (1209) 
fragi: 7  fragj: 15

>  <atom.prop.CHAIN_ID>  (1209) 
A A A A A A A Z Z Z Z Z Z Z Z Z Z Z Z Z Z Z

>  <atom.prop.IS_HEAVY_ATOM>  (1209) 
1 0 0 0 1 1 1 1 0 0 0 1 1 0 1 0 1 0 1 0 1 0

>  <DIFUSE_FUNC_ATOM>  (1209) 
atom 6   atom 7   

>  <FINAL_SINGLE_POINT_ENERGY>  (1209) 
0

>  <NONCOV_INTER_ENERGY_QM>  (1209) 
0

>  <FF_Energy>  (1209) 
4.93

>  <QM_Energy>  (1209) 
-1.29

>  <source>  (1209) 
ACET_MBZ_01

>  <Index>  (1209) 
6729

$$$$
ACET-pdb3c8e-B-ASP-209:MBZ-pdb3c8e-B-PHE-199
     RDKit          3D

 22 21  0  0  0  0  0  0  0  0999 V2000
   -4.6216    2.9994    2.5143 C   0  0  0  0  0  0  0  0  0  0  0  0
   -4.4430    2.5843    3.3929 H   0  0  0  0  0  0  0  0  0  0  0  0
   -5.1080    2.3828    1.9163 H   0  0  0  0  0  0  0  0  0  0  0  0
   -5.2629    3.8641    2.6849 H   0  0  0  0  0  0  0  0  0  0  0  0
   -3.3260    3.4012    1.8772 C   0  0  0  0  0  0  0  0  0  0  0  0
   -3.3131    3.6061    0.6439 O   0  0  0  0  0  1  0  0  0  0  0  0
   -2.3349    3.6227    2.6451 O   0  0  0  0  0  0  0  0  0  0  0  0
    0.0094    2.9204    0.0217 C   0  0  0  0  0  0  0  0  0  0  0  0
    0.9095    3.2064    0.3205 H   0  0  0  0  0  0  0  0  0  0  0  0
   -0.6891    3.2260    0.6537 H   0  0  0  0  0  0  0  0  0  0  0  0
   -0.1898    3.3521   -0.9592 H   0  0  0  0  0  0  0  0  0  0  0  0
   -0.0084    1.4149    0.0255 C   0  0  0  0  0  0  0  0  0  0  0  0
   -1.2149    0.6903   -0.0031 C   0  0  0  0  0  0  0  0  0  0  0  0
   -2.0818    1.1638   -0.0272 H   0  0  0  0  0  0  0  0  0  0  0  0
   -1.2157   -0.7386    0.0000 C   0  0  0  0  0  0  0  0  0  0  0  0
   -2.0713   -1.2263    0.0116 H   0  0  0  0  0  0  0  0  0  0  0  0
    0.0179   -1.3978   -0.0120 C   0  0  0  0  0  0  0  0  0  0  0  0
    0.0372   -2.4016   -0.0297 H   0  0  0  0  0  0  0  0  0  0  0  0
    1.2157   -0.6802    0.0000 C   0  0  0  0  0  0  0  0  0  0  0  0
    2.1020   -1.1736    0.0184 H   0  0  0  0  0  0  0  0  0  0  0  0
    1.2054    0.7115   -0.0104 C   0  0  0  0  0  0  0  0  0  0  0  0
    2.0628    1.2164   -0.0439 H   0  0  0  0  0  0  0  0  0  0  0  0
  1  5  1  0
  5  6  1  0
  5  7  2  0
  1  2  1  0
  1  3  1  0
  1  4  1  0
  8 12  1  0
 12 13  2  0
 13 15  1  0
 15 17  2  0
 17 19  1  0
 19 21  2  0
 21 12  1  0
  8  9  1  0
  8 10  1  0
  8 11  1  0
 13 14  1  0
 15 16  1  0
 17 18  1  0
 19 20  1  0
 21 22  1  0
M  CHG  1   6  -1
M  END
>  <PDB_ID>  (1210) 
pdb3c8e

>  <RESIDUE_NAME>  (1210) 
ASP   PHE

>  <FRAG_NAME>  (1210) 
ACET   MBZ

>  <FRAG_ATOM_NUM>  (1210) 
fragi: 7  fragj: 15

>  <atom.prop.CHAIN_ID>  (1210) 
A A A A A A A Z Z Z Z Z Z Z Z Z Z Z Z Z Z Z

>  <atom.prop.IS_HEAVY_ATOM>  (1210) 
1 0 0 0 1 1 1 1 0 0 0 1 1 0 1 0 1 0 1 0 1 0

>  <DIFUSE_FUNC_ATOM>  (1210) 
atom 6   atom 7   

>  <FINAL_SINGLE_POINT_ENERGY>  (1210) 
0

>  <NONCOV_INTER_ENERGY_QM>  (1210) 
0

>  <FF_Energy>  (1210) 
-1.82

>  <QM_Energy>  (1210) 
-8.27

>  <source>  (1210) 
ACET_MBZ_01

>  <Index>  (1210) 
6864

$$$$
ACET-pdb1ydm-B-ASP-127:MBZ-pdb1ydm-B-PHE-131
     RDKit          3D

 22 21  0  0  0  0  0  0  0  0999 V2000
    3.4700    5.8821    0.3037 C   0  0  0  0  0  0  0  0  0  0  0  0
    4.4193    5.7541    0.5672 H   0  0  0  0  0  0  0  0  0  0  0  0
    2.9177    6.1136    1.0963 H   0  0  0  0  0  0  0  0  0  0  0  0
    3.4290    6.7250   -0.3862 H   0  0  0  0  0  0  0  0  0  0  0  0
    2.9477    4.5870   -0.2993 C   0  0  0  0  0  0  0  0  0  0  0  0
    3.1104    3.5397    0.3585 O   0  0  0  0  0  1  0  0  0  0  0  0
    2.3728    4.6089   -1.4103 O   0  0  0  0  0  0  0  0  0  0  0  0
   -0.0097    2.9076   -0.0101 C   0  0  0  0  0  0  0  0  0  0  0  0
    0.9281    3.2184    0.0044 H   0  0  0  0  0  0  0  0  0  0  0  0
   -0.5048    3.2166    0.7866 H   0  0  0  0  0  0  0  0  0  0  0  0
   -0.4910    3.3367   -0.8889 H   0  0  0  0  0  0  0  0  0  0  0  0
   -0.0014    1.4043   -0.0002 C   0  0  0  0  0  0  0  0  0  0  0  0
   -1.2010    0.6925   -0.0001 C   0  0  0  0  0  0  0  0  0  0  0  0
   -2.0669    1.1827   -0.0019 H   0  0  0  0  0  0  0  0  0  0  0  0
   -1.2061   -0.7016    0.0000 C   0  0  0  0  0  0  0  0  0  0  0  0
   -2.0790   -1.1965    0.0011 H   0  0  0  0  0  0  0  0  0  0  0  0
    0.0025   -1.3961   -0.0002 C   0  0  0  0  0  0  0  0  0  0  0  0
    0.0002   -2.3943   -0.0012 H   0  0  0  0  0  0  0  0  0  0  0  0
    1.2061   -0.6968   -0.0000 C   0  0  0  0  0  0  0  0  0  0  0  0
    2.0869   -1.1929    0.0016 H   0  0  0  0  0  0  0  0  0  0  0  0
    1.1998    0.6977    0.0005 C   0  0  0  0  0  0  0  0  0  0  0  0
    2.0651    1.1950    0.0005 H   0  0  0  0  0  0  0  0  0  0  0  0
  1  5  1  0
  5  6  1  0
  5  7  2  0
  1  2  1  0
  1  3  1  0
  1  4  1  0
  8 12  1  0
 12 13  2  0
 13 15  1  0
 15 17  2  0
 17 19  1  0
 19 21  2  0
 21 12  1  0
  8  9  1  0
  8 10  1  0
  8 11  1  0
 13 14  1  0
 15 16  1  0
 17 18  1  0
 19 20  1  0
 21 22  1  0
M  CHG  1   6  -1
M  END
>  <PDB_ID>  (1211) 
pdb1ydm

>  <RESIDUE_NAME>  (1211) 
ASP   PHE

>  <FRAG_NAME>  (1211) 
ACET   MBZ

>  <FRAG_ATOM_NUM>  (1211) 
fragi: 7  fragj: 15

>  <atom.prop.CHAIN_ID>  (1211) 
A A A A A A A Z Z Z Z Z Z Z Z Z Z Z Z Z Z Z

>  <atom.prop.IS_HEAVY_ATOM>  (1211) 
1 0 0 0 1 1 1 1 0 0 0 1 1 0 1 0 1 0 1 0 1 0

>  <DIFUSE_FUNC_ATOM>  (1211) 
atom 6   atom 7   

>  <FINAL_SINGLE_POINT_ENERGY>  (1211) 
0

>  <NONCOV_INTER_ENERGY_QM>  (1211) 
0

>  <FF_Energy>  (1211) 
0.6

>  <QM_Energy>  (1211) 
-8.53

>  <source>  (1211) 
ACET_MBZ_01

>  <Index>  (1211) 
6868

$$$$
ACET-pdb1yhk-A-GLU-225:MBZ-pdb1yhk-A-PHE-148
     RDKit          3D

 22 21  0  0  0  0  0  0  0  0999 V2000
    5.6472    2.5855   -0.9826 C   0  0  0  0  0  0  0  0  0  0  0  0
    5.2859    1.7314   -1.2887 H   0  0  0  0  0  0  0  0  0  0  0  0
    6.3247    2.4928   -0.2849 H   0  0  0  0  0  0  0  0  0  0  0  0
    6.1104    3.0786   -1.8374 H   0  0  0  0  0  0  0  0  0  0  0  0
    4.4745    3.3960   -0.3835 C   0  0  0  0  0  0  0  0  0  0  0  0
    4.4095    4.7092   -0.3731 O   0  0  0  0  0  1  0  0  0  0  0  0
    3.5881    2.6833    0.1187 O   0  0  0  0  0  0  0  0  0  0  0  0
    0.0263    2.9147   -0.0196 C   0  0  0  0  0  0  0  0  0  0  0  0
   -0.6252    3.2289   -0.6890 H   0  0  0  0  0  0  0  0  0  0  0  0
    0.9416    3.2121   -0.2290 H   0  0  0  0  0  0  0  0  0  0  0  0
   -0.2495    3.3585    0.9371 H   0  0  0  0  0  0  0  0  0  0  0  0
    0.0086    1.4076   -0.0139 C   0  0  0  0  0  0  0  0  0  0  0  0
   -1.1930    0.7038   -0.0098 C   0  0  0  0  0  0  0  0  0  0  0  0
   -2.0573    1.1869   -0.0153 H   0  0  0  0  0  0  0  0  0  0  0  0
   -1.1931   -0.7009    0.0000 C   0  0  0  0  0  0  0  0  0  0  0  0
   -2.0866   -1.1767   -0.0214 H   0  0  0  0  0  0  0  0  0  0  0  0
   -0.0281   -1.3775    0.0380 C   0  0  0  0  0  0  0  0  0  0  0  0
   -0.0287   -2.3926    0.0955 H   0  0  0  0  0  0  0  0  0  0  0  0
    1.1931   -0.7177   -0.0000 C   0  0  0  0  0  0  0  0  0  0  0  0
    2.0583   -1.2278   -0.0154 H   0  0  0  0  0  0  0  0  0  0  0  0
    1.2125    0.6847   -0.0144 C   0  0  0  0  0  0  0  0  0  0  0  0
    2.0780    1.1673   -0.0260 H   0  0  0  0  0  0  0  0  0  0  0  0
  1  5  1  0
  5  6  1  0
  5  7  2  0
  1  2  1  0
  1  3  1  0
  1  4  1  0
  8 12  1  0
 12 13  2  0
 13 15  1  0
 15 17  2  0
 17 19  1  0
 19 21  2  0
 21 12  1  0
  8  9  1  0
  8 10  1  0
  8 11  1  0
 13 14  1  0
 15 16  1  0
 17 18  1  0
 19 20  1  0
 21 22  1  0
M  CHG  1   6  -1
M  END
>  <PDB_ID>  (1212) 
pdb1yhk

>  <RESIDUE_NAME>  (1212) 
GLU   PHE

>  <FRAG_NAME>  (1212) 
ACET   MBZ

>  <FRAG_ATOM_NUM>  (1212) 
fragi: 7  fragj: 15

>  <atom.prop.CHAIN_ID>  (1212) 
A A A A A A A Z Z Z Z Z Z Z Z Z Z Z Z Z Z Z

>  <atom.prop.IS_HEAVY_ATOM>  (1212) 
1 0 0 0 1 1 1 1 0 0 0 1 1 0 1 0 1 0 1 0 1 0

>  <DIFUSE_FUNC_ATOM>  (1212) 
atom 6   atom 7   

>  <FINAL_SINGLE_POINT_ENERGY>  (1212) 
0

>  <NONCOV_INTER_ENERGY_QM>  (1212) 
0

>  <FF_Energy>  (1212) 
0.2

>  <QM_Energy>  (1212) 
-8.18

>  <source>  (1212) 
ACET_MBZ_01

>  <Index>  (1212) 
6936

$$$$
ACET-pdb3c7m-B-GLU-191:MBZ-pdb3c7m-B-PHE-1
     RDKit          3D

 22 21  0  0  0  0  0  0  0  0999 V2000
    5.4303    2.9003    1.5733 C   0  0  0  0  0  0  0  0  0  0  0  0
    5.4125    3.6052    2.2639 H   0  0  0  0  0  0  0  0  0  0  0  0
    6.2904    2.8884    1.0887 H   0  0  0  0  0  0  0  0  0  0  0  0
    5.3106    1.9385    2.0722 H   0  0  0  0  0  0  0  0  0  0  0  0
    4.3393    3.2145    0.5651 C   0  0  0  0  0  0  0  0  0  0  0  0
    3.9517    2.3186   -0.2103 O   0  0  0  0  0  1  0  0  0  0  0  0
    3.8799    4.3778    0.5353 O   0  0  0  0  0  0  0  0  0  0  0  0
   -0.0081    2.9079   -0.0107 C   0  0  0  0  0  0  0  0  0  0  0  0
    0.8849    3.2182    0.2704 H   0  0  0  0  0  0  0  0  0  0  0  0
   -0.7121    3.2147    0.6079 H   0  0  0  0  0  0  0  0  0  0  0  0
   -0.2168    3.3340   -0.9921 H   0  0  0  0  0  0  0  0  0  0  0  0
   -0.0027    1.4025   -0.0016 C   0  0  0  0  0  0  0  0  0  0  0  0
   -1.1968    0.6916   -0.0002 C   0  0  0  0  0  0  0  0  0  0  0  0
   -2.0653    1.1808   -0.0006 H   0  0  0  0  0  0  0  0  0  0  0  0
   -1.2008   -0.6999   -0.0000 C   0  0  0  0  0  0  0  0  0  0  0  0
   -2.0747   -1.1951    0.0002 H   0  0  0  0  0  0  0  0  0  0  0  0
    0.0047   -1.3933    0.0017 C   0  0  0  0  0  0  0  0  0  0  0  0
   -0.0012   -2.3933    0.0037 H   0  0  0  0  0  0  0  0  0  0  0  0
    1.2008   -0.6993   -0.0000 C   0  0  0  0  0  0  0  0  0  0  0  0
    2.0854   -1.1906    0.0003 H   0  0  0  0  0  0  0  0  0  0  0  0
    1.1947    0.6984    0.0001 C   0  0  0  0  0  0  0  0  0  0  0  0
    2.0624    1.1927    0.0004 H   0  0  0  0  0  0  0  0  0  0  0  0
  1  5  1  0
  5  6  1  0
  5  7  2  0
  1  2  1  0
  1  3  1  0
  1  4  1  0
  8 12  1  0
 12 13  2  0
 13 15  1  0
 15 17  2  0
 17 19  1  0
 19 21  2  0
 21 12  1  0
  8  9  1  0
  8 10  1  0
  8 11  1  0
 13 14  1  0
 15 16  1  0
 17 18  1  0
 19 20  1  0
 21 22  1  0
M  CHG  1   6  -1
M  END
>  <PDB_ID>  (1213) 
pdb3c7m

>  <RESIDUE_NAME>  (1213) 
GLU   PHE

>  <FRAG_NAME>  (1213) 
ACET   MBZ

>  <FRAG_ATOM_NUM>  (1213) 
fragi: 7  fragj: 15

>  <atom.prop.CHAIN_ID>  (1213) 
A A A A A A A Z Z Z Z Z Z Z Z Z Z Z Z Z Z Z

>  <atom.prop.IS_HEAVY_ATOM>  (1213) 
1 0 0 0 1 1 1 1 0 0 0 1 1 0 1 0 1 0 1 0 1 0

>  <DIFUSE_FUNC_ATOM>  (1213) 
atom 6   atom 7   

>  <FINAL_SINGLE_POINT_ENERGY>  (1213) 
0

>  <NONCOV_INTER_ENERGY_QM>  (1213) 
0

>  <FF_Energy>  (1213) 
-1.25

>  <QM_Energy>  (1213) 
-8.36

>  <source>  (1213) 
ACET_MBZ_01

>  <Index>  (1213) 
6945

$$$$
ACET-pdb3c9r-B-GLU-228:MBZ-pdb3c9r-B-PHE-292
     RDKit          3D

 22 21  0  0  0  0  0  0  0  0999 V2000
   -0.4571    4.3291   -3.3204 C   0  0  0  0  0  0  0  0  0  0  0  0
    0.0373    5.1393   -3.5642 H   0  0  0  0  0  0  0  0  0  0  0  0
   -0.4196    4.1352   -2.3602 H   0  0  0  0  0  0  0  0  0  0  0  0
   -1.5004    4.4632   -3.6064 H   0  0  0  0  0  0  0  0  0  0  0  0
    0.1872    3.1621   -4.0474 C   0  0  0  0  0  0  0  0  0  0  0  0
    0.1314    3.1329   -5.2954 O   0  0  0  0  0  1  0  0  0  0  0  0
    0.7480    2.2735   -3.3702 O   0  0  0  0  0  0  0  0  0  0  0  0
    0.0050    2.8998   -0.0317 C   0  0  0  0  0  0  0  0  0  0  0  0
   -0.4875    3.1917   -0.8393 H   0  0  0  0  0  0  0  0  0  0  0  0
    0.9470    3.2038   -0.0599 H   0  0  0  0  0  0  0  0  0  0  0  0
   -0.4684    3.3669    0.8319 H   0  0  0  0  0  0  0  0  0  0  0  0
    0.0006    1.3990   -0.0003 C   0  0  0  0  0  0  0  0  0  0  0  0
   -1.1963    0.6899    0.0002 C   0  0  0  0  0  0  0  0  0  0  0  0
   -2.0628    1.1815   -0.0002 H   0  0  0  0  0  0  0  0  0  0  0  0
   -1.2022   -0.6992   -0.0000 C   0  0  0  0  0  0  0  0  0  0  0  0
   -2.0768   -1.1938    0.0021 H   0  0  0  0  0  0  0  0  0  0  0  0
    0.0003   -1.3915   -0.0014 C   0  0  0  0  0  0  0  0  0  0  0  0
    0.0009   -2.3897   -0.0038 H   0  0  0  0  0  0  0  0  0  0  0  0
    1.2022   -0.6907    0.0000 C   0  0  0  0  0  0  0  0  0  0  0  0
    2.0828   -1.1911    0.0009 H   0  0  0  0  0  0  0  0  0  0  0  0
    1.1954    0.6924    0.0015 C   0  0  0  0  0  0  0  0  0  0  0  0
    2.0638    1.1931    0.0028 H   0  0  0  0  0  0  0  0  0  0  0  0
  1  5  1  0
  5  6  1  0
  5  7  2  0
  1  2  1  0
  1  3  1  0
  1  4  1  0
  8 12  1  0
 12 13  2  0
 13 15  1  0
 15 17  2  0
 17 19  1  0
 19 21  2  0
 21 12  1  0
  8  9  1  0
  8 10  1  0
  8 11  1  0
 13 14  1  0
 15 16  1  0
 17 18  1  0
 19 20  1  0
 21 22  1  0
M  CHG  1   6  -1
M  END
>  <PDB_ID>  (1214) 
pdb3c9r

>  <RESIDUE_NAME>  (1214) 
GLU   PHE

>  <FRAG_NAME>  (1214) 
ACET   MBZ

>  <FRAG_ATOM_NUM>  (1214) 
fragi: 7  fragj: 15

>  <atom.prop.CHAIN_ID>  (1214) 
A A A A A A A Z Z Z Z Z Z Z Z Z Z Z Z Z Z Z

>  <atom.prop.IS_HEAVY_ATOM>  (1214) 
1 0 0 0 1 1 1 1 0 0 0 1 1 0 1 0 1 0 1 0 1 0

>  <DIFUSE_FUNC_ATOM>  (1214) 
atom 6   atom 7   

>  <FINAL_SINGLE_POINT_ENERGY>  (1214) 
0

>  <NONCOV_INTER_ENERGY_QM>  (1214) 
0

>  <FF_Energy>  (1214) 
4.69

>  <QM_Energy>  (1214) 
-0.84

>  <source>  (1214) 
ACET_MBZ_01

>  <Index>  (1214) 
6987

$$$$
ACET-pdb3cax-A-GLU-192:MBZ-pdb3cax-A-PHE-188
     RDKit          3D

 22 21  0  0  0  0  0  0  0  0999 V2000
    1.2709    5.3936    3.6015 C   0  0  0  0  0  0  0  0  0  0  0  0
    1.9128    5.0412    4.2613 H   0  0  0  0  0  0  0  0  0  0  0  0
    0.5107    4.7803    3.4680 H   0  0  0  0  0  0  0  0  0  0  0  0
    0.8931    6.3524    3.9566 H   0  0  0  0  0  0  0  0  0  0  0  0
    2.0220    5.4668    2.2482 C   0  0  0  0  0  0  0  0  0  0  0  0
    2.4158    6.5590    1.7894 O   0  0  0  0  0  1  0  0  0  0  0  0
    2.2350    4.3999    1.6353 O   0  0  0  0  0  0  0  0  0  0  0  0
    0.0139    2.8929   -0.0007 C   0  0  0  0  0  0  0  0  0  0  0  0
    0.4243    3.1933   -0.8493 H   0  0  0  0  0  0  0  0  0  0  0  0
    0.5381    3.2021    0.7793 H   0  0  0  0  0  0  0  0  0  0  0  0
   -0.9741    3.3484    0.0661 H   0  0  0  0  0  0  0  0  0  0  0  0
   -0.0013    1.3929    0.0087 C   0  0  0  0  0  0  0  0  0  0  0  0
   -1.1940    0.6949    0.0014 C   0  0  0  0  0  0  0  0  0  0  0  0
   -2.0589    1.1851   -0.0038 H   0  0  0  0  0  0  0  0  0  0  0  0
   -1.1904   -0.6843    0.0000 C   0  0  0  0  0  0  0  0  0  0  0  0
   -2.0686   -1.1863    0.0046 H   0  0  0  0  0  0  0  0  0  0  0  0
    0.0079   -1.3821   -0.0055 C   0  0  0  0  0  0  0  0  0  0  0  0
   -0.0092   -2.3852   -0.0139 H   0  0  0  0  0  0  0  0  0  0  0  0
    1.1904   -0.7007   -0.0000 C   0  0  0  0  0  0  0  0  0  0  0  0
    2.0780   -1.1971    0.0084 H   0  0  0  0  0  0  0  0  0  0  0  0
    1.1873    0.6793   -0.0046 C   0  0  0  0  0  0  0  0  0  0  0  0
    2.0595    1.1779   -0.0181 H   0  0  0  0  0  0  0  0  0  0  0  0
  1  5  1  0
  5  6  1  0
  5  7  2  0
  1  2  1  0
  1  3  1  0
  1  4  1  0
  8 12  1  0
 12 13  2  0
 13 15  1  0
 15 17  2  0
 17 19  1  0
 19 21  2  0
 21 12  1  0
  8  9  1  0
  8 10  1  0
  8 11  1  0
 13 14  1  0
 15 16  1  0
 17 18  1  0
 19 20  1  0
 21 22  1  0
M  CHG  1   6  -1
M  END
>  <PDB_ID>  (1215) 
pdb3cax

>  <RESIDUE_NAME>  (1215) 
GLU   PHE

>  <FRAG_NAME>  (1215) 
ACET   MBZ

>  <FRAG_ATOM_NUM>  (1215) 
fragi: 7  fragj: 15

>  <atom.prop.CHAIN_ID>  (1215) 
A A A A A A A Z Z Z Z Z Z Z Z Z Z Z Z Z Z Z

>  <atom.prop.IS_HEAVY_ATOM>  (1215) 
1 0 0 0 1 1 1 1 0 0 0 1 1 0 1 0 1 0 1 0 1 0

>  <DIFUSE_FUNC_ATOM>  (1215) 
atom 6   atom 7   

>  <FINAL_SINGLE_POINT_ENERGY>  (1215) 
0

>  <NONCOV_INTER_ENERGY_QM>  (1215) 
0

>  <FF_Energy>  (1215) 
-0.07

>  <QM_Energy>  (1215) 
-5.63

>  <source>  (1215) 
ACET_MBZ_01

>  <Index>  (1215) 
7021

$$$$
ACET-pdb1ykw-A-ASP-5:MBZ-pdb1ykw-A-PHE-59
     RDKit          3D

 22 21  0  0  0  0  0  0  0  0999 V2000
    2.3372   -3.5220   -1.3565 C   0  0  0  0  0  0  0  0  0  0  0  0
    2.2431   -4.2806   -0.7298 H   0  0  0  0  0  0  0  0  0  0  0  0
    2.2575   -2.6557   -0.8887 H   0  0  0  0  0  0  0  0  0  0  0  0
    3.3271   -3.5752   -1.8096 H   0  0  0  0  0  0  0  0  0  0  0  0
    1.2435   -3.6156   -2.4037 C   0  0  0  0  0  0  0  0  0  0  0  0
    0.2158   -2.9177   -2.2808 O   0  0  0  0  0  1  0  0  0  0  0  0
    1.4402   -4.3783   -3.3789 O   0  0  0  0  0  0  0  0  0  0  0  0
    0.0016    2.8888    0.0074 C   0  0  0  0  0  0  0  0  0  0  0  0
   -0.7547    3.2027   -0.5453 H   0  0  0  0  0  0  0  0  0  0  0  0
    0.8674    3.1989   -0.3541 H   0  0  0  0  0  0  0  0  0  0  0  0
   -0.1143    3.3242    1.0000 H   0  0  0  0  0  0  0  0  0  0  0  0
   -0.0008    1.3903    0.0002 C   0  0  0  0  0  0  0  0  0  0  0  0
   -1.1951    0.6824   -0.0048 C   0  0  0  0  0  0  0  0  0  0  0  0
   -2.0623    1.1760   -0.0134 H   0  0  0  0  0  0  0  0  0  0  0  0
   -1.1986   -0.6990   -0.0000 C   0  0  0  0  0  0  0  0  0  0  0  0
   -2.0717   -1.1979   -0.0004 H   0  0  0  0  0  0  0  0  0  0  0  0
    0.0029   -1.3788    0.0073 C   0  0  0  0  0  0  0  0  0  0  0  0
    0.0074   -2.3821    0.0174 H   0  0  0  0  0  0  0  0  0  0  0  0
    1.1986   -0.6816    0.0000 C   0  0  0  0  0  0  0  0  0  0  0  0
    2.0809   -1.1878   -0.0015 H   0  0  0  0  0  0  0  0  0  0  0  0
    1.1929    0.6868   -0.0026 C   0  0  0  0  0  0  0  0  0  0  0  0
    2.0597    1.1932   -0.0071 H   0  0  0  0  0  0  0  0  0  0  0  0
  1  5  1  0
  5  6  1  0
  5  7  2  0
  1  2  1  0
  1  3  1  0
  1  4  1  0
  8 12  1  0
 12 13  2  0
 13 15  1  0
 15 17  2  0
 17 19  1  0
 19 21  2  0
 21 12  1  0
  8  9  1  0
  8 10  1  0
  8 11  1  0
 13 14  1  0
 15 16  1  0
 17 18  1  0
 19 20  1  0
 21 22  1  0
M  CHG  1   6  -1
M  END
>  <PDB_ID>  (1216) 
pdb1ykw

>  <RESIDUE_NAME>  (1216) 
ASP   PHE

>  <FRAG_NAME>  (1216) 
ACET   MBZ

>  <FRAG_ATOM_NUM>  (1216) 
fragi: 7  fragj: 15

>  <atom.prop.CHAIN_ID>  (1216) 
A A A A A A A Z Z Z Z Z Z Z Z Z Z Z Z Z Z Z

>  <atom.prop.IS_HEAVY_ATOM>  (1216) 
1 0 0 0 1 1 1 1 0 0 0 1 1 0 1 0 1 0 1 0 1 0

>  <DIFUSE_FUNC_ATOM>  (1216) 
atom 6   atom 7   

>  <FINAL_SINGLE_POINT_ENERGY>  (1216) 
0

>  <NONCOV_INTER_ENERGY_QM>  (1216) 
0

>  <FF_Energy>  (1216) 
10.13

>  <QM_Energy>  (1216) 
1.69

>  <source>  (1216) 
ACET_MBZ_01

>  <Index>  (1216) 
7108

$$$$
ACET-pdb3cc6-A-GLU-541:MBZ-pdb3cc6-A-PHE-672
     RDKit          3D

 22 21  0  0  0  0  0  0  0  0999 V2000
    4.6522    3.5225    0.2875 C   0  0  0  0  0  0  0  0  0  0  0  0
    5.1494    4.3399    0.4707 H   0  0  0  0  0  0  0  0  0  0  0  0
    5.1908    2.8130   -0.1061 H   0  0  0  0  0  0  0  0  0  0  0  0
    4.2536    3.1556    1.2333 H   0  0  0  0  0  0  0  0  0  0  0  0
    3.5363    3.8590   -0.6853 C   0  0  0  0  0  0  0  0  0  0  0  0
    2.8691    4.9006   -0.4810 O   0  0  0  0  0  1  0  0  0  0  0  0
    3.2909    3.0644   -1.6279 O   0  0  0  0  0  0  0  0  0  0  0  0
    0.0007    2.8906    0.0395 C   0  0  0  0  0  0  0  0  0  0  0  0
    0.9275    3.1961    0.2052 H   0  0  0  0  0  0  0  0  0  0  0  0
   -0.6089    3.1962    0.7577 H   0  0  0  0  0  0  0  0  0  0  0  0
   -0.3343    3.3487   -0.8911 H   0  0  0  0  0  0  0  0  0  0  0  0
   -0.0098    1.4098    0.0089 C   0  0  0  0  0  0  0  0  0  0  0  0
   -1.2076    0.6890    0.0027 C   0  0  0  0  0  0  0  0  0  0  0  0
   -2.0765    1.1714   -0.0012 H   0  0  0  0  0  0  0  0  0  0  0  0
   -1.2076   -0.7145   -0.0000 C   0  0  0  0  0  0  0  0  0  0  0  0
   -2.0681   -1.2160    0.0024 H   0  0  0  0  0  0  0  0  0  0  0  0
    0.0266   -1.4106   -0.0048 C   0  0  0  0  0  0  0  0  0  0  0  0
    0.0289   -2.3980   -0.0123 H   0  0  0  0  0  0  0  0  0  0  0  0
    1.2076   -0.6813    0.0000 C   0  0  0  0  0  0  0  0  0  0  0  0
    2.1039   -1.1674    0.0104 H   0  0  0  0  0  0  0  0  0  0  0  0
    1.1907    0.7076   -0.0069 C   0  0  0  0  0  0  0  0  0  0  0  0
    2.0564    1.2116   -0.0241 H   0  0  0  0  0  0  0  0  0  0  0  0
  1  5  1  0
  5  6  1  0
  5  7  2  0
  1  2  1  0
  1  3  1  0
  1  4  1  0
  8 12  1  0
 12 13  2  0
 13 15  1  0
 15 17  2  0
 17 19  1  0
 19 21  2  0
 21 12  1  0
  8  9  1  0
  8 10  1  0
  8 11  1  0
 13 14  1  0
 15 16  1  0
 17 18  1  0
 19 20  1  0
 21 22  1  0
M  CHG  1   6  -1
M  END
>  <PDB_ID>  (1217) 
pdb3cc6

>  <RESIDUE_NAME>  (1217) 
GLU   PHE

>  <FRAG_NAME>  (1217) 
ACET   MBZ

>  <FRAG_ATOM_NUM>  (1217) 
fragi: 7  fragj: 15

>  <atom.prop.CHAIN_ID>  (1217) 
A A A A A A A Z Z Z Z Z Z Z Z Z Z Z Z Z Z Z

>  <atom.prop.IS_HEAVY_ATOM>  (1217) 
1 0 0 0 1 1 1 1 0 0 0 1 1 0 1 0 1 0 1 0 1 0

>  <DIFUSE_FUNC_ATOM>  (1217) 
atom 6   atom 7   

>  <FINAL_SINGLE_POINT_ENERGY>  (1217) 
0

>  <NONCOV_INTER_ENERGY_QM>  (1217) 
0

>  <FF_Energy>  (1217) 
-2.27

>  <QM_Energy>  (1217) 
-7.34

>  <source>  (1217) 
ACET_MBZ_01

>  <Index>  (1217) 
7116

$$$$
ACET-pdb1ylf-C-ASP-79:MBZ-pdb1ylf-C-PHE-56
     RDKit          3D

 22 21  0  0  0  0  0  0  0  0999 V2000
   -0.4285   -4.0055    1.8079 C   0  0  0  0  0  0  0  0  0  0  0  0
   -0.1865   -3.4388    2.5851 H   0  0  0  0  0  0  0  0  0  0  0  0
   -0.5028   -3.4588    0.9841 H   0  0  0  0  0  0  0  0  0  0  0  0
    0.3781   -4.7231    1.6579 H   0  0  0  0  0  0  0  0  0  0  0  0
   -1.7520   -4.6774    2.0783 C   0  0  0  0  0  0  0  0  0  0  0  0
   -1.9859   -5.7443    1.5042 O   0  0  0  0  0  1  0  0  0  0  0  0
   -2.5325   -4.1754    2.8959 O   0  0  0  0  0  0  0  0  0  0  0  0
   -0.0032    2.8614   -0.0167 C   0  0  0  0  0  0  0  0  0  0  0  0
    0.8480    3.1827   -0.4080 H   0  0  0  0  0  0  0  0  0  0  0  0
   -0.1166    3.1939    0.9097 H   0  0  0  0  0  0  0  0  0  0  0  0
   -0.8082    3.2966   -0.6089 H   0  0  0  0  0  0  0  0  0  0  0  0
   -0.0046    1.3928   -0.0060 C   0  0  0  0  0  0  0  0  0  0  0  0
   -1.2078    0.6889    0.0078 C   0  0  0  0  0  0  0  0  0  0  0  0
   -2.0694    1.1847    0.0221 H   0  0  0  0  0  0  0  0  0  0  0  0
   -1.2107   -0.6932   -0.0000 C   0  0  0  0  0  0  0  0  0  0  0  0
   -2.0737   -1.1999    0.0020 H   0  0  0  0  0  0  0  0  0  0  0  0
    0.0127   -1.3837   -0.0094 C   0  0  0  0  0  0  0  0  0  0  0  0
    0.0019   -2.3870   -0.0235 H   0  0  0  0  0  0  0  0  0  0  0  0
    1.2107   -0.6960   -0.0000 C   0  0  0  0  0  0  0  0  0  0  0  0
    2.0908   -1.1915    0.0027 H   0  0  0  0  0  0  0  0  0  0  0  0
    1.1996    0.6911    0.0076 C   0  0  0  0  0  0  0  0  0  0  0  0
    2.0629    1.1949    0.0218 H   0  0  0  0  0  0  0  0  0  0  0  0
  1  5  1  0
  5  6  1  0
  5  7  2  0
  1  2  1  0
  1  3  1  0
  1  4  1  0
  8 12  1  0
 12 13  2  0
 13 15  1  0
 15 17  2  0
 17 19  1  0
 19 21  2  0
 21 12  1  0
  8  9  1  0
  8 10  1  0
  8 11  1  0
 13 14  1  0
 15 16  1  0
 17 18  1  0
 19 20  1  0
 21 22  1  0
M  CHG  1   6  -1
M  END
>  <PDB_ID>  (1218) 
pdb1ylf

>  <RESIDUE_NAME>  (1218) 
ASP   PHE

>  <FRAG_NAME>  (1218) 
ACET   MBZ

>  <FRAG_ATOM_NUM>  (1218) 
fragi: 7  fragj: 15

>  <atom.prop.CHAIN_ID>  (1218) 
A A A A A A A Z Z Z Z Z Z Z Z Z Z Z Z Z Z Z

>  <atom.prop.IS_HEAVY_ATOM>  (1218) 
1 0 0 0 1 1 1 1 0 0 0 1 1 0 1 0 1 0 1 0 1 0

>  <DIFUSE_FUNC_ATOM>  (1218) 
atom 6   atom 7   

>  <FINAL_SINGLE_POINT_ENERGY>  (1218) 
0

>  <NONCOV_INTER_ENERGY_QM>  (1218) 
0

>  <FF_Energy>  (1218) 
20.91

>  <QM_Energy>  (1218) 
3.13

>  <source>  (1218) 
ACET_MBZ_01

>  <Index>  (1218) 
7164

$$$$
ACET-pdb3ces-C-ASP-64:MBZ-pdb3ces-C-PHE-229
     RDKit          3D

 22 21  0  0  0  0  0  0  0  0999 V2000
    5.2944    1.4902   -2.0395 C   0  0  0  0  0  0  0  0  0  0  0  0
    5.6095    1.3748   -2.9764 H   0  0  0  0  0  0  0  0  0  0  0  0
    4.7731    0.6931   -1.7528 H   0  0  0  0  0  0  0  0  0  0  0  0
    6.1715    1.5686   -1.3971 H   0  0  0  0  0  0  0  0  0  0  0  0
    4.4027    2.7081   -1.9707 C   0  0  0  0  0  0  0  0  0  0  0  0
    4.8106    3.7626   -2.4977 O   0  0  0  0  0  1  0  0  0  0  0  0
    3.2922    2.6163   -1.4064 O   0  0  0  0  0  0  0  0  0  0  0  0
    0.0114    2.9246   -0.0158 C   0  0  0  0  0  0  0  0  0  0  0  0
    0.9038    3.2300    0.2693 H   0  0  0  0  0  0  0  0  0  0  0  0
   -0.6971    3.2443    0.5908 H   0  0  0  0  0  0  0  0  0  0  0  0
   -0.1832    3.3446   -1.0027 H   0  0  0  0  0  0  0  0  0  0  0  0
    0.0023    1.4188    0.0042 C   0  0  0  0  0  0  0  0  0  0  0  0
   -1.2052    0.7104   -0.0083 C   0  0  0  0  0  0  0  0  0  0  0  0
   -2.0681    1.1930   -0.0245 H   0  0  0  0  0  0  0  0  0  0  0  0
   -1.2091   -0.7036    0.0000 C   0  0  0  0  0  0  0  0  0  0  0  0
   -2.0843   -1.1897    0.0103 H   0  0  0  0  0  0  0  0  0  0  0  0
    0.0019   -1.4131   -0.0045 C   0  0  0  0  0  0  0  0  0  0  0  0
   -0.0070   -2.4055   -0.0119 H   0  0  0  0  0  0  0  0  0  0  0  0
    1.2091   -0.7109   -0.0000 C   0  0  0  0  0  0  0  0  0  0  0  0
    2.0891   -1.2001   -0.0019 H   0  0  0  0  0  0  0  0  0  0  0  0
    1.2010    0.6985    0.0086 C   0  0  0  0  0  0  0  0  0  0  0  0
    2.0716    1.1885    0.0171 H   0  0  0  0  0  0  0  0  0  0  0  0
  1  5  1  0
  5  6  1  0
  5  7  2  0
  1  2  1  0
  1  3  1  0
  1  4  1  0
  8 12  1  0
 12 13  2  0
 13 15  1  0
 15 17  2  0
 17 19  1  0
 19 21  2  0
 21 12  1  0
  8  9  1  0
  8 10  1  0
  8 11  1  0
 13 14  1  0
 15 16  1  0
 17 18  1  0
 19 20  1  0
 21 22  1  0
M  CHG  1   6  -1
M  END
>  <PDB_ID>  (1219) 
pdb3ces

>  <RESIDUE_NAME>  (1219) 
ASP   PHE

>  <FRAG_NAME>  (1219) 
ACET   MBZ

>  <FRAG_ATOM_NUM>  (1219) 
fragi: 7  fragj: 15

>  <atom.prop.CHAIN_ID>  (1219) 
A A A A A A A Z Z Z Z Z Z Z Z Z Z Z Z Z Z Z

>  <atom.prop.IS_HEAVY_ATOM>  (1219) 
1 0 0 0 1 1 1 1 0 0 0 1 1 0 1 0 1 0 1 0 1 0

>  <DIFUSE_FUNC_ATOM>  (1219) 
atom 6   atom 7   

>  <FINAL_SINGLE_POINT_ENERGY>  (1219) 
0

>  <NONCOV_INTER_ENERGY_QM>  (1219) 
0

>  <FF_Energy>  (1219) 
-1.07

>  <QM_Energy>  (1219) 
-6.55

>  <source>  (1219) 
ACET_MBZ_01

>  <Index>  (1219) 
7385

$$$$
ACET-pdb1ynf-D-GLU-66:MBZ-pdb1ynf-D-PHE-439
     RDKit          3D

 22 21  0  0  0  0  0  0  0  0999 V2000
    4.0110    2.3733   -1.8103 C   0  0  0  0  0  0  0  0  0  0  0  0
    4.2454    2.8496   -2.6302 H   0  0  0  0  0  0  0  0  0  0  0  0
    3.3581    1.6593   -1.9510 H   0  0  0  0  0  0  0  0  0  0  0  0
    4.9170    1.9423   -1.3843 H   0  0  0  0  0  0  0  0  0  0  0  0
    3.3783    3.3858   -0.8614 C   0  0  0  0  0  0  0  0  0  0  0  0
    3.3027    3.0888    0.3487 O   0  0  0  0  0  1  0  0  0  0  0  0
    2.9568    4.4643   -1.3185 O   0  0  0  0  0  0  0  0  0  0  0  0
   -0.0090    2.9082   -0.0309 C   0  0  0  0  0  0  0  0  0  0  0  0
   -0.7688    3.2012   -0.5952 H   0  0  0  0  0  0  0  0  0  0  0  0
    0.8540    3.2115   -0.4103 H   0  0  0  0  0  0  0  0  0  0  0  0
   -0.1227    3.3807    0.9447 H   0  0  0  0  0  0  0  0  0  0  0  0
   -0.0022    1.4026   -0.0003 C   0  0  0  0  0  0  0  0  0  0  0  0
   -1.1954    0.6895    0.0010 C   0  0  0  0  0  0  0  0  0  0  0  0
   -2.0649    1.1791    0.0013 H   0  0  0  0  0  0  0  0  0  0  0  0
   -1.1998   -0.6992    0.0000 C   0  0  0  0  0  0  0  0  0  0  0  0
   -2.0757   -1.1946    0.0014 H   0  0  0  0  0  0  0  0  0  0  0  0
    0.0028   -1.3962   -0.0009 C   0  0  0  0  0  0  0  0  0  0  0  0
    0.0005   -2.3928   -0.0025 H   0  0  0  0  0  0  0  0  0  0  0  0
    1.1998   -0.6950   -0.0000 C   0  0  0  0  0  0  0  0  0  0  0  0
    2.0844   -1.1897    0.0015 H   0  0  0  0  0  0  0  0  0  0  0  0
    1.1948    0.6983    0.0002 C   0  0  0  0  0  0  0  0  0  0  0  0
    2.0618    1.1940    0.0001 H   0  0  0  0  0  0  0  0  0  0  0  0
  1  5  1  0
  5  6  1  0
  5  7  2  0
  1  2  1  0
  1  3  1  0
  1  4  1  0
  8 12  1  0
 12 13  2  0
 13 15  1  0
 15 17  2  0
 17 19  1  0
 19 21  2  0
 21 12  1  0
  8  9  1  0
  8 10  1  0
  8 11  1  0
 13 14  1  0
 15 16  1  0
 17 18  1  0
 19 20  1  0
 21 22  1  0
M  CHG  1   6  -1
M  END
>  <PDB_ID>  (1220) 
pdb1ynf

>  <RESIDUE_NAME>  (1220) 
GLU   PHE

>  <FRAG_NAME>  (1220) 
ACET   MBZ

>  <FRAG_ATOM_NUM>  (1220) 
fragi: 7  fragj: 15

>  <atom.prop.CHAIN_ID>  (1220) 
A A A A A A A Z Z Z Z Z Z Z Z Z Z Z Z Z Z Z

>  <atom.prop.IS_HEAVY_ATOM>  (1220) 
1 0 0 0 1 1 1 1 0 0 0 1 1 0 1 0 1 0 1 0 1 0

>  <DIFUSE_FUNC_ATOM>  (1220) 
atom 6   atom 7   

>  <FINAL_SINGLE_POINT_ENERGY>  (1220) 
0

>  <NONCOV_INTER_ENERGY_QM>  (1220) 
0

>  <FF_Energy>  (1220) 
-0.68

>  <QM_Energy>  (1220) 
-8.52

>  <source>  (1220) 
ACET_MBZ_01

>  <Index>  (1220) 
7452

$$$$
ACET-pdb1yqz-A-GLU-210:MBZ-pdb1yqz-A-PHE-222
     RDKit          3D

 22 21  0  0  0  0  0  0  0  0999 V2000
    3.3392    2.4107   -2.8922 C   0  0  0  0  0  0  0  0  0  0  0  0
    2.9501    1.6879   -3.4256 H   0  0  0  0  0  0  0  0  0  0  0  0
    3.6648    2.1084   -2.0193 H   0  0  0  0  0  0  0  0  0  0  0  0
    4.1846    2.8199   -3.4453 H   0  0  0  0  0  0  0  0  0  0  0  0
    2.2281    3.4448   -2.6359 C   0  0  0  0  0  0  0  0  0  0  0  0
    2.4906    4.5015   -2.0353 O   0  0  0  0  0  1  0  0  0  0  0  0
    1.0688    3.1858   -3.0210 O   0  0  0  0  0  0  0  0  0  0  0  0
    0.0166    2.9064    0.0286 C   0  0  0  0  0  0  0  0  0  0  0  0
   -0.7580    3.2339   -0.4933 H   0  0  0  0  0  0  0  0  0  0  0  0
    0.8701    3.2117   -0.3682 H   0  0  0  0  0  0  0  0  0  0  0  0
   -0.0544    3.3317    1.0296 H   0  0  0  0  0  0  0  0  0  0  0  0
   -0.0016    1.4076   -0.0005 C   0  0  0  0  0  0  0  0  0  0  0  0
   -1.2007    0.6975    0.0010 C   0  0  0  0  0  0  0  0  0  0  0  0
   -2.0666    1.1868    0.0015 H   0  0  0  0  0  0  0  0  0  0  0  0
   -1.2065   -0.6968    0.0000 C   0  0  0  0  0  0  0  0  0  0  0  0
   -2.0782   -1.1932    0.0013 H   0  0  0  0  0  0  0  0  0  0  0  0
    0.0082   -1.4033   -0.0010 C   0  0  0  0  0  0  0  0  0  0  0  0
   -0.0015   -2.3963   -0.0034 H   0  0  0  0  0  0  0  0  0  0  0  0
    1.2065   -0.7000    0.0000 C   0  0  0  0  0  0  0  0  0  0  0  0
    2.0909   -1.1910    0.0014 H   0  0  0  0  0  0  0  0  0  0  0  0
    1.1941    0.6950    0.0005 C   0  0  0  0  0  0  0  0  0  0  0  0
    2.0647    1.1925    0.0008 H   0  0  0  0  0  0  0  0  0  0  0  0
  1  5  1  0
  5  6  1  0
  5  7  2  0
  1  2  1  0
  1  3  1  0
  1  4  1  0
  8 12  1  0
 12 13  2  0
 13 15  1  0
 15 17  2  0
 17 19  1  0
 19 21  2  0
 21 12  1  0
  8  9  1  0
  8 10  1  0
  8 11  1  0
 13 14  1  0
 15 16  1  0
 17 18  1  0
 19 20  1  0
 21 22  1  0
M  CHG  1   6  -1
M  END
>  <PDB_ID>  (1221) 
pdb1yqz

>  <RESIDUE_NAME>  (1221) 
GLU   PHE

>  <FRAG_NAME>  (1221) 
ACET   MBZ

>  <FRAG_ATOM_NUM>  (1221) 
fragi: 7  fragj: 15

>  <atom.prop.CHAIN_ID>  (1221) 
A A A A A A A Z Z Z Z Z Z Z Z Z Z Z Z Z Z Z

>  <atom.prop.IS_HEAVY_ATOM>  (1221) 
1 0 0 0 1 1 1 1 0 0 0 1 1 0 1 0 1 0 1 0 1 0

>  <DIFUSE_FUNC_ATOM>  (1221) 
atom 6   atom 7   

>  <FINAL_SINGLE_POINT_ENERGY>  (1221) 
0

>  <NONCOV_INTER_ENERGY_QM>  (1221) 
0

>  <FF_Energy>  (1221) 
-0.13

>  <QM_Energy>  (1221) 
-5.79

>  <source>  (1221) 
ACET_MBZ_01

>  <Index>  (1221) 
7624

$$$$
ACET-pdb1yrx-C-GLU-66:MBZ-pdb1yrx-C-PHE-101
     RDKit          3D

 22 21  0  0  0  0  0  0  0  0999 V2000
    5.1964    2.3563    1.4559 C   0  0  0  0  0  0  0  0  0  0  0  0
    6.0012    1.8996    1.1287 H   0  0  0  0  0  0  0  0  0  0  0  0
    4.6749    1.8017    2.0757 H   0  0  0  0  0  0  0  0  0  0  0  0
    5.5063    3.2591    1.9823 H   0  0  0  0  0  0  0  0  0  0  0  0
    4.3169    2.6550    0.2543 C   0  0  0  0  0  0  0  0  0  0  0  0
    3.2120    3.2107    0.4413 O   0  0  0  0  0  1  0  0  0  0  0  0
    4.7341    2.3301   -0.8789 O   0  0  0  0  0  0  0  0  0  0  0  0
    0.0007    2.9165   -0.0068 C   0  0  0  0  0  0  0  0  0  0  0  0
    0.8290    3.2220    0.4354 H   0  0  0  0  0  0  0  0  0  0  0  0
   -0.8029    3.2220    0.4799 H   0  0  0  0  0  0  0  0  0  0  0  0
   -0.0260    3.3559   -1.0039 H   0  0  0  0  0  0  0  0  0  0  0  0
    0.0005    1.4081   -0.0033 C   0  0  0  0  0  0  0  0  0  0  0  0
   -1.2007    0.6974    0.0026 C   0  0  0  0  0  0  0  0  0  0  0  0
   -2.0658    1.1861    0.0080 H   0  0  0  0  0  0  0  0  0  0  0  0
   -1.2066   -0.7006   -0.0000 C   0  0  0  0  0  0  0  0  0  0  0  0
   -2.0801   -1.1928   -0.0015 H   0  0  0  0  0  0  0  0  0  0  0  0
    0.0013   -1.3993    0.0018 C   0  0  0  0  0  0  0  0  0  0  0  0
   -0.0031   -2.3970    0.0037 H   0  0  0  0  0  0  0  0  0  0  0  0
    1.2066   -0.7005    0.0000 C   0  0  0  0  0  0  0  0  0  0  0  0
    2.0864   -1.1954    0.0008 H   0  0  0  0  0  0  0  0  0  0  0  0
    1.1989    0.6950   -0.0011 C   0  0  0  0  0  0  0  0  0  0  0  0
    2.0675    1.1913   -0.0013 H   0  0  0  0  0  0  0  0  0  0  0  0
  1  5  1  0
  5  6  1  0
  5  7  2  0
  1  2  1  0
  1  3  1  0
  1  4  1  0
  8 12  1  0
 12 13  2  0
 13 15  1  0
 15 17  2  0
 17 19  1  0
 19 21  2  0
 21 12  1  0
  8  9  1  0
  8 10  1  0
  8 11  1  0
 13 14  1  0
 15 16  1  0
 17 18  1  0
 19 20  1  0
 21 22  1  0
M  CHG  1   6  -1
M  END
>  <PDB_ID>  (1222) 
pdb1yrx

>  <RESIDUE_NAME>  (1222) 
GLU   PHE

>  <FRAG_NAME>  (1222) 
ACET   MBZ

>  <FRAG_ATOM_NUM>  (1222) 
fragi: 7  fragj: 15

>  <atom.prop.CHAIN_ID>  (1222) 
A A A A A A A Z Z Z Z Z Z Z Z Z Z Z Z Z Z Z

>  <atom.prop.IS_HEAVY_ATOM>  (1222) 
1 0 0 0 1 1 1 1 0 0 0 1 1 0 1 0 1 0 1 0 1 0

>  <DIFUSE_FUNC_ATOM>  (1222) 
atom 6   atom 7   

>  <FINAL_SINGLE_POINT_ENERGY>  (1222) 
0

>  <NONCOV_INTER_ENERGY_QM>  (1222) 
0

>  <FF_Energy>  (1222) 
-1.37

>  <QM_Energy>  (1222) 
-8.53

>  <source>  (1222) 
ACET_MBZ_01

>  <Index>  (1222) 
7736

$$$$
ACET-pdb1ys4-A-ASP-320:MBZ-pdb1ys4-A-PHE-255
     RDKit          3D

 22 21  0  0  0  0  0  0  0  0999 V2000
   -5.5686    4.0762   -0.0699 C   0  0  0  0  0  0  0  0  0  0  0  0
   -5.1614    4.0829   -0.9757 H   0  0  0  0  0  0  0  0  0  0  0  0
   -5.6311    4.9988    0.2911 H   0  0  0  0  0  0  0  0  0  0  0  0
   -6.5797    3.6788   -0.1575 H   0  0  0  0  0  0  0  0  0  0  0  0
   -4.7039    3.2469    0.8495 C   0  0  0  0  0  0  0  0  0  0  0  0
   -4.1438    2.2369    0.3769 O   0  0  0  0  0  1  0  0  0  0  0  0
   -4.5811    3.5985    2.0403 O   0  0  0  0  0  0  0  0  0  0  0  0
   -0.0000    2.9203    0.0183 C   0  0  0  0  0  0  0  0  0  0  0  0
    0.7367    3.2139    0.6104 H   0  0  0  0  0  0  0  0  0  0  0  0
   -0.8773    3.2182    0.3667 H   0  0  0  0  0  0  0  0  0  0  0  0
    0.1479    3.3870   -0.9556 H   0  0  0  0  0  0  0  0  0  0  0  0
   -0.0008    1.4074   -0.0036 C   0  0  0  0  0  0  0  0  0  0  0  0
   -1.2008    0.6973    0.0011 C   0  0  0  0  0  0  0  0  0  0  0  0
   -2.0666    1.1872    0.0038 H   0  0  0  0  0  0  0  0  0  0  0  0
   -1.2065   -0.6986    0.0000 C   0  0  0  0  0  0  0  0  0  0  0  0
   -2.0809   -1.1914    0.0027 H   0  0  0  0  0  0  0  0  0  0  0  0
    0.0005   -1.3960   -0.0028 C   0  0  0  0  0  0  0  0  0  0  0  0
   -0.0054   -2.3947   -0.0071 H   0  0  0  0  0  0  0  0  0  0  0  0
    1.2065   -0.7012   -0.0000 C   0  0  0  0  0  0  0  0  0  0  0  0
    2.0845   -1.1995   -0.0004 H   0  0  0  0  0  0  0  0  0  0  0  0
    1.2011    0.6912    0.0053 C   0  0  0  0  0  0  0  0  0  0  0  0
    2.0680    1.1896    0.0149 H   0  0  0  0  0  0  0  0  0  0  0  0
  1  5  1  0
  5  6  1  0
  5  7  2  0
  1  2  1  0
  1  3  1  0
  1  4  1  0
  8 12  1  0
 12 13  2  0
 13 15  1  0
 15 17  2  0
 17 19  1  0
 19 21  2  0
 21 12  1  0
  8  9  1  0
  8 10  1  0
  8 11  1  0
 13 14  1  0
 15 16  1  0
 17 18  1  0
 19 20  1  0
 21 22  1  0
M  CHG  1   6  -1
M  END
>  <PDB_ID>  (1223) 
pdb1ys4

>  <RESIDUE_NAME>  (1223) 
ASP   PHE

>  <FRAG_NAME>  (1223) 
ACET   MBZ

>  <FRAG_ATOM_NUM>  (1223) 
fragi: 7  fragj: 15

>  <atom.prop.CHAIN_ID>  (1223) 
A A A A A A A Z Z Z Z Z Z Z Z Z Z Z Z Z Z Z

>  <atom.prop.IS_HEAVY_ATOM>  (1223) 
1 0 0 0 1 1 1 1 0 0 0 1 1 0 1 0 1 0 1 0 1 0

>  <DIFUSE_FUNC_ATOM>  (1223) 
atom 6   atom 7   

>  <FINAL_SINGLE_POINT_ENERGY>  (1223) 
0

>  <NONCOV_INTER_ENERGY_QM>  (1223) 
0

>  <FF_Energy>  (1223) 
-1.89

>  <QM_Energy>  (1223) 
-7.09

>  <source>  (1223) 
ACET_MBZ_01

>  <Index>  (1223) 
7762

$$$$
ACET-pdb1yta-D-GLU-123:MBZ-pdb1yta-D-PHE-116
     RDKit          3D

 22 21  0  0  0  0  0  0  0  0999 V2000
    1.1904    0.3298    3.3947 C   0  0  0  0  0  0  0  0  0  0  0  0
    0.3813    0.1262    3.9174 H   0  0  0  0  0  0  0  0  0  0  0  0
    0.9892    0.8695    2.5964 H   0  0  0  0  0  0  0  0  0  0  0  0
    1.8598    0.9095    4.0303 H   0  0  0  0  0  0  0  0  0  0  0  0
    1.7798   -0.9985    2.9174 C   0  0  0  0  0  0  0  0  0  0  0  0
    2.9369   -1.0057    2.4532 O   0  0  0  0  0  1  0  0  0  0  0  0
    1.0834   -2.0379    2.9897 O   0  0  0  0  0  0  0  0  0  0  0  0
   -0.0056    2.9205   -0.0419 C   0  0  0  0  0  0  0  0  0  0  0  0
   -0.9430    3.2273    0.0361 H   0  0  0  0  0  0  0  0  0  0  0  0
    0.3936    3.2039   -0.9018 H   0  0  0  0  0  0  0  0  0  0  0  0
    0.5626    3.3974    0.7568 H   0  0  0  0  0  0  0  0  0  0  0  0
   -0.0025    1.4098   -0.0001 C   0  0  0  0  0  0  0  0  0  0  0  0
   -1.1977    0.7017    0.0004 C   0  0  0  0  0  0  0  0  0  0  0  0
   -2.0661    1.1872    0.0000 H   0  0  0  0  0  0  0  0  0  0  0  0
   -1.2037   -0.6980    0.0000 C   0  0  0  0  0  0  0  0  0  0  0  0
   -2.0788   -1.1888    0.0010 H   0  0  0  0  0  0  0  0  0  0  0  0
    0.0035   -1.4023    0.0002 C   0  0  0  0  0  0  0  0  0  0  0  0
   -0.0071   -2.3987   -0.0003 H   0  0  0  0  0  0  0  0  0  0  0  0
    1.2037   -0.7072   -0.0000 C   0  0  0  0  0  0  0  0  0  0  0  0
    2.0856   -1.1977    0.0018 H   0  0  0  0  0  0  0  0  0  0  0  0
    1.1967    0.6959   -0.0004 C   0  0  0  0  0  0  0  0  0  0  0  0
    2.0656    1.1882   -0.0018 H   0  0  0  0  0  0  0  0  0  0  0  0
  1  5  1  0
  5  6  1  0
  5  7  2  0
  1  2  1  0
  1  3  1  0
  1  4  1  0
  8 12  1  0
 12 13  2  0
 13 15  1  0
 15 17  2  0
 17 19  1  0
 19 21  2  0
 21 12  1  0
  8  9  1  0
  8 10  1  0
  8 11  1  0
 13 14  1  0
 15 16  1  0
 17 18  1  0
 19 20  1  0
 21 22  1  0
M  CHG  1   6  -1
M  END
>  <PDB_ID>  (1224) 
pdb1yta

>  <RESIDUE_NAME>  (1224) 
GLU   PHE

>  <FRAG_NAME>  (1224) 
ACET   MBZ

>  <FRAG_ATOM_NUM>  (1224) 
fragi: 7  fragj: 15

>  <atom.prop.CHAIN_ID>  (1224) 
A A A A A A A Z Z Z Z Z Z Z Z Z Z Z Z Z Z Z

>  <atom.prop.IS_HEAVY_ATOM>  (1224) 
1 0 0 0 1 1 1 1 0 0 0 1 1 0 1 0 1 0 1 0 1 0

>  <DIFUSE_FUNC_ATOM>  (1224) 
atom 6   atom 7   

>  <FINAL_SINGLE_POINT_ENERGY>  (1224) 
0

>  <NONCOV_INTER_ENERGY_QM>  (1224) 
0

>  <FF_Energy>  (1224) 
2.37

>  <QM_Energy>  (1224) 
-3.38

>  <source>  (1224) 
ACET_MBZ_01

>  <Index>  (1224) 
7842

$$$$
ACET-pdb1ytm-A-GLU-264:MBZ-pdb1ytm-A-PHE-209
     RDKit          3D

 22 21  0  0  0  0  0  0  0  0999 V2000
   -0.8966    0.2913   -3.4046 C   0  0  0  0  0  0  0  0  0  0  0  0
   -0.4148   -0.0637   -2.6213 H   0  0  0  0  0  0  0  0  0  0  0  0
   -0.4501    0.0475   -4.2499 H   0  0  0  0  0  0  0  0  0  0  0  0
   -1.9032   -0.1268   -3.4103 H   0  0  0  0  0  0  0  0  0  0  0  0
   -0.8752    1.8047   -3.3019 C   0  0  0  0  0  0  0  0  0  0  0  0
   -1.9410    2.3998   -3.0558 O   0  0  0  0  0  1  0  0  0  0  0  0
    0.2071    2.4033   -3.4802 O   0  0  0  0  0  0  0  0  0  0  0  0
    0.0052    2.9156   -0.0695 C   0  0  0  0  0  0  0  0  0  0  0  0
   -0.1973    3.1791   -1.0010 H   0  0  0  0  0  0  0  0  0  0  0  0
    0.9007    3.2309    0.2065 H   0  0  0  0  0  0  0  0  0  0  0  0
   -0.7291    3.3955    0.5777 H   0  0  0  0  0  0  0  0  0  0  0  0
    0.0017    1.4063   -0.0012 C   0  0  0  0  0  0  0  0  0  0  0  0
   -1.1960    0.6958    0.0002 C   0  0  0  0  0  0  0  0  0  0  0  0
   -2.0631    1.1886   -0.0000 H   0  0  0  0  0  0  0  0  0  0  0  0
   -1.2042   -0.6938    0.0000 C   0  0  0  0  0  0  0  0  0  0  0  0
   -2.0834   -1.1855    0.0025 H   0  0  0  0  0  0  0  0  0  0  0  0
   -0.0051   -1.3987   -0.0013 C   0  0  0  0  0  0  0  0  0  0  0  0
   -0.0131   -2.3952   -0.0037 H   0  0  0  0  0  0  0  0  0  0  0  0
    1.2042   -0.7047   -0.0000 C   0  0  0  0  0  0  0  0  0  0  0  0
    2.0815   -1.2008    0.0008 H   0  0  0  0  0  0  0  0  0  0  0  0
    1.1994    0.6951    0.0023 C   0  0  0  0  0  0  0  0  0  0  0  0
    2.0688    1.1875    0.0058 H   0  0  0  0  0  0  0  0  0  0  0  0
  1  5  1  0
  5  6  1  0
  5  7  2  0
  1  2  1  0
  1  3  1  0
  1  4  1  0
  8 12  1  0
 12 13  2  0
 13 15  1  0
 15 17  2  0
 17 19  1  0
 19 21  2  0
 21 12  1  0
  8  9  1  0
  8 10  1  0
  8 11  1  0
 13 14  1  0
 15 16  1  0
 17 18  1  0
 19 20  1  0
 21 22  1  0
M  CHG  1   6  -1
M  END
>  <PDB_ID>  (1225) 
pdb1ytm

>  <RESIDUE_NAME>  (1225) 
GLU   PHE

>  <FRAG_NAME>  (1225) 
ACET   MBZ

>  <FRAG_ATOM_NUM>  (1225) 
fragi: 7  fragj: 15

>  <atom.prop.CHAIN_ID>  (1225) 
A A A A A A A Z Z Z Z Z Z Z Z Z Z Z Z Z Z Z

>  <atom.prop.IS_HEAVY_ATOM>  (1225) 
1 0 0 0 1 1 1 1 0 0 0 1 1 0 1 0 1 0 1 0 1 0

>  <DIFUSE_FUNC_ATOM>  (1225) 
atom 6   atom 7   

>  <FINAL_SINGLE_POINT_ENERGY>  (1225) 
0

>  <NONCOV_INTER_ENERGY_QM>  (1225) 
0

>  <FF_Energy>  (1225) 
0.24

>  <QM_Energy>  (1225) 
-6.97

>  <source>  (1225) 
ACET_MBZ_01

>  <Index>  (1225) 
7856

$$$$
ACET-pdb1ytm-B-ASP-1115:MBZ-pdb1ytm-B-PHE-1156
     RDKit          3D

 22 21  0  0  0  0  0  0  0  0999 V2000
   -0.0536    0.0525    3.2426 C   0  0  0  0  0  0  0  0  0  0  0  0
    0.6694    0.6057    3.6351 H   0  0  0  0  0  0  0  0  0  0  0  0
    0.1241   -0.1368    2.2867 H   0  0  0  0  0  0  0  0  0  0  0  0
   -0.0792   -0.8975    3.7764 H   0  0  0  0  0  0  0  0  0  0  0  0
   -1.3619    0.8020    3.3590 C   0  0  0  0  0  0  0  0  0  0  0  0
   -2.4129    0.1268    3.4823 O   0  0  0  0  0  1  0  0  0  0  0  0
   -1.3457    2.0501    3.3266 O   0  0  0  0  0  0  0  0  0  0  0  0
    0.0079    2.9016    0.0044 C   0  0  0  0  0  0  0  0  0  0  0  0
    0.8921    3.2040    0.3270 H   0  0  0  0  0  0  0  0  0  0  0  0
   -0.7175    3.2108    0.6009 H   0  0  0  0  0  0  0  0  0  0  0  0
   -0.1576    3.3466   -0.9768 H   0  0  0  0  0  0  0  0  0  0  0  0
    0.0009    1.4015   -0.0001 C   0  0  0  0  0  0  0  0  0  0  0  0
   -1.1972    0.6956   -0.0009 C   0  0  0  0  0  0  0  0  0  0  0  0
   -2.0623    1.1852   -0.0033 H   0  0  0  0  0  0  0  0  0  0  0  0
   -1.2016   -0.6973    0.0000 C   0  0  0  0  0  0  0  0  0  0  0  0
   -2.0783   -1.1906    0.0009 H   0  0  0  0  0  0  0  0  0  0  0  0
    0.0010   -1.3947    0.0019 C   0  0  0  0  0  0  0  0  0  0  0  0
   -0.0039   -2.3929    0.0041 H   0  0  0  0  0  0  0  0  0  0  0  0
    1.2016   -0.6985    0.0000 C   0  0  0  0  0  0  0  0  0  0  0  0
    2.0833   -1.1943    0.0012 H   0  0  0  0  0  0  0  0  0  0  0  0
    1.1953    0.6935   -0.0009 C   0  0  0  0  0  0  0  0  0  0  0  0
    2.0650    1.1894   -0.0034 H   0  0  0  0  0  0  0  0  0  0  0  0
  1  5  1  0
  5  6  1  0
  5  7  2  0
  1  2  1  0
  1  3  1  0
  1  4  1  0
  8 12  1  0
 12 13  2  0
 13 15  1  0
 15 17  2  0
 17 19  1  0
 19 21  2  0
 21 12  1  0
  8  9  1  0
  8 10  1  0
  8 11  1  0
 13 14  1  0
 15 16  1  0
 17 18  1  0
 19 20  1  0
 21 22  1  0
M  CHG  1   6  -1
M  END
>  <PDB_ID>  (1226) 
pdb1ytm

>  <RESIDUE_NAME>  (1226) 
ASP   PHE

>  <FRAG_NAME>  (1226) 
ACET   MBZ

>  <FRAG_ATOM_NUM>  (1226) 
fragi: 7  fragj: 15

>  <atom.prop.CHAIN_ID>  (1226) 
A A A A A A A Z Z Z Z Z Z Z Z Z Z Z Z Z Z Z

>  <atom.prop.IS_HEAVY_ATOM>  (1226) 
1 0 0 0 1 1 1 1 0 0 0 1 1 0 1 0 1 0 1 0 1 0

>  <DIFUSE_FUNC_ATOM>  (1226) 
atom 6   atom 7   

>  <FINAL_SINGLE_POINT_ENERGY>  (1226) 
0

>  <NONCOV_INTER_ENERGY_QM>  (1226) 
0

>  <FF_Energy>  (1226) 
2.15

>  <QM_Energy>  (1226) 
-3.87

>  <source>  (1226) 
ACET_MBZ_01

>  <Index>  (1226) 
7861

$$$$
ACET-pdb3cmq-A-GLU-281:MBZ-pdb3cmq-A-PHE-155
     RDKit          3D

 22 21  0  0  0  0  0  0  0  0999 V2000
   -1.9298    6.3366   -2.1656 C   0  0  0  0  0  0  0  0  0  0  0  0
   -0.9800    6.4589   -2.3794 H   0  0  0  0  0  0  0  0  0  0  0  0
   -2.4100    7.1891   -2.0895 H   0  0  0  0  0  0  0  0  0  0  0  0
   -2.3837    5.7678   -2.9771 H   0  0  0  0  0  0  0  0  0  0  0  0
   -2.0181    5.6320   -0.8224 C   0  0  0  0  0  0  0  0  0  0  0  0
   -2.8117    4.6776   -0.6959 O   0  0  0  0  0  1  0  0  0  0  0  0
   -1.2956    6.0340    0.1125 O   0  0  0  0  0  0  0  0  0  0  0  0
   -0.0028    2.9005   -0.0911 C   0  0  0  0  0  0  0  0  0  0  0  0
   -0.8719    3.1887   -0.4757 H   0  0  0  0  0  0  0  0  0  0  0  0
    0.7479    3.1779   -0.6790 H   0  0  0  0  0  0  0  0  0  0  0  0
    0.1196    3.4195    0.8596 H   0  0  0  0  0  0  0  0  0  0  0  0
   -0.0006    1.4063   -0.0016 C   0  0  0  0  0  0  0  0  0  0  0  0
   -1.1974    0.6999    0.0027 C   0  0  0  0  0  0  0  0  0  0  0  0
   -2.0648    1.1876    0.0063 H   0  0  0  0  0  0  0  0  0  0  0  0
   -1.2076   -0.7008    0.0000 C   0  0  0  0  0  0  0  0  0  0  0  0
   -2.0824   -1.1890    0.0007 H   0  0  0  0  0  0  0  0  0  0  0  0
   -0.0012   -1.4031   -0.0015 C   0  0  0  0  0  0  0  0  0  0  0  0
   -0.0043   -2.3981   -0.0043 H   0  0  0  0  0  0  0  0  0  0  0  0
    1.2076   -0.7009   -0.0000 C   0  0  0  0  0  0  0  0  0  0  0  0
    2.0862   -1.1956    0.0022 H   0  0  0  0  0  0  0  0  0  0  0  0
    1.1992    0.6986    0.0005 C   0  0  0  0  0  0  0  0  0  0  0  0
    2.0662    1.1934    0.0013 H   0  0  0  0  0  0  0  0  0  0  0  0
  1  5  1  0
  5  6  1  0
  5  7  2  0
  1  2  1  0
  1  3  1  0
  1  4  1  0
  8 12  1  0
 12 13  2  0
 13 15  1  0
 15 17  2  0
 17 19  1  0
 19 21  2  0
 21 12  1  0
  8  9  1  0
  8 10  1  0
  8 11  1  0
 13 14  1  0
 15 16  1  0
 17 18  1  0
 19 20  1  0
 21 22  1  0
M  CHG  1   6  -1
M  END
>  <PDB_ID>  (1227) 
pdb3cmq

>  <RESIDUE_NAME>  (1227) 
GLU   PHE

>  <FRAG_NAME>  (1227) 
ACET   MBZ

>  <FRAG_ATOM_NUM>  (1227) 
fragi: 7  fragj: 15

>  <atom.prop.CHAIN_ID>  (1227) 
A A A A A A A Z Z Z Z Z Z Z Z Z Z Z Z Z Z Z

>  <atom.prop.IS_HEAVY_ATOM>  (1227) 
1 0 0 0 1 1 1 1 0 0 0 1 1 0 1 0 1 0 1 0 1 0

>  <DIFUSE_FUNC_ATOM>  (1227) 
atom 6   atom 7   

>  <FINAL_SINGLE_POINT_ENERGY>  (1227) 
0

>  <NONCOV_INTER_ENERGY_QM>  (1227) 
0

>  <FF_Energy>  (1227) 
-1.62

>  <QM_Energy>  (1227) 
-6.98

>  <source>  (1227) 
ACET_MBZ_01

>  <Index>  (1227) 
7948

$$$$
ACET-pdb1yt5-B-GLU-139:MBZ-pdb1yt5-B-PHE-199
     RDKit          3D

 22 21  0  0  0  0  0  0  0  0999 V2000
    1.1180    1.2259    2.9362 C   0  0  0  0  0  0  0  0  0  0  0  0
    1.5500    1.9170    2.3884 H   0  0  0  0  0  0  0  0  0  0  0  0
    0.9820    0.3877    2.4430 H   0  0  0  0  0  0  0  0  0  0  0  0
    1.7468    1.0251    3.8036 H   0  0  0  0  0  0  0  0  0  0  0  0
   -0.2548    1.7493    3.3256 C   0  0  0  0  0  0  0  0  0  0  0  0
   -0.5159    1.9176    4.5271 O   0  0  0  0  0  1  0  0  0  0  0  0
   -1.0697    2.0027    2.4155 O   0  0  0  0  0  0  0  0  0  0  0  0
    0.0348    2.9183   -0.0295 C   0  0  0  0  0  0  0  0  0  0  0  0
    0.0644    3.2026   -0.9822 H   0  0  0  0  0  0  0  0  0  0  0  0
    0.8585    3.2096    0.4443 H   0  0  0  0  0  0  0  0  0  0  0  0
   -0.8186    3.4046    0.4431 H   0  0  0  0  0  0  0  0  0  0  0  0
    0.0030    1.4123   -0.0037 C   0  0  0  0  0  0  0  0  0  0  0  0
   -1.2073    0.7040    0.0096 C   0  0  0  0  0  0  0  0  0  0  0  0
   -2.0669    1.2011    0.0250 H   0  0  0  0  0  0  0  0  0  0  0  0
   -1.2166   -0.6873    0.0000 C   0  0  0  0  0  0  0  0  0  0  0  0
   -2.0865   -1.1868   -0.0197 H   0  0  0  0  0  0  0  0  0  0  0  0
    0.0055   -1.4140    0.0198 C   0  0  0  0  0  0  0  0  0  0  0  0
   -0.0201   -2.4036    0.0473 H   0  0  0  0  0  0  0  0  0  0  0  0
    1.2166   -0.7230   -0.0000 C   0  0  0  0  0  0  0  0  0  0  0  0
    2.0938   -1.1983    0.0051 H   0  0  0  0  0  0  0  0  0  0  0  0
    1.1988    0.7080   -0.0256 C   0  0  0  0  0  0  0  0  0  0  0  0
    2.0704    1.1898   -0.0607 H   0  0  0  0  0  0  0  0  0  0  0  0
  1  5  1  0
  5  6  1  0
  5  7  2  0
  1  2  1  0
  1  3  1  0
  1  4  1  0
  8 12  1  0
 12 13  2  0
 13 15  1  0
 15 17  2  0
 17 19  1  0
 19 21  2  0
 21 12  1  0
  8  9  1  0
  8 10  1  0
  8 11  1  0
 13 14  1  0
 15 16  1  0
 17 18  1  0
 19 20  1  0
 21 22  1  0
M  CHG  1   6  -1
M  END
>  <PDB_ID>  (1228) 
pdb1yt5

>  <RESIDUE_NAME>  (1228) 
GLU   PHE

>  <FRAG_NAME>  (1228) 
ACET   MBZ

>  <FRAG_ATOM_NUM>  (1228) 
fragi: 7  fragj: 15

>  <atom.prop.CHAIN_ID>  (1228) 
A A A A A A A Z Z Z Z Z Z Z Z Z Z Z Z Z Z Z

>  <atom.prop.IS_HEAVY_ATOM>  (1228) 
1 0 0 0 1 1 1 1 0 0 0 1 1 0 1 0 1 0 1 0 1 0

>  <DIFUSE_FUNC_ATOM>  (1228) 
atom 6   atom 7   

>  <FINAL_SINGLE_POINT_ENERGY>  (1228) 
0

>  <NONCOV_INTER_ENERGY_QM>  (1228) 
0

>  <FF_Energy>  (1228) 
13.37

>  <QM_Energy>  (1228) 
1.71

>  <source>  (1228) 
ACET_MBZ_01

>  <Index>  (1228) 
7979

$$$$
ACET-pdb3cog-A-ASP-389:MBZ-pdb3cog-A-PHE-335
     RDKit          3D

 22 21  0  0  0  0  0  0  0  0999 V2000
   -5.3554    1.3153   -0.5819 C   0  0  0  0  0  0  0  0  0  0  0  0
   -5.7580    1.1839    0.3176 H   0  0  0  0  0  0  0  0  0  0  0  0
   -4.5961    0.6889   -0.7154 H   0  0  0  0  0  0  0  0  0  0  0  0
   -6.1173    1.0735   -1.3230 H   0  0  0  0  0  0  0  0  0  0  0  0
   -4.8583    2.7295   -0.6994 C   0  0  0  0  0  0  0  0  0  0  0  0
   -5.6480    3.5929   -1.1376 O   0  0  0  0  0  1  0  0  0  0  0  0
   -3.6619    2.9865   -0.3854 O   0  0  0  0  0  0  0  0  0  0  0  0
   -0.0046    2.9143   -0.0117 C   0  0  0  0  0  0  0  0  0  0  0  0
   -0.7340    3.2107   -0.6098 H   0  0  0  0  0  0  0  0  0  0  0  0
    0.8767    3.2162   -0.3436 H   0  0  0  0  0  0  0  0  0  0  0  0
   -0.1672    3.3730    0.9636 H   0  0  0  0  0  0  0  0  0  0  0  0
   -0.0042    1.4152    0.0151 C   0  0  0  0  0  0  0  0  0  0  0  0
   -1.1945    0.6949   -0.0005 C   0  0  0  0  0  0  0  0  0  0  0  0
   -2.0676    1.1725   -0.0140 H   0  0  0  0  0  0  0  0  0  0  0  0
   -1.1962   -0.7156   -0.0000 C   0  0  0  0  0  0  0  0  0  0  0  0
   -2.0716   -1.2015    0.0097 H   0  0  0  0  0  0  0  0  0  0  0  0
    0.0079   -1.3999   -0.0111 C   0  0  0  0  0  0  0  0  0  0  0  0
    0.0100   -2.4004   -0.0276 H   0  0  0  0  0  0  0  0  0  0  0  0
    1.1962   -0.6990    0.0000 C   0  0  0  0  0  0  0  0  0  0  0  0
    2.0857   -1.1851    0.0120 H   0  0  0  0  0  0  0  0  0  0  0  0
    1.1908    0.7044   -0.0034 C   0  0  0  0  0  0  0  0  0  0  0  0
    2.0607    1.1948   -0.0202 H   0  0  0  0  0  0  0  0  0  0  0  0
  1  5  1  0
  5  6  1  0
  5  7  2  0
  1  2  1  0
  1  3  1  0
  1  4  1  0
  8 12  1  0
 12 13  2  0
 13 15  1  0
 15 17  2  0
 17 19  1  0
 19 21  2  0
 21 12  1  0
  8  9  1  0
  8 10  1  0
  8 11  1  0
 13 14  1  0
 15 16  1  0
 17 18  1  0
 19 20  1  0
 21 22  1  0
M  CHG  1   6  -1
M  END
>  <PDB_ID>  (1229) 
pdb3cog

>  <RESIDUE_NAME>  (1229) 
ASP   PHE

>  <FRAG_NAME>  (1229) 
ACET   MBZ

>  <FRAG_ATOM_NUM>  (1229) 
fragi: 7  fragj: 15

>  <atom.prop.CHAIN_ID>  (1229) 
A A A A A A A Z Z Z Z Z Z Z Z Z Z Z Z Z Z Z

>  <atom.prop.IS_HEAVY_ATOM>  (1229) 
1 0 0 0 1 1 1 1 0 0 0 1 1 0 1 0 1 0 1 0 1 0

>  <DIFUSE_FUNC_ATOM>  (1229) 
atom 6   atom 7   

>  <FINAL_SINGLE_POINT_ENERGY>  (1229) 
0

>  <NONCOV_INTER_ENERGY_QM>  (1229) 
0

>  <FF_Energy>  (1229) 
-2.26

>  <QM_Energy>  (1229) 
-7.49

>  <source>  (1229) 
ACET_MBZ_01

>  <Index>  (1229) 
8058

$$$$
ACET-pdb3com-B-GLU-219:MBZ-pdb3com-B-PHE-244
     RDKit          3D

 22 21  0  0  0  0  0  0  0  0999 V2000
   -5.3122    2.3477    0.6809 C   0  0  0  0  0  0  0  0  0  0  0  0
   -5.3365    2.8969    1.4932 H   0  0  0  0  0  0  0  0  0  0  0  0
   -4.8766    1.4804    0.8256 H   0  0  0  0  0  0  0  0  0  0  0  0
   -6.3389    2.1651    0.3635 H   0  0  0  0  0  0  0  0  0  0  0  0
   -4.4860    3.1075   -0.3629 C   0  0  0  0  0  0  0  0  0  0  0  0
   -5.0110    3.4373   -1.4422 O   0  0  0  0  0  1  0  0  0  0  0  0
   -3.2971    3.3747   -0.1293 O   0  0  0  0  0  0  0  0  0  0  0  0
    0.0036    2.9301   -0.0007 C   0  0  0  0  0  0  0  0  0  0  0  0
    0.9148    3.2359    0.2257 H   0  0  0  0  0  0  0  0  0  0  0  0
   -0.6572    3.2412    0.6643 H   0  0  0  0  0  0  0  0  0  0  0  0
   -0.2628    3.3739   -0.9600 H   0  0  0  0  0  0  0  0  0  0  0  0
   -0.0010    1.4252    0.0013 C   0  0  0  0  0  0  0  0  0  0  0  0
   -1.2047    0.7126    0.0071 C   0  0  0  0  0  0  0  0  0  0  0  0
   -2.0716    1.1896    0.0144 H   0  0  0  0  0  0  0  0  0  0  0  0
   -1.2110   -0.7121    0.0000 C   0  0  0  0  0  0  0  0  0  0  0  0
   -2.0857   -1.1930    0.0051 H   0  0  0  0  0  0  0  0  0  0  0  0
    0.0019   -1.4198   -0.0117 C   0  0  0  0  0  0  0  0  0  0  0  0
   -0.0066   -2.4134   -0.0290 H   0  0  0  0  0  0  0  0  0  0  0  0
    1.2110   -0.7199   -0.0000 C   0  0  0  0  0  0  0  0  0  0  0  0
    2.0915   -1.1984    0.0074 H   0  0  0  0  0  0  0  0  0  0  0  0
    1.2038    0.7140    0.0034 C   0  0  0  0  0  0  0  0  0  0  0  0
    2.0718    1.1940    0.0070 H   0  0  0  0  0  0  0  0  0  0  0  0
  1  5  1  0
  5  6  1  0
  5  7  2  0
  1  2  1  0
  1  3  1  0
  1  4  1  0
  8 12  1  0
 12 13  2  0
 13 15  1  0
 15 17  2  0
 17 19  1  0
 19 21  2  0
 21 12  1  0
  8  9  1  0
  8 10  1  0
  8 11  1  0
 13 14  1  0
 15 16  1  0
 17 18  1  0
 19 20  1  0
 21 22  1  0
M  CHG  1   6  -1
M  END
>  <PDB_ID>  (1230) 
pdb3com

>  <RESIDUE_NAME>  (1230) 
GLU   PHE

>  <FRAG_NAME>  (1230) 
ACET   MBZ

>  <FRAG_ATOM_NUM>  (1230) 
fragi: 7  fragj: 15

>  <atom.prop.CHAIN_ID>  (1230) 
A A A A A A A Z Z Z Z Z Z Z Z Z Z Z Z Z Z Z

>  <atom.prop.IS_HEAVY_ATOM>  (1230) 
1 0 0 0 1 1 1 1 0 0 0 1 1 0 1 0 1 0 1 0 1 0

>  <DIFUSE_FUNC_ATOM>  (1230) 
atom 6   atom 7   

>  <FINAL_SINGLE_POINT_ENERGY>  (1230) 
0

>  <NONCOV_INTER_ENERGY_QM>  (1230) 
0

>  <FF_Energy>  (1230) 
-2.06

>  <QM_Energy>  (1230) 
-7.49

>  <source>  (1230) 
ACET_MBZ_01

>  <Index>  (1230) 
8068

$$$$
ACET-pdb3ct2-A-GLU-64:MBZ-pdb3ct2-A-PHE-105
     RDKit          3D

 22 21  0  0  0  0  0  0  0  0999 V2000
    2.5329    3.1516    3.7774 C   0  0  0  0  0  0  0  0  0  0  0  0
    2.7637    3.9314    4.3232 H   0  0  0  0  0  0  0  0  0  0  0  0
    3.1907    2.4289    3.8484 H   0  0  0  0  0  0  0  0  0  0  0  0
    1.5670    2.7727    4.1111 H   0  0  0  0  0  0  0  0  0  0  0  0
    2.5046    3.6035    2.3218 C   0  0  0  0  0  0  0  0  0  0  0  0
    1.9746    4.7012    2.0244 O   0  0  0  0  0  1  0  0  0  0  0  0
    3.0096    2.8473    1.4683 O   0  0  0  0  0  0  0  0  0  0  0  0
   -0.0064    2.9116    0.0179 C   0  0  0  0  0  0  0  0  0  0  0  0
    0.5330    3.2103    0.7908 H   0  0  0  0  0  0  0  0  0  0  0  0
   -0.9448    3.2122    0.0968 H   0  0  0  0  0  0  0  0  0  0  0  0
    0.4150    3.3679   -0.8779 H   0  0  0  0  0  0  0  0  0  0  0  0
   -0.0007    1.4052    0.0011 C   0  0  0  0  0  0  0  0  0  0  0  0
   -1.2005    0.6936   -0.0003 C   0  0  0  0  0  0  0  0  0  0  0  0
   -2.0664    1.1835   -0.0028 H   0  0  0  0  0  0  0  0  0  0  0  0
   -1.2068   -0.7007   -0.0000 C   0  0  0  0  0  0  0  0  0  0  0  0
   -2.0798   -1.1943    0.0018 H   0  0  0  0  0  0  0  0  0  0  0  0
    0.0015   -1.3998   -0.0005 C   0  0  0  0  0  0  0  0  0  0  0  0
   -0.0007   -2.3949   -0.0015 H   0  0  0  0  0  0  0  0  0  0  0  0
    1.2068   -0.6967   -0.0000 C   0  0  0  0  0  0  0  0  0  0  0  0
    2.0869   -1.1925    0.0025 H   0  0  0  0  0  0  0  0  0  0  0  0
    1.1997    0.6984   -0.0003 C   0  0  0  0  0  0  0  0  0  0  0  0
    2.0656    1.1950   -0.0027 H   0  0  0  0  0  0  0  0  0  0  0  0
  1  5  1  0
  5  6  1  0
  5  7  2  0
  1  2  1  0
  1  3  1  0
  1  4  1  0
  8 12  1  0
 12 13  2  0
 13 15  1  0
 15 17  2  0
 17 19  1  0
 19 21  2  0
 21 12  1  0
  8  9  1  0
  8 10  1  0
  8 11  1  0
 13 14  1  0
 15 16  1  0
 17 18  1  0
 19 20  1  0
 21 22  1  0
M  CHG  1   6  -1
M  END
>  <PDB_ID>  (1231) 
pdb3ct2

>  <RESIDUE_NAME>  (1231) 
GLU   PHE

>  <FRAG_NAME>  (1231) 
ACET   MBZ

>  <FRAG_ATOM_NUM>  (1231) 
fragi: 7  fragj: 15

>  <atom.prop.CHAIN_ID>  (1231) 
A A A A A A A Z Z Z Z Z Z Z Z Z Z Z Z Z Z Z

>  <atom.prop.IS_HEAVY_ATOM>  (1231) 
1 0 0 0 1 1 1 1 0 0 0 1 1 0 1 0 1 0 1 0 1 0

>  <DIFUSE_FUNC_ATOM>  (1231) 
atom 6   atom 7   

>  <FINAL_SINGLE_POINT_ENERGY>  (1231) 
0

>  <NONCOV_INTER_ENERGY_QM>  (1231) 
0

>  <FF_Energy>  (1231) 
-0.51

>  <QM_Energy>  (1231) 
-8.34

>  <source>  (1231) 
ACET_MBZ_01

>  <Index>  (1231) 
8319

$$$$
ACET-pdb3ct7-C-ASP-61:MBZ-pdb3ct7-C-PHE-83
     RDKit          3D

 22 21  0  0  0  0  0  0  0  0999 V2000
    0.4966    3.7149    3.5614 C   0  0  0  0  0  0  0  0  0  0  0  0
    1.0294    2.9696    3.1786 H   0  0  0  0  0  0  0  0  0  0  0  0
    0.7834    3.9092    4.4908 H   0  0  0  0  0  0  0  0  0  0  0  0
    0.6819    4.6044    2.9593 H   0  0  0  0  0  0  0  0  0  0  0  0
   -0.9718    3.3070    3.5785 C   0  0  0  0  0  0  0  0  0  0  0  0
   -1.7164    3.7224    2.6606 O   0  0  0  0  0  1  0  0  0  0  0  0
   -1.3821    2.5597    4.4987 O   0  0  0  0  0  0  0  0  0  0  0  0
    0.0024    2.8996    0.0919 C   0  0  0  0  0  0  0  0  0  0  0  0
    0.8808    3.1820    0.4599 H   0  0  0  0  0  0  0  0  0  0  0  0
   -0.7349    3.1734    0.6991 H   0  0  0  0  0  0  0  0  0  0  0  0
   -0.1409    3.4165   -0.8570 H   0  0  0  0  0  0  0  0  0  0  0  0
   -0.0028    1.4030    0.0018 C   0  0  0  0  0  0  0  0  0  0  0  0
   -1.1992    0.6969   -0.0025 C   0  0  0  0  0  0  0  0  0  0  0  0
   -2.0668    1.1831   -0.0085 H   0  0  0  0  0  0  0  0  0  0  0  0
   -1.2061   -0.7041   -0.0000 C   0  0  0  0  0  0  0  0  0  0  0  0
   -2.0774   -1.1953    0.0001 H   0  0  0  0  0  0  0  0  0  0  0  0
    0.0050   -1.3976    0.0035 C   0  0  0  0  0  0  0  0  0  0  0  0
    0.0041   -2.3948    0.0076 H   0  0  0  0  0  0  0  0  0  0  0  0
    1.2061   -0.6942    0.0000 C   0  0  0  0  0  0  0  0  0  0  0  0
    2.0882   -1.1904    0.0010 H   0  0  0  0  0  0  0  0  0  0  0  0
    1.1970    0.6961   -0.0027 C   0  0  0  0  0  0  0  0  0  0  0  0
    2.0630    1.1959   -0.0088 H   0  0  0  0  0  0  0  0  0  0  0  0
  1  5  1  0
  5  6  1  0
  5  7  2  0
  1  2  1  0
  1  3  1  0
  1  4  1  0
  8 12  1  0
 12 13  2  0
 13 15  1  0
 15 17  2  0
 17 19  1  0
 19 21  2  0
 21 12  1  0
  8  9  1  0
  8 10  1  0
  8 11  1  0
 13 14  1  0
 15 16  1  0
 17 18  1  0
 19 20  1  0
 21 22  1  0
M  CHG  1   6  -1
M  END
>  <PDB_ID>  (1232) 
pdb3ct7

>  <RESIDUE_NAME>  (1232) 
ASP   PHE

>  <FRAG_NAME>  (1232) 
ACET   MBZ

>  <FRAG_ATOM_NUM>  (1232) 
fragi: 7  fragj: 15

>  <atom.prop.CHAIN_ID>  (1232) 
A A A A A A A Z Z Z Z Z Z Z Z Z Z Z Z Z Z Z

>  <atom.prop.IS_HEAVY_ATOM>  (1232) 
1 0 0 0 1 1 1 1 0 0 0 1 1 0 1 0 1 0 1 0 1 0

>  <DIFUSE_FUNC_ATOM>  (1232) 
atom 6   atom 7   

>  <FINAL_SINGLE_POINT_ENERGY>  (1232) 
0

>  <NONCOV_INTER_ENERGY_QM>  (1232) 
0

>  <FF_Energy>  (1232) 
0.55

>  <QM_Energy>  (1232) 
-5.06

>  <source>  (1232) 
ACET_MBZ_01

>  <Index>  (1232) 
8353

$$$$
ACET-pdb3ctd-A-GLU-290:MBZ-pdb3ctd-A-PHE-294
     RDKit          3D

 22 21  0  0  0  0  0  0  0  0999 V2000
    4.5908    1.5999   -1.3925 C   0  0  0  0  0  0  0  0  0  0  0  0
    4.8063    1.0097   -0.6372 H   0  0  0  0  0  0  0  0  0  0  0  0
    4.2229    2.4621   -1.0999 H   0  0  0  0  0  0  0  0  0  0  0  0
    5.4892    1.7708   -1.9857 H   0  0  0  0  0  0  0  0  0  0  0  0
    3.5035    0.9066   -2.2003 C   0  0  0  0  0  0  0  0  0  0  0  0
    3.4882   -0.3383   -2.2140 O   0  0  0  0  0  1  0  0  0  0  0  0
    2.6782    1.6183   -2.8314 O   0  0  0  0  0  0  0  0  0  0  0  0
    0.0166    2.9075   -0.0519 C   0  0  0  0  0  0  0  0  0  0  0  0
   -0.6877    3.1951   -0.6924 H   0  0  0  0  0  0  0  0  0  0  0  0
    0.9142    3.1909   -0.3750 H   0  0  0  0  0  0  0  0  0  0  0  0
   -0.1700    3.4153    0.8943 H   0  0  0  0  0  0  0  0  0  0  0  0
    0.0010    1.4062    0.0104 C   0  0  0  0  0  0  0  0  0  0  0  0
   -1.1873    0.7049    0.0086 C   0  0  0  0  0  0  0  0  0  0  0  0
   -2.0584    1.1893    0.0121 H   0  0  0  0  0  0  0  0  0  0  0  0
   -1.1971   -0.6968   -0.0000 C   0  0  0  0  0  0  0  0  0  0  0  0
   -2.0787   -1.1809   -0.0134 H   0  0  0  0  0  0  0  0  0  0  0  0
   -0.0019   -1.4017    0.0117 C   0  0  0  0  0  0  0  0  0  0  0  0
   -0.0109   -2.3983    0.0279 H   0  0  0  0  0  0  0  0  0  0  0  0
    1.1971   -0.7077    0.0000 C   0  0  0  0  0  0  0  0  0  0  0  0
    2.0801   -1.1963    0.0146 H   0  0  0  0  0  0  0  0  0  0  0  0
    1.1883    0.6951   -0.0307 C   0  0  0  0  0  0  0  0  0  0  0  0
    2.0610    1.1828   -0.0841 H   0  0  0  0  0  0  0  0  0  0  0  0
  1  5  1  0
  5  6  1  0
  5  7  2  0
  1  2  1  0
  1  3  1  0
  1  4  1  0
  8 12  1  0
 12 13  2  0
 13 15  1  0
 15 17  2  0
 17 19  1  0
 19 21  2  0
 21 12  1  0
  8  9  1  0
  8 10  1  0
  8 11  1  0
 13 14  1  0
 15 16  1  0
 17 18  1  0
 19 20  1  0
 21 22  1  0
M  CHG  1   6  -1
M  END
>  <PDB_ID>  (1233) 
pdb3ctd

>  <RESIDUE_NAME>  (1233) 
GLU   PHE

>  <FRAG_NAME>  (1233) 
ACET   MBZ

>  <FRAG_ATOM_NUM>  (1233) 
fragi: 7  fragj: 15

>  <atom.prop.CHAIN_ID>  (1233) 
A A A A A A A Z Z Z Z Z Z Z Z Z Z Z Z Z Z Z

>  <atom.prop.IS_HEAVY_ATOM>  (1233) 
1 0 0 0 1 1 1 1 0 0 0 1 1 0 1 0 1 0 1 0 1 0

>  <DIFUSE_FUNC_ATOM>  (1233) 
atom 6   atom 7   

>  <FINAL_SINGLE_POINT_ENERGY>  (1233) 
0

>  <NONCOV_INTER_ENERGY_QM>  (1233) 
0

>  <FF_Energy>  (1233) 
1.02

>  <QM_Energy>  (1233) 
-4.36

>  <source>  (1233) 
ACET_MBZ_01

>  <Index>  (1233) 
8379

$$$$
ACET-pdb3ctv-A-ASP-44:MBZ-pdb3ctv-A-PHE-58
     RDKit          3D

 22 21  0  0  0  0  0  0  0  0999 V2000
   -4.9591    3.1284   -1.6911 C   0  0  0  0  0  0  0  0  0  0  0  0
   -4.7234    2.8139   -2.6000 H   0  0  0  0  0  0  0  0  0  0  0  0
   -5.4155    4.0067   -1.7268 H   0  0  0  0  0  0  0  0  0  0  0  0
   -5.6466    2.4063   -1.2507 H   0  0  0  0  0  0  0  0  0  0  0  0
   -3.6702    3.2812   -0.8797 C   0  0  0  0  0  0  0  0  0  0  0  0
   -3.5701    2.6654    0.2037 O   0  0  0  0  0  1  0  0  0  0  0  0
   -2.7534    4.0122   -1.3255 O   0  0  0  0  0  0  0  0  0  0  0  0
    0.0021    2.9177    0.0051 C   0  0  0  0  0  0  0  0  0  0  0  0
   -0.7691    3.2200   -0.5296 H   0  0  0  0  0  0  0  0  0  0  0  0
    0.8578    3.2192   -0.3826 H   0  0  0  0  0  0  0  0  0  0  0  0
   -0.0880    3.3509    1.0013 H   0  0  0  0  0  0  0  0  0  0  0  0
    0.0019    1.4007   -0.0002 C   0  0  0  0  0  0  0  0  0  0  0  0
   -1.1955    0.6884   -0.0008 C   0  0  0  0  0  0  0  0  0  0  0  0
   -2.0621    1.1812   -0.0027 H   0  0  0  0  0  0  0  0  0  0  0  0
   -1.1990   -0.6969    0.0000 C   0  0  0  0  0  0  0  0  0  0  0  0
   -2.0765   -1.1912    0.0015 H   0  0  0  0  0  0  0  0  0  0  0  0
   -0.0036   -1.3853    0.0008 C   0  0  0  0  0  0  0  0  0  0  0  0
   -0.0039   -2.3886    0.0010 H   0  0  0  0  0  0  0  0  0  0  0  0
    1.1990   -0.6937    0.0000 C   0  0  0  0  0  0  0  0  0  0  0  0
    2.0777   -1.1985    0.0006 H   0  0  0  0  0  0  0  0  0  0  0  0
    1.1972    0.6868    0.0002 C   0  0  0  0  0  0  0  0  0  0  0  0
    2.0659    1.1867   -0.0005 H   0  0  0  0  0  0  0  0  0  0  0  0
  1  5  1  0
  5  6  1  0
  5  7  2  0
  1  2  1  0
  1  3  1  0
  1  4  1  0
  8 12  1  0
 12 13  2  0
 13 15  1  0
 15 17  2  0
 17 19  1  0
 19 21  2  0
 21 12  1  0
  8  9  1  0
  8 10  1  0
  8 11  1  0
 13 14  1  0
 15 16  1  0
 17 18  1  0
 19 20  1  0
 21 22  1  0
M  CHG  1   6  -1
M  END
>  <PDB_ID>  (1234) 
pdb3ctv

>  <RESIDUE_NAME>  (1234) 
ASP   PHE

>  <FRAG_NAME>  (1234) 
ACET   MBZ

>  <FRAG_ATOM_NUM>  (1234) 
fragi: 7  fragj: 15

>  <atom.prop.CHAIN_ID>  (1234) 
A A A A A A A Z Z Z Z Z Z Z Z Z Z Z Z Z Z Z

>  <atom.prop.IS_HEAVY_ATOM>  (1234) 
1 0 0 0 1 1 1 1 0 0 0 1 1 0 1 0 1 0 1 0 1 0

>  <DIFUSE_FUNC_ATOM>  (1234) 
atom 6   atom 7   

>  <FINAL_SINGLE_POINT_ENERGY>  (1234) 
0

>  <NONCOV_INTER_ENERGY_QM>  (1234) 
0

>  <FF_Energy>  (1234) 
1.57

>  <QM_Energy>  (1234) 
-9.46

>  <source>  (1234) 
ACET_MBZ_01

>  <Index>  (1234) 
8447

$$$$
ACET-pdb1z2m-A-GLU-139:MBZ-pdb1z2m-A-PHE-41
     RDKit          3D

 22 21  0  0  0  0  0  0  0  0999 V2000
    4.6035    3.7963   -2.0514 C   0  0  0  0  0  0  0  0  0  0  0  0
    5.5103    3.5647   -1.7604 H   0  0  0  0  0  0  0  0  0  0  0  0
    4.5389    4.7112   -2.3971 H   0  0  0  0  0  0  0  0  0  0  0  0
    4.3006    3.1027   -2.8358 H   0  0  0  0  0  0  0  0  0  0  0  0
    3.6981    3.7168   -0.8158 C   0  0  0  0  0  0  0  0  0  0  0  0
    2.9211    4.6693   -0.5922 O   0  0  0  0  0  1  0  0  0  0  0  0
    3.7555    2.7094   -0.0736 O   0  0  0  0  0  0  0  0  0  0  0  0
    0.0034    2.9175   -0.0307 C   0  0  0  0  0  0  0  0  0  0  0  0
   -0.7411    3.2119   -0.6145 H   0  0  0  0  0  0  0  0  0  0  0  0
    0.8766    3.2141   -0.3927 H   0  0  0  0  0  0  0  0  0  0  0  0
   -0.1301    3.3932    0.9409 H   0  0  0  0  0  0  0  0  0  0  0  0
    0.0009    1.4082    0.0007 C   0  0  0  0  0  0  0  0  0  0  0  0
   -1.2014    0.6966    0.0007 C   0  0  0  0  0  0  0  0  0  0  0  0
   -2.0670    1.1818   -0.0002 H   0  0  0  0  0  0  0  0  0  0  0  0
   -1.2041   -0.7075    0.0000 C   0  0  0  0  0  0  0  0  0  0  0  0
   -2.0787   -1.1977    0.0024 H   0  0  0  0  0  0  0  0  0  0  0  0
    0.0031   -1.4010   -0.0027 C   0  0  0  0  0  0  0  0  0  0  0  0
    0.0059   -2.3973   -0.0073 H   0  0  0  0  0  0  0  0  0  0  0  0
    1.2041   -0.6929    0.0000 C   0  0  0  0  0  0  0  0  0  0  0  0
    2.0870   -1.1906    0.0021 H   0  0  0  0  0  0  0  0  0  0  0  0
    1.1974    0.6966    0.0014 C   0  0  0  0  0  0  0  0  0  0  0  0
    2.0666    1.1947    0.0029 H   0  0  0  0  0  0  0  0  0  0  0  0
  1  5  1  0
  5  6  1  0
  5  7  2  0
  1  2  1  0
  1  3  1  0
  1  4  1  0
  8 12  1  0
 12 13  2  0
 13 15  1  0
 15 17  2  0
 17 19  1  0
 19 21  2  0
 21 12  1  0
  8  9  1  0
  8 10  1  0
  8 11  1  0
 13 14  1  0
 15 16  1  0
 17 18  1  0
 19 20  1  0
 21 22  1  0
M  CHG  1   6  -1
M  END
>  <PDB_ID>  (1235) 
pdb1z2m

>  <RESIDUE_NAME>  (1235) 
GLU   PHE

>  <FRAG_NAME>  (1235) 
ACET   MBZ

>  <FRAG_ATOM_NUM>  (1235) 
fragi: 7  fragj: 15

>  <atom.prop.CHAIN_ID>  (1235) 
A A A A A A A Z Z Z Z Z Z Z Z Z Z Z Z Z Z Z

>  <atom.prop.IS_HEAVY_ATOM>  (1235) 
1 0 0 0 1 1 1 1 0 0 0 1 1 0 1 0 1 0 1 0 1 0

>  <DIFUSE_FUNC_ATOM>  (1235) 
atom 6   atom 7   

>  <FINAL_SINGLE_POINT_ENERGY>  (1235) 
0

>  <NONCOV_INTER_ENERGY_QM>  (1235) 
0

>  <FF_Energy>  (1235) 
-1.94

>  <QM_Energy>  (1235) 
-9.41

>  <source>  (1235) 
ACET_MBZ_01

>  <Index>  (1235) 
8525

$$$$
ACET-pdb1z6g-A-GLU-49:MBZ-pdb1z6g-A-PHE-55
     RDKit          3D

 22 21  0  0  0  0  0  0  0  0999 V2000
   -5.7886    2.7556   -0.2658 C   0  0  0  0  0  0  0  0  0  0  0  0
   -6.0757    3.4843   -0.8610 H   0  0  0  0  0  0  0  0  0  0  0  0
   -6.4649    2.5493    0.4193 H   0  0  0  0  0  0  0  0  0  0  0  0
   -5.6326    1.8631   -0.8717 H   0  0  0  0  0  0  0  0  0  0  0  0
   -4.5341    3.2187    0.4543 C   0  0  0  0  0  0  0  0  0  0  0  0
   -3.4316    3.0907   -0.1217 O   0  0  0  0  0  1  0  0  0  0  0  0
   -4.6546    3.7289    1.5885 O   0  0  0  0  0  0  0  0  0  0  0  0
    0.0057    2.9113    0.0344 C   0  0  0  0  0  0  0  0  0  0  0  0
   -0.7843    3.2299   -0.4639 H   0  0  0  0  0  0  0  0  0  0  0  0
    0.8462    3.2249   -0.3788 H   0  0  0  0  0  0  0  0  0  0  0  0
   -0.0450    3.3264    1.0410 H   0  0  0  0  0  0  0  0  0  0  0  0
    0.0022    1.4063   -0.0003 C   0  0  0  0  0  0  0  0  0  0  0  0
   -1.1956    0.6981   -0.0001 C   0  0  0  0  0  0  0  0  0  0  0  0
   -2.0622    1.1870   -0.0018 H   0  0  0  0  0  0  0  0  0  0  0  0
   -1.2026   -0.6988   -0.0000 C   0  0  0  0  0  0  0  0  0  0  0  0
   -2.0820   -1.1874    0.0005 H   0  0  0  0  0  0  0  0  0  0  0  0
   -0.0049   -1.3988    0.0006 C   0  0  0  0  0  0  0  0  0  0  0  0
   -0.0074   -2.3956    0.0013 H   0  0  0  0  0  0  0  0  0  0  0  0
    1.2026   -0.7007   -0.0000 C   0  0  0  0  0  0  0  0  0  0  0  0
    2.0810   -1.1988    0.0011 H   0  0  0  0  0  0  0  0  0  0  0  0
    1.1984    0.6940   -0.0002 C   0  0  0  0  0  0  0  0  0  0  0  0
    2.0677    1.1888   -0.0014 H   0  0  0  0  0  0  0  0  0  0  0  0
  1  5  1  0
  5  6  1  0
  5  7  2  0
  1  2  1  0
  1  3  1  0
  1  4  1  0
  8 12  1  0
 12 13  2  0
 13 15  1  0
 15 17  2  0
 17 19  1  0
 19 21  2  0
 21 12  1  0
  8  9  1  0
  8 10  1  0
  8 11  1  0
 13 14  1  0
 15 16  1  0
 17 18  1  0
 19 20  1  0
 21 22  1  0
M  CHG  1   6  -1
M  END
>  <PDB_ID>  (1236) 
pdb1z6g

>  <RESIDUE_NAME>  (1236) 
GLU   PHE

>  <FRAG_NAME>  (1236) 
ACET   MBZ

>  <FRAG_ATOM_NUM>  (1236) 
fragi: 7  fragj: 15

>  <atom.prop.CHAIN_ID>  (1236) 
A A A A A A A Z Z Z Z Z Z Z Z Z Z Z Z Z Z Z

>  <atom.prop.IS_HEAVY_ATOM>  (1236) 
1 0 0 0 1 1 1 1 0 0 0 1 1 0 1 0 1 0 1 0 1 0

>  <DIFUSE_FUNC_ATOM>  (1236) 
atom 6   atom 7   

>  <FINAL_SINGLE_POINT_ENERGY>  (1236) 
0

>  <NONCOV_INTER_ENERGY_QM>  (1236) 
0

>  <FF_Energy>  (1236) 
-1.69

>  <QM_Energy>  (1236) 
-7.95

>  <source>  (1236) 
ACET_MBZ_01

>  <Index>  (1236) 
8694

$$$$
ACET-pdb1z6n-A-ASP-77:MBZ-pdb1z6n-A-PHE-14
     RDKit          3D

 22 21  0  0  0  0  0  0  0  0999 V2000
    0.8478    0.4991   -3.4682 C   0  0  0  0  0  0  0  0  0  0  0  0
    0.0857    0.8058   -2.9142 H   0  0  0  0  0  0  0  0  0  0  0  0
    0.9394   -0.4863   -3.4304 H   0  0  0  0  0  0  0  0  0  0  0  0
    0.6562    0.7860   -4.5022 H   0  0  0  0  0  0  0  0  0  0  0  0
    2.1218    1.1272   -2.9313 C   0  0  0  0  0  0  0  0  0  0  0  0
    2.1095    2.3589   -2.6968 O   0  0  0  0  0  1  0  0  0  0  0  0
    3.1227    0.3906   -2.7675 O   0  0  0  0  0  0  0  0  0  0  0  0
    0.0052    2.9095   -0.0101 C   0  0  0  0  0  0  0  0  0  0  0  0
   -0.6176    3.2108   -0.7173 H   0  0  0  0  0  0  0  0  0  0  0  0
    0.9281    3.2158   -0.1899 H   0  0  0  0  0  0  0  0  0  0  0  0
   -0.3175    3.3508    0.9329 H   0  0  0  0  0  0  0  0  0  0  0  0
    0.0074    1.4099   -0.0026 C   0  0  0  0  0  0  0  0  0  0  0  0
   -1.2066    0.7040   -0.0025 C   0  0  0  0  0  0  0  0  0  0  0  0
   -2.0643    1.1891   -0.0058 H   0  0  0  0  0  0  0  0  0  0  0  0
   -1.2069   -0.7054   -0.0000 C   0  0  0  0  0  0  0  0  0  0  0  0
   -2.0833   -1.1929    0.0049 H   0  0  0  0  0  0  0  0  0  0  0  0
   -0.0026   -1.3965   -0.0028 C   0  0  0  0  0  0  0  0  0  0  0  0
   -0.0085   -2.4007   -0.0079 H   0  0  0  0  0  0  0  0  0  0  0  0
    1.2069   -0.7107    0.0000 C   0  0  0  0  0  0  0  0  0  0  0  0
    2.0828   -1.2019   -0.0024 H   0  0  0  0  0  0  0  0  0  0  0  0
    1.2019    0.6987    0.0080 C   0  0  0  0  0  0  0  0  0  0  0  0
    2.0734    1.1851    0.0209 H   0  0  0  0  0  0  0  0  0  0  0  0
  1  5  1  0
  5  6  1  0
  5  7  2  0
  1  2  1  0
  1  3  1  0
  1  4  1  0
  8 12  1  0
 12 13  2  0
 13 15  1  0
 15 17  2  0
 17 19  1  0
 19 21  2  0
 21 12  1  0
  8  9  1  0
  8 10  1  0
  8 11  1  0
 13 14  1  0
 15 16  1  0
 17 18  1  0
 19 20  1  0
 21 22  1  0
M  CHG  1   6  -1
M  END
>  <PDB_ID>  (1237) 
pdb1z6n

>  <RESIDUE_NAME>  (1237) 
ASP   PHE

>  <FRAG_NAME>  (1237) 
ACET   MBZ

>  <FRAG_ATOM_NUM>  (1237) 
fragi: 7  fragj: 15

>  <atom.prop.CHAIN_ID>  (1237) 
A A A A A A A Z Z Z Z Z Z Z Z Z Z Z Z Z Z Z

>  <atom.prop.IS_HEAVY_ATOM>  (1237) 
1 0 0 0 1 1 1 1 0 0 0 1 1 0 1 0 1 0 1 0 1 0

>  <DIFUSE_FUNC_ATOM>  (1237) 
atom 6   atom 7   

>  <FINAL_SINGLE_POINT_ENERGY>  (1237) 
0

>  <NONCOV_INTER_ENERGY_QM>  (1237) 
0

>  <FF_Energy>  (1237) 
-0.2

>  <QM_Energy>  (1237) 
-6.6

>  <source>  (1237) 
ACET_MBZ_01

>  <Index>  (1237) 
8704

$$$$
ACET-pdb1z7c-A-GLU-30:MBZ-pdb1z7c-A-PHE-97
     RDKit          3D

 22 21  0  0  0  0  0  0  0  0999 V2000
    2.9879   -1.9054   -2.4201 C   0  0  0  0  0  0  0  0  0  0  0  0
    2.7357   -1.5684   -1.5198 H   0  0  0  0  0  0  0  0  0  0  0  0
    3.9697   -1.8349   -2.5544 H   0  0  0  0  0  0  0  0  0  0  0  0
    2.7000   -2.9542   -2.4918 H   0  0  0  0  0  0  0  0  0  0  0  0
    2.3319   -1.0248   -3.4314 C   0  0  0  0  0  0  0  0  0  0  0  0
    1.4913   -1.5139   -4.2510 O   0  0  0  0  0  1  0  0  0  0  0  0
    2.7391    0.1670   -3.4264 O   0  0  0  0  0  0  0  0  0  0  0  0
    0.0039    2.8701   -0.0369 C   0  0  0  0  0  0  0  0  0  0  0  0
   -0.8065    3.1791   -0.5095 H   0  0  0  0  0  0  0  0  0  0  0  0
    0.8260    3.1718   -0.4955 H   0  0  0  0  0  0  0  0  0  0  0  0
   -0.0029    3.3048    0.9626 H   0  0  0  0  0  0  0  0  0  0  0  0
   -0.0029    1.3752   -0.0309 C   0  0  0  0  0  0  0  0  0  0  0  0
   -1.1706    0.6918    0.0356 C   0  0  0  0  0  0  0  0  0  0  0  0
   -2.0422    1.1790    0.1099 H   0  0  0  0  0  0  0  0  0  0  0  0
   -1.1736   -0.6795   -0.0000 C   0  0  0  0  0  0  0  0  0  0  0  0
   -2.0652   -1.1698   -0.0319 H   0  0  0  0  0  0  0  0  0  0  0  0
   -0.0055   -1.3724    0.0094 C   0  0  0  0  0  0  0  0  0  0  0  0
   -0.0063   -2.3730    0.0220 H   0  0  0  0  0  0  0  0  0  0  0  0
    1.1736   -0.6783    0.0000 C   0  0  0  0  0  0  0  0  0  0  0  0
    2.0627   -1.1963    0.0049 H   0  0  0  0  0  0  0  0  0  0  0  0
    1.1790    0.6632   -0.0141 C   0  0  0  0  0  0  0  0  0  0  0  0
    2.0506    1.1734   -0.0134 H   0  0  0  0  0  0  0  0  0  0  0  0
  1  5  1  0
  5  6  1  0
  5  7  2  0
  1  2  1  0
  1  3  1  0
  1  4  1  0
  8 12  1  0
 12 13  2  0
 13 15  1  0
 15 17  2  0
 17 19  1  0
 19 21  2  0
 21 12  1  0
  8  9  1  0
  8 10  1  0
  8 11  1  0
 13 14  1  0
 15 16  1  0
 17 18  1  0
 19 20  1  0
 21 22  1  0
M  CHG  1   6  -1
M  END
>  <PDB_ID>  (1238) 
pdb1z7c

>  <RESIDUE_NAME>  (1238) 
GLU   PHE

>  <FRAG_NAME>  (1238) 
ACET   MBZ

>  <FRAG_ATOM_NUM>  (1238) 
fragi: 7  fragj: 15

>  <atom.prop.CHAIN_ID>  (1238) 
A A A A A A A Z Z Z Z Z Z Z Z Z Z Z Z Z Z Z

>  <atom.prop.IS_HEAVY_ATOM>  (1238) 
1 0 0 0 1 1 1 1 0 0 0 1 1 0 1 0 1 0 1 0 1 0

>  <DIFUSE_FUNC_ATOM>  (1238) 
atom 6   atom 7   

>  <FINAL_SINGLE_POINT_ENERGY>  (1238) 
0

>  <NONCOV_INTER_ENERGY_QM>  (1238) 
0

>  <FF_Energy>  (1238) 
9.18

>  <QM_Energy>  (1238) 
1.81

>  <source>  (1238) 
ACET_MBZ_01

>  <Index>  (1238) 
8739

$$$$
ACET-pdb3d01-A-ASP-95:MBZ-pdb3d01-A-PHE-7
     RDKit          3D

 22 21  0  0  0  0  0  0  0  0999 V2000
   -4.6712    4.6418    2.5363 C   0  0  0  0  0  0  0  0  0  0  0  0
   -4.6103    5.0960    3.4211 H   0  0  0  0  0  0  0  0  0  0  0  0
   -4.9349    3.6891    2.6587 H   0  0  0  0  0  0  0  0  0  0  0  0
   -5.4570    5.1341    1.9636 H   0  0  0  0  0  0  0  0  0  0  0  0
   -3.3589    4.7085    1.8544 C   0  0  0  0  0  0  0  0  0  0  0  0
   -2.7892    5.8267    1.8082 O   0  0  0  0  0  1  0  0  0  0  0  0
   -2.9045    3.6423    1.3736 O   0  0  0  0  0  0  0  0  0  0  0  0
    0.0156    2.8968   -0.0231 C   0  0  0  0  0  0  0  0  0  0  0  0
    0.7593    3.2151    0.5393 H   0  0  0  0  0  0  0  0  0  0  0  0
   -0.8559    3.2221    0.3001 H   0  0  0  0  0  0  0  0  0  0  0  0
    0.1661    3.2890   -1.0289 H   0  0  0  0  0  0  0  0  0  0  0  0
    0.0032    1.4042    0.0154 C   0  0  0  0  0  0  0  0  0  0  0  0
   -1.2023    0.6997   -0.0102 C   0  0  0  0  0  0  0  0  0  0  0  0
   -2.0631    1.1955   -0.0369 H   0  0  0  0  0  0  0  0  0  0  0  0
   -1.2113   -0.6900   -0.0000 C   0  0  0  0  0  0  0  0  0  0  0  0
   -2.0871   -1.1846    0.0109 H   0  0  0  0  0  0  0  0  0  0  0  0
   -0.0051   -1.3979   -0.0029 C   0  0  0  0  0  0  0  0  0  0  0  0
   -0.0140   -2.3939   -0.0075 H   0  0  0  0  0  0  0  0  0  0  0  0
    1.2113   -0.7044    0.0000 C   0  0  0  0  0  0  0  0  0  0  0  0
    2.0834   -1.2057    0.0050 H   0  0  0  0  0  0  0  0  0  0  0  0
    1.2043    0.6883   -0.0022 C   0  0  0  0  0  0  0  0  0  0  0  0
    2.0717    1.1863   -0.0172 H   0  0  0  0  0  0  0  0  0  0  0  0
  1  5  1  0
  5  6  1  0
  5  7  2  0
  1  2  1  0
  1  3  1  0
  1  4  1  0
  8 12  1  0
 12 13  2  0
 13 15  1  0
 15 17  2  0
 17 19  1  0
 19 21  2  0
 21 12  1  0
  8  9  1  0
  8 10  1  0
  8 11  1  0
 13 14  1  0
 15 16  1  0
 17 18  1  0
 19 20  1  0
 21 22  1  0
M  CHG  1   6  -1
M  END
>  <PDB_ID>  (1239) 
pdb3d01

>  <RESIDUE_NAME>  (1239) 
ASP   PHE

>  <FRAG_NAME>  (1239) 
ACET   MBZ

>  <FRAG_ATOM_NUM>  (1239) 
fragi: 7  fragj: 15

>  <atom.prop.CHAIN_ID>  (1239) 
A A A A A A A Z Z Z Z Z Z Z Z Z Z Z Z Z Z Z

>  <atom.prop.IS_HEAVY_ATOM>  (1239) 
1 0 0 0 1 1 1 1 0 0 0 1 1 0 1 0 1 0 1 0 1 0

>  <DIFUSE_FUNC_ATOM>  (1239) 
atom 6   atom 7   

>  <FINAL_SINGLE_POINT_ENERGY>  (1239) 
0

>  <NONCOV_INTER_ENERGY_QM>  (1239) 
0

>  <FF_Energy>  (1239) 
-1.14

>  <QM_Energy>  (1239) 
-7.3

>  <source>  (1239) 
ACET_MBZ_01

>  <Index>  (1239) 
8800

$$$$
ACET-pdb3d01-F-ASP-95:MBZ-pdb3d01-F-PHE-7
     RDKit          3D

 22 21  0  0  0  0  0  0  0  0999 V2000
   -5.1382    4.6958    0.8802 C   0  0  0  0  0  0  0  0  0  0  0  0
   -5.0382    5.1990    1.7311 H   0  0  0  0  0  0  0  0  0  0  0  0
   -5.4985    3.7866    1.0544 H   0  0  0  0  0  0  0  0  0  0  0  0
   -5.8614    5.2282    0.2624 H   0  0  0  0  0  0  0  0  0  0  0  0
   -3.8172    4.5867    0.2102 C   0  0  0  0  0  0  0  0  0  0  0  0
   -3.2774    5.6455   -0.2145 O   0  0  0  0  0  1  0  0  0  0  0  0
   -3.3265    3.4564    0.0960 O   0  0  0  0  0  0  0  0  0  0  0  0
   -0.0019    2.9307    0.0003 C   0  0  0  0  0  0  0  0  0  0  0  0
    0.5382    3.2385    0.7673 H   0  0  0  0  0  0  0  0  0  0  0  0
   -0.9393    3.2332    0.0721 H   0  0  0  0  0  0  0  0  0  0  0  0
    0.4201    3.3758   -0.9007 H   0  0  0  0  0  0  0  0  0  0  0  0
    0.0041    1.4201    0.0007 C   0  0  0  0  0  0  0  0  0  0  0  0
   -1.2051    0.7017   -0.0081 C   0  0  0  0  0  0  0  0  0  0  0  0
   -2.0695    1.1847   -0.0213 H   0  0  0  0  0  0  0  0  0  0  0  0
   -1.2152   -0.7190   -0.0000 C   0  0  0  0  0  0  0  0  0  0  0  0
   -2.0869   -1.2001    0.0089 H   0  0  0  0  0  0  0  0  0  0  0  0
   -0.0020   -1.4141   -0.0024 C   0  0  0  0  0  0  0  0  0  0  0  0
    0.0070   -2.4062   -0.0057 H   0  0  0  0  0  0  0  0  0  0  0  0
    1.2152   -0.6966   -0.0000 C   0  0  0  0  0  0  0  0  0  0  0  0
    2.0918   -1.1902   -0.0042 H   0  0  0  0  0  0  0  0  0  0  0  0
    1.2030    0.7078    0.0098 C   0  0  0  0  0  0  0  0  0  0  0  0
    2.0724    1.2020    0.0224 H   0  0  0  0  0  0  0  0  0  0  0  0
  1  5  1  0
  5  6  1  0
  5  7  2  0
  1  2  1  0
  1  3  1  0
  1  4  1  0
  8 12  1  0
 12 13  2  0
 13 15  1  0
 15 17  2  0
 17 19  1  0
 19 21  2  0
 21 12  1  0
  8  9  1  0
  8 10  1  0
  8 11  1  0
 13 14  1  0
 15 16  1  0
 17 18  1  0
 19 20  1  0
 21 22  1  0
M  CHG  1   6  -1
M  END
>  <PDB_ID>  (1240) 
pdb3d01

>  <RESIDUE_NAME>  (1240) 
ASP   PHE

>  <FRAG_NAME>  (1240) 
ACET   MBZ

>  <FRAG_ATOM_NUM>  (1240) 
fragi: 7  fragj: 15

>  <atom.prop.CHAIN_ID>  (1240) 
A A A A A A A Z Z Z Z Z Z Z Z Z Z Z Z Z Z Z

>  <atom.prop.IS_HEAVY_ATOM>  (1240) 
1 0 0 0 1 1 1 1 0 0 0 1 1 0 1 0 1 0 1 0 1 0

>  <DIFUSE_FUNC_ATOM>  (1240) 
atom 6   atom 7   

>  <FINAL_SINGLE_POINT_ENERGY>  (1240) 
0

>  <NONCOV_INTER_ENERGY_QM>  (1240) 
0

>  <FF_Energy>  (1240) 
-2.08

>  <QM_Energy>  (1240) 
-8.46

>  <source>  (1240) 
ACET_MBZ_01

>  <Index>  (1240) 
8812

$$$$
ACET-pdb3d01-I-ASP-95:MBZ-pdb3d01-I-PHE-7
     RDKit          3D

 22 21  0  0  0  0  0  0  0  0999 V2000
   -4.5451    3.9299    3.1000 C   0  0  0  0  0  0  0  0  0  0  0  0
   -4.5259    4.0936    4.0862 H   0  0  0  0  0  0  0  0  0  0  0  0
   -4.6726    2.9553    2.9246 H   0  0  0  0  0  0  0  0  0  0  0  0
   -5.4132    4.4522    2.6979 H   0  0  0  0  0  0  0  0  0  0  0  0
   -3.2358    4.3705    2.5030 C   0  0  0  0  0  0  0  0  0  0  0  0
   -3.0252    5.5898    2.2588 O   0  0  0  0  0  1  0  0  0  0  0  0
   -2.3943    3.4528    2.3267 O   0  0  0  0  0  0  0  0  0  0  0  0
   -0.0115    2.9079   -0.0186 C   0  0  0  0  0  0  0  0  0  0  0  0
    0.8191    3.2315    0.4028 H   0  0  0  0  0  0  0  0  0  0  0  0
   -0.8124    3.2184    0.4653 H   0  0  0  0  0  0  0  0  0  0  0  0
   -0.0540    3.3224   -1.0258 H   0  0  0  0  0  0  0  0  0  0  0  0
    0.0018    1.4117    0.0024 C   0  0  0  0  0  0  0  0  0  0  0  0
   -1.2042    0.6923   -0.0101 C   0  0  0  0  0  0  0  0  0  0  0  0
   -2.0698    1.1847   -0.0283 H   0  0  0  0  0  0  0  0  0  0  0  0
   -1.2227   -0.7138    0.0000 C   0  0  0  0  0  0  0  0  0  0  0  0
   -2.0926   -1.1988    0.0040 H   0  0  0  0  0  0  0  0  0  0  0  0
   -0.0077   -1.4128    0.0063 C   0  0  0  0  0  0  0  0  0  0  0  0
    0.0044   -2.4016    0.0151 H   0  0  0  0  0  0  0  0  0  0  0  0
    1.2227   -0.6903   -0.0000 C   0  0  0  0  0  0  0  0  0  0  0  0
    2.0935   -1.1895   -0.0035 H   0  0  0  0  0  0  0  0  0  0  0  0
    1.2101    0.7129    0.0014 C   0  0  0  0  0  0  0  0  0  0  0  0
    2.0717    1.2113    0.0007 H   0  0  0  0  0  0  0  0  0  0  0  0
  1  5  1  0
  5  6  1  0
  5  7  2  0
  1  2  1  0
  1  3  1  0
  1  4  1  0
  8 12  1  0
 12 13  2  0
 13 15  1  0
 15 17  2  0
 17 19  1  0
 19 21  2  0
 21 12  1  0
  8  9  1  0
  8 10  1  0
  8 11  1  0
 13 14  1  0
 15 16  1  0
 17 18  1  0
 19 20  1  0
 21 22  1  0
M  CHG  1   6  -1
M  END
>  <PDB_ID>  (1241) 
pdb3d01

>  <RESIDUE_NAME>  (1241) 
ASP   PHE

>  <FRAG_NAME>  (1241) 
ACET   MBZ

>  <FRAG_ATOM_NUM>  (1241) 
fragi: 7  fragj: 15

>  <atom.prop.CHAIN_ID>  (1241) 
A A A A A A A Z Z Z Z Z Z Z Z Z Z Z Z Z Z Z

>  <atom.prop.IS_HEAVY_ATOM>  (1241) 
1 0 0 0 1 1 1 1 0 0 0 1 1 0 1 0 1 0 1 0 1 0

>  <DIFUSE_FUNC_ATOM>  (1241) 
atom 6   atom 7   

>  <FINAL_SINGLE_POINT_ENERGY>  (1241) 
0

>  <NONCOV_INTER_ENERGY_QM>  (1241) 
0

>  <FF_Energy>  (1241) 
-0.65

>  <QM_Energy>  (1241) 
-5.93

>  <source>  (1241) 
ACET_MBZ_01

>  <Index>  (1241) 
8824

$$$$
ACET-pdb3d01-L-ASP-95:MBZ-pdb3d01-L-PHE-7
     RDKit          3D

 22 21  0  0  0  0  0  0  0  0999 V2000
   -4.4911    4.3123    3.2498 C   0  0  0  0  0  0  0  0  0  0  0  0
   -4.0938    4.9227    3.9275 H   0  0  0  0  0  0  0  0  0  0  0  0
   -4.9021    3.5237    3.6954 H   0  0  0  0  0  0  0  0  0  0  0  0
   -5.2848    4.8559    2.7374 H   0  0  0  0  0  0  0  0  0  0  0  0
   -3.3977    3.8366    2.3174 C   0  0  0  0  0  0  0  0  0  0  0  0
   -3.4626    4.1130    1.1020 O   0  0  0  0  0  1  0  0  0  0  0  0
   -2.4602    3.1712    2.8123 O   0  0  0  0  0  0  0  0  0  0  0  0
   -0.0064    2.8987   -0.0154 C   0  0  0  0  0  0  0  0  0  0  0  0
    0.7918    3.2208    0.4680 H   0  0  0  0  0  0  0  0  0  0  0  0
   -0.8403    3.2103    0.4118 H   0  0  0  0  0  0  0  0  0  0  0  0
    0.0249    3.3207   -1.0200 H   0  0  0  0  0  0  0  0  0  0  0  0
    0.0029    1.4039    0.0023 C   0  0  0  0  0  0  0  0  0  0  0  0
   -1.1943    0.6856   -0.0089 C   0  0  0  0  0  0  0  0  0  0  0  0
   -2.0628    1.1780   -0.0245 H   0  0  0  0  0  0  0  0  0  0  0  0
   -1.2051   -0.7064   -0.0000 C   0  0  0  0  0  0  0  0  0  0  0  0
   -2.0814   -1.1955    0.0048 H   0  0  0  0  0  0  0  0  0  0  0  0
   -0.0057   -1.3996    0.0043 C   0  0  0  0  0  0  0  0  0  0  0  0
    0.0017   -2.3953    0.0101 H   0  0  0  0  0  0  0  0  0  0  0  0
    1.2051   -0.6915    0.0000 C   0  0  0  0  0  0  0  0  0  0  0  0
    2.0830   -1.1876   -0.0035 H   0  0  0  0  0  0  0  0  0  0  0  0
    1.1972    0.7080    0.0024 C   0  0  0  0  0  0  0  0  0  0  0  0
    2.0654    1.2004    0.0030 H   0  0  0  0  0  0  0  0  0  0  0  0
  1  5  1  0
  5  6  1  0
  5  7  2  0
  1  2  1  0
  1  3  1  0
  1  4  1  0
  8 12  1  0
 12 13  2  0
 13 15  1  0
 15 17  2  0
 17 19  1  0
 19 21  2  0
 21 12  1  0
  8  9  1  0
  8 10  1  0
  8 11  1  0
 13 14  1  0
 15 16  1  0
 17 18  1  0
 19 20  1  0
 21 22  1  0
M  CHG  1   6  -1
M  END
>  <PDB_ID>  (1242) 
pdb3d01

>  <RESIDUE_NAME>  (1242) 
ASP   PHE

>  <FRAG_NAME>  (1242) 
ACET   MBZ

>  <FRAG_ATOM_NUM>  (1242) 
fragi: 7  fragj: 15

>  <atom.prop.CHAIN_ID>  (1242) 
A A A A A A A Z Z Z Z Z Z Z Z Z Z Z Z Z Z Z

>  <atom.prop.IS_HEAVY_ATOM>  (1242) 
1 0 0 0 1 1 1 1 0 0 0 1 1 0 1 0 1 0 1 0 1 0

>  <DIFUSE_FUNC_ATOM>  (1242) 
atom 6   atom 7   

>  <FINAL_SINGLE_POINT_ENERGY>  (1242) 
0

>  <NONCOV_INTER_ENERGY_QM>  (1242) 
0

>  <FF_Energy>  (1242) 
-1.29

>  <QM_Energy>  (1242) 
-6.73

>  <source>  (1242) 
ACET_MBZ_01

>  <Index>  (1242) 
8832

$$$$
ACET-pdb1z85-B-ASP-39:MBZ-pdb1z85-B-PHE-43
     RDKit          3D

 22 21  0  0  0  0  0  0  0  0999 V2000
   -4.1090    5.2917   -2.4550 C   0  0  0  0  0  0  0  0  0  0  0  0
   -4.9313    4.9855   -2.9286 H   0  0  0  0  0  0  0  0  0  0  0  0
   -3.4392    5.6206   -3.1155 H   0  0  0  0  0  0  0  0  0  0  0  0
   -4.3886    6.1346   -1.8230 H   0  0  0  0  0  0  0  0  0  0  0  0
   -3.5254    4.1465   -1.6864 C   0  0  0  0  0  0  0  0  0  0  0  0
   -3.4569    4.2537   -0.4475 O   0  0  0  0  0  1  0  0  0  0  0  0
   -3.0998    3.1605   -2.3251 O   0  0  0  0  0  0  0  0  0  0  0  0
   -0.0101    2.8949    0.0149 C   0  0  0  0  0  0  0  0  0  0  0  0
   -0.7815    3.2007   -0.5139 H   0  0  0  0  0  0  0  0  0  0  0  0
    0.8436    3.2172   -0.3557 H   0  0  0  0  0  0  0  0  0  0  0  0
   -0.1125    3.2998    1.0217 H   0  0  0  0  0  0  0  0  0  0  0  0
    0.0079    1.3926   -0.0098 C   0  0  0  0  0  0  0  0  0  0  0  0
   -1.1883    0.6756   -0.0017 C   0  0  0  0  0  0  0  0  0  0  0  0
   -2.0558    1.1765    0.0017 H   0  0  0  0  0  0  0  0  0  0  0  0
   -1.2004   -0.7013   -0.0000 C   0  0  0  0  0  0  0  0  0  0  0  0
   -2.0848   -1.1910   -0.0002 H   0  0  0  0  0  0  0  0  0  0  0  0
   -0.0190   -1.3890    0.0043 C   0  0  0  0  0  0  0  0  0  0  0  0
   -0.0046   -2.3874    0.0096 H   0  0  0  0  0  0  0  0  0  0  0  0
    1.2004   -0.6840    0.0000 C   0  0  0  0  0  0  0  0  0  0  0  0
    2.0734   -1.1900   -0.0068 H   0  0  0  0  0  0  0  0  0  0  0  0
    1.1995    0.7062    0.0072 C   0  0  0  0  0  0  0  0  0  0  0  0
    2.0657    1.1987    0.0240 H   0  0  0  0  0  0  0  0  0  0  0  0
  1  5  1  0
  5  6  1  0
  5  7  2  0
  1  2  1  0
  1  3  1  0
  1  4  1  0
  8 12  1  0
 12 13  2  0
 13 15  1  0
 15 17  2  0
 17 19  1  0
 19 21  2  0
 21 12  1  0
  8  9  1  0
  8 10  1  0
  8 11  1  0
 13 14  1  0
 15 16  1  0
 17 18  1  0
 19 20  1  0
 21 22  1  0
M  CHG  1   6  -1
M  END
>  <PDB_ID>  (1243) 
pdb1z85

>  <RESIDUE_NAME>  (1243) 
ASP   PHE

>  <FRAG_NAME>  (1243) 
ACET   MBZ

>  <FRAG_ATOM_NUM>  (1243) 
fragi: 7  fragj: 15

>  <atom.prop.CHAIN_ID>  (1243) 
A A A A A A A Z Z Z Z Z Z Z Z Z Z Z Z Z Z Z

>  <atom.prop.IS_HEAVY_ATOM>  (1243) 
1 0 0 0 1 1 1 1 0 0 0 1 1 0 1 0 1 0 1 0 1 0

>  <DIFUSE_FUNC_ATOM>  (1243) 
atom 6   atom 7   

>  <FINAL_SINGLE_POINT_ENERGY>  (1243) 
0

>  <NONCOV_INTER_ENERGY_QM>  (1243) 
0

>  <FF_Energy>  (1243) 
-1.89

>  <QM_Energy>  (1243) 
-7.11

>  <source>  (1243) 
ACET_MBZ_01

>  <Index>  (1243) 
8860

$$$$
ACET-pdb1zc2-A-GLU-61:MBZ-pdb1zc2-A-PHE-322
     RDKit          3D

 22 21  0  0  0  0  0  0  0  0999 V2000
   -1.7774   -0.0975   -3.4278 C   0  0  0  0  0  0  0  0  0  0  0  0
   -1.8637   -0.6695   -4.2239 H   0  0  0  0  0  0  0  0  0  0  0  0
   -1.1316   -0.4586   -2.7797 H   0  0  0  0  0  0  0  0  0  0  0  0
   -1.4048    0.8717   -3.7592 H   0  0  0  0  0  0  0  0  0  0  0  0
   -3.1335   -0.0307   -2.7496 C   0  0  0  0  0  0  0  0  0  0  0  0
   -3.3750    0.9108   -1.8924 O   0  0  0  0  0  1  0  0  0  0  0  0
   -3.9672   -0.9325   -3.0949 O   0  0  0  0  0  0  0  0  0  0  0  0
   -0.0099    2.9639   -0.0349 C   0  0  0  0  0  0  0  0  0  0  0  0
   -0.7413    3.2410   -0.6380 H   0  0  0  0  0  0  0  0  0  0  0  0
    0.8709    3.2444   -0.3830 H   0  0  0  0  0  0  0  0  0  0  0  0
   -0.1624    3.4534    0.9269 H   0  0  0  0  0  0  0  0  0  0  0  0
   -0.0152    1.4285    0.0151 C   0  0  0  0  0  0  0  0  0  0  0  0
   -1.2224    0.6843    0.0243 C   0  0  0  0  0  0  0  0  0  0  0  0
   -2.0878    1.1535    0.0462 H   0  0  0  0  0  0  0  0  0  0  0  0
   -1.1915   -0.7254    0.0000 C   0  0  0  0  0  0  0  0  0  0  0  0
   -2.0523   -1.2368    0.0222 H   0  0  0  0  0  0  0  0  0  0  0  0
    0.0393   -1.4031   -0.0532 C   0  0  0  0  0  0  0  0  0  0  0  0
    0.0264   -2.4043   -0.1311 H   0  0  0  0  0  0  0  0  0  0  0  0
    1.1915   -0.7090   -0.0000 C   0  0  0  0  0  0  0  0  0  0  0  0
    2.1020   -1.1736    0.0344 H   0  0  0  0  0  0  0  0  0  0  0  0
    1.1982    0.7247    0.0139 C   0  0  0  0  0  0  0  0  0  0  0  0
    2.0593    1.2008    0.0221 H   0  0  0  0  0  0  0  0  0  0  0  0
  1  5  1  0
  5  6  1  0
  5  7  2  0
  1  2  1  0
  1  3  1  0
  1  4  1  0
  8 12  1  0
 12 13  2  0
 13 15  1  0
 15 17  2  0
 17 19  1  0
 19 21  2  0
 21 12  1  0
  8  9  1  0
  8 10  1  0
  8 11  1  0
 13 14  1  0
 15 16  1  0
 17 18  1  0
 19 20  1  0
 21 22  1  0
M  CHG  1   6  -1
M  END
>  <PDB_ID>  (1244) 
pdb1zc2

>  <RESIDUE_NAME>  (1244) 
GLU   PHE

>  <FRAG_NAME>  (1244) 
ACET   MBZ

>  <FRAG_ATOM_NUM>  (1244) 
fragi: 7  fragj: 15

>  <atom.prop.CHAIN_ID>  (1244) 
A A A A A A A Z Z Z Z Z Z Z Z Z Z Z Z Z Z Z

>  <atom.prop.IS_HEAVY_ATOM>  (1244) 
1 0 0 0 1 1 1 1 0 0 0 1 1 0 1 0 1 0 1 0 1 0

>  <DIFUSE_FUNC_ATOM>  (1244) 
atom 6   atom 7   

>  <FINAL_SINGLE_POINT_ENERGY>  (1244) 
0

>  <NONCOV_INTER_ENERGY_QM>  (1244) 
0

>  <FF_Energy>  (1244) 
-0.04

>  <QM_Energy>  (1244) 
-5.15

>  <source>  (1244) 
ACET_MBZ_01

>  <Index>  (1244) 
9112

$$$$
ACET-pdb3d59-A-ASP-296:MBZ-pdb3d59-A-PHE-322
     RDKit          3D

 22 21  0  0  0  0  0  0  0  0999 V2000
    3.1191    1.3324   -3.8546 C   0  0  0  0  0  0  0  0  0  0  0  0
    3.1351    1.8245   -4.7172 H   0  0  0  0  0  0  0  0  0  0  0  0
    2.4456    0.6030   -3.8824 H   0  0  0  0  0  0  0  0  0  0  0  0
    4.0983    0.8732   -3.7185 H   0  0  0  0  0  0  0  0  0  0  0  0
    2.7583    2.2957   -2.7437 C   0  0  0  0  0  0  0  0  0  0  0  0
    3.6006    2.6197   -1.8695 O   0  0  0  0  0  1  0  0  0  0  0  0
    1.5985    2.7777   -2.7836 O   0  0  0  0  0  0  0  0  0  0  0  0
    0.0067    2.9563    0.0357 C   0  0  0  0  0  0  0  0  0  0  0  0
   -0.6510    3.2532   -0.6331 H   0  0  0  0  0  0  0  0  0  0  0  0
    0.9188    3.2556   -0.1792 H   0  0  0  0  0  0  0  0  0  0  0  0
   -0.2718    3.3856    0.9980 H   0  0  0  0  0  0  0  0  0  0  0  0
    0.0138    1.4179    0.0218 C   0  0  0  0  0  0  0  0  0  0  0  0
   -1.1836    0.7087   -0.0050 C   0  0  0  0  0  0  0  0  0  0  0  0
   -2.0490    1.2096   -0.0298 H   0  0  0  0  0  0  0  0  0  0  0  0
   -1.1995   -0.6722    0.0000 C   0  0  0  0  0  0  0  0  0  0  0  0
   -2.0823   -1.1629    0.0390 H   0  0  0  0  0  0  0  0  0  0  0  0
   -0.0059   -1.3941   -0.0472 C   0  0  0  0  0  0  0  0  0  0  0  0
   -0.0412   -2.3925   -0.1163 H   0  0  0  0  0  0  0  0  0  0  0  0
    1.1995   -0.7341    0.0000 C   0  0  0  0  0  0  0  0  0  0  0  0
    2.0715   -1.2156    0.0144 H   0  0  0  0  0  0  0  0  0  0  0  0
    1.1758    0.6738    0.0304 C   0  0  0  0  0  0  0  0  0  0  0  0
    2.0713    1.1586    0.0591 H   0  0  0  0  0  0  0  0  0  0  0  0
  1  5  1  0
  5  6  1  0
  5  7  2  0
  1  2  1  0
  1  3  1  0
  1  4  1  0
  8 12  1  0
 12 13  2  0
 13 15  1  0
 15 17  2  0
 17 19  1  0
 19 21  2  0
 21 12  1  0
  8  9  1  0
  8 10  1  0
  8 11  1  0
 13 14  1  0
 15 16  1  0
 17 18  1  0
 19 20  1  0
 21 22  1  0
M  CHG  1   6  -1
M  END
>  <PDB_ID>  (1245) 
pdb3d59

>  <RESIDUE_NAME>  (1245) 
ASP   PHE

>  <FRAG_NAME>  (1245) 
ACET   MBZ

>  <FRAG_ATOM_NUM>  (1245) 
fragi: 7  fragj: 15

>  <atom.prop.CHAIN_ID>  (1245) 
A A A A A A A Z Z Z Z Z Z Z Z Z Z Z Z Z Z Z

>  <atom.prop.IS_HEAVY_ATOM>  (1245) 
1 0 0 0 1 1 1 1 0 0 0 1 1 0 1 0 1 0 1 0 1 0

>  <DIFUSE_FUNC_ATOM>  (1245) 
atom 6   atom 7   

>  <FINAL_SINGLE_POINT_ENERGY>  (1245) 
0

>  <NONCOV_INTER_ENERGY_QM>  (1245) 
0

>  <FF_Energy>  (1245) 
-0.65

>  <QM_Energy>  (1245) 
-6.8

>  <source>  (1245) 
ACET_MBZ_01

>  <Index>  (1245) 
9230

$$$$
ACET-pdb3d5l-A-GLU-180:MBZ-pdb3d5l-A-PHE-168
     RDKit          3D

 22 21  0  0  0  0  0  0  0  0999 V2000
   -2.6218   -5.0301   -1.2040 C   0  0  0  0  0  0  0  0  0  0  0  0
   -3.4870   -4.8408   -1.6407 H   0  0  0  0  0  0  0  0  0  0  0  0
   -2.6220   -5.9185   -0.7726 H   0  0  0  0  0  0  0  0  0  0  0  0
   -1.8484   -5.0260   -1.9721 H   0  0  0  0  0  0  0  0  0  0  0  0
   -2.4284   -3.9886   -0.1028 C   0  0  0  0  0  0  0  0  0  0  0  0
   -1.3373   -3.9646    0.5107 O   0  0  0  0  0  1  0  0  0  0  0  0
   -3.3762   -3.2034    0.1629 O   0  0  0  0  0  0  0  0  0  0  0  0
   -0.0054    2.9075   -0.0303 C   0  0  0  0  0  0  0  0  0  0  0  0
    0.9238    3.2199    0.0887 H   0  0  0  0  0  0  0  0  0  0  0  0
   -0.5924    3.2276    0.6961 H   0  0  0  0  0  0  0  0  0  0  0  0
   -0.3788    3.3221   -0.9667 H   0  0  0  0  0  0  0  0  0  0  0  0
   -0.0011    1.4064   -0.0002 C   0  0  0  0  0  0  0  0  0  0  0  0
   -1.1965    0.6949    0.0009 C   0  0  0  0  0  0  0  0  0  0  0  0
   -2.0650    1.1846    0.0010 H   0  0  0  0  0  0  0  0  0  0  0  0
   -1.2026   -0.6975    0.0000 C   0  0  0  0  0  0  0  0  0  0  0  0
   -2.0779   -1.1915    0.0016 H   0  0  0  0  0  0  0  0  0  0  0  0
    0.0031   -1.3997   -0.0015 C   0  0  0  0  0  0  0  0  0  0  0  0
   -0.0061   -2.3962   -0.0044 H   0  0  0  0  0  0  0  0  0  0  0  0
    1.2026   -0.7038   -0.0000 C   0  0  0  0  0  0  0  0  0  0  0  0
    2.0849   -1.1934    0.0020 H   0  0  0  0  0  0  0  0  0  0  0  0
    1.1945    0.6995    0.0009 C   0  0  0  0  0  0  0  0  0  0  0  0
    2.0641    1.1913    0.0015 H   0  0  0  0  0  0  0  0  0  0  0  0
  1  5  1  0
  5  6  1  0
  5  7  2  0
  1  2  1  0
  1  3  1  0
  1  4  1  0
  8 12  1  0
 12 13  2  0
 13 15  1  0
 15 17  2  0
 17 19  1  0
 19 21  2  0
 21 12  1  0
  8  9  1  0
  8 10  1  0
  8 11  1  0
 13 14  1  0
 15 16  1  0
 17 18  1  0
 19 20  1  0
 21 22  1  0
M  CHG  1   6  -1
M  END
>  <PDB_ID>  (1246) 
pdb3d5l

>  <RESIDUE_NAME>  (1246) 
GLU   PHE

>  <FRAG_NAME>  (1246) 
ACET   MBZ

>  <FRAG_ATOM_NUM>  (1246) 
fragi: 7  fragj: 15

>  <atom.prop.CHAIN_ID>  (1246) 
A A A A A A A Z Z Z Z Z Z Z Z Z Z Z Z Z Z Z

>  <atom.prop.IS_HEAVY_ATOM>  (1246) 
1 0 0 0 1 1 1 1 0 0 0 1 1 0 1 0 1 0 1 0 1 0

>  <DIFUSE_FUNC_ATOM>  (1246) 
atom 6   atom 7   

>  <FINAL_SINGLE_POINT_ENERGY>  (1246) 
0

>  <NONCOV_INTER_ENERGY_QM>  (1246) 
0

>  <FF_Energy>  (1246) 
0.76

>  <QM_Energy>  (1246) 
-7.48

>  <source>  (1246) 
ACET_MBZ_01

>  <Index>  (1246) 
9238

$$$$
ACET-pdb1z6o-E-ASP-205:MBZ-pdb1z6o-E-PHE-72
     RDKit          3D

 22 21  0  0  0  0  0  0  0  0999 V2000
   -5.3647    0.1740    0.3681 C   0  0  0  0  0  0  0  0  0  0  0  0
   -4.6853   -0.1619   -0.2668 H   0  0  0  0  0  0  0  0  0  0  0  0
   -6.2785   -0.0560    0.0714 H   0  0  0  0  0  0  0  0  0  0  0  0
   -5.1903   -0.2964    1.3358 H   0  0  0  0  0  0  0  0  0  0  0  0
   -5.2476    1.6995    0.4419 C   0  0  0  0  0  0  0  0  0  0  0  0
   -6.2809    2.3924    0.5785 O   0  0  0  0  0  1  0  0  0  0  0  0
   -4.1064    2.2026    0.3945 O   0  0  0  0  0  0  0  0  0  0  0  0
    0.0014    2.9080    0.0535 C   0  0  0  0  0  0  0  0  0  0  0  0
   -0.7038    3.2360   -0.5552 H   0  0  0  0  0  0  0  0  0  0  0  0
    0.8953    3.2237   -0.2225 H   0  0  0  0  0  0  0  0  0  0  0  0
   -0.2019    3.3095    1.0463 H   0  0  0  0  0  0  0  0  0  0  0  0
    0.0002    1.4053    0.0010 C   0  0  0  0  0  0  0  0  0  0  0  0
   -1.2001    0.6958    0.0001 C   0  0  0  0  0  0  0  0  0  0  0  0
   -2.0659    1.1877   -0.0011 H   0  0  0  0  0  0  0  0  0  0  0  0
   -1.2096   -0.6989    0.0000 C   0  0  0  0  0  0  0  0  0  0  0  0
   -2.0836   -1.1909    0.0003 H   0  0  0  0  0  0  0  0  0  0  0  0
   -0.0011   -1.4017    0.0011 C   0  0  0  0  0  0  0  0  0  0  0  0
   -0.0043   -2.3955    0.0023 H   0  0  0  0  0  0  0  0  0  0  0  0
    1.2096   -0.6986    0.0000 C   0  0  0  0  0  0  0  0  0  0  0  0
    2.0865   -1.1950    0.0028 H   0  0  0  0  0  0  0  0  0  0  0  0
    1.2010    0.6980   -0.0022 C   0  0  0  0  0  0  0  0  0  0  0  0
    2.0675    1.1945   -0.0070 H   0  0  0  0  0  0  0  0  0  0  0  0
  1  5  1  0
  5  6  1  0
  5  7  2  0
  1  2  1  0
  1  3  1  0
  1  4  1  0
  8 12  1  0
 12 13  2  0
 13 15  1  0
 15 17  2  0
 17 19  1  0
 19 21  2  0
 21 12  1  0
  8  9  1  0
  8 10  1  0
  8 11  1  0
 13 14  1  0
 15 16  1  0
 17 18  1  0
 19 20  1  0
 21 22  1  0
M  CHG  1   6  -1
M  END
>  <PDB_ID>  (1247) 
pdb1z6o

>  <RESIDUE_NAME>  (1247) 
ASP   PHE

>  <FRAG_NAME>  (1247) 
ACET   MBZ

>  <FRAG_ATOM_NUM>  (1247) 
fragi: 7  fragj: 15

>  <atom.prop.CHAIN_ID>  (1247) 
A A A A A A A Z Z Z Z Z Z Z Z Z Z Z Z Z Z Z

>  <atom.prop.IS_HEAVY_ATOM>  (1247) 
1 0 0 0 1 1 1 1 0 0 0 1 1 0 1 0 1 0 1 0 1 0

>  <DIFUSE_FUNC_ATOM>  (1247) 
atom 6   atom 7   

>  <FINAL_SINGLE_POINT_ENERGY>  (1247) 
0

>  <NONCOV_INTER_ENERGY_QM>  (1247) 
0

>  <FF_Energy>  (1247) 
-1.9

>  <QM_Energy>  (1247) 
-7.0

>  <source>  (1247) 
ACET_MBZ_01

>  <Index>  (1247) 
9259

$$$$
ACET-pdb1zcj-A-GLU-443:MBZ-pdb1zcj-A-PHE-478
     RDKit          3D

 22 21  0  0  0  0  0  0  0  0999 V2000
    2.8075    4.3879    3.5627 C   0  0  0  0  0  0  0  0  0  0  0  0
    2.1544    5.0114    3.9407 H   0  0  0  0  0  0  0  0  0  0  0  0
    3.7322    4.6239    3.7795 H   0  0  0  0  0  0  0  0  0  0  0  0
    2.6030    3.3933    3.9593 H   0  0  0  0  0  0  0  0  0  0  0  0
    2.6605    4.4072    2.0764 C   0  0  0  0  0  0  0  0  0  0  0  0
    3.2782    3.5349    1.4250 O   0  0  0  0  0  1  0  0  0  0  0  0
    1.9453    5.2753    1.5609 O   0  0  0  0  0  0  0  0  0  0  0  0
   -0.0412    2.9069    0.0029 C   0  0  0  0  0  0  0  0  0  0  0  0
    0.8642    3.2347   -0.1985 H   0  0  0  0  0  0  0  0  0  0  0  0
   -0.3585    3.2125    0.8836 H   0  0  0  0  0  0  0  0  0  0  0  0
   -0.7157    3.3120   -0.7515 H   0  0  0  0  0  0  0  0  0  0  0  0
   -0.0039    1.4006    0.0142 C   0  0  0  0  0  0  0  0  0  0  0  0
   -1.1954    0.6703   -0.0048 C   0  0  0  0  0  0  0  0  0  0  0  0
   -2.0665    1.1675   -0.0233 H   0  0  0  0  0  0  0  0  0  0  0  0
   -1.1958   -0.6985    0.0000 C   0  0  0  0  0  0  0  0  0  0  0  0
   -2.0703   -1.2037    0.0081 H   0  0  0  0  0  0  0  0  0  0  0  0
    0.0033   -1.3886   -0.0046 C   0  0  0  0  0  0  0  0  0  0  0  0
    0.0005   -2.3896   -0.0116 H   0  0  0  0  0  0  0  0  0  0  0  0
    1.1958   -0.6931   -0.0000 C   0  0  0  0  0  0  0  0  0  0  0  0
    2.0828   -1.1843    0.0085 H   0  0  0  0  0  0  0  0  0  0  0  0
    1.1960    0.7094   -0.0047 C   0  0  0  0  0  0  0  0  0  0  0  0
    2.0598    1.1988   -0.0223 H   0  0  0  0  0  0  0  0  0  0  0  0
  1  5  1  0
  5  6  1  0
  5  7  2  0
  1  2  1  0
  1  3  1  0
  1  4  1  0
  8 12  1  0
 12 13  2  0
 13 15  1  0
 15 17  2  0
 17 19  1  0
 19 21  2  0
 21 12  1  0
  8  9  1  0
  8 10  1  0
  8 11  1  0
 13 14  1  0
 15 16  1  0
 17 18  1  0
 19 20  1  0
 21 22  1  0
M  CHG  1   6  -1
M  END
>  <PDB_ID>  (1248) 
pdb1zcj

>  <RESIDUE_NAME>  (1248) 
GLU   PHE

>  <FRAG_NAME>  (1248) 
ACET   MBZ

>  <FRAG_ATOM_NUM>  (1248) 
fragi: 7  fragj: 15

>  <atom.prop.CHAIN_ID>  (1248) 
A A A A A A A Z Z Z Z Z Z Z Z Z Z Z Z Z Z Z

>  <atom.prop.IS_HEAVY_ATOM>  (1248) 
1 0 0 0 1 1 1 1 0 0 0 1 1 0 1 0 1 0 1 0 1 0

>  <DIFUSE_FUNC_ATOM>  (1248) 
atom 6   atom 7   

>  <FINAL_SINGLE_POINT_ENERGY>  (1248) 
0

>  <NONCOV_INTER_ENERGY_QM>  (1248) 
0

>  <FF_Energy>  (1248) 
-2.07

>  <QM_Energy>  (1248) 
-7.23

>  <source>  (1248) 
ACET_MBZ_01

>  <Index>  (1248) 
9288

$$$$
ACET-pdb1zee-B-GLU-327:MBZ-pdb1zee-B-PHE-205
     RDKit          3D

 22 21  0  0  0  0  0  0  0  0999 V2000
    0.5837    0.2074    3.4448 C   0  0  0  0  0  0  0  0  0  0  0  0
    1.2523   -0.1996    4.0380 H   0  0  0  0  0  0  0  0  0  0  0  0
    0.8671    0.2086    2.5046 H   0  0  0  0  0  0  0  0  0  0  0  0
   -0.3382   -0.3689    3.5242 H   0  0  0  0  0  0  0  0  0  0  0  0
    0.4123    1.6586    3.8734 C   0  0  0  0  0  0  0  0  0  0  0  0
   -0.4205    2.3687    3.2715 O   0  0  0  0  0  1  0  0  0  0  0  0
    1.1168    2.0912    4.8100 O   0  0  0  0  0  0  0  0  0  0  0  0
    0.0006    2.9089    0.0276 C   0  0  0  0  0  0  0  0  0  0  0  0
    0.8442    3.2230   -0.3816 H   0  0  0  0  0  0  0  0  0  0  0  0
   -0.0720    3.2007    0.9696 H   0  0  0  0  0  0  0  0  0  0  0  0
   -0.8241    3.3607   -0.5238 H   0  0  0  0  0  0  0  0  0  0  0  0
    0.0001    1.4075    0.0028 C   0  0  0  0  0  0  0  0  0  0  0  0
   -1.2000    0.6941    0.0005 C   0  0  0  0  0  0  0  0  0  0  0  0
   -2.0666    1.1827   -0.0016 H   0  0  0  0  0  0  0  0  0  0  0  0
   -1.2056   -0.7037    0.0000 C   0  0  0  0  0  0  0  0  0  0  0  0
   -2.0807   -1.1946    0.0030 H   0  0  0  0  0  0  0  0  0  0  0  0
   -0.0002   -1.4008   -0.0028 C   0  0  0  0  0  0  0  0  0  0  0  0
   -0.0004   -2.3974   -0.0076 H   0  0  0  0  0  0  0  0  0  0  0  0
    1.2056   -0.6977   -0.0000 C   0  0  0  0  0  0  0  0  0  0  0  0
    2.0860   -1.1926    0.0035 H   0  0  0  0  0  0  0  0  0  0  0  0
    1.2001    0.7007   -0.0005 C   0  0  0  0  0  0  0  0  0  0  0  0
    2.0671    1.1950   -0.0042 H   0  0  0  0  0  0  0  0  0  0  0  0
  1  5  1  0
  5  6  1  0
  5  7  2  0
  1  2  1  0
  1  3  1  0
  1  4  1  0
  8 12  1  0
 12 13  2  0
 13 15  1  0
 15 17  2  0
 17 19  1  0
 19 21  2  0
 21 12  1  0
  8  9  1  0
  8 10  1  0
  8 11  1  0
 13 14  1  0
 15 16  1  0
 17 18  1  0
 19 20  1  0
 21 22  1  0
M  CHG  1   6  -1
M  END
>  <PDB_ID>  (1249) 
pdb1zee

>  <RESIDUE_NAME>  (1249) 
GLU   PHE

>  <FRAG_NAME>  (1249) 
ACET   MBZ

>  <FRAG_ATOM_NUM>  (1249) 
fragi: 7  fragj: 15

>  <atom.prop.CHAIN_ID>  (1249) 
A A A A A A A Z Z Z Z Z Z Z Z Z Z Z Z Z Z Z

>  <atom.prop.IS_HEAVY_ATOM>  (1249) 
1 0 0 0 1 1 1 1 0 0 0 1 1 0 1 0 1 0 1 0 1 0

>  <DIFUSE_FUNC_ATOM>  (1249) 
atom 6   atom 7   

>  <FINAL_SINGLE_POINT_ENERGY>  (1249) 
0

>  <NONCOV_INTER_ENERGY_QM>  (1249) 
0

>  <FF_Energy>  (1249) 
1.29

>  <QM_Energy>  (1249) 
-4.33

>  <source>  (1249) 
ACET_MBZ_01

>  <Index>  (1249) 
9336

$$$$
ACET-pdb3d3x-B-ASP-14:MBZ-pdb3d3x-B-PHE-135
     RDKit          3D

 22 21  0  0  0  0  0  0  0  0999 V2000
   -3.6316    1.9061    2.1584 C   0  0  0  0  0  0  0  0  0  0  0  0
   -3.7889    1.8402    3.1376 H   0  0  0  0  0  0  0  0  0  0  0  0
   -2.9871    1.2098    1.8629 H   0  0  0  0  0  0  0  0  0  0  0  0
   -4.5796    1.7258    1.6517 H   0  0  0  0  0  0  0  0  0  0  0  0
   -3.0522    3.2704    1.8488 C   0  0  0  0  0  0  0  0  0  0  0  0
   -2.9798    3.6336    0.6574 O   0  0  0  0  0  1  0  0  0  0  0  0
   -2.6581    3.9747    2.7973 O   0  0  0  0  0  0  0  0  0  0  0  0
   -0.0040    2.9046   -0.0331 C   0  0  0  0  0  0  0  0  0  0  0  0
    0.9340    3.2141   -0.0262 H   0  0  0  0  0  0  0  0  0  0  0  0
   -0.4970    3.2260    0.7595 H   0  0  0  0  0  0  0  0  0  0  0  0
   -0.4876    3.3171   -0.9186 H   0  0  0  0  0  0  0  0  0  0  0  0
    0.0019    1.4033   -0.0002 C   0  0  0  0  0  0  0  0  0  0  0  0
   -1.1971    0.6919    0.0015 C   0  0  0  0  0  0  0  0  0  0  0  0
   -2.0635    1.1877    0.0024 H   0  0  0  0  0  0  0  0  0  0  0  0
   -1.2088   -0.6952    0.0000 C   0  0  0  0  0  0  0  0  0  0  0  0
   -2.0845   -1.1885    0.0022 H   0  0  0  0  0  0  0  0  0  0  0  0
   -0.0049   -1.4004   -0.0029 C   0  0  0  0  0  0  0  0  0  0  0  0
   -0.0091   -2.3949   -0.0076 H   0  0  0  0  0  0  0  0  0  0  0  0
    1.2088   -0.7002    0.0000 C   0  0  0  0  0  0  0  0  0  0  0  0
    2.0843   -1.1958    0.0027 H   0  0  0  0  0  0  0  0  0  0  0  0
    1.2001    0.7006    0.0016 C   0  0  0  0  0  0  0  0  0  0  0  0
    2.0676    1.1948    0.0035 H   0  0  0  0  0  0  0  0  0  0  0  0
  1  5  1  0
  5  6  1  0
  5  7  2  0
  1  2  1  0
  1  3  1  0
  1  4  1  0
  8 12  1  0
 12 13  2  0
 13 15  1  0
 15 17  2  0
 17 19  1  0
 19 21  2  0
 21 12  1  0
  8  9  1  0
  8 10  1  0
  8 11  1  0
 13 14  1  0
 15 16  1  0
 17 18  1  0
 19 20  1  0
 21 22  1  0
M  CHG  1   6  -1
M  END
>  <PDB_ID>  (1250) 
pdb3d3x

>  <RESIDUE_NAME>  (1250) 
ASP   PHE

>  <FRAG_NAME>  (1250) 
ACET   MBZ

>  <FRAG_ATOM_NUM>  (1250) 
fragi: 7  fragj: 15

>  <atom.prop.CHAIN_ID>  (1250) 
A A A A A A A Z Z Z Z Z Z Z Z Z Z Z Z Z Z Z

>  <atom.prop.IS_HEAVY_ATOM>  (1250) 
1 0 0 0 1 1 1 1 0 0 0 1 1 0 1 0 1 0 1 0 1 0

>  <DIFUSE_FUNC_ATOM>  (1250) 
atom 6   atom 7   

>  <FINAL_SINGLE_POINT_ENERGY>  (1250) 
0

>  <NONCOV_INTER_ENERGY_QM>  (1250) 
0

>  <FF_Energy>  (1250) 
-0.77

>  <QM_Energy>  (1250) 
-6.98

>  <source>  (1250) 
ACET_MBZ_01

>  <Index>  (1250) 
9363

$$$$
ACET-pdb1zjh-A-ASP-112:MBZ-pdb1zjh-A-PHE-240
     RDKit          3D

 22 21  0  0  0  0  0  0  0  0999 V2000
    3.4861    3.3557   -1.9790 C   0  0  0  0  0  0  0  0  0  0  0  0
    3.2990    2.3789   -1.9576 H   0  0  0  0  0  0  0  0  0  0  0  0
    4.3883    3.5257   -2.3611 H   0  0  0  0  0  0  0  0  0  0  0  0
    2.7526    3.8205   -2.6377 H   0  0  0  0  0  0  0  0  0  0  0  0
    3.4314    3.8984   -0.5826 C   0  0  0  0  0  0  0  0  0  0  0  0
    3.1090    5.0875   -0.4226 O   0  0  0  0  0  1  0  0  0  0  0  0
    3.7193    3.1435    0.3592 O   0  0  0  0  0  0  0  0  0  0  0  0
    0.0127    2.9182    0.0175 C   0  0  0  0  0  0  0  0  0  0  0  0
    0.7142    3.2229   -0.6104 H   0  0  0  0  0  0  0  0  0  0  0  0
    0.2109    3.2085    0.9427 H   0  0  0  0  0  0  0  0  0  0  0  0
   -0.9282    3.3790   -0.2834 H   0  0  0  0  0  0  0  0  0  0  0  0
   -0.0000    1.4073   -0.0002 C   0  0  0  0  0  0  0  0  0  0  0  0
   -1.1995    0.6970    0.0007 C   0  0  0  0  0  0  0  0  0  0  0  0
   -2.0655    1.1907    0.0007 H   0  0  0  0  0  0  0  0  0  0  0  0
   -1.2119   -0.6965    0.0000 C   0  0  0  0  0  0  0  0  0  0  0  0
   -2.0866   -1.1875    0.0014 H   0  0  0  0  0  0  0  0  0  0  0  0
   -0.0047   -1.4026   -0.0008 C   0  0  0  0  0  0  0  0  0  0  0  0
   -0.0080   -2.3962   -0.0022 H   0  0  0  0  0  0  0  0  0  0  0  0
    1.2119   -0.6997    0.0000 C   0  0  0  0  0  0  0  0  0  0  0  0
    2.0865   -1.2003    0.0019 H   0  0  0  0  0  0  0  0  0  0  0  0
    1.2043    0.6946    0.0002 C   0  0  0  0  0  0  0  0  0  0  0  0
    2.0695    1.1936    0.0004 H   0  0  0  0  0  0  0  0  0  0  0  0
  1  5  1  0
  5  6  1  0
  5  7  2  0
  1  2  1  0
  1  3  1  0
  1  4  1  0
  8 12  1  0
 12 13  2  0
 13 15  1  0
 15 17  2  0
 17 19  1  0
 19 21  2  0
 21 12  1  0
  8  9  1  0
  8 10  1  0
  8 11  1  0
 13 14  1  0
 15 16  1  0
 17 18  1  0
 19 20  1  0
 21 22  1  0
M  CHG  1   6  -1
M  END
>  <PDB_ID>  (1251) 
pdb1zjh

>  <RESIDUE_NAME>  (1251) 
ASP   PHE

>  <FRAG_NAME>  (1251) 
ACET   MBZ

>  <FRAG_ATOM_NUM>  (1251) 
fragi: 7  fragj: 15

>  <atom.prop.CHAIN_ID>  (1251) 
A A A A A A A Z Z Z Z Z Z Z Z Z Z Z Z Z Z Z

>  <atom.prop.IS_HEAVY_ATOM>  (1251) 
1 0 0 0 1 1 1 1 0 0 0 1 1 0 1 0 1 0 1 0 1 0

>  <DIFUSE_FUNC_ATOM>  (1251) 
atom 6   atom 7   

>  <FINAL_SINGLE_POINT_ENERGY>  (1251) 
0

>  <NONCOV_INTER_ENERGY_QM>  (1251) 
0

>  <FF_Energy>  (1251) 
-1.81

>  <QM_Energy>  (1251) 
-7.84

>  <source>  (1251) 
ACET_MBZ_01

>  <Index>  (1251) 
9454

$$$$
ACET-pdb1zke-A-GLU-20:MBZ-pdb1zke-C-PHE-2
     RDKit          3D

 22 21  0  0  0  0  0  0  0  0999 V2000
    4.3761    0.6933   -1.1857 C   0  0  0  0  0  0  0  0  0  0  0  0
    4.0603    0.7978   -2.1153 H   0  0  0  0  0  0  0  0  0  0  0  0
    3.6914    0.2659   -0.6161 H   0  0  0  0  0  0  0  0  0  0  0  0
    5.2695    0.0689   -1.1887 H   0  0  0  0  0  0  0  0  0  0  0  0
    4.6199    2.0787   -0.6336 C   0  0  0  0  0  0  0  0  0  0  0  0
    5.6830    2.3105   -0.0012 O   0  0  0  0  0  1  0  0  0  0  0  0
    3.7281    2.9361   -0.8293 O   0  0  0  0  0  0  0  0  0  0  0  0
    0.0209    2.9129   -0.0020 C   0  0  0  0  0  0  0  0  0  0  0  0
    0.1425    3.2102   -0.9369 H   0  0  0  0  0  0  0  0  0  0  0  0
    0.7694    3.2085    0.5714 H   0  0  0  0  0  0  0  0  0  0  0  0
   -0.8949    3.3642    0.3797 H   0  0  0  0  0  0  0  0  0  0  0  0
    0.0029    1.4037    0.0037 C   0  0  0  0  0  0  0  0  0  0  0  0
   -1.1975    0.6952   -0.0052 C   0  0  0  0  0  0  0  0  0  0  0  0
   -2.0623    1.1836   -0.0168 H   0  0  0  0  0  0  0  0  0  0  0  0
   -1.2008   -0.7013    0.0000 C   0  0  0  0  0  0  0  0  0  0  0  0
   -2.0773   -1.1932    0.0064 H   0  0  0  0  0  0  0  0  0  0  0  0
    0.0011   -1.3949   -0.0025 C   0  0  0  0  0  0  0  0  0  0  0  0
   -0.0002   -2.3934   -0.0062 H   0  0  0  0  0  0  0  0  0  0  0  0
    1.2008   -0.6953   -0.0000 C   0  0  0  0  0  0  0  0  0  0  0  0
    2.0828   -1.1933    0.0002 H   0  0  0  0  0  0  0  0  0  0  0  0
    1.1935    0.6927    0.0039 C   0  0  0  0  0  0  0  0  0  0  0  0
    2.0652    1.1896    0.0061 H   0  0  0  0  0  0  0  0  0  0  0  0
  1  5  1  0
  5  6  1  0
  5  7  2  0
  1  2  1  0
  1  3  1  0
  1  4  1  0
  8 12  1  0
 12 13  2  0
 13 15  1  0
 15 17  2  0
 17 19  1  0
 19 21  2  0
 21 12  1  0
  8  9  1  0
  8 10  1  0
  8 11  1  0
 13 14  1  0
 15 16  1  0
 17 18  1  0
 19 20  1  0
 21 22  1  0
M  CHG  1   6  -1
M  END
>  <PDB_ID>  (1252) 
pdb1zke

>  <RESIDUE_NAME>  (1252) 
GLU   PHE

>  <FRAG_NAME>  (1252) 
ACET   MBZ

>  <FRAG_ATOM_NUM>  (1252) 
fragi: 7  fragj: 15

>  <atom.prop.CHAIN_ID>  (1252) 
A A A A A A A Z Z Z Z Z Z Z Z Z Z Z Z Z Z Z

>  <atom.prop.IS_HEAVY_ATOM>  (1252) 
1 0 0 0 1 1 1 1 0 0 0 1 1 0 1 0 1 0 1 0 1 0

>  <DIFUSE_FUNC_ATOM>  (1252) 
atom 6   atom 7   

>  <FINAL_SINGLE_POINT_ENERGY>  (1252) 
0

>  <NONCOV_INTER_ENERGY_QM>  (1252) 
0

>  <FF_Energy>  (1252) 
0.02

>  <QM_Energy>  (1252) 
-5.4

>  <source>  (1252) 
ACET_MBZ_01

>  <Index>  (1252) 
9537

$$$$
ACET-pdb3daq-D-GLU-196:MBZ-pdb3daq-D-PHE-169
     RDKit          3D

 22 21  0  0  0  0  0  0  0  0999 V2000
    0.5404   -1.1913   -3.6025 C   0  0  0  0  0  0  0  0  0  0  0  0
    1.2245   -0.8725   -2.9642 H   0  0  0  0  0  0  0  0  0  0  0  0
    0.7955   -0.9855   -4.5351 H   0  0  0  0  0  0  0  0  0  0  0  0
    0.4344   -2.2707   -3.4944 H   0  0  0  0  0  0  0  0  0  0  0  0
   -0.7374   -0.4207   -3.3099 C   0  0  0  0  0  0  0  0  0  0  0  0
   -1.8070   -1.0464   -3.1393 O   0  0  0  0  0  1  0  0  0  0  0  0
   -0.6675    0.8246   -3.2405 O   0  0  0  0  0  0  0  0  0  0  0  0
    0.0177    2.8920    0.0431 C   0  0  0  0  0  0  0  0  0  0  0  0
   -0.8624    3.2224   -0.2427 H   0  0  0  0  0  0  0  0  0  0  0  0
    0.7436    3.2147   -0.5354 H   0  0  0  0  0  0  0  0  0  0  0  0
    0.2033    3.2639    1.0508 H   0  0  0  0  0  0  0  0  0  0  0  0
    0.0004    1.3981   -0.0133 C   0  0  0  0  0  0  0  0  0  0  0  0
   -1.1916    0.6892    0.0109 C   0  0  0  0  0  0  0  0  0  0  0  0
   -2.0597    1.1779    0.0351 H   0  0  0  0  0  0  0  0  0  0  0  0
   -1.1924   -0.6968   -0.0000 C   0  0  0  0  0  0  0  0  0  0  0  0
   -2.0718   -1.1917    0.0009 H   0  0  0  0  0  0  0  0  0  0  0  0
    0.0018   -1.3870   -0.0104 C   0  0  0  0  0  0  0  0  0  0  0  0
   -0.0022   -2.3897   -0.0258 H   0  0  0  0  0  0  0  0  0  0  0  0
    1.1924   -0.6955   -0.0000 C   0  0  0  0  0  0  0  0  0  0  0  0
    2.0783   -1.1914   -0.0005 H   0  0  0  0  0  0  0  0  0  0  0  0
    1.1893    0.6920    0.0128 C   0  0  0  0  0  0  0  0  0  0  0  0
    2.0604    1.1863    0.0400 H   0  0  0  0  0  0  0  0  0  0  0  0
  1  5  1  0
  5  6  1  0
  5  7  2  0
  1  2  1  0
  1  3  1  0
  1  4  1  0
  8 12  1  0
 12 13  2  0
 13 15  1  0
 15 17  2  0
 17 19  1  0
 19 21  2  0
 21 12  1  0
  8  9  1  0
  8 10  1  0
  8 11  1  0
 13 14  1  0
 15 16  1  0
 17 18  1  0
 19 20  1  0
 21 22  1  0
M  CHG  1   6  -1
M  END
>  <PDB_ID>  (1253) 
pdb3daq

>  <RESIDUE_NAME>  (1253) 
GLU   PHE

>  <FRAG_NAME>  (1253) 
ACET   MBZ

>  <FRAG_ATOM_NUM>  (1253) 
fragi: 7  fragj: 15

>  <atom.prop.CHAIN_ID>  (1253) 
A A A A A A A Z Z Z Z Z Z Z Z Z Z Z Z Z Z Z

>  <atom.prop.IS_HEAVY_ATOM>  (1253) 
1 0 0 0 1 1 1 1 0 0 0 1 1 0 1 0 1 0 1 0 1 0

>  <DIFUSE_FUNC_ATOM>  (1253) 
atom 6   atom 7   

>  <FINAL_SINGLE_POINT_ENERGY>  (1253) 
0

>  <NONCOV_INTER_ENERGY_QM>  (1253) 
0

>  <FF_Energy>  (1253) 
3.09

>  <QM_Energy>  (1253) 
-2.07

>  <source>  (1253) 
ACET_MBZ_01

>  <Index>  (1253) 
9570

$$$$
ACET-pdb1zl9-A-ASP-159:MBZ-pdb1zl9-A-PHE-149
     RDKit          3D

 22 21  0  0  0  0  0  0  0  0999 V2000
    5.5172    2.9436   -0.2234 C   0  0  0  0  0  0  0  0  0  0  0  0
    5.7579    2.4732   -1.0743 H   0  0  0  0  0  0  0  0  0  0  0  0
    5.5357    2.2866    0.5315 H   0  0  0  0  0  0  0  0  0  0  0  0
    6.2572    3.7204   -0.0312 H   0  0  0  0  0  0  0  0  0  0  0  0
    4.1083    3.4703   -0.3570 C   0  0  0  0  0  0  0  0  0  0  0  0
    3.5956    4.2074    0.5522 O   0  0  0  0  0  1  0  0  0  0  0  0
    3.4289    3.0885   -1.3279 O   0  0  0  0  0  0  0  0  0  0  0  0
   -0.0133    2.9271   -0.0404 C   0  0  0  0  0  0  0  0  0  0  0  0
   -0.8729    3.2232   -0.4262 H   0  0  0  0  0  0  0  0  0  0  0  0
    0.7528    3.2320   -0.5830 H   0  0  0  0  0  0  0  0  0  0  0  0
    0.0791    3.3902    0.9420 H   0  0  0  0  0  0  0  0  0  0  0  0
   -0.0012    1.4301   -0.0035 C   0  0  0  0  0  0  0  0  0  0  0  0
   -1.2000    0.7111   -0.0084 C   0  0  0  0  0  0  0  0  0  0  0  0
   -2.0675    1.1966   -0.0190 H   0  0  0  0  0  0  0  0  0  0  0  0
   -1.1996   -0.6872   -0.0000 C   0  0  0  0  0  0  0  0  0  0  0  0
   -2.0842   -1.1800   -0.0129 H   0  0  0  0  0  0  0  0  0  0  0  0
    0.0011   -1.4190    0.0279 C   0  0  0  0  0  0  0  0  0  0  0  0
   -0.0349   -2.4121    0.0672 H   0  0  0  0  0  0  0  0  0  0  0  0
    1.1996   -0.7452    0.0000 C   0  0  0  0  0  0  0  0  0  0  0  0
    2.0838   -1.2124   -0.0085 H   0  0  0  0  0  0  0  0  0  0  0  0
    1.2001    0.7102   -0.0160 C   0  0  0  0  0  0  0  0  0  0  0  0
    2.0731    1.1748   -0.0366 H   0  0  0  0  0  0  0  0  0  0  0  0
  1  5  1  0
  5  6  1  0
  5  7  2  0
  1  2  1  0
  1  3  1  0
  1  4  1  0
  8 12  1  0
 12 13  2  0
 13 15  1  0
 15 17  2  0
 17 19  1  0
 19 21  2  0
 21 12  1  0
  8  9  1  0
  8 10  1  0
  8 11  1  0
 13 14  1  0
 15 16  1  0
 17 18  1  0
 19 20  1  0
 21 22  1  0
M  CHG  1   6  -1
M  END
>  <PDB_ID>  (1254) 
pdb1zl9

>  <RESIDUE_NAME>  (1254) 
ASP   PHE

>  <FRAG_NAME>  (1254) 
ACET   MBZ

>  <FRAG_ATOM_NUM>  (1254) 
fragi: 7  fragj: 15

>  <atom.prop.CHAIN_ID>  (1254) 
A A A A A A A Z Z Z Z Z Z Z Z Z Z Z Z Z Z Z

>  <atom.prop.IS_HEAVY_ATOM>  (1254) 
1 0 0 0 1 1 1 1 0 0 0 1 1 0 1 0 1 0 1 0 1 0

>  <DIFUSE_FUNC_ATOM>  (1254) 
atom 6   atom 7   

>  <FINAL_SINGLE_POINT_ENERGY>  (1254) 
0

>  <NONCOV_INTER_ENERGY_QM>  (1254) 
0

>  <FF_Energy>  (1254) 
-2.44

>  <QM_Energy>  (1254) 
-8.04

>  <source>  (1254) 
ACET_MBZ_01

>  <Index>  (1254) 
9582

$$$$
ACET-pdb3dcz-A-GLU-220:MBZ-pdb3dcz-A-PHE-128
     RDKit          3D

 22 21  0  0  0  0  0  0  0  0999 V2000
    5.3719    0.2476    1.6417 C   0  0  0  0  0  0  0  0  0  0  0  0
    4.4816    0.4097    2.0231 H   0  0  0  0  0  0  0  0  0  0  0  0
    6.0169    0.9473    1.8863 H   0  0  0  0  0  0  0  0  0  0  0  0
    5.7389   -0.7058    2.0217 H   0  0  0  0  0  0  0  0  0  0  0  0
    5.2372    0.2504    0.1413 C   0  0  0  0  0  0  0  0  0  0  0  0
    6.1688   -0.2240   -0.5198 O   0  0  0  0  0  1  0  0  0  0  0  0
    4.2273    0.7199   -0.3818 O   0  0  0  0  0  0  0  0  0  0  0  0
   -0.0358    2.8831   -0.0120 C   0  0  0  0  0  0  0  0  0  0  0  0
    0.7838    3.2078    0.4441 H   0  0  0  0  0  0  0  0  0  0  0  0
   -0.8493    3.1827    0.4711 H   0  0  0  0  0  0  0  0  0  0  0  0
   -0.0596    3.3379   -1.0023 H   0  0  0  0  0  0  0  0  0  0  0  0
   -0.0129    1.3837   -0.0064 C   0  0  0  0  0  0  0  0  0  0  0  0
   -1.1924    0.6843    0.0096 C   0  0  0  0  0  0  0  0  0  0  0  0
   -2.0644    1.1767    0.0267 H   0  0  0  0  0  0  0  0  0  0  0  0
   -1.1932   -0.6844   -0.0000 C   0  0  0  0  0  0  0  0  0  0  0  0
   -2.0668   -1.1895   -0.0089 H   0  0  0  0  0  0  0  0  0  0  0  0
    0.0062   -1.3671    0.0049 C   0  0  0  0  0  0  0  0  0  0  0  0
   -0.0016   -2.3750    0.0115 H   0  0  0  0  0  0  0  0  0  0  0  0
    1.1932   -0.6857    0.0000 C   0  0  0  0  0  0  0  0  0  0  0  0
    2.0770   -1.2010    0.0042 H   0  0  0  0  0  0  0  0  0  0  0  0
    1.1991    0.6691   -0.0080 C   0  0  0  0  0  0  0  0  0  0  0  0
    2.0555    1.1840   -0.0161 H   0  0  0  0  0  0  0  0  0  0  0  0
  1  5  1  0
  5  6  1  0
  5  7  2  0
  1  2  1  0
  1  3  1  0
  1  4  1  0
  8 12  1  0
 12 13  2  0
 13 15  1  0
 15 17  2  0
 17 19  1  0
 19 21  2  0
 21 12  1  0
  8  9  1  0
  8 10  1  0
  8 11  1  0
 13 14  1  0
 15 16  1  0
 17 18  1  0
 19 20  1  0
 21 22  1  0
M  CHG  1   6  -1
M  END
>  <PDB_ID>  (1255) 
pdb3dcz

>  <RESIDUE_NAME>  (1255) 
GLU   PHE

>  <FRAG_NAME>  (1255) 
ACET   MBZ

>  <FRAG_ATOM_NUM>  (1255) 
fragi: 7  fragj: 15

>  <atom.prop.CHAIN_ID>  (1255) 
A A A A A A A Z Z Z Z Z Z Z Z Z Z Z Z Z Z Z

>  <atom.prop.IS_HEAVY_ATOM>  (1255) 
1 0 0 0 1 1 1 1 0 0 0 1 1 0 1 0 1 0 1 0 1 0

>  <DIFUSE_FUNC_ATOM>  (1255) 
atom 6   atom 7   

>  <FINAL_SINGLE_POINT_ENERGY>  (1255) 
0

>  <NONCOV_INTER_ENERGY_QM>  (1255) 
0

>  <FF_Energy>  (1255) 
-1.15

>  <QM_Energy>  (1255) 
-6.38

>  <source>  (1255) 
ACET_MBZ_01

>  <Index>  (1255) 
9651

$$$$
ACET-pdb1znn-E-ASP-111:MBZ-pdb1znn-E-PHE-114
     RDKit          3D

 22 21  0  0  0  0  0  0  0  0999 V2000
    4.2202    4.8730   -1.9790 C   0  0  0  0  0  0  0  0  0  0  0  0
    4.8916    5.1988   -1.3253 H   0  0  0  0  0  0  0  0  0  0  0  0
    3.4633    5.5094   -2.0524 H   0  0  0  0  0  0  0  0  0  0  0  0
    4.7004    4.7966   -2.9546 H   0  0  0  0  0  0  0  0  0  0  0  0
    3.6683    3.5266   -1.4699 C   0  0  0  0  0  0  0  0  0  0  0  0
    3.2725    2.6430   -2.2822 O   0  0  0  0  0  1  0  0  0  0  0  0
    3.6148    3.3576   -0.2370 O   0  0  0  0  0  0  0  0  0  0  0  0
   -0.0009    2.9133    0.0024 C   0  0  0  0  0  0  0  0  0  0  0  0
    0.9213    3.2146    0.1954 H   0  0  0  0  0  0  0  0  0  0  0  0
   -0.6317    3.2129    0.7035 H   0  0  0  0  0  0  0  0  0  0  0  0
   -0.3113    3.3550   -0.9446 H   0  0  0  0  0  0  0  0  0  0  0  0
   -0.0003    1.4058   -0.0015 C   0  0  0  0  0  0  0  0  0  0  0  0
   -1.1953    0.6950    0.0079 C   0  0  0  0  0  0  0  0  0  0  0  0
   -2.0633    1.1831    0.0192 H   0  0  0  0  0  0  0  0  0  0  0  0
   -1.2023   -0.7004   -0.0000 C   0  0  0  0  0  0  0  0  0  0  0  0
   -2.0791   -1.1911   -0.0070 H   0  0  0  0  0  0  0  0  0  0  0  0
   -0.0005   -1.3970    0.0034 C   0  0  0  0  0  0  0  0  0  0  0  0
   -0.0040   -2.3958    0.0077 H   0  0  0  0  0  0  0  0  0  0  0  0
    1.2023   -0.7004   -0.0000 C   0  0  0  0  0  0  0  0  0  0  0  0
    2.0832   -1.1943    0.0061 H   0  0  0  0  0  0  0  0  0  0  0  0
    1.1961    0.6971   -0.0098 C   0  0  0  0  0  0  0  0  0  0  0  0
    2.0647    1.1907   -0.0241 H   0  0  0  0  0  0  0  0  0  0  0  0
  1  5  1  0
  5  6  1  0
  5  7  2  0
  1  2  1  0
  1  3  1  0
  1  4  1  0
  8 12  1  0
 12 13  2  0
 13 15  1  0
 15 17  2  0
 17 19  1  0
 19 21  2  0
 21 12  1  0
  8  9  1  0
  8 10  1  0
  8 11  1  0
 13 14  1  0
 15 16  1  0
 17 18  1  0
 19 20  1  0
 21 22  1  0
M  CHG  1   6  -1
M  END
>  <PDB_ID>  (1256) 
pdb1znn

>  <RESIDUE_NAME>  (1256) 
ASP   PHE

>  <FRAG_NAME>  (1256) 
ACET   MBZ

>  <FRAG_ATOM_NUM>  (1256) 
fragi: 7  fragj: 15

>  <atom.prop.CHAIN_ID>  (1256) 
A A A A A A A Z Z Z Z Z Z Z Z Z Z Z Z Z Z Z

>  <atom.prop.IS_HEAVY_ATOM>  (1256) 
1 0 0 0 1 1 1 1 0 0 0 1 1 0 1 0 1 0 1 0 1 0

>  <DIFUSE_FUNC_ATOM>  (1256) 
atom 6   atom 7   

>  <FINAL_SINGLE_POINT_ENERGY>  (1256) 
0

>  <NONCOV_INTER_ENERGY_QM>  (1256) 
0

>  <FF_Energy>  (1256) 
-2.37

>  <QM_Energy>  (1256) 
-8.23

>  <source>  (1256) 
ACET_MBZ_01

>  <Index>  (1256) 
9711

$$$$
ACET-pdb1zoy-A-ASP-417:MBZ-pdb1zoy-A-PHE-421
     RDKit          3D

 22 21  0  0  0  0  0  0  0  0999 V2000
   -5.4347    0.7899   -1.4364 C   0  0  0  0  0  0  0  0  0  0  0  0
   -5.4388   -0.1936   -1.5831 H   0  0  0  0  0  0  0  0  0  0  0  0
   -6.3207    1.1788   -1.6619 H   0  0  0  0  0  0  0  0  0  0  0  0
   -5.2500    0.9692   -0.3772 H   0  0  0  0  0  0  0  0  0  0  0  0
   -4.3797    1.4148   -2.3537 C   0  0  0  0  0  0  0  0  0  0  0  0
   -3.2237    1.6249   -1.9117 O   0  0  0  0  0  1  0  0  0  0  0  0
   -4.7148    1.6822   -3.5362 O   0  0  0  0  0  0  0  0  0  0  0  0
    0.0015    2.8935    0.1645 C   0  0  0  0  0  0  0  0  0  0  0  0
   -0.8356    3.2426   -0.2138 H   0  0  0  0  0  0  0  0  0  0  0  0
    0.7955    3.2517   -0.2906 H   0  0  0  0  0  0  0  0  0  0  0  0
    0.0496    3.1971    1.2103 H   0  0  0  0  0  0  0  0  0  0  0  0
    0.0016    1.4001    0.0018 C   0  0  0  0  0  0  0  0  0  0  0  0
   -1.1930    0.6902   -0.0036 C   0  0  0  0  0  0  0  0  0  0  0  0
   -2.0610    1.1839   -0.0114 H   0  0  0  0  0  0  0  0  0  0  0  0
   -1.2046   -0.6990   -0.0000 C   0  0  0  0  0  0  0  0  0  0  0  0
   -2.0798   -1.1912    0.0018 H   0  0  0  0  0  0  0  0  0  0  0  0
   -0.0015   -1.3975    0.0028 C   0  0  0  0  0  0  0  0  0  0  0  0
   -0.0009   -2.3922    0.0061 H   0  0  0  0  0  0  0  0  0  0  0  0
    1.2046   -0.6927   -0.0000 C   0  0  0  0  0  0  0  0  0  0  0  0
    2.0841   -1.1888    0.0005 H   0  0  0  0  0  0  0  0  0  0  0  0
    1.1929    0.6989   -0.0011 C   0  0  0  0  0  0  0  0  0  0  0  0
    2.0631    1.1961   -0.0048 H   0  0  0  0  0  0  0  0  0  0  0  0
  1  5  1  0
  5  6  1  0
  5  7  2  0
  1  2  1  0
  1  3  1  0
  1  4  1  0
  8 12  1  0
 12 13  2  0
 13 15  1  0
 15 17  2  0
 17 19  1  0
 19 21  2  0
 21 12  1  0
  8  9  1  0
  8 10  1  0
  8 11  1  0
 13 14  1  0
 15 16  1  0
 17 18  1  0
 19 20  1  0
 21 22  1  0
M  CHG  1   6  -1
M  END
>  <PDB_ID>  (1257) 
pdb1zoy

>  <RESIDUE_NAME>  (1257) 
ASP   PHE

>  <FRAG_NAME>  (1257) 
ACET   MBZ

>  <FRAG_ATOM_NUM>  (1257) 
fragi: 7  fragj: 15

>  <atom.prop.CHAIN_ID>  (1257) 
A A A A A A A Z Z Z Z Z Z Z Z Z Z Z Z Z Z Z

>  <atom.prop.IS_HEAVY_ATOM>  (1257) 
1 0 0 0 1 1 1 1 0 0 0 1 1 0 1 0 1 0 1 0 1 0

>  <DIFUSE_FUNC_ATOM>  (1257) 
atom 6   atom 7   

>  <FINAL_SINGLE_POINT_ENERGY>  (1257) 
0

>  <NONCOV_INTER_ENERGY_QM>  (1257) 
0

>  <FF_Energy>  (1257) 
0.96

>  <QM_Energy>  (1257) 
-4.49

>  <source>  (1257) 
ACET_MBZ_01

>  <Index>  (1257) 
9787

$$$$
ACET-pdb3dem-A-GLU-64:MBZ-pdb3dem-A-PHE-94
     RDKit          3D

 22 21  0  0  0  0  0  0  0  0999 V2000
    4.2088    1.2698   -3.5349 C   0  0  0  0  0  0  0  0  0  0  0  0
    5.1635    1.4653   -3.4203 H   0  0  0  0  0  0  0  0  0  0  0  0
    3.8801    1.5097   -4.4280 H   0  0  0  0  0  0  0  0  0  0  0  0
    4.0631    0.1988   -3.3938 H   0  0  0  0  0  0  0  0  0  0  0  0
    3.4412    2.1112   -2.5209 C   0  0  0  0  0  0  0  0  0  0  0  0
    2.2244    2.3267   -2.7134 O   0  0  0  0  0  1  0  0  0  0  0  0
    4.0562    2.5695   -1.5347 O   0  0  0  0  0  0  0  0  0  0  0  0
   -0.0020    2.9003   -0.0016 C   0  0  0  0  0  0  0  0  0  0  0  0
   -0.7131    3.2062   -0.6151 H   0  0  0  0  0  0  0  0  0  0  0  0
    0.8883    3.2081   -0.2978 H   0  0  0  0  0  0  0  0  0  0  0  0
   -0.1962    3.3399    0.9768 H   0  0  0  0  0  0  0  0  0  0  0  0
   -0.0004    1.3956   -0.0008 C   0  0  0  0  0  0  0  0  0  0  0  0
   -1.1916    0.6907    0.0017 C   0  0  0  0  0  0  0  0  0  0  0  0
   -2.0601    1.1811    0.0037 H   0  0  0  0  0  0  0  0  0  0  0  0
   -1.1959   -0.6946    0.0000 C   0  0  0  0  0  0  0  0  0  0  0  0
   -2.0739   -1.1889   -0.0007 H   0  0  0  0  0  0  0  0  0  0  0  0
    0.0008   -1.3871    0.0015 C   0  0  0  0  0  0  0  0  0  0  0  0
   -0.0020   -2.3878    0.0028 H   0  0  0  0  0  0  0  0  0  0  0  0
    1.1959   -0.6923   -0.0000 C   0  0  0  0  0  0  0  0  0  0  0  0
    2.0789   -1.1934    0.0021 H   0  0  0  0  0  0  0  0  0  0  0  0
    1.1912    0.6878   -0.0024 C   0  0  0  0  0  0  0  0  0  0  0  0
    2.0614    1.1872   -0.0064 H   0  0  0  0  0  0  0  0  0  0  0  0
  1  5  1  0
  5  6  1  0
  5  7  2  0
  1  2  1  0
  1  3  1  0
  1  4  1  0
  8 12  1  0
 12 13  2  0
 13 15  1  0
 15 17  2  0
 17 19  1  0
 19 21  2  0
 21 12  1  0
  8  9  1  0
  8 10  1  0
  8 11  1  0
 13 14  1  0
 15 16  1  0
 17 18  1  0
 19 20  1  0
 21 22  1  0
M  CHG  1   6  -1
M  END
>  <PDB_ID>  (1258) 
pdb3dem

>  <RESIDUE_NAME>  (1258) 
GLU   PHE

>  <FRAG_NAME>  (1258) 
ACET   MBZ

>  <FRAG_ATOM_NUM>  (1258) 
fragi: 7  fragj: 15

>  <atom.prop.CHAIN_ID>  (1258) 
A A A A A A A Z Z Z Z Z Z Z Z Z Z Z Z Z Z Z

>  <atom.prop.IS_HEAVY_ATOM>  (1258) 
1 0 0 0 1 1 1 1 0 0 0 1 1 0 1 0 1 0 1 0 1 0

>  <DIFUSE_FUNC_ATOM>  (1258) 
atom 6   atom 7   

>  <FINAL_SINGLE_POINT_ENERGY>  (1258) 
0

>  <NONCOV_INTER_ENERGY_QM>  (1258) 
0

>  <FF_Energy>  (1258) 
-0.94

>  <QM_Energy>  (1258) 
-6.83

>  <source>  (1258) 
ACET_MBZ_01

>  <Index>  (1258) 
9810

$$$$
ACET-pdb1zoy-B-GLU-201:MBZ-pdb1zoy-B-PHE-198
     RDKit          3D

 22 21  0  0  0  0  0  0  0  0999 V2000
    2.9407    2.7116    1.8394 C   0  0  0  0  0  0  0  0  0  0  0  0
    2.2733    3.3825    1.5666 H   0  0  0  0  0  0  0  0  0  0  0  0
    2.9468    1.9316    1.2385 H   0  0  0  0  0  0  0  0  0  0  0  0
    3.9255    3.1777    1.8070 H   0  0  0  0  0  0  0  0  0  0  0  0
    2.5445    2.2124    3.2282 C   0  0  0  0  0  0  0  0  0  0  0  0
    1.8539    2.9598    3.9540 O   0  0  0  0  0  1  0  0  0  0  0  0
    2.9260    1.0683    3.5890 O   0  0  0  0  0  0  0  0  0  0  0  0
    0.0065    2.8910   -0.0074 C   0  0  0  0  0  0  0  0  0  0  0  0
   -0.4642    3.1975   -0.8216 H   0  0  0  0  0  0  0  0  0  0  0  0
    0.9477    3.1958   -0.0006 H   0  0  0  0  0  0  0  0  0  0  0  0
   -0.4941    3.3309    0.8551 H   0  0  0  0  0  0  0  0  0  0  0  0
    0.0003    1.3994   -0.0004 C   0  0  0  0  0  0  0  0  0  0  0  0
   -1.2007    0.6972    0.0003 C   0  0  0  0  0  0  0  0  0  0  0  0
   -2.0630    1.1926   -0.0004 H   0  0  0  0  0  0  0  0  0  0  0  0
   -1.2069   -0.6868    0.0000 C   0  0  0  0  0  0  0  0  0  0  0  0
   -2.0818   -1.1854    0.0011 H   0  0  0  0  0  0  0  0  0  0  0  0
   -0.0000   -1.3960   -0.0003 C   0  0  0  0  0  0  0  0  0  0  0  0
   -0.0136   -2.3923   -0.0010 H   0  0  0  0  0  0  0  0  0  0  0  0
    1.2069   -0.7057   -0.0000 C   0  0  0  0  0  0  0  0  0  0  0  0
    2.0841   -1.2017    0.0015 H   0  0  0  0  0  0  0  0  0  0  0  0
    1.2004    0.6920    0.0004 C   0  0  0  0  0  0  0  0  0  0  0  0
    2.0671    1.1871    0.0005 H   0  0  0  0  0  0  0  0  0  0  0  0
  1  5  1  0
  5  6  1  0
  5  7  2  0
  1  2  1  0
  1  3  1  0
  1  4  1  0
  8 12  1  0
 12 13  2  0
 13 15  1  0
 15 17  2  0
 17 19  1  0
 19 21  2  0
 21 12  1  0
  8  9  1  0
  8 10  1  0
  8 11  1  0
 13 14  1  0
 15 16  1  0
 17 18  1  0
 19 20  1  0
 21 22  1  0
M  CHG  1   6  -1
M  END
>  <PDB_ID>  (1259) 
pdb1zoy

>  <RESIDUE_NAME>  (1259) 
GLU   PHE

>  <FRAG_NAME>  (1259) 
ACET   MBZ

>  <FRAG_ATOM_NUM>  (1259) 
fragi: 7  fragj: 15

>  <atom.prop.CHAIN_ID>  (1259) 
A A A A A A A Z Z Z Z Z Z Z Z Z Z Z Z Z Z Z

>  <atom.prop.IS_HEAVY_ATOM>  (1259) 
1 0 0 0 1 1 1 1 0 0 0 1 1 0 1 0 1 0 1 0 1 0

>  <DIFUSE_FUNC_ATOM>  (1259) 
atom 6   atom 7   

>  <FINAL_SINGLE_POINT_ENERGY>  (1259) 
0

>  <NONCOV_INTER_ENERGY_QM>  (1259) 
0

>  <FF_Energy>  (1259) 
9.65

>  <QM_Energy>  (1259) 
1.38

>  <source>  (1259) 
ACET_MBZ_01

>  <Index>  (1259) 
9813

$$$$
ACET-pdb1zp9-A-GLU-199:MBZ-pdb1zp9-A-PHE-238
     RDKit          3D

 22 21  0  0  0  0  0  0  0  0999 V2000
   -2.4574    0.3524   -3.2179 C   0  0  0  0  0  0  0  0  0  0  0  0
   -2.8775    0.2913   -4.1196 H   0  0  0  0  0  0  0  0  0  0  0  0
   -2.9101   -0.2759   -2.5897 H   0  0  0  0  0  0  0  0  0  0  0  0
   -1.4106    0.0613   -3.3049 H   0  0  0  0  0  0  0  0  0  0  0  0
   -2.7413    1.7771   -2.6957 C   0  0  0  0  0  0  0  0  0  0  0  0
   -2.0299    2.7592   -3.0435 O   0  0  0  0  0  1  0  0  0  0  0  0
   -3.7228    1.9023   -1.9202 O   0  0  0  0  0  0  0  0  0  0  0  0
    0.0026    2.8826    0.0797 C   0  0  0  0  0  0  0  0  0  0  0  0
   -0.6410    3.2178   -0.5868 H   0  0  0  0  0  0  0  0  0  0  0  0
    0.9163    3.2058   -0.0951 H   0  0  0  0  0  0  0  0  0  0  0  0
   -0.3029    3.2545    1.0576 H   0  0  0  0  0  0  0  0  0  0  0  0
    0.0124    1.3894    0.0106 C   0  0  0  0  0  0  0  0  0  0  0  0
   -1.1964    0.6736    0.0104 C   0  0  0  0  0  0  0  0  0  0  0  0
   -2.0561    1.1774    0.0168 H   0  0  0  0  0  0  0  0  0  0  0  0
   -1.1999   -0.6975   -0.0000 C   0  0  0  0  0  0  0  0  0  0  0  0
   -2.0804   -1.1941    0.0241 H   0  0  0  0  0  0  0  0  0  0  0  0
   -0.0181   -1.3725   -0.0407 C   0  0  0  0  0  0  0  0  0  0  0  0
   -0.0075   -2.3788   -0.1010 H   0  0  0  0  0  0  0  0  0  0  0  0
    1.1999   -0.6860    0.0000 C   0  0  0  0  0  0  0  0  0  0  0  0
    2.0688   -1.1990    0.0165 H   0  0  0  0  0  0  0  0  0  0  0  0
    1.2021    0.6930    0.0197 C   0  0  0  0  0  0  0  0  0  0  0  0
    2.0700    1.1888    0.0393 H   0  0  0  0  0  0  0  0  0  0  0  0
  1  5  1  0
  5  6  1  0
  5  7  2  0
  1  2  1  0
  1  3  1  0
  1  4  1  0
  8 12  1  0
 12 13  2  0
 13 15  1  0
 15 17  2  0
 17 19  1  0
 19 21  2  0
 21 12  1  0
  8  9  1  0
  8 10  1  0
  8 11  1  0
 13 14  1  0
 15 16  1  0
 17 18  1  0
 19 20  1  0
 21 22  1  0
M  CHG  1   6  -1
M  END
>  <PDB_ID>  (1260) 
pdb1zp9

>  <RESIDUE_NAME>  (1260) 
GLU   PHE

>  <FRAG_NAME>  (1260) 
ACET   MBZ

>  <FRAG_ATOM_NUM>  (1260) 
fragi: 7  fragj: 15

>  <atom.prop.CHAIN_ID>  (1260) 
A A A A A A A Z Z Z Z Z Z Z Z Z Z Z Z Z Z Z

>  <atom.prop.IS_HEAVY_ATOM>  (1260) 
1 0 0 0 1 1 1 1 0 0 0 1 1 0 1 0 1 0 1 0 1 0

>  <DIFUSE_FUNC_ATOM>  (1260) 
atom 6   atom 7   

>  <FINAL_SINGLE_POINT_ENERGY>  (1260) 
0

>  <NONCOV_INTER_ENERGY_QM>  (1260) 
0

>  <FF_Energy>  (1260) 
-1.57

>  <QM_Energy>  (1260) 
-7.12

>  <source>  (1260) 
ACET_MBZ_01

>  <Index>  (1260) 
9818

$$$$
ACET-pdb1zp9-B-GLU-199:MBZ-pdb1zp9-B-PHE-238
     RDKit          3D

 22 21  0  0  0  0  0  0  0  0999 V2000
   -2.1867    0.3102   -3.3181 C   0  0  0  0  0  0  0  0  0  0  0  0
   -2.5654    0.1800   -4.2232 H   0  0  0  0  0  0  0  0  0  0  0  0
   -2.5894   -0.3191   -2.6696 H   0  0  0  0  0  0  0  0  0  0  0  0
   -1.1144    0.1198   -3.3636 H   0  0  0  0  0  0  0  0  0  0  0  0
   -2.5654    1.7210   -2.8701 C   0  0  0  0  0  0  0  0  0  0  0  0
   -3.5824    1.8243   -2.1954 O   0  0  0  0  0  1  0  0  0  0  0  0
   -1.8678    2.7320   -3.1551 O   0  0  0  0  0  0  0  0  0  0  0  0
   -0.0143    2.8991    0.0357 C   0  0  0  0  0  0  0  0  0  0  0  0
   -0.6579    3.2161   -0.6341 H   0  0  0  0  0  0  0  0  0  0  0  0
    0.8969    3.2213   -0.1356 H   0  0  0  0  0  0  0  0  0  0  0  0
   -0.3265    3.2878    1.0049 H   0  0  0  0  0  0  0  0  0  0  0  0
    0.0033    1.3936   -0.0028 C   0  0  0  0  0  0  0  0  0  0  0  0
   -1.1917    0.6870   -0.0157 C   0  0  0  0  0  0  0  0  0  0  0  0
   -2.0594    1.1820   -0.0377 H   0  0  0  0  0  0  0  0  0  0  0  0
   -1.2108   -0.7060    0.0000 C   0  0  0  0  0  0  0  0  0  0  0  0
   -2.0912   -1.1859    0.0100 H   0  0  0  0  0  0  0  0  0  0  0  0
   -0.0254   -1.3826    0.0029 C   0  0  0  0  0  0  0  0  0  0  0  0
   -0.0038   -2.3856    0.0072 H   0  0  0  0  0  0  0  0  0  0  0  0
    1.2108   -0.6808    0.0000 C   0  0  0  0  0  0  0  0  0  0  0  0
    2.0727   -1.2049   -0.0120 H   0  0  0  0  0  0  0  0  0  0  0  0
    1.2138    0.6888    0.0155 C   0  0  0  0  0  0  0  0  0  0  0  0
    2.0706    1.1971    0.0392 H   0  0  0  0  0  0  0  0  0  0  0  0
  1  5  1  0
  5  6  1  0
  5  7  2  0
  1  2  1  0
  1  3  1  0
  1  4  1  0
  8 12  1  0
 12 13  2  0
 13 15  1  0
 15 17  2  0
 17 19  1  0
 19 21  2  0
 21 12  1  0
  8  9  1  0
  8 10  1  0
  8 11  1  0
 13 14  1  0
 15 16  1  0
 17 18  1  0
 19 20  1  0
 21 22  1  0
M  CHG  1   6  -1
M  END
>  <PDB_ID>  (1261) 
pdb1zp9

>  <RESIDUE_NAME>  (1261) 
GLU   PHE

>  <FRAG_NAME>  (1261) 
ACET   MBZ

>  <FRAG_ATOM_NUM>  (1261) 
fragi: 7  fragj: 15

>  <atom.prop.CHAIN_ID>  (1261) 
A A A A A A A Z Z Z Z Z Z Z Z Z Z Z Z Z Z Z

>  <atom.prop.IS_HEAVY_ATOM>  (1261) 
1 0 0 0 1 1 1 1 0 0 0 1 1 0 1 0 1 0 1 0 1 0

>  <DIFUSE_FUNC_ATOM>  (1261) 
atom 6   atom 7   

>  <FINAL_SINGLE_POINT_ENERGY>  (1261) 
0

>  <NONCOV_INTER_ENERGY_QM>  (1261) 
0

>  <FF_Energy>  (1261) 
-1.56

>  <QM_Energy>  (1261) 
-6.99

>  <source>  (1261) 
ACET_MBZ_01

>  <Index>  (1261) 
9820

$$$$
ACET-pdb1zp9-C-GLU-199:MBZ-pdb1zp9-C-PHE-238
     RDKit          3D

 22 21  0  0  0  0  0  0  0  0999 V2000
   -2.4940    0.6796   -3.4358 C   0  0  0  0  0  0  0  0  0  0  0  0
   -2.8078    0.6968   -4.3718 H   0  0  0  0  0  0  0  0  0  0  0  0
   -3.0180    0.0459   -2.8892 H   0  0  0  0  0  0  0  0  0  0  0  0
   -1.4525    0.3581   -3.4304 H   0  0  0  0  0  0  0  0  0  0  0  0
   -2.6893    2.0508   -2.8606 C   0  0  0  0  0  0  0  0  0  0  0  0
   -1.9013    2.9882   -3.1600 O   0  0  0  0  0  1  0  0  0  0  0  0
   -3.6277    2.1803   -2.0651 O   0  0  0  0  0  0  0  0  0  0  0  0
    0.0033    2.9285    0.0063 C   0  0  0  0  0  0  0  0  0  0  0  0
   -0.6451    3.2334   -0.6685 H   0  0  0  0  0  0  0  0  0  0  0  0
    0.9171    3.2345   -0.1950 H   0  0  0  0  0  0  0  0  0  0  0  0
   -0.2860    3.3670    0.9613 H   0  0  0  0  0  0  0  0  0  0  0  0
    0.0039    1.4116    0.0066 C   0  0  0  0  0  0  0  0  0  0  0  0
   -1.2182    0.6988    0.0120 C   0  0  0  0  0  0  0  0  0  0  0  0
   -2.0735    1.1957    0.0230 H   0  0  0  0  0  0  0  0  0  0  0  0
   -1.2274   -0.7008    0.0000 C   0  0  0  0  0  0  0  0  0  0  0  0
   -2.0929   -1.1966   -0.0035 H   0  0  0  0  0  0  0  0  0  0  0  0
   -0.0029   -1.4057   -0.0053 C   0  0  0  0  0  0  0  0  0  0  0  0
   -0.0029   -2.3971   -0.0136 H   0  0  0  0  0  0  0  0  0  0  0  0
    1.2274   -0.6963   -0.0000 C   0  0  0  0  0  0  0  0  0  0  0  0
    2.0942   -1.2033    0.0146 H   0  0  0  0  0  0  0  0  0  0  0  0
    1.2173    0.6924   -0.0133 C   0  0  0  0  0  0  0  0  0  0  0  0
    2.0783    1.1982   -0.0377 H   0  0  0  0  0  0  0  0  0  0  0  0
  1  5  1  0
  5  6  1  0
  5  7  2  0
  1  2  1  0
  1  3  1  0
  1  4  1  0
  8 12  1  0
 12 13  2  0
 13 15  1  0
 15 17  2  0
 17 19  1  0
 19 21  2  0
 21 12  1  0
  8  9  1  0
  8 10  1  0
  8 11  1  0
 13 14  1  0
 15 16  1  0
 17 18  1  0
 19 20  1  0
 21 22  1  0
M  CHG  1   6  -1
M  END
>  <PDB_ID>  (1262) 
pdb1zp9

>  <RESIDUE_NAME>  (1262) 
GLU   PHE

>  <FRAG_NAME>  (1262) 
ACET   MBZ

>  <FRAG_ATOM_NUM>  (1262) 
fragi: 7  fragj: 15

>  <atom.prop.CHAIN_ID>  (1262) 
A A A A A A A Z Z Z Z Z Z Z Z Z Z Z Z Z Z Z

>  <atom.prop.IS_HEAVY_ATOM>  (1262) 
1 0 0 0 1 1 1 1 0 0 0 1 1 0 1 0 1 0 1 0 1 0

>  <DIFUSE_FUNC_ATOM>  (1262) 
atom 6   atom 7   

>  <FINAL_SINGLE_POINT_ENERGY>  (1262) 
0

>  <NONCOV_INTER_ENERGY_QM>  (1262) 
0

>  <FF_Energy>  (1262) 
-1.97

>  <QM_Energy>  (1262) 
-7.24

>  <source>  (1262) 
ACET_MBZ_01

>  <Index>  (1262) 
9822

$$$$
ACET-pdb1zoy-A-GLU-308:MBZ-pdb1zoy-A-PHE-284
     RDKit          3D

 22 21  0  0  0  0  0  0  0  0999 V2000
   -3.7313    1.7664   -1.9962 C   0  0  0  0  0  0  0  0  0  0  0  0
   -4.4860    2.2047   -1.5433 H   0  0  0  0  0  0  0  0  0  0  0  0
   -3.2125    1.1957   -1.3858 H   0  0  0  0  0  0  0  0  0  0  0  0
   -4.1281    1.1422   -2.7967 H   0  0  0  0  0  0  0  0  0  0  0  0
   -2.8098    2.8487   -2.5061 C   0  0  0  0  0  0  0  0  0  0  0  0
   -1.8743    2.5142   -3.2607 O   0  0  0  0  0  1  0  0  0  0  0  0
   -3.0132    4.0286   -2.1505 O   0  0  0  0  0  0  0  0  0  0  0  0
   -0.0051    2.8961   -0.0402 C   0  0  0  0  0  0  0  0  0  0  0  0
   -0.8489    3.2119    0.3685 H   0  0  0  0  0  0  0  0  0  0  0  0
    0.0615    3.1796   -0.9865 H   0  0  0  0  0  0  0  0  0  0  0  0
    0.8201    3.3566    0.5029 H   0  0  0  0  0  0  0  0  0  0  0  0
   -0.0000    1.3987   -0.0000 C   0  0  0  0  0  0  0  0  0  0  0  0
   -1.1988    0.6946    0.0007 C   0  0  0  0  0  0  0  0  0  0  0  0
   -2.0634    1.1878    0.0006 H   0  0  0  0  0  0  0  0  0  0  0  0
   -1.2073   -0.6955   -0.0000 C   0  0  0  0  0  0  0  0  0  0  0  0
   -2.0797   -1.1901    0.0016 H   0  0  0  0  0  0  0  0  0  0  0  0
    0.0011   -1.3929   -0.0013 C   0  0  0  0  0  0  0  0  0  0  0  0
   -0.0020   -2.3903   -0.0040 H   0  0  0  0  0  0  0  0  0  0  0  0
    1.2073   -0.6936   -0.0000 C   0  0  0  0  0  0  0  0  0  0  0  0
    2.0856   -1.1952    0.0019 H   0  0  0  0  0  0  0  0  0  0  0  0
    1.1977    0.6887    0.0007 C   0  0  0  0  0  0  0  0  0  0  0  0
    2.0647    1.1921    0.0007 H   0  0  0  0  0  0  0  0  0  0  0  0
  1  5  1  0
  5  6  1  0
  5  7  2  0
  1  2  1  0
  1  3  1  0
  1  4  1  0
  8 12  1  0
 12 13  2  0
 13 15  1  0
 15 17  2  0
 17 19  1  0
 19 21  2  0
 21 12  1  0
  8  9  1  0
  8 10  1  0
  8 11  1  0
 13 14  1  0
 15 16  1  0
 17 18  1  0
 19 20  1  0
 21 22  1  0
M  CHG  1   6  -1
M  END
>  <PDB_ID>  (1263) 
pdb1zoy

>  <RESIDUE_NAME>  (1263) 
GLU   PHE

>  <FRAG_NAME>  (1263) 
ACET   MBZ

>  <FRAG_ATOM_NUM>  (1263) 
fragi: 7  fragj: 15

>  <atom.prop.CHAIN_ID>  (1263) 
A A A A A A A Z Z Z Z Z Z Z Z Z Z Z Z Z Z Z

>  <atom.prop.IS_HEAVY_ATOM>  (1263) 
1 0 0 0 1 1 1 1 0 0 0 1 1 0 1 0 1 0 1 0 1 0

>  <DIFUSE_FUNC_ATOM>  (1263) 
atom 6   atom 7   

>  <FINAL_SINGLE_POINT_ENERGY>  (1263) 
0

>  <NONCOV_INTER_ENERGY_QM>  (1263) 
0

>  <FF_Energy>  (1263) 
3.57

>  <QM_Energy>  (1263) 
-3.19

>  <source>  (1263) 
ACET_MBZ_01

>  <Index>  (1263) 
9878

$$$$
ACET-pdb1zr3-A-ASP-367:MBZ-pdb1zr3-A-PHE-192
     RDKit          3D

 22 21  0  0  0  0  0  0  0  0999 V2000
    1.0330   -2.0497   -2.7461 C   0  0  0  0  0  0  0  0  0  0  0  0
    1.8464   -2.5445   -2.4493 H   0  0  0  0  0  0  0  0  0  0  0  0
    0.6561   -1.5300   -1.9829 H   0  0  0  0  0  0  0  0  0  0  0  0
    1.2991   -1.3671   -3.5531 H   0  0  0  0  0  0  0  0  0  0  0  0
   -0.0082   -3.0772   -3.1681 C   0  0  0  0  0  0  0  0  0  0  0  0
    0.3174   -4.2800   -3.2248 O   0  0  0  0  0  1  0  0  0  0  0  0
   -1.1479   -2.6589   -3.4450 O   0  0  0  0  0  0  0  0  0  0  0  0
    0.0275    2.8831    0.0198 C   0  0  0  0  0  0  0  0  0  0  0  0
    0.9148    3.1787   -0.3099 H   0  0  0  0  0  0  0  0  0  0  0  0
   -0.1247    3.1891    0.9502 H   0  0  0  0  0  0  0  0  0  0  0  0
   -0.7330    3.3428   -0.6114 H   0  0  0  0  0  0  0  0  0  0  0  0
    0.0075    1.3833    0.0163 C   0  0  0  0  0  0  0  0  0  0  0  0
   -1.1755    0.6925   -0.0029 C   0  0  0  0  0  0  0  0  0  0  0  0
   -2.0449    1.1864   -0.0200 H   0  0  0  0  0  0  0  0  0  0  0  0
   -1.1815   -0.6818   -0.0000 C   0  0  0  0  0  0  0  0  0  0  0  0
   -2.0777   -1.1676    0.0055 H   0  0  0  0  0  0  0  0  0  0  0  0
   -0.0212   -1.3721   -0.0022 C   0  0  0  0  0  0  0  0  0  0  0  0
   -0.0240   -2.3801   -0.0056 H   0  0  0  0  0  0  0  0  0  0  0  0
    1.1815   -0.6969   -0.0000 C   0  0  0  0  0  0  0  0  0  0  0  0
    2.0567   -1.2097    0.0110 H   0  0  0  0  0  0  0  0  0  0  0  0
    1.1891    0.6750   -0.0112 C   0  0  0  0  0  0  0  0  0  0  0  0
    2.0619    1.1695   -0.0402 H   0  0  0  0  0  0  0  0  0  0  0  0
  1  5  1  0
  5  6  1  0
  5  7  2  0
  1  2  1  0
  1  3  1  0
  1  4  1  0
  8 12  1  0
 12 13  2  0
 13 15  1  0
 15 17  2  0
 17 19  1  0
 19 21  2  0
 21 12  1  0
  8  9  1  0
  8 10  1  0
  8 11  1  0
 13 14  1  0
 15 16  1  0
 17 18  1  0
 19 20  1  0
 21 22  1  0
M  CHG  1   6  -1
M  END
>  <PDB_ID>  (1264) 
pdb1zr3

>  <RESIDUE_NAME>  (1264) 
ASP   PHE

>  <FRAG_NAME>  (1264) 
ACET   MBZ

>  <FRAG_ATOM_NUM>  (1264) 
fragi: 7  fragj: 15

>  <atom.prop.CHAIN_ID>  (1264) 
A A A A A A A Z Z Z Z Z Z Z Z Z Z Z Z Z Z Z

>  <atom.prop.IS_HEAVY_ATOM>  (1264) 
1 0 0 0 1 1 1 1 0 0 0 1 1 0 1 0 1 0 1 0 1 0

>  <DIFUSE_FUNC_ATOM>  (1264) 
atom 6   atom 7   

>  <FINAL_SINGLE_POINT_ENERGY>  (1264) 
0

>  <NONCOV_INTER_ENERGY_QM>  (1264) 
0

>  <FF_Energy>  (1264) 
15.69

>  <QM_Energy>  (1264) 
4.39

>  <source>  (1264) 
ACET_MBZ_01

>  <Index>  (1264) 
9881

$$$$
ACET-pdb1zr3-A-GLU-225:MBZ-pdb1zr3-A-PHE-351
     RDKit          3D

 22 21  0  0  0  0  0  0  0  0999 V2000
    3.6607   -0.3352   -2.2779 C   0  0  0  0  0  0  0  0  0  0  0  0
    3.0877   -0.9376   -1.7522 H   0  0  0  0  0  0  0  0  0  0  0  0
    4.2286    0.2301   -1.7069 H   0  0  0  0  0  0  0  0  0  0  0  0
    4.2956   -0.9317   -2.9329 H   0  0  0  0  0  0  0  0  0  0  0  0
    2.7429    0.5925   -3.0532 C   0  0  0  0  0  0  0  0  0  0  0  0
    1.7340    1.0347   -2.4746 O   0  0  0  0  0  1  0  0  0  0  0  0
    3.0304    0.8876   -4.2416 O   0  0  0  0  0  0  0  0  0  0  0  0
   -0.0483    2.9429   -0.0239 C   0  0  0  0  0  0  0  0  0  0  0  0
    0.5900    3.2502   -0.7054 H   0  0  0  0  0  0  0  0  0  0  0  0
    0.1869    3.2546    0.8775 H   0  0  0  0  0  0  0  0  0  0  0  0
   -1.0302    3.3441   -0.2748 H   0  0  0  0  0  0  0  0  0  0  0  0
   -0.0052    1.4125   -0.0083 C   0  0  0  0  0  0  0  0  0  0  0  0
   -1.2022    0.6682    0.0060 C   0  0  0  0  0  0  0  0  0  0  0  0
   -2.0761    1.1645    0.0201 H   0  0  0  0  0  0  0  0  0  0  0  0
   -1.2224   -0.7264   -0.0000 C   0  0  0  0  0  0  0  0  0  0  0  0
   -2.0808   -1.2202   -0.0063 H   0  0  0  0  0  0  0  0  0  0  0  0
    0.0041   -1.4018    0.0055 C   0  0  0  0  0  0  0  0  0  0  0  0
    0.0280   -2.3965    0.0129 H   0  0  0  0  0  0  0  0  0  0  0  0
    1.2224   -0.6720   -0.0000 C   0  0  0  0  0  0  0  0  0  0  0  0
    2.0993   -1.1690    0.0001 H   0  0  0  0  0  0  0  0  0  0  0  0
    1.2033    0.7195   -0.0032 C   0  0  0  0  0  0  0  0  0  0  0  0
    2.0633    1.2266   -0.0027 H   0  0  0  0  0  0  0  0  0  0  0  0
  1  5  1  0
  5  6  1  0
  5  7  2  0
  1  2  1  0
  1  3  1  0
  1  4  1  0
  8 12  1  0
 12 13  2  0
 13 15  1  0
 15 17  2  0
 17 19  1  0
 19 21  2  0
 21 12  1  0
  8  9  1  0
  8 10  1  0
  8 11  1  0
 13 14  1  0
 15 16  1  0
 17 18  1  0
 19 20  1  0
 21 22  1  0
M  CHG  1   6  -1
M  END
>  <PDB_ID>  (1265) 
pdb1zr3

>  <RESIDUE_NAME>  (1265) 
GLU   PHE

>  <FRAG_NAME>  (1265) 
ACET   MBZ

>  <FRAG_ATOM_NUM>  (1265) 
fragi: 7  fragj: 15

>  <atom.prop.CHAIN_ID>  (1265) 
A A A A A A A Z Z Z Z Z Z Z Z Z Z Z Z Z Z Z

>  <atom.prop.IS_HEAVY_ATOM>  (1265) 
1 0 0 0 1 1 1 1 0 0 0 1 1 0 1 0 1 0 1 0 1 0

>  <DIFUSE_FUNC_ATOM>  (1265) 
atom 6   atom 7   

>  <FINAL_SINGLE_POINT_ENERGY>  (1265) 
0

>  <NONCOV_INTER_ENERGY_QM>  (1265) 
0

>  <FF_Energy>  (1265) 
11.75

>  <QM_Energy>  (1265) 
1.83

>  <source>  (1265) 
ACET_MBZ_01

>  <Index>  (1265) 
9882

$$$$
ACET-pdb1zr3-B-GLU-225:MBZ-pdb1zr3-B-PHE-351
     RDKit          3D

 22 21  0  0  0  0  0  0  0  0999 V2000
    5.3258    0.3527    3.0587 C   0  0  0  0  0  0  0  0  0  0  0  0
    4.9554    0.7031    3.8900 H   0  0  0  0  0  0  0  0  0  0  0  0
    6.2752    0.5435    2.9424 H   0  0  0  0  0  0  0  0  0  0  0  0
    5.1815   -0.7275    3.0412 H   0  0  0  0  0  0  0  0  0  0  0  0
    4.5777    1.0542    1.8986 C   0  0  0  0  0  0  0  0  0  0  0  0
    3.9839    0.3356    1.0457 O   0  0  0  0  0  1  0  0  0  0  0  0
    4.5772    2.3187    1.8558 O   0  0  0  0  0  0  0  0  0  0  0  0
   -0.0156    2.8696   -0.0667 C   0  0  0  0  0  0  0  0  0  0  0  0
    0.9089    3.2004   -0.0105 H   0  0  0  0  0  0  0  0  0  0  0  0
   -0.5755    3.2040    0.6700 H   0  0  0  0  0  0  0  0  0  0  0  0
   -0.4460    3.2142   -1.0070 H   0  0  0  0  0  0  0  0  0  0  0  0
    0.0144    1.3893    0.0063 C   0  0  0  0  0  0  0  0  0  0  0  0
   -1.1941    0.6873   -0.0040 C   0  0  0  0  0  0  0  0  0  0  0  0
   -2.0527    1.1936   -0.0162 H   0  0  0  0  0  0  0  0  0  0  0  0
   -1.2105   -0.6902   -0.0000 C   0  0  0  0  0  0  0  0  0  0  0  0
   -2.0973   -1.1763   -0.0067 H   0  0  0  0  0  0  0  0  0  0  0  0
   -0.0318   -1.3840    0.0146 C   0  0  0  0  0  0  0  0  0  0  0  0
   -0.0254   -2.3870    0.0351 H   0  0  0  0  0  0  0  0  0  0  0  0
    1.2105   -0.6990    0.0000 C   0  0  0  0  0  0  0  0  0  0  0  0
    2.0682   -1.2112    0.0034 H   0  0  0  0  0  0  0  0  0  0  0  0
    1.2114    0.6966   -0.0168 C   0  0  0  0  0  0  0  0  0  0  0  0
    2.0754    1.1879   -0.0463 H   0  0  0  0  0  0  0  0  0  0  0  0
  1  5  1  0
  5  6  1  0
  5  7  2  0
  1  2  1  0
  1  3  1  0
  1  4  1  0
  8 12  1  0
 12 13  2  0
 13 15  1  0
 15 17  2  0
 17 19  1  0
 19 21  2  0
 21 12  1  0
  8  9  1  0
  8 10  1  0
  8 11  1  0
 13 14  1  0
 15 16  1  0
 17 18  1  0
 19 20  1  0
 21 22  1  0
M  CHG  1   6  -1
M  END
>  <PDB_ID>  (1266) 
pdb1zr3

>  <RESIDUE_NAME>  (1266) 
GLU   PHE

>  <FRAG_NAME>  (1266) 
ACET   MBZ

>  <FRAG_ATOM_NUM>  (1266) 
fragi: 7  fragj: 15

>  <atom.prop.CHAIN_ID>  (1266) 
A A A A A A A Z Z Z Z Z Z Z Z Z Z Z Z Z Z Z

>  <atom.prop.IS_HEAVY_ATOM>  (1266) 
1 0 0 0 1 1 1 1 0 0 0 1 1 0 1 0 1 0 1 0 1 0

>  <DIFUSE_FUNC_ATOM>  (1266) 
atom 6   atom 7   

>  <FINAL_SINGLE_POINT_ENERGY>  (1266) 
0

>  <NONCOV_INTER_ENERGY_QM>  (1266) 
0

>  <FF_Energy>  (1266) 
-1.04

>  <QM_Energy>  (1266) 
-6.97

>  <source>  (1266) 
ACET_MBZ_01

>  <Index>  (1266) 
9884

$$$$
ACET-pdb3dfh-C-ASP-132:MBZ-pdb3dfh-C-PHE-158
     RDKit          3D

 22 21  0  0  0  0  0  0  0  0999 V2000
    6.1573    0.9472    0.1228 C   0  0  0  0  0  0  0  0  0  0  0  0
    6.4625    0.0331    0.3463 H   0  0  0  0  0  0  0  0  0  0  0  0
    6.8549    1.6168    0.3269 H   0  0  0  0  0  0  0  0  0  0  0  0
    5.9713    0.9797   -0.9507 H   0  0  0  0  0  0  0  0  0  0  0  0
    4.9091    1.2664    0.9415 C   0  0  0  0  0  0  0  0  0  0  0  0
    3.9376    1.7563    0.3422 O   0  0  0  0  0  1  0  0  0  0  0  0
    4.8863    1.0399    2.1681 O   0  0  0  0  0  0  0  0  0  0  0  0
   -0.0011    2.9583   -0.0167 C   0  0  0  0  0  0  0  0  0  0  0  0
    0.9015    3.2542    0.2434 H   0  0  0  0  0  0  0  0  0  0  0  0
   -0.6865    3.2568    0.6246 H   0  0  0  0  0  0  0  0  0  0  0  0
   -0.2334    3.3997   -0.9859 H   0  0  0  0  0  0  0  0  0  0  0  0
   -0.0004    1.4170   -0.0045 C   0  0  0  0  0  0  0  0  0  0  0  0
   -1.2025    0.7013    0.0036 C   0  0  0  0  0  0  0  0  0  0  0  0
   -2.0696    1.1840    0.0106 H   0  0  0  0  0  0  0  0  0  0  0  0
   -1.2068   -0.7082   -0.0000 C   0  0  0  0  0  0  0  0  0  0  0  0
   -2.0833   -1.1943   -0.0028 H   0  0  0  0  0  0  0  0  0  0  0  0
   -0.0019   -1.4035    0.0024 C   0  0  0  0  0  0  0  0  0  0  0  0
   -0.0014   -2.4004    0.0050 H   0  0  0  0  0  0  0  0  0  0  0  0
    1.2068   -0.7010   -0.0000 C   0  0  0  0  0  0  0  0  0  0  0  0
    2.0852   -1.2005    0.0008 H   0  0  0  0  0  0  0  0  0  0  0  0
    1.2048    0.6944   -0.0015 C   0  0  0  0  0  0  0  0  0  0  0  0
    2.0707    1.1905   -0.0010 H   0  0  0  0  0  0  0  0  0  0  0  0
  1  5  1  0
  5  6  1  0
  5  7  2  0
  1  2  1  0
  1  3  1  0
  1  4  1  0
  8 12  1  0
 12 13  2  0
 13 15  1  0
 15 17  2  0
 17 19  1  0
 19 21  2  0
 21 12  1  0
  8  9  1  0
  8 10  1  0
  8 11  1  0
 13 14  1  0
 15 16  1  0
 17 18  1  0
 19 20  1  0
 21 22  1  0
M  CHG  1   6  -1
M  END
>  <PDB_ID>  (1267) 
pdb3dfh

>  <RESIDUE_NAME>  (1267) 
ASP   PHE

>  <FRAG_NAME>  (1267) 
ACET   MBZ

>  <FRAG_ATOM_NUM>  (1267) 
fragi: 7  fragj: 15

>  <atom.prop.CHAIN_ID>  (1267) 
A A A A A A A Z Z Z Z Z Z Z Z Z Z Z Z Z Z Z

>  <atom.prop.IS_HEAVY_ATOM>  (1267) 
1 0 0 0 1 1 1 1 0 0 0 1 1 0 1 0 1 0 1 0 1 0

>  <DIFUSE_FUNC_ATOM>  (1267) 
atom 6   atom 7   

>  <FINAL_SINGLE_POINT_ENERGY>  (1267) 
0

>  <NONCOV_INTER_ENERGY_QM>  (1267) 
0

>  <FF_Energy>  (1267) 
6.48

>  <QM_Energy>  (1267) 
-6.6

>  <source>  (1267) 
ACET_MBZ_01

>  <Index>  (1267) 
9897

$$$$
ACET-pdb1zup-B-GLU-183:MBZ-pdb1zup-B-PHE-204
     RDKit          3D

 22 21  0  0  0  0  0  0  0  0999 V2000
   -1.8359   -4.5974   -0.2664 C   0  0  0  0  0  0  0  0  0  0  0  0
   -2.8181   -4.6003   -0.3003 H   0  0  0  0  0  0  0  0  0  0  0  0
   -1.4483   -5.4284   -0.6197 H   0  0  0  0  0  0  0  0  0  0  0  0
   -1.4850   -3.7744   -0.8891 H   0  0  0  0  0  0  0  0  0  0  0  0
   -1.4225   -4.4804    1.2020 C   0  0  0  0  0  0  0  0  0  0  0  0
   -0.7575   -3.4666    1.5715 O   0  0  0  0  0  1  0  0  0  0  0  0
   -1.7698   -5.4054    1.9835 O   0  0  0  0  0  0  0  0  0  0  0  0
   -0.0066    2.9003   -0.0258 C   0  0  0  0  0  0  0  0  0  0  0  0
   -0.8212    3.1908   -0.5276 H   0  0  0  0  0  0  0  0  0  0  0  0
    0.8112    3.1996   -0.5164 H   0  0  0  0  0  0  0  0  0  0  0  0
   -0.0160    3.3896    0.9482 H   0  0  0  0  0  0  0  0  0  0  0  0
    0.0019    1.3975   -0.0077 C   0  0  0  0  0  0  0  0  0  0  0  0
   -1.1995    0.6905   -0.0080 C   0  0  0  0  0  0  0  0  0  0  0  0
   -2.0636    1.1937   -0.0163 H   0  0  0  0  0  0  0  0  0  0  0  0
   -1.2194   -0.6913    0.0000 C   0  0  0  0  0  0  0  0  0  0  0  0
   -2.0876   -1.1872   -0.0103 H   0  0  0  0  0  0  0  0  0  0  0  0
   -0.0062   -1.3902    0.0255 C   0  0  0  0  0  0  0  0  0  0  0  0
   -0.0123   -2.3895    0.0614 H   0  0  0  0  0  0  0  0  0  0  0  0
    1.2194   -0.7004    0.0000 C   0  0  0  0  0  0  0  0  0  0  0  0
    2.0859   -1.2009   -0.0098 H   0  0  0  0  0  0  0  0  0  0  0  0
    1.2038    0.6939   -0.0098 C   0  0  0  0  0  0  0  0  0  0  0  0
    2.0695    1.1952   -0.0191 H   0  0  0  0  0  0  0  0  0  0  0  0
  1  5  1  0
  5  6  1  0
  5  7  2  0
  1  2  1  0
  1  3  1  0
  1  4  1  0
  8 12  1  0
 12 13  2  0
 13 15  1  0
 15 17  2  0
 17 19  1  0
 19 21  2  0
 21 12  1  0
  8  9  1  0
  8 10  1  0
  8 11  1  0
 13 14  1  0
 15 16  1  0
 17 18  1  0
 19 20  1  0
 21 22  1  0
M  CHG  1   6  -1
M  END
>  <PDB_ID>  (1268) 
pdb1zup

>  <RESIDUE_NAME>  (1268) 
GLU   PHE

>  <FRAG_NAME>  (1268) 
ACET   MBZ

>  <FRAG_ATOM_NUM>  (1268) 
fragi: 7  fragj: 15

>  <atom.prop.CHAIN_ID>  (1268) 
A A A A A A A Z Z Z Z Z Z Z Z Z Z Z Z Z Z Z

>  <atom.prop.IS_HEAVY_ATOM>  (1268) 
1 0 0 0 1 1 1 1 0 0 0 1 1 0 1 0 1 0 1 0 1 0

>  <DIFUSE_FUNC_ATOM>  (1268) 
atom 6   atom 7   

>  <FINAL_SINGLE_POINT_ENERGY>  (1268) 
0

>  <NONCOV_INTER_ENERGY_QM>  (1268) 
0

>  <FF_Energy>  (1268) 
3.42

>  <QM_Energy>  (1268) 
-1.58

>  <source>  (1268) 
ACET_MBZ_01

>  <Index>  (1268) 
10038

$$$$
ACET-pdb1zvc-A-ASP-88:MBZ-pdb1zvc-A-PHE-48
     RDKit          3D

 22 21  0  0  0  0  0  0  0  0999 V2000
    3.5138    3.5970    2.2883 C   0  0  0  0  0  0  0  0  0  0  0  0
    3.6115    2.7047    2.7125 H   0  0  0  0  0  0  0  0  0  0  0  0
    2.6511    4.0141    2.5460 H   0  0  0  0  0  0  0  0  0  0  0  0
    4.3202    4.2345    2.6508 H   0  0  0  0  0  0  0  0  0  0  0  0
    3.5352    3.4191    0.7723 C   0  0  0  0  0  0  0  0  0  0  0  0
    2.7579    4.0990    0.0670 O   0  0  0  0  0  1  0  0  0  0  0  0
    4.3430    2.6005    0.2878 O   0  0  0  0  0  0  0  0  0  0  0  0
    0.0163    2.9203    0.0172 C   0  0  0  0  0  0  0  0  0  0  0  0
    0.9253    3.2184   -0.2400 H   0  0  0  0  0  0  0  0  0  0  0  0
   -0.2057    3.2117    0.9378 H   0  0  0  0  0  0  0  0  0  0  0  0
   -0.6924    3.3958   -0.6609 H   0  0  0  0  0  0  0  0  0  0  0  0
   -0.0002    1.4074   -0.0069 C   0  0  0  0  0  0  0  0  0  0  0  0
   -1.2011    0.6974    0.0069 C   0  0  0  0  0  0  0  0  0  0  0  0
   -2.0665    1.1844    0.0202 H   0  0  0  0  0  0  0  0  0  0  0  0
   -1.2058   -0.7024   -0.0000 C   0  0  0  0  0  0  0  0  0  0  0  0
   -2.0798   -1.1939   -0.0032 H   0  0  0  0  0  0  0  0  0  0  0  0
    0.0023   -1.3997   -0.0008 C   0  0  0  0  0  0  0  0  0  0  0  0
    0.0003   -2.3963   -0.0024 H   0  0  0  0  0  0  0  0  0  0  0  0
    1.2058   -0.6967   -0.0000 C   0  0  0  0  0  0  0  0  0  0  0  0
    2.0869   -1.1943    0.0011 H   0  0  0  0  0  0  0  0  0  0  0  0
    1.1991    0.6940    0.0009 C   0  0  0  0  0  0  0  0  0  0  0  0
    2.0666    1.1930    0.0063 H   0  0  0  0  0  0  0  0  0  0  0  0
  1  5  1  0
  5  6  1  0
  5  7  2  0
  1  2  1  0
  1  3  1  0
  1  4  1  0
  8 12  1  0
 12 13  2  0
 13 15  1  0
 15 17  2  0
 17 19  1  0
 19 21  2  0
 21 12  1  0
  8  9  1  0
  8 10  1  0
  8 11  1  0
 13 14  1  0
 15 16  1  0
 17 18  1  0
 19 20  1  0
 21 22  1  0
M  CHG  1   6  -1
M  END
>  <PDB_ID>  (1269) 
pdb1zvc

>  <RESIDUE_NAME>  (1269) 
ASP   PHE

>  <FRAG_NAME>  (1269) 
ACET   MBZ

>  <FRAG_ATOM_NUM>  (1269) 
fragi: 7  fragj: 15

>  <atom.prop.CHAIN_ID>  (1269) 
A A A A A A A Z Z Z Z Z Z Z Z Z Z Z Z Z Z Z

>  <atom.prop.IS_HEAVY_ATOM>  (1269) 
1 0 0 0 1 1 1 1 0 0 0 1 1 0 1 0 1 0 1 0 1 0

>  <DIFUSE_FUNC_ATOM>  (1269) 
atom 6   atom 7   

>  <FINAL_SINGLE_POINT_ENERGY>  (1269) 
0

>  <NONCOV_INTER_ENERGY_QM>  (1269) 
0

>  <FF_Energy>  (1269) 
1.94

>  <QM_Energy>  (1269) 
-7.6

>  <source>  (1269) 
ACET_MBZ_01

>  <Index>  (1269) 
10050

$$$$
ACET-pdb3dkb-F-ASP-5028:MBZ-pdb3dkb-F-PHE-5040
     RDKit          3D

 22 21  0  0  0  0  0  0  0  0999 V2000
    4.8136    2.0873    2.0813 C   0  0  0  0  0  0  0  0  0  0  0  0
    5.7872    2.1197    1.9047 H   0  0  0  0  0  0  0  0  0  0  0  0
    4.4088    1.2701    1.6973 H   0  0  0  0  0  0  0  0  0  0  0  0
    4.6636    2.0670    3.1607 H   0  0  0  0  0  0  0  0  0  0  0  0
    4.1626    3.2998    1.4492 C   0  0  0  0  0  0  0  0  0  0  0  0
    4.2169    4.3685    2.0871 O   0  0  0  0  0  1  0  0  0  0  0  0
    3.5978    3.2004    0.3372 O   0  0  0  0  0  0  0  0  0  0  0  0
    0.0036    2.8909    0.0227 C   0  0  0  0  0  0  0  0  0  0  0  0
   -0.6653    3.2127   -0.6312 H   0  0  0  0  0  0  0  0  0  0  0  0
    0.9127    3.2031   -0.2127 H   0  0  0  0  0  0  0  0  0  0  0  0
   -0.2515    3.3139    0.9943 H   0  0  0  0  0  0  0  0  0  0  0  0
    0.0006    1.3988   -0.0011 C   0  0  0  0  0  0  0  0  0  0  0  0
   -1.2005    0.6909    0.0011 C   0  0  0  0  0  0  0  0  0  0  0  0
   -2.0648    1.1862    0.0022 H   0  0  0  0  0  0  0  0  0  0  0  0
   -1.2104   -0.6967    0.0000 C   0  0  0  0  0  0  0  0  0  0  0  0
   -2.0817   -1.1924    0.0003 H   0  0  0  0  0  0  0  0  0  0  0  0
   -0.0005   -1.3945    0.0002 C   0  0  0  0  0  0  0  0  0  0  0  0
   -0.0024   -2.3907   -0.0001 H   0  0  0  0  0  0  0  0  0  0  0  0
    1.2104   -0.6936   -0.0000 C   0  0  0  0  0  0  0  0  0  0  0  0
    2.0863   -1.1936    0.0020 H   0  0  0  0  0  0  0  0  0  0  0  0
    1.2004    0.6950   -0.0002 C   0  0  0  0  0  0  0  0  0  0  0  0
    2.0659    1.1963   -0.0004 H   0  0  0  0  0  0  0  0  0  0  0  0
  1  5  1  0
  5  6  1  0
  5  7  2  0
  1  2  1  0
  1  3  1  0
  1  4  1  0
  8 12  1  0
 12 13  2  0
 13 15  1  0
 15 17  2  0
 17 19  1  0
 19 21  2  0
 21 12  1  0
  8  9  1  0
  8 10  1  0
  8 11  1  0
 13 14  1  0
 15 16  1  0
 17 18  1  0
 19 20  1  0
 21 22  1  0
M  CHG  1   6  -1
M  END
>  <PDB_ID>  (1270) 
pdb3dkb

>  <RESIDUE_NAME>  (1270) 
ASP   PHE

>  <FRAG_NAME>  (1270) 
ACET   MBZ

>  <FRAG_ATOM_NUM>  (1270) 
fragi: 7  fragj: 15

>  <atom.prop.CHAIN_ID>  (1270) 
A A A A A A A Z Z Z Z Z Z Z Z Z Z Z Z Z Z Z

>  <atom.prop.IS_HEAVY_ATOM>  (1270) 
1 0 0 0 1 1 1 1 0 0 0 1 1 0 1 0 1 0 1 0 1 0

>  <DIFUSE_FUNC_ATOM>  (1270) 
atom 6   atom 7   

>  <FINAL_SINGLE_POINT_ENERGY>  (1270) 
0

>  <NONCOV_INTER_ENERGY_QM>  (1270) 
0

>  <FF_Energy>  (1270) 
-2.56

>  <QM_Energy>  (1270) 
-7.61

>  <source>  (1270) 
ACET_MBZ_01

>  <Index>  (1270) 
10127

$$$$
ACET-pdb3dlu-C-GLU-43:MBZ-pdb3dlu-C-PHE-95
     RDKit          3D

 22 21  0  0  0  0  0  0  0  0999 V2000
   -1.5852   -4.4239    1.2121 C   0  0  0  0  0  0  0  0  0  0  0  0
   -2.0404   -4.9455    1.9094 H   0  0  0  0  0  0  0  0  0  0  0  0
   -0.8280   -3.9080    1.5650 H   0  0  0  0  0  0  0  0  0  0  0  0
   -1.2126   -5.1124    0.4536 H   0  0  0  0  0  0  0  0  0  0  0  0
   -2.5883   -3.4362    0.6526 C   0  0  0  0  0  0  0  0  0  0  0  0
   -3.0459   -3.6349   -0.4970 O   0  0  0  0  0  1  0  0  0  0  0  0
   -2.9243   -2.4659    1.3684 O   0  0  0  0  0  0  0  0  0  0  0  0
    0.0032    2.8882   -0.0025 C   0  0  0  0  0  0  0  0  0  0  0  0
    0.8674    3.1979   -0.3736 H   0  0  0  0  0  0  0  0  0  0  0  0
   -0.1163    3.1966    0.9301 H   0  0  0  0  0  0  0  0  0  0  0  0
   -0.7912    3.3343   -0.6009 H   0  0  0  0  0  0  0  0  0  0  0  0
    0.0002    1.3933   -0.0058 C   0  0  0  0  0  0  0  0  0  0  0  0
   -1.1944    0.6888    0.0024 C   0  0  0  0  0  0  0  0  0  0  0  0
   -2.0609    1.1824    0.0090 H   0  0  0  0  0  0  0  0  0  0  0  0
   -1.1995   -0.6927    0.0000 C   0  0  0  0  0  0  0  0  0  0  0  0
   -2.0766   -1.1890   -0.0023 H   0  0  0  0  0  0  0  0  0  0  0  0
   -0.0013   -1.3861    0.0027 C   0  0  0  0  0  0  0  0  0  0  0  0
   -0.0038   -2.3857    0.0061 H   0  0  0  0  0  0  0  0  0  0  0  0
    1.1995   -0.6911   -0.0000 C   0  0  0  0  0  0  0  0  0  0  0  0
    2.0790   -1.1947   -0.0012 H   0  0  0  0  0  0  0  0  0  0  0  0
    1.1956    0.6878    0.0008 C   0  0  0  0  0  0  0  0  0  0  0  0
    2.0632    1.1891    0.0057 H   0  0  0  0  0  0  0  0  0  0  0  0
  1  5  1  0
  5  6  1  0
  5  7  2  0
  1  2  1  0
  1  3  1  0
  1  4  1  0
  8 12  1  0
 12 13  2  0
 13 15  1  0
 15 17  2  0
 17 19  1  0
 19 21  2  0
 21 12  1  0
  8  9  1  0
  8 10  1  0
  8 11  1  0
 13 14  1  0
 15 16  1  0
 17 18  1  0
 19 20  1  0
 21 22  1  0
M  CHG  1   6  -1
M  END
>  <PDB_ID>  (1271) 
pdb3dlu

>  <RESIDUE_NAME>  (1271) 
GLU   PHE

>  <FRAG_NAME>  (1271) 
ACET   MBZ

>  <FRAG_ATOM_NUM>  (1271) 
fragi: 7  fragj: 15

>  <atom.prop.CHAIN_ID>  (1271) 
A A A A A A A Z Z Z Z Z Z Z Z Z Z Z Z Z Z Z

>  <atom.prop.IS_HEAVY_ATOM>  (1271) 
1 0 0 0 1 1 1 1 0 0 0 1 1 0 1 0 1 0 1 0 1 0

>  <DIFUSE_FUNC_ATOM>  (1271) 
atom 6   atom 7   

>  <FINAL_SINGLE_POINT_ENERGY>  (1271) 
0

>  <NONCOV_INTER_ENERGY_QM>  (1271) 
0

>  <FF_Energy>  (1271) 
6.6

>  <QM_Energy>  (1271) 
-4.37

>  <source>  (1271) 
ACET_MBZ_01

>  <Index>  (1271) 
10194

$$$$
ACET-pdb3dls-E-ASP-1131:MBZ-pdb3dls-E-PHE-1091
     RDKit          3D

 22 21  0  0  0  0  0  0  0  0999 V2000
    3.2577    5.1178   -0.9085 C   0  0  0  0  0  0  0  0  0  0  0  0
    2.2873    5.1315   -1.1254 H   0  0  0  0  0  0  0  0  0  0  0  0
    3.7962    5.3234   -1.7177 H   0  0  0  0  0  0  0  0  0  0  0  0
    3.4460    5.9011   -0.1743 H   0  0  0  0  0  0  0  0  0  0  0  0
    3.6287    3.7200   -0.4163 C   0  0  0  0  0  0  0  0  0  0  0  0
    3.6994    3.4713    0.8129 O   0  0  0  0  0  1  0  0  0  0  0  0
    3.8384    2.8497   -1.2814 O   0  0  0  0  0  0  0  0  0  0  0  0
   -0.0006    2.9153    0.0055 C   0  0  0  0  0  0  0  0  0  0  0  0
    0.8587    3.2158    0.3922 H   0  0  0  0  0  0  0  0  0  0  0  0
   -0.7659    3.2144    0.5552 H   0  0  0  0  0  0  0  0  0  0  0  0
   -0.0998    3.3677   -0.9812 H   0  0  0  0  0  0  0  0  0  0  0  0
   -0.0010    1.4021   -0.0034 C   0  0  0  0  0  0  0  0  0  0  0  0
   -1.1984    0.6873    0.0021 C   0  0  0  0  0  0  0  0  0  0  0  0
   -2.0653    1.1793    0.0064 H   0  0  0  0  0  0  0  0  0  0  0  0
   -1.2021   -0.6997    0.0000 C   0  0  0  0  0  0  0  0  0  0  0  0
   -2.0757   -1.1963   -0.0011 H   0  0  0  0  0  0  0  0  0  0  0  0
    0.0028   -1.3929    0.0011 C   0  0  0  0  0  0  0  0  0  0  0  0
    0.0002   -2.3918    0.0021 H   0  0  0  0  0  0  0  0  0  0  0  0
    1.2021   -0.6941   -0.0000 C   0  0  0  0  0  0  0  0  0  0  0  0
    2.0849   -1.1905    0.0000 H   0  0  0  0  0  0  0  0  0  0  0  0
    1.1966    0.6973    0.0002 C   0  0  0  0  0  0  0  0  0  0  0  0
    2.0634    1.1944    0.0021 H   0  0  0  0  0  0  0  0  0  0  0  0
  1  5  1  0
  5  6  1  0
  5  7  2  0
  1  2  1  0
  1  3  1  0
  1  4  1  0
  8 12  1  0
 12 13  2  0
 13 15  1  0
 15 17  2  0
 17 19  1  0
 19 21  2  0
 21 12  1  0
  8  9  1  0
  8 10  1  0
  8 11  1  0
 13 14  1  0
 15 16  1  0
 17 18  1  0
 19 20  1  0
 21 22  1  0
M  CHG  1   6  -1
M  END
>  <PDB_ID>  (1272) 
pdb3dls

>  <RESIDUE_NAME>  (1272) 
ASP   PHE

>  <FRAG_NAME>  (1272) 
ACET   MBZ

>  <FRAG_ATOM_NUM>  (1272) 
fragi: 7  fragj: 15

>  <atom.prop.CHAIN_ID>  (1272) 
A A A A A A A Z Z Z Z Z Z Z Z Z Z Z Z Z Z Z

>  <atom.prop.IS_HEAVY_ATOM>  (1272) 
1 0 0 0 1 1 1 1 0 0 0 1 1 0 1 0 1 0 1 0 1 0

>  <DIFUSE_FUNC_ATOM>  (1272) 
atom 6   atom 7   

>  <FINAL_SINGLE_POINT_ENERGY>  (1272) 
0

>  <NONCOV_INTER_ENERGY_QM>  (1272) 
0

>  <FF_Energy>  (1272) 
-2.94

>  <QM_Energy>  (1272) 
-8.17

>  <source>  (1272) 
ACET_MBZ_01

>  <Index>  (1272) 
10246

$$$$
ACET-pdb3dls-F-ASP-1131:MBZ-pdb3dls-F-PHE-1091
     RDKit          3D

 22 21  0  0  0  0  0  0  0  0999 V2000
    3.5131    4.9551   -0.9661 C   0  0  0  0  0  0  0  0  0  0  0  0
    2.5967    5.1655   -1.2921 H   0  0  0  0  0  0  0  0  0  0  0  0
    4.1786    5.0974   -1.6903 H   0  0  0  0  0  0  0  0  0  0  0  0
    3.7467    5.6458   -0.1559 H   0  0  0  0  0  0  0  0  0  0  0  0
    3.5536    3.4761   -0.5523 C   0  0  0  0  0  0  0  0  0  0  0  0
    3.6048    3.1466    0.6577 O   0  0  0  0  0  1  0  0  0  0  0  0
    3.5179    2.6275   -1.4694 O   0  0  0  0  0  0  0  0  0  0  0  0
    0.0015    2.9270    0.0057 C   0  0  0  0  0  0  0  0  0  0  0  0
    0.8405    3.2240    0.4347 H   0  0  0  0  0  0  0  0  0  0  0  0
   -0.7902    3.2256    0.5175 H   0  0  0  0  0  0  0  0  0  0  0  0
   -0.0481    3.3831   -0.9831 H   0  0  0  0  0  0  0  0  0  0  0  0
   -0.0010    1.4102   -0.0055 C   0  0  0  0  0  0  0  0  0  0  0  0
   -1.1995    0.6943    0.0045 C   0  0  0  0  0  0  0  0  0  0  0  0
   -2.0676    1.1808    0.0138 H   0  0  0  0  0  0  0  0  0  0  0  0
   -1.2031   -0.7044    0.0000 C   0  0  0  0  0  0  0  0  0  0  0  0
   -2.0769   -1.1968   -0.0007 H   0  0  0  0  0  0  0  0  0  0  0  0
    0.0045   -1.4002   -0.0021 C   0  0  0  0  0  0  0  0  0  0  0  0
    0.0010   -2.3978   -0.0060 H   0  0  0  0  0  0  0  0  0  0  0  0
    1.2031   -0.6993   -0.0000 C   0  0  0  0  0  0  0  0  0  0  0  0
    2.0868   -1.1910    0.0010 H   0  0  0  0  0  0  0  0  0  0  0  0
    1.1961    0.6994    0.0031 C   0  0  0  0  0  0  0  0  0  0  0  0
    2.0659    1.1933    0.0109 H   0  0  0  0  0  0  0  0  0  0  0  0
  1  5  1  0
  5  6  1  0
  5  7  2  0
  1  2  1  0
  1  3  1  0
  1  4  1  0
  8 12  1  0
 12 13  2  0
 13 15  1  0
 15 17  2  0
 17 19  1  0
 19 21  2  0
 21 12  1  0
  8  9  1  0
  8 10  1  0
  8 11  1  0
 13 14  1  0
 15 16  1  0
 17 18  1  0
 19 20  1  0
 21 22  1  0
M  CHG  1   6  -1
M  END
>  <PDB_ID>  (1273) 
pdb3dls

>  <RESIDUE_NAME>  (1273) 
ASP   PHE

>  <FRAG_NAME>  (1273) 
ACET   MBZ

>  <FRAG_ATOM_NUM>  (1273) 
fragi: 7  fragj: 15

>  <atom.prop.CHAIN_ID>  (1273) 
A A A A A A A Z Z Z Z Z Z Z Z Z Z Z Z Z Z Z

>  <atom.prop.IS_HEAVY_ATOM>  (1273) 
1 0 0 0 1 1 1 1 0 0 0 1 1 0 1 0 1 0 1 0 1 0

>  <DIFUSE_FUNC_ATOM>  (1273) 
atom 6   atom 7   

>  <FINAL_SINGLE_POINT_ENERGY>  (1273) 
0

>  <NONCOV_INTER_ENERGY_QM>  (1273) 
0

>  <FF_Energy>  (1273) 
-2.48

>  <QM_Energy>  (1273) 
-9.13

>  <source>  (1273) 
ACET_MBZ_01

>  <Index>  (1273) 
10247

$$$$
ACET-pdb3doc-A-GLU-97:MBZ-pdb3doc-A-PHE-102
     RDKit          3D

 22 21  0  0  0  0  0  0  0  0999 V2000
    2.9623    4.8505    2.0962 C   0  0  0  0  0  0  0  0  0  0  0  0
    2.4966    4.8175    2.9847 H   0  0  0  0  0  0  0  0  0  0  0  0
    2.3112    5.1641    1.3994 H   0  0  0  0  0  0  0  0  0  0  0  0
    3.7469    5.6035    2.1706 H   0  0  0  0  0  0  0  0  0  0  0  0
    3.3766    3.4573    1.7424 C   0  0  0  0  0  0  0  0  0  0  0  0
    3.6301    3.1858    0.6301 O   0  0  0  0  0  1  0  0  0  0  0  0
    3.3783    2.6066    2.5747 O   0  0  0  0  0  0  0  0  0  0  0  0
   -0.0045    2.9072   -0.0172 C   0  0  0  0  0  0  0  0  0  0  0  0
    0.9024    3.2191    0.2161 H   0  0  0  0  0  0  0  0  0  0  0  0
   -0.6764    3.2215    0.6333 H   0  0  0  0  0  0  0  0  0  0  0  0
   -0.2614    3.3259   -0.9902 H   0  0  0  0  0  0  0  0  0  0  0  0
   -0.0007    1.4039    0.0052 C   0  0  0  0  0  0  0  0  0  0  0  0
   -1.1907    0.6973   -0.0012 C   0  0  0  0  0  0  0  0  0  0  0  0
   -2.0611    1.1829   -0.0082 H   0  0  0  0  0  0  0  0  0  0  0  0
   -1.1957   -0.6981   -0.0000 C   0  0  0  0  0  0  0  0  0  0  0  0
   -2.0779   -1.1863    0.0014 H   0  0  0  0  0  0  0  0  0  0  0  0
   -0.0029   -1.3951    0.0013 C   0  0  0  0  0  0  0  0  0  0  0  0
   -0.0085   -2.3954    0.0025 H   0  0  0  0  0  0  0  0  0  0  0  0
    1.1957   -0.7032   -0.0000 C   0  0  0  0  0  0  0  0  0  0  0  0
    2.0783   -1.1978    0.0046 H   0  0  0  0  0  0  0  0  0  0  0  0
    1.1943    0.6953   -0.0053 C   0  0  0  0  0  0  0  0  0  0  0  0
    2.0633    1.1857   -0.0180 H   0  0  0  0  0  0  0  0  0  0  0  0
  1  5  1  0
  5  6  1  0
  5  7  2  0
  1  2  1  0
  1  3  1  0
  1  4  1  0
  8 12  1  0
 12 13  2  0
 13 15  1  0
 15 17  2  0
 17 19  1  0
 19 21  2  0
 21 12  1  0
  8  9  1  0
  8 10  1  0
  8 11  1  0
 13 14  1  0
 15 16  1  0
 17 18  1  0
 19 20  1  0
 21 22  1  0
M  CHG  1   6  -1
M  END
>  <PDB_ID>  (1274) 
pdb3doc

>  <RESIDUE_NAME>  (1274) 
GLU   PHE

>  <FRAG_NAME>  (1274) 
ACET   MBZ

>  <FRAG_ATOM_NUM>  (1274) 
fragi: 7  fragj: 15

>  <atom.prop.CHAIN_ID>  (1274) 
A A A A A A A Z Z Z Z Z Z Z Z Z Z Z Z Z Z Z

>  <atom.prop.IS_HEAVY_ATOM>  (1274) 
1 0 0 0 1 1 1 1 0 0 0 1 1 0 1 0 1 0 1 0 1 0

>  <DIFUSE_FUNC_ATOM>  (1274) 
atom 6   atom 7   

>  <FINAL_SINGLE_POINT_ENERGY>  (1274) 
0

>  <NONCOV_INTER_ENERGY_QM>  (1274) 
0

>  <FF_Energy>  (1274) 
-2.35

>  <QM_Energy>  (1274) 
-7.49

>  <source>  (1274) 
ACET_MBZ_01

>  <Index>  (1274) 
10370

$$$$
ACET-pdb3doc-B-GLU-97:MBZ-pdb3doc-B-PHE-102
     RDKit          3D

 22 21  0  0  0  0  0  0  0  0999 V2000
    3.2980    4.6779    0.7074 C   0  0  0  0  0  0  0  0  0  0  0  0
    2.5152    4.6875    1.3040 H   0  0  0  0  0  0  0  0  0  0  0  0
    3.1285    5.1665   -0.1303 H   0  0  0  0  0  0  0  0  0  0  0  0
    4.1149    5.1804    1.2256 H   0  0  0  0  0  0  0  0  0  0  0  0
    3.5993    3.2388    0.3547 C   0  0  0  0  0  0  0  0  0  0  0  0
    3.8465    2.4117    1.2702 O   0  0  0  0  0  1  0  0  0  0  0  0
    3.5779    2.9293   -0.8573 O   0  0  0  0  0  0  0  0  0  0  0  0
   -0.0006    2.9087    0.0208 C   0  0  0  0  0  0  0  0  0  0  0  0
    0.9437    3.2116    0.0258 H   0  0  0  0  0  0  0  0  0  0  0  0
   -0.4703    3.1997    0.8441 H   0  0  0  0  0  0  0  0  0  0  0  0
   -0.4976    3.3738   -0.8305 H   0  0  0  0  0  0  0  0  0  0  0  0
   -0.0014    1.4023   -0.0021 C   0  0  0  0  0  0  0  0  0  0  0  0
   -1.1959    0.6897    0.0095 C   0  0  0  0  0  0  0  0  0  0  0  0
   -2.0641    1.1764    0.0235 H   0  0  0  0  0  0  0  0  0  0  0  0
   -1.1972   -0.7027   -0.0000 C   0  0  0  0  0  0  0  0  0  0  0  0
   -2.0713   -1.1981   -0.0008 H   0  0  0  0  0  0  0  0  0  0  0  0
    0.0071   -1.3915   -0.0059 C   0  0  0  0  0  0  0  0  0  0  0  0
    0.0040   -2.3926   -0.0146 H   0  0  0  0  0  0  0  0  0  0  0  0
    1.1972   -0.6952    0.0000 C   0  0  0  0  0  0  0  0  0  0  0  0
    2.0844   -1.1867    0.0074 H   0  0  0  0  0  0  0  0  0  0  0  0
    1.1902    0.6975   -0.0016 C   0  0  0  0  0  0  0  0  0  0  0  0
    2.0609    1.1921   -0.0028 H   0  0  0  0  0  0  0  0  0  0  0  0
  1  5  1  0
  5  6  1  0
  5  7  2  0
  1  2  1  0
  1  3  1  0
  1  4  1  0
  8 12  1  0
 12 13  2  0
 13 15  1  0
 15 17  2  0
 17 19  1  0
 19 21  2  0
 21 12  1  0
  8  9  1  0
  8 10  1  0
  8 11  1  0
 13 14  1  0
 15 16  1  0
 17 18  1  0
 19 20  1  0
 21 22  1  0
M  CHG  1   6  -1
M  END
>  <PDB_ID>  (1275) 
pdb3doc

>  <RESIDUE_NAME>  (1275) 
GLU   PHE

>  <FRAG_NAME>  (1275) 
ACET   MBZ

>  <FRAG_ATOM_NUM>  (1275) 
fragi: 7  fragj: 15

>  <atom.prop.CHAIN_ID>  (1275) 
A A A A A A A Z Z Z Z Z Z Z Z Z Z Z Z Z Z Z

>  <atom.prop.IS_HEAVY_ATOM>  (1275) 
1 0 0 0 1 1 1 1 0 0 0 1 1 0 1 0 1 0 1 0 1 0

>  <DIFUSE_FUNC_ATOM>  (1275) 
atom 6   atom 7   

>  <FINAL_SINGLE_POINT_ENERGY>  (1275) 
0

>  <NONCOV_INTER_ENERGY_QM>  (1275) 
0

>  <FF_Energy>  (1275) 
-1.62

>  <QM_Energy>  (1275) 
-8.44

>  <source>  (1275) 
ACET_MBZ_01

>  <Index>  (1275) 
10372

$$$$
ACET-pdb3dpj-B-GLU-55:MBZ-pdb3dpj-B-PHE-46
     RDKit          3D

 22 21  0  0  0  0  0  0  0  0999 V2000
   -1.5903   -4.1308    1.1038 C   0  0  0  0  0  0  0  0  0  0  0  0
   -2.5506   -3.9925    1.2422 H   0  0  0  0  0  0  0  0  0  0  0  0
   -1.1382   -3.3316    0.7596 H   0  0  0  0  0  0  0  0  0  0  0  0
   -1.1419   -4.3924    2.0622 H   0  0  0  0  0  0  0  0  0  0  0  0
   -1.4256   -5.2317    0.0783 C   0  0  0  0  0  0  0  0  0  0  0  0
   -0.7328   -6.2265    0.3897 O   0  0  0  0  0  1  0  0  0  0  0  0
   -1.9868   -5.1055   -1.0331 O   0  0  0  0  0  0  0  0  0  0  0  0
    0.0022    2.8912    0.0052 C   0  0  0  0  0  0  0  0  0  0  0  0
    0.9245    3.1954    0.1931 H   0  0  0  0  0  0  0  0  0  0  0  0
   -0.6255    3.1954    0.7070 H   0  0  0  0  0  0  0  0  0  0  0  0
   -0.3109    3.3382   -0.9383 H   0  0  0  0  0  0  0  0  0  0  0  0
   -0.0010    1.3925   -0.0040 C   0  0  0  0  0  0  0  0  0  0  0  0
   -1.1949    0.6881    0.0029 C   0  0  0  0  0  0  0  0  0  0  0  0
   -2.0606    1.1827    0.0086 H   0  0  0  0  0  0  0  0  0  0  0  0
   -1.1965   -0.6894    0.0000 C   0  0  0  0  0  0  0  0  0  0  0  0
   -2.0733   -1.1899   -0.0012 H   0  0  0  0  0  0  0  0  0  0  0  0
    0.0015   -1.3811   -0.0004 C   0  0  0  0  0  0  0  0  0  0  0  0
   -0.0057   -2.3844   -0.0018 H   0  0  0  0  0  0  0  0  0  0  0  0
    1.1965   -0.6949   -0.0000 C   0  0  0  0  0  0  0  0  0  0  0  0
    2.0780   -1.1968    0.0007 H   0  0  0  0  0  0  0  0  0  0  0  0
    1.1944    0.6849    0.0015 C   0  0  0  0  0  0  0  0  0  0  0  0
    2.0617    1.1847    0.0061 H   0  0  0  0  0  0  0  0  0  0  0  0
  1  5  1  0
  5  6  1  0
  5  7  2  0
  1  2  1  0
  1  3  1  0
  1  4  1  0
  8 12  1  0
 12 13  2  0
 13 15  1  0
 15 17  2  0
 17 19  1  0
 19 21  2  0
 21 12  1  0
  8  9  1  0
  8 10  1  0
  8 11  1  0
 13 14  1  0
 15 16  1  0
 17 18  1  0
 19 20  1  0
 21 22  1  0
M  CHG  1   6  -1
M  END
>  <PDB_ID>  (1276) 
pdb3dpj

>  <RESIDUE_NAME>  (1276) 
GLU   PHE

>  <FRAG_NAME>  (1276) 
ACET   MBZ

>  <FRAG_ATOM_NUM>  (1276) 
fragi: 7  fragj: 15

>  <atom.prop.CHAIN_ID>  (1276) 
A A A A A A A Z Z Z Z Z Z Z Z Z Z Z Z Z Z Z

>  <atom.prop.IS_HEAVY_ATOM>  (1276) 
1 0 0 0 1 1 1 1 0 0 0 1 1 0 1 0 1 0 1 0 1 0

>  <DIFUSE_FUNC_ATOM>  (1276) 
atom 6   atom 7   

>  <FINAL_SINGLE_POINT_ENERGY>  (1276) 
0

>  <NONCOV_INTER_ENERGY_QM>  (1276) 
0

>  <FF_Energy>  (1276) 
8.74

>  <QM_Energy>  (1276) 
0.26

>  <source>  (1276) 
ACET_MBZ_01

>  <Index>  (1276) 
10471

$$$$
ACET-pdb3dls-A-ASP-1131:MBZ-pdb3dls-A-PHE-1091
     RDKit          3D

 22 21  0  0  0  0  0  0  0  0999 V2000
    3.2491    5.1619   -0.9861 C   0  0  0  0  0  0  0  0  0  0  0  0
    2.3098    5.2714   -1.2954 H   0  0  0  0  0  0  0  0  0  0  0  0
    3.8815    5.3352   -1.7327 H   0  0  0  0  0  0  0  0  0  0  0  0
    3.4349    5.9051   -0.2107 H   0  0  0  0  0  0  0  0  0  0  0  0
    3.4405    3.7307   -0.5043 C   0  0  0  0  0  0  0  0  0  0  0  0
    3.7123    3.4987    0.6982 O   0  0  0  0  0  1  0  0  0  0  0  0
    3.3202    2.8269   -1.3528 O   0  0  0  0  0  0  0  0  0  0  0  0
   -0.0002    2.9323    0.0075 C   0  0  0  0  0  0  0  0  0  0  0  0
    0.8776    3.2300    0.3495 H   0  0  0  0  0  0  0  0  0  0  0  0
   -0.7369    3.2255    0.5969 H   0  0  0  0  0  0  0  0  0  0  0  0
   -0.1514    3.3918   -0.9693 H   0  0  0  0  0  0  0  0  0  0  0  0
    0.0017    1.4093   -0.0074 C   0  0  0  0  0  0  0  0  0  0  0  0
   -1.2013    0.6892    0.0038 C   0  0  0  0  0  0  0  0  0  0  0  0
   -2.0668    1.1818    0.0135 H   0  0  0  0  0  0  0  0  0  0  0  0
   -1.2110   -0.7061   -0.0000 C   0  0  0  0  0  0  0  0  0  0  0  0
   -2.0845   -1.1977    0.0001 H   0  0  0  0  0  0  0  0  0  0  0  0
   -0.0030   -1.4029   -0.0019 C   0  0  0  0  0  0  0  0  0  0  0  0
    0.0009   -2.3975   -0.0055 H   0  0  0  0  0  0  0  0  0  0  0  0
    1.2110   -0.6947    0.0000 C   0  0  0  0  0  0  0  0  0  0  0  0
    2.0879   -1.1909   -0.0015 H   0  0  0  0  0  0  0  0  0  0  0  0
    1.2026    0.7052    0.0055 C   0  0  0  0  0  0  0  0  0  0  0  0
    2.0685    1.2003    0.0178 H   0  0  0  0  0  0  0  0  0  0  0  0
  1  5  1  0
  5  6  1  0
  5  7  2  0
  1  2  1  0
  1  3  1  0
  1  4  1  0
  8 12  1  0
 12 13  2  0
 13 15  1  0
 15 17  2  0
 17 19  1  0
 19 21  2  0
 21 12  1  0
  8  9  1  0
  8 10  1  0
  8 11  1  0
 13 14  1  0
 15 16  1  0
 17 18  1  0
 19 20  1  0
 21 22  1  0
M  CHG  1   6  -1
M  END
>  <PDB_ID>  (1277) 
pdb3dls

>  <RESIDUE_NAME>  (1277) 
ASP   PHE

>  <FRAG_NAME>  (1277) 
ACET   MBZ

>  <FRAG_ATOM_NUM>  (1277) 
fragi: 7  fragj: 15

>  <atom.prop.CHAIN_ID>  (1277) 
A A A A A A A Z Z Z Z Z Z Z Z Z Z Z Z Z Z Z

>  <atom.prop.IS_HEAVY_ATOM>  (1277) 
1 0 0 0 1 1 1 1 0 0 0 1 1 0 1 0 1 0 1 0 1 0

>  <DIFUSE_FUNC_ATOM>  (1277) 
atom 6   atom 7   

>  <FINAL_SINGLE_POINT_ENERGY>  (1277) 
0

>  <NONCOV_INTER_ENERGY_QM>  (1277) 
0

>  <FF_Energy>  (1277) 
-2.29

>  <QM_Energy>  (1277) 
-8.72

>  <source>  (1277) 
ACET_MBZ_01

>  <Index>  (1277) 
10535

$$$$
ACET-pdb3dsm-A-GLU-90:MBZ-pdb3dsm-A-PHE-54
     RDKit          3D

 22 21  0  0  0  0  0  0  0  0999 V2000
   -0.2637   -6.4514   -0.5005 C   0  0  0  0  0  0  0  0  0  0  0  0
   -0.6652   -7.3122   -0.2431 H   0  0  0  0  0  0  0  0  0  0  0  0
    0.6330   -6.5640   -0.8908 H   0  0  0  0  0  0  0  0  0  0  0  0
   -0.9061   -5.9865   -1.2483 H   0  0  0  0  0  0  0  0  0  0  0  0
   -0.1138   -5.6194    0.7600 C   0  0  0  0  0  0  0  0  0  0  0  0
   -0.3268   -4.3888    0.7050 O   0  0  0  0  0  1  0  0  0  0  0  0
    0.2341   -6.1973    1.8113 O   0  0  0  0  0  0  0  0  0  0  0  0
    0.0018    2.8980   -0.0059 C   0  0  0  0  0  0  0  0  0  0  0  0
    0.8389    3.2097    0.4205 H   0  0  0  0  0  0  0  0  0  0  0  0
   -0.7926    3.2129    0.4934 H   0  0  0  0  0  0  0  0  0  0  0  0
   -0.0417    3.3433   -0.9998 H   0  0  0  0  0  0  0  0  0  0  0  0
   -0.0007    1.4011   -0.0013 C   0  0  0  0  0  0  0  0  0  0  0  0
   -1.1958    0.6970    0.0002 C   0  0  0  0  0  0  0  0  0  0  0  0
   -2.0631    1.1859   -0.0001 H   0  0  0  0  0  0  0  0  0  0  0  0
   -1.2010   -0.6950   -0.0000 C   0  0  0  0  0  0  0  0  0  0  0  0
   -2.0784   -1.1883    0.0009 H   0  0  0  0  0  0  0  0  0  0  0  0
   -0.0002   -1.3935    0.0005 C   0  0  0  0  0  0  0  0  0  0  0  0
   -0.0070   -2.3925    0.0013 H   0  0  0  0  0  0  0  0  0  0  0  0
    1.2010   -0.7006    0.0000 C   0  0  0  0  0  0  0  0  0  0  0  0
    2.0819   -1.1976    0.0006 H   0  0  0  0  0  0  0  0  0  0  0  0
    1.1968    0.6911    0.0006 C   0  0  0  0  0  0  0  0  0  0  0  0
    2.0644    1.1867    0.0019 H   0  0  0  0  0  0  0  0  0  0  0  0
  1  5  1  0
  5  6  1  0
  5  7  2  0
  1  2  1  0
  1  3  1  0
  1  4  1  0
  8 12  1  0
 12 13  2  0
 13 15  1  0
 15 17  2  0
 17 19  1  0
 19 21  2  0
 21 12  1  0
  8  9  1  0
  8 10  1  0
  8 11  1  0
 13 14  1  0
 15 16  1  0
 17 18  1  0
 19 20  1  0
 21 22  1  0
M  CHG  1   6  -1
M  END
>  <PDB_ID>  (1278) 
pdb3dsm

>  <RESIDUE_NAME>  (1278) 
GLU   PHE

>  <FRAG_NAME>  (1278) 
ACET   MBZ

>  <FRAG_ATOM_NUM>  (1278) 
fragi: 7  fragj: 15

>  <atom.prop.CHAIN_ID>  (1278) 
A A A A A A A Z Z Z Z Z Z Z Z Z Z Z Z Z Z Z

>  <atom.prop.IS_HEAVY_ATOM>  (1278) 
1 0 0 0 1 1 1 1 0 0 0 1 1 0 1 0 1 0 1 0 1 0

>  <DIFUSE_FUNC_ATOM>  (1278) 
atom 6   atom 7   

>  <FINAL_SINGLE_POINT_ENERGY>  (1278) 
0

>  <NONCOV_INTER_ENERGY_QM>  (1278) 
0

>  <FF_Energy>  (1278) 
0.39

>  <QM_Energy>  (1278) 
-5.56

>  <source>  (1278) 
ACET_MBZ_01

>  <Index>  (1278) 
10541

$$$$
ACET-pdb3dwg-B-GLU-103:MBZ-pdb3dwg-B-PHE-122
     RDKit          3D

 22 21  0  0  0  0  0  0  0  0999 V2000
   -1.4318    4.0616    2.5139 C   0  0  0  0  0  0  0  0  0  0  0  0
   -0.8179    3.5082    1.9535 H   0  0  0  0  0  0  0  0  0  0  0  0
   -1.9369    4.6974    1.9324 H   0  0  0  0  0  0  0  0  0  0  0  0
   -2.1528    3.3896    2.9794 H   0  0  0  0  0  0  0  0  0  0  0  0
   -0.5877    4.8731    3.4515 C   0  0  0  0  0  0  0  0  0  0  0  0
   -0.6670    4.8168    4.6678 O   0  0  0  0  0  1  0  0  0  0  0  0
    0.2029    5.6258    2.8423 O   0  0  0  0  0  0  0  0  0  0  0  0
    0.0035    2.8908   -0.0150 C   0  0  0  0  0  0  0  0  0  0  0  0
    0.8547    3.2036    0.3760 H   0  0  0  0  0  0  0  0  0  0  0  0
   -0.7726    3.2043    0.5102 H   0  0  0  0  0  0  0  0  0  0  0  0
   -0.0796    3.3059   -1.0195 H   0  0  0  0  0  0  0  0  0  0  0  0
    0.0052    1.3978    0.0035 C   0  0  0  0  0  0  0  0  0  0  0  0
   -1.1946    0.6954   -0.0033 C   0  0  0  0  0  0  0  0  0  0  0  0
   -2.0589    1.1906   -0.0120 H   0  0  0  0  0  0  0  0  0  0  0  0
   -1.2077   -0.6956   -0.0000 C   0  0  0  0  0  0  0  0  0  0  0  0
   -2.0859   -1.1842   -0.0006 H   0  0  0  0  0  0  0  0  0  0  0  0
   -0.0101   -1.3923    0.0063 C   0  0  0  0  0  0  0  0  0  0  0  0
   -0.0107   -2.3910    0.0148 H   0  0  0  0  0  0  0  0  0  0  0  0
    1.2077   -0.6979    0.0000 C   0  0  0  0  0  0  0  0  0  0  0  0
    2.0792   -1.1996    0.0016 H   0  0  0  0  0  0  0  0  0  0  0  0
    1.1995    0.6926   -0.0065 C   0  0  0  0  0  0  0  0  0  0  0  0
    2.0688    1.1901   -0.0190 H   0  0  0  0  0  0  0  0  0  0  0  0
  1  5  1  0
  5  6  1  0
  5  7  2  0
  1  2  1  0
  1  3  1  0
  1  4  1  0
  8 12  1  0
 12 13  2  0
 13 15  1  0
 15 17  2  0
 17 19  1  0
 19 21  2  0
 21 12  1  0
  8  9  1  0
  8 10  1  0
  8 11  1  0
 13 14  1  0
 15 16  1  0
 17 18  1  0
 19 20  1  0
 21 22  1  0
M  CHG  1   6  -1
M  END
>  <PDB_ID>  (1279) 
pdb3dwg

>  <RESIDUE_NAME>  (1279) 
GLU   PHE

>  <FRAG_NAME>  (1279) 
ACET   MBZ

>  <FRAG_ATOM_NUM>  (1279) 
fragi: 7  fragj: 15

>  <atom.prop.CHAIN_ID>  (1279) 
A A A A A A A Z Z Z Z Z Z Z Z Z Z Z Z Z Z Z

>  <atom.prop.IS_HEAVY_ATOM>  (1279) 
1 0 0 0 1 1 1 1 0 0 0 1 1 0 1 0 1 0 1 0 1 0

>  <DIFUSE_FUNC_ATOM>  (1279) 
atom 6   atom 7   

>  <FINAL_SINGLE_POINT_ENERGY>  (1279) 
0

>  <NONCOV_INTER_ENERGY_QM>  (1279) 
0

>  <FF_Energy>  (1279) 
38.74

>  <QM_Energy>  (1279) 
4.63

>  <source>  (1279) 
ACET_MBZ_01

>  <Index>  (1279) 
10655

$$$$
ACET-pdb3e0c-A-GLU-811:MBZ-pdb3e0c-A-PHE-807
     RDKit          3D

 22 21  0  0  0  0  0  0  0  0999 V2000
    2.1800    3.8637   -3.5038 C   0  0  0  0  0  0  0  0  0  0  0  0
    1.4019    3.2618   -3.6048 H   0  0  0  0  0  0  0  0  0  0  0  0
    2.6431    4.0003   -4.3669 H   0  0  0  0  0  0  0  0  0  0  0  0
    1.8275    4.8292   -3.1410 H   0  0  0  0  0  0  0  0  0  0  0  0
    3.1661    3.1704   -2.5713 C   0  0  0  0  0  0  0  0  0  0  0  0
    3.0758    3.3296   -1.3160 O   0  0  0  0  0  1  0  0  0  0  0  0
    4.0356    2.4386   -3.0996 O   0  0  0  0  0  0  0  0  0  0  0  0
    0.0216    2.8950    0.0699 C   0  0  0  0  0  0  0  0  0  0  0  0
   -0.8569    3.2299   -0.2074 H   0  0  0  0  0  0  0  0  0  0  0  0
    0.7506    3.2301   -0.4935 H   0  0  0  0  0  0  0  0  0  0  0  0
    0.2017    3.2536    1.0833 H   0  0  0  0  0  0  0  0  0  0  0  0
    0.0080    1.3973   -0.0085 C   0  0  0  0  0  0  0  0  0  0  0  0
   -1.1983    0.6899    0.0141 C   0  0  0  0  0  0  0  0  0  0  0  0
   -2.0568    1.1969    0.0395 H   0  0  0  0  0  0  0  0  0  0  0  0
   -1.2068   -0.6777   -0.0000 C   0  0  0  0  0  0  0  0  0  0  0  0
   -2.0907   -1.1751    0.0016 H   0  0  0  0  0  0  0  0  0  0  0  0
   -0.0206   -1.3815   -0.0145 C   0  0  0  0  0  0  0  0  0  0  0  0
   -0.0280   -2.3821   -0.0359 H   0  0  0  0  0  0  0  0  0  0  0  0
    1.2068   -0.7017   -0.0000 C   0  0  0  0  0  0  0  0  0  0  0  0
    2.0703   -1.2203    0.0055 H   0  0  0  0  0  0  0  0  0  0  0  0
    1.2109    0.6736    0.0089 C   0  0  0  0  0  0  0  0  0  0  0  0
    2.0757    1.1763    0.0274 H   0  0  0  0  0  0  0  0  0  0  0  0
  1  5  1  0
  5  6  1  0
  5  7  2  0
  1  2  1  0
  1  3  1  0
  1  4  1  0
  8 12  1  0
 12 13  2  0
 13 15  1  0
 15 17  2  0
 17 19  1  0
 19 21  2  0
 21 12  1  0
  8  9  1  0
  8 10  1  0
  8 11  1  0
 13 14  1  0
 15 16  1  0
 17 18  1  0
 19 20  1  0
 21 22  1  0
M  CHG  1   6  -1
M  END
>  <PDB_ID>  (1280) 
pdb3e0c

>  <RESIDUE_NAME>  (1280) 
GLU   PHE

>  <FRAG_NAME>  (1280) 
ACET   MBZ

>  <FRAG_ATOM_NUM>  (1280) 
fragi: 7  fragj: 15

>  <atom.prop.CHAIN_ID>  (1280) 
A A A A A A A Z Z Z Z Z Z Z Z Z Z Z Z Z Z Z

>  <atom.prop.IS_HEAVY_ATOM>  (1280) 
1 0 0 0 1 1 1 1 0 0 0 1 1 0 1 0 1 0 1 0 1 0

>  <DIFUSE_FUNC_ATOM>  (1280) 
atom 6   atom 7   

>  <FINAL_SINGLE_POINT_ENERGY>  (1280) 
0

>  <NONCOV_INTER_ENERGY_QM>  (1280) 
0

>  <FF_Energy>  (1280) 
-1.88

>  <QM_Energy>  (1280) 
-7.38

>  <source>  (1280) 
ACET_MBZ_01

>  <Index>  (1280) 
10773

$$$$
ACET-pdb3e0m-E-GLU-3:MBZ-pdb3e0m-A-PHE-271
     RDKit          3D

 22 21  0  0  0  0  0  0  0  0999 V2000
    2.6291    2.2813   -2.9392 C   0  0  0  0  0  0  0  0  0  0  0  0
    3.1719    1.5545   -2.5674 H   0  0  0  0  0  0  0  0  0  0  0  0
    2.8348    2.4646   -3.8796 H   0  0  0  0  0  0  0  0  0  0  0  0
    1.5804    1.9927   -2.8691 H   0  0  0  0  0  0  0  0  0  0  0  0
    2.9390    3.5404   -2.1459 C   0  0  0  0  0  0  0  0  0  0  0  0
    3.1148    3.4509   -0.9077 O   0  0  0  0  0  1  0  0  0  0  0  0
    2.9925    4.6230   -2.7675 O   0  0  0  0  0  0  0  0  0  0  0  0
   -0.0045    2.9149   -0.0327 C   0  0  0  0  0  0  0  0  0  0  0  0
   -0.9178    3.2113   -0.2707 H   0  0  0  0  0  0  0  0  0  0  0  0
    0.6547    3.2074   -0.7113 H   0  0  0  0  0  0  0  0  0  0  0  0
    0.2624    3.3803    0.9161 H   0  0  0  0  0  0  0  0  0  0  0  0
    0.0005    1.4094   -0.0017 C   0  0  0  0  0  0  0  0  0  0  0  0
   -1.1931    0.6961    0.0006 C   0  0  0  0  0  0  0  0  0  0  0  0
   -2.0638    1.1830    0.0013 H   0  0  0  0  0  0  0  0  0  0  0  0
   -1.2010   -0.7025    0.0000 C   0  0  0  0  0  0  0  0  0  0  0  0
   -2.0819   -1.1890    0.0007 H   0  0  0  0  0  0  0  0  0  0  0  0
   -0.0060   -1.4002    0.0001 C   0  0  0  0  0  0  0  0  0  0  0  0
   -0.0066   -2.3979   -0.0008 H   0  0  0  0  0  0  0  0  0  0  0  0
    1.2010   -0.7025   -0.0000 C   0  0  0  0  0  0  0  0  0  0  0  0
    2.0806   -1.1974    0.0010 H   0  0  0  0  0  0  0  0  0  0  0  0
    1.1986    0.6998    0.0010 C   0  0  0  0  0  0  0  0  0  0  0  0
    2.0669    1.1896    0.0028 H   0  0  0  0  0  0  0  0  0  0  0  0
  1  5  1  0
  5  6  1  0
  5  7  2  0
  1  2  1  0
  1  3  1  0
  1  4  1  0
  8 12  1  0
 12 13  2  0
 13 15  1  0
 15 17  2  0
 17 19  1  0
 19 21  2  0
 21 12  1  0
  8  9  1  0
  8 10  1  0
  8 11  1  0
 13 14  1  0
 15 16  1  0
 17 18  1  0
 19 20  1  0
 21 22  1  0
M  CHG  1   6  -1
M  END
>  <PDB_ID>  (1281) 
pdb3e0m

>  <RESIDUE_NAME>  (1281) 
GLU   PHE

>  <FRAG_NAME>  (1281) 
ACET   MBZ

>  <FRAG_ATOM_NUM>  (1281) 
fragi: 7  fragj: 15

>  <atom.prop.CHAIN_ID>  (1281) 
A A A A A A A Z Z Z Z Z Z Z Z Z Z Z Z Z Z Z

>  <atom.prop.IS_HEAVY_ATOM>  (1281) 
1 0 0 0 1 1 1 1 0 0 0 1 1 0 1 0 1 0 1 0 1 0

>  <DIFUSE_FUNC_ATOM>  (1281) 
atom 6   atom 7   

>  <FINAL_SINGLE_POINT_ENERGY>  (1281) 
0

>  <NONCOV_INTER_ENERGY_QM>  (1281) 
0

>  <FF_Energy>  (1281) 
-2.27

>  <QM_Energy>  (1281) 
-7.73

>  <source>  (1281) 
ACET_MBZ_01

>  <Index>  (1281) 
10815

$$$$
ACET-pdb3e2v-A-GLU-207:MBZ-pdb3e2v-A-PHE-252
     RDKit          3D

 22 21  0  0  0  0  0  0  0  0999 V2000
    2.5843    1.0799    3.3559 C   0  0  0  0  0  0  0  0  0  0  0  0
    3.1081    0.2744    3.5483 H   0  0  0  0  0  0  0  0  0  0  0  0
    1.7151    0.8808    2.9508 H   0  0  0  0  0  0  0  0  0  0  0  0
    2.4156    1.6121    4.2920 H   0  0  0  0  0  0  0  0  0  0  0  0
    3.3839    1.9076    2.3295 C   0  0  0  0  0  0  0  0  0  0  0  0
    2.9979    3.0721    2.0375 O   0  0  0  0  0  1  0  0  0  0  0  0
    4.4049    1.3885    1.8132 O   0  0  0  0  0  0  0  0  0  0  0  0
    0.0215    2.9204   -0.0354 C   0  0  0  0  0  0  0  0  0  0  0  0
    0.8584    3.2329    0.3687 H   0  0  0  0  0  0  0  0  0  0  0  0
   -0.7729    3.2484    0.4363 H   0  0  0  0  0  0  0  0  0  0  0  0
   -0.0175    3.3010   -1.0560 H   0  0  0  0  0  0  0  0  0  0  0  0
    0.0090    1.4104    0.0150 C   0  0  0  0  0  0  0  0  0  0  0  0
   -1.1929    0.7145   -0.0025 C   0  0  0  0  0  0  0  0  0  0  0  0
   -2.0562    1.1977   -0.0182 H   0  0  0  0  0  0  0  0  0  0  0  0
   -1.1989   -0.6956    0.0000 C   0  0  0  0  0  0  0  0  0  0  0  0
   -2.0845   -1.1757    0.0094 H   0  0  0  0  0  0  0  0  0  0  0  0
   -0.0069   -1.4049   -0.0088 C   0  0  0  0  0  0  0  0  0  0  0  0
   -0.0168   -2.3998   -0.0219 H   0  0  0  0  0  0  0  0  0  0  0  0
    1.1989   -0.7117    0.0000 C   0  0  0  0  0  0  0  0  0  0  0  0
    2.0777   -1.2051    0.0105 H   0  0  0  0  0  0  0  0  0  0  0  0
    1.1908    0.6873   -0.0038 C   0  0  0  0  0  0  0  0  0  0  0  0
    2.0699    1.1760   -0.0216 H   0  0  0  0  0  0  0  0  0  0  0  0
  1  5  1  0
  5  6  1  0
  5  7  2  0
  1  2  1  0
  1  3  1  0
  1  4  1  0
  8 12  1  0
 12 13  2  0
 13 15  1  0
 15 17  2  0
 17 19  1  0
 19 21  2  0
 21 12  1  0
  8  9  1  0
  8 10  1  0
  8 11  1  0
 13 14  1  0
 15 16  1  0
 17 18  1  0
 19 20  1  0
 21 22  1  0
M  CHG  1   6  -1
M  END
>  <PDB_ID>  (1282) 
pdb3e2v

>  <RESIDUE_NAME>  (1282) 
GLU   PHE

>  <FRAG_NAME>  (1282) 
ACET   MBZ

>  <FRAG_ATOM_NUM>  (1282) 
fragi: 7  fragj: 15

>  <atom.prop.CHAIN_ID>  (1282) 
A A A A A A A Z Z Z Z Z Z Z Z Z Z Z Z Z Z Z

>  <atom.prop.IS_HEAVY_ATOM>  (1282) 
1 0 0 0 1 1 1 1 0 0 0 1 1 0 1 0 1 0 1 0 1 0

>  <DIFUSE_FUNC_ATOM>  (1282) 
atom 6   atom 7   

>  <FINAL_SINGLE_POINT_ENERGY>  (1282) 
0

>  <NONCOV_INTER_ENERGY_QM>  (1282) 
0

>  <FF_Energy>  (1282) 
-2.62

>  <QM_Energy>  (1282) 
-7.63

>  <source>  (1282) 
ACET_MBZ_01

>  <Index>  (1282) 
10887

$$$$
ACET-pdb3e2v-B-GLU-207:MBZ-pdb3e2v-B-PHE-252
     RDKit          3D

 22 21  0  0  0  0  0  0  0  0999 V2000
    2.7569    1.0177    3.3353 C   0  0  0  0  0  0  0  0  0  0  0  0
    3.2785    0.2048    3.5179 H   0  0  0  0  0  0  0  0  0  0  0  0
    1.8576    0.8132    2.9941 H   0  0  0  0  0  0  0  0  0  0  0  0
    2.6580    1.5821    4.2625 H   0  0  0  0  0  0  0  0  0  0  0  0
    3.4907    1.7905    2.2405 C   0  0  0  0  0  0  0  0  0  0  0  0
    3.0991    2.9405    1.9536 O   0  0  0  0  0  1  0  0  0  0  0  0
    4.4628    1.2445    1.6709 O   0  0  0  0  0  0  0  0  0  0  0  0
    0.0049    2.8854   -0.0570 C   0  0  0  0  0  0  0  0  0  0  0  0
    0.8637    3.2126    0.2922 H   0  0  0  0  0  0  0  0  0  0  0  0
   -0.7601    3.2224    0.4603 H   0  0  0  0  0  0  0  0  0  0  0  0
   -0.0986    3.2546   -1.0773 H   0  0  0  0  0  0  0  0  0  0  0  0
    0.0033    1.3965    0.0081 C   0  0  0  0  0  0  0  0  0  0  0  0
   -1.2003    0.6916   -0.0017 C   0  0  0  0  0  0  0  0  0  0  0  0
   -2.0621    1.1868   -0.0114 H   0  0  0  0  0  0  0  0  0  0  0  0
   -1.2061   -0.6955   -0.0000 C   0  0  0  0  0  0  0  0  0  0  0  0
   -2.0790   -1.1926    0.0016 H   0  0  0  0  0  0  0  0  0  0  0  0
    0.0020   -1.3917    0.0016 C   0  0  0  0  0  0  0  0  0  0  0  0
   -0.0006   -2.3890    0.0038 H   0  0  0  0  0  0  0  0  0  0  0  0
    1.2061   -0.6911   -0.0000 C   0  0  0  0  0  0  0  0  0  0  0  0
    2.0851   -1.1916    0.0062 H   0  0  0  0  0  0  0  0  0  0  0  0
    1.1949    0.6902   -0.0080 C   0  0  0  0  0  0  0  0  0  0  0  0
    2.0646    1.1920   -0.0269 H   0  0  0  0  0  0  0  0  0  0  0  0
  1  5  1  0
  5  6  1  0
  5  7  2  0
  1  2  1  0
  1  3  1  0
  1  4  1  0
  8 12  1  0
 12 13  2  0
 13 15  1  0
 15 17  2  0
 17 19  1  0
 19 21  2  0
 21 12  1  0
  8  9  1  0
  8 10  1  0
  8 11  1  0
 13 14  1  0
 15 16  1  0
 17 18  1  0
 19 20  1  0
 21 22  1  0
M  CHG  1   6  -1
M  END
>  <PDB_ID>  (1283) 
pdb3e2v

>  <RESIDUE_NAME>  (1283) 
GLU   PHE

>  <FRAG_NAME>  (1283) 
ACET   MBZ

>  <FRAG_ATOM_NUM>  (1283) 
fragi: 7  fragj: 15

>  <atom.prop.CHAIN_ID>  (1283) 
A A A A A A A Z Z Z Z Z Z Z Z Z Z Z Z Z Z Z

>  <atom.prop.IS_HEAVY_ATOM>  (1283) 
1 0 0 0 1 1 1 1 0 0 0 1 1 0 1 0 1 0 1 0 1 0

>  <DIFUSE_FUNC_ATOM>  (1283) 
atom 6   atom 7   

>  <FINAL_SINGLE_POINT_ENERGY>  (1283) 
0

>  <NONCOV_INTER_ENERGY_QM>  (1283) 
0

>  <FF_Energy>  (1283) 
-2.62

>  <QM_Energy>  (1283) 
-7.74

>  <source>  (1283) 
ACET_MBZ_01

>  <Index>  (1283) 
10893

$$$$
ACET-pdb3e48-B-GLU-85:MBZ-pdb3e48-B-PHE-71
     RDKit          3D

 22 21  0  0  0  0  0  0  0  0999 V2000
    0.7734   -4.5804   -0.2527 C   0  0  0  0  0  0  0  0  0  0  0  0
    0.8117   -3.6466   -0.5372 H   0  0  0  0  0  0  0  0  0  0  0  0
   -0.1054   -4.8484    0.0813 H   0  0  0  0  0  0  0  0  0  0  0  0
    1.0678   -5.2282   -1.0784 H   0  0  0  0  0  0  0  0  0  0  0  0
    1.7470   -4.7442    0.8732 C   0  0  0  0  0  0  0  0  0  0  0  0
    2.7549   -4.0035    0.9218 O   0  0  0  0  0  1  0  0  0  0  0  0
    1.5111   -5.6539    1.6838 O   0  0  0  0  0  0  0  0  0  0  0  0
   -0.0089    2.9053    0.0062 C   0  0  0  0  0  0  0  0  0  0  0  0
   -0.7384    3.2111   -0.5902 H   0  0  0  0  0  0  0  0  0  0  0  0
    0.8720    3.2196   -0.3198 H   0  0  0  0  0  0  0  0  0  0  0  0
   -0.1765    3.3478    0.9881 H   0  0  0  0  0  0  0  0  0  0  0  0
    0.0005    1.4053    0.0003 C   0  0  0  0  0  0  0  0  0  0  0  0
   -1.1966    0.6979   -0.0001 C   0  0  0  0  0  0  0  0  0  0  0  0
   -2.0640    1.1891   -0.0022 H   0  0  0  0  0  0  0  0  0  0  0  0
   -1.2061   -0.6962    0.0000 C   0  0  0  0  0  0  0  0  0  0  0  0
   -2.0840   -1.1856    0.0016 H   0  0  0  0  0  0  0  0  0  0  0  0
   -0.0049   -1.4005   -0.0001 C   0  0  0  0  0  0  0  0  0  0  0  0
   -0.0101   -2.3962   -0.0010 H   0  0  0  0  0  0  0  0  0  0  0  0
    1.2061   -0.7034   -0.0000 C   0  0  0  0  0  0  0  0  0  0  0  0
    2.0829   -1.2001    0.0016 H   0  0  0  0  0  0  0  0  0  0  0  0
    1.2010    0.6968    0.0000 C   0  0  0  0  0  0  0  0  0  0  0  0
    2.0675    1.1907   -0.0010 H   0  0  0  0  0  0  0  0  0  0  0  0
  1  5  1  0
  5  6  1  0
  5  7  2  0
  1  2  1  0
  1  3  1  0
  1  4  1  0
  8 12  1  0
 12 13  2  0
 13 15  1  0
 15 17  2  0
 17 19  1  0
 19 21  2  0
 21 12  1  0
  8  9  1  0
  8 10  1  0
  8 11  1  0
 13 14  1  0
 15 16  1  0
 17 18  1  0
 19 20  1  0
 21 22  1  0
M  CHG  1   6  -1
M  END
>  <PDB_ID>  (1284) 
pdb3e48

>  <RESIDUE_NAME>  (1284) 
GLU   PHE

>  <FRAG_NAME>  (1284) 
ACET   MBZ

>  <FRAG_ATOM_NUM>  (1284) 
fragi: 7  fragj: 15

>  <atom.prop.CHAIN_ID>  (1284) 
A A A A A A A Z Z Z Z Z Z Z Z Z Z Z Z Z Z Z

>  <atom.prop.IS_HEAVY_ATOM>  (1284) 
1 0 0 0 1 1 1 1 0 0 0 1 1 0 1 0 1 0 1 0 1 0

>  <DIFUSE_FUNC_ATOM>  (1284) 
atom 6   atom 7   

>  <FINAL_SINGLE_POINT_ENERGY>  (1284) 
0

>  <NONCOV_INTER_ENERGY_QM>  (1284) 
0

>  <FF_Energy>  (1284) 
16.49

>  <QM_Energy>  (1284) 
-0.22

>  <source>  (1284) 
ACET_MBZ_01

>  <Index>  (1284) 
10942

$$$$
ACET-pdb3e4z-A-ASP-564:MBZ-pdb3e4z-A-PHE-567
     RDKit          3D

 22 21  0  0  0  0  0  0  0  0999 V2000
   -5.1417    3.3666    2.0770 C   0  0  0  0  0  0  0  0  0  0  0  0
   -5.5311    2.9787    1.2477 H   0  0  0  0  0  0  0  0  0  0  0  0
   -5.3572    4.3355    2.1392 H   0  0  0  0  0  0  0  0  0  0  0  0
   -5.5940    2.8631    2.9314 H   0  0  0  0  0  0  0  0  0  0  0  0
   -3.6322    3.2068    2.0245 C   0  0  0  0  0  0  0  0  0  0  0  0
   -3.0983    2.1224    2.3573 O   0  0  0  0  0  1  0  0  0  0  0  0
   -2.9836    4.1949    1.6522 O   0  0  0  0  0  0  0  0  0  0  0  0
    0.0036    2.9228    0.0664 C   0  0  0  0  0  0  0  0  0  0  0  0
   -0.9210    3.2356   -0.0250 H   0  0  0  0  0  0  0  0  0  0  0  0
    0.5917    3.2614   -0.6408 H   0  0  0  0  0  0  0  0  0  0  0  0
    0.3854    3.2903    1.0190 H   0  0  0  0  0  0  0  0  0  0  0  0
   -0.0004    1.4130   -0.0062 C   0  0  0  0  0  0  0  0  0  0  0  0
   -1.2039    0.7002    0.0210 C   0  0  0  0  0  0  0  0  0  0  0  0
   -2.0683    1.1912    0.0545 H   0  0  0  0  0  0  0  0  0  0  0  0
   -1.2145   -0.6999   -0.0000 C   0  0  0  0  0  0  0  0  0  0  0  0
   -2.0941   -1.1858   -0.0004 H   0  0  0  0  0  0  0  0  0  0  0  0
   -0.0148   -1.4082   -0.0179 C   0  0  0  0  0  0  0  0  0  0  0  0
   -0.0114   -2.3988   -0.0434 H   0  0  0  0  0  0  0  0  0  0  0  0
    1.2145   -0.6997    0.0000 C   0  0  0  0  0  0  0  0  0  0  0  0
    2.0834   -1.2107    0.0120 H   0  0  0  0  0  0  0  0  0  0  0  0
    1.2191    0.6946    0.0031 C   0  0  0  0  0  0  0  0  0  0  0  0
    2.0760    1.1937    0.0106 H   0  0  0  0  0  0  0  0  0  0  0  0
  1  5  1  0
  5  6  1  0
  5  7  2  0
  1  2  1  0
  1  3  1  0
  1  4  1  0
  8 12  1  0
 12 13  2  0
 13 15  1  0
 15 17  2  0
 17 19  1  0
 19 21  2  0
 21 12  1  0
  8  9  1  0
  8 10  1  0
  8 11  1  0
 13 14  1  0
 15 16  1  0
 17 18  1  0
 19 20  1  0
 21 22  1  0
M  CHG  1   6  -1
M  END
>  <PDB_ID>  (1285) 
pdb3e4z

>  <RESIDUE_NAME>  (1285) 
ASP   PHE

>  <FRAG_NAME>  (1285) 
ACET   MBZ

>  <FRAG_ATOM_NUM>  (1285) 
fragi: 7  fragj: 15

>  <atom.prop.CHAIN_ID>  (1285) 
A A A A A A A Z Z Z Z Z Z Z Z Z Z Z Z Z Z Z

>  <atom.prop.IS_HEAVY_ATOM>  (1285) 
1 0 0 0 1 1 1 1 0 0 0 1 1 0 1 0 1 0 1 0 1 0

>  <DIFUSE_FUNC_ATOM>  (1285) 
atom 6   atom 7   

>  <FINAL_SINGLE_POINT_ENERGY>  (1285) 
0

>  <NONCOV_INTER_ENERGY_QM>  (1285) 
0

>  <FF_Energy>  (1285) 
-1.39

>  <QM_Energy>  (1285) 
-6.46

>  <source>  (1285) 
ACET_MBZ_01

>  <Index>  (1285) 
10998

$$$$
ACET-pdb3e5r-B-GLU-99:MBZ-pdb3e5r-B-PHE-104
     RDKit          3D

 22 21  0  0  0  0  0  0  0  0999 V2000
    2.9601    5.4723    0.4734 C   0  0  0  0  0  0  0  0  0  0  0  0
    2.1323    5.4612    1.0029 H   0  0  0  0  0  0  0  0  0  0  0  0
    2.8235    5.8482   -0.4239 H   0  0  0  0  0  0  0  0  0  0  0  0
    3.6938    6.0857    0.9962 H   0  0  0  0  0  0  0  0  0  0  0  0
    3.4164    4.0406    0.3057 C   0  0  0  0  0  0  0  0  0  0  0  0
    3.6457    3.3616    1.3279 O   0  0  0  0  0  1  0  0  0  0  0  0
    3.5492    3.6001   -0.8586 O   0  0  0  0  0  0  0  0  0  0  0  0
   -0.0097    2.9008   -0.0691 C   0  0  0  0  0  0  0  0  0  0  0  0
    0.9218    3.2119   -0.1627 H   0  0  0  0  0  0  0  0  0  0  0  0
   -0.4286    3.2446    0.7557 H   0  0  0  0  0  0  0  0  0  0  0  0
   -0.5759    3.2902   -0.9152 H   0  0  0  0  0  0  0  0  0  0  0  0
    0.0006    1.4044   -0.0017 C   0  0  0  0  0  0  0  0  0  0  0  0
   -1.1954    0.6959    0.0013 C   0  0  0  0  0  0  0  0  0  0  0  0
   -2.0628    1.1860    0.0033 H   0  0  0  0  0  0  0  0  0  0  0  0
   -1.2041   -0.6978   -0.0000 C   0  0  0  0  0  0  0  0  0  0  0  0
   -2.0820   -1.1874    0.0017 H   0  0  0  0  0  0  0  0  0  0  0  0
   -0.0050   -1.3981   -0.0017 C   0  0  0  0  0  0  0  0  0  0  0  0
   -0.0084   -2.3954   -0.0041 H   0  0  0  0  0  0  0  0  0  0  0  0
    1.2041   -0.7012   -0.0000 C   0  0  0  0  0  0  0  0  0  0  0  0
    2.0815   -1.1986    0.0015 H   0  0  0  0  0  0  0  0  0  0  0  0
    1.1998    0.6966    0.0021 C   0  0  0  0  0  0  0  0  0  0  0  0
    2.0666    1.1905    0.0058 H   0  0  0  0  0  0  0  0  0  0  0  0
  1  5  1  0
  5  6  1  0
  5  7  2  0
  1  2  1  0
  1  3  1  0
  1  4  1  0
  8 12  1  0
 12 13  2  0
 13 15  1  0
 15 17  2  0
 17 19  1  0
 19 21  2  0
 21 12  1  0
  8  9  1  0
  8 10  1  0
  8 11  1  0
 13 14  1  0
 15 16  1  0
 17 18  1  0
 19 20  1  0
 21 22  1  0
M  CHG  1   6  -1
M  END
>  <PDB_ID>  (1286) 
pdb3e5r

>  <RESIDUE_NAME>  (1286) 
GLU   PHE

>  <FRAG_NAME>  (1286) 
ACET   MBZ

>  <FRAG_ATOM_NUM>  (1286) 
fragi: 7  fragj: 15

>  <atom.prop.CHAIN_ID>  (1286) 
A A A A A A A Z Z Z Z Z Z Z Z Z Z Z Z Z Z Z

>  <atom.prop.IS_HEAVY_ATOM>  (1286) 
1 0 0 0 1 1 1 1 0 0 0 1 1 0 1 0 1 0 1 0 1 0

>  <DIFUSE_FUNC_ATOM>  (1286) 
atom 6   atom 7   

>  <FINAL_SINGLE_POINT_ENERGY>  (1286) 
0

>  <NONCOV_INTER_ENERGY_QM>  (1286) 
0

>  <FF_Energy>  (1286) 
-2.43

>  <QM_Energy>  (1286) 
-7.79

>  <source>  (1286) 
ACET_MBZ_01

>  <Index>  (1286) 
11057

$$$$
ACET-pdb3e5r-C-GLU-174:MBZ-pdb3e5r-O-PHE-309
     RDKit          3D

 22 21  0  0  0  0  0  0  0  0999 V2000
    2.3280    0.1024   -3.0822 C   0  0  0  0  0  0  0  0  0  0  0  0
    2.0876   -0.3131   -3.9370 H   0  0  0  0  0  0  0  0  0  0  0  0
    1.9894   -0.3981   -2.3096 H   0  0  0  0  0  0  0  0  0  0  0  0
    3.4146    0.1576   -3.0150 H   0  0  0  0  0  0  0  0  0  0  0  0
    1.6787    1.4804   -3.0491 C   0  0  0  0  0  0  0  0  0  0  0  0
    2.2319    2.3847   -2.3840 O   0  0  0  0  0  1  0  0  0  0  0  0
    0.6115    1.6572   -3.6791 O   0  0  0  0  0  0  0  0  0  0  0  0
    0.0164    2.9121   -0.0524 C   0  0  0  0  0  0  0  0  0  0  0  0
   -0.1212    3.1879   -0.9941 H   0  0  0  0  0  0  0  0  0  0  0  0
    0.8966    3.2200    0.2825 H   0  0  0  0  0  0  0  0  0  0  0  0
   -0.7528    3.3966    0.5490 H   0  0  0  0  0  0  0  0  0  0  0  0
   -0.0011    1.4070   -0.0006 C   0  0  0  0  0  0  0  0  0  0  0  0
   -1.2010    0.7003   -0.0002 C   0  0  0  0  0  0  0  0  0  0  0  0
   -2.0666    1.1865   -0.0012 H   0  0  0  0  0  0  0  0  0  0  0  0
   -1.2042   -0.6986    0.0000 C   0  0  0  0  0  0  0  0  0  0  0  0
   -2.0783   -1.1915    0.0013 H   0  0  0  0  0  0  0  0  0  0  0  0
    0.0045   -1.3983   -0.0000 C   0  0  0  0  0  0  0  0  0  0  0  0
   -0.0048   -2.3967   -0.0002 H   0  0  0  0  0  0  0  0  0  0  0  0
    1.2042   -0.7039   -0.0000 C   0  0  0  0  0  0  0  0  0  0  0  0
    2.0860   -1.1970    0.0006 H   0  0  0  0  0  0  0  0  0  0  0  0
    1.1976    0.6934    0.0008 C   0  0  0  0  0  0  0  0  0  0  0  0
    2.0665    1.1890    0.0016 H   0  0  0  0  0  0  0  0  0  0  0  0
  1  5  1  0
  5  6  1  0
  5  7  2  0
  1  2  1  0
  1  3  1  0
  1  4  1  0
  8 12  1  0
 12 13  2  0
 13 15  1  0
 15 17  2  0
 17 19  1  0
 19 21  2  0
 21 12  1  0
  8  9  1  0
  8 10  1  0
  8 11  1  0
 13 14  1  0
 15 16  1  0
 17 18  1  0
 19 20  1  0
 21 22  1  0
M  CHG  1   6  -1
M  END
>  <PDB_ID>  (1287) 
pdb3e5r

>  <RESIDUE_NAME>  (1287) 
GLU   PHE

>  <FRAG_NAME>  (1287) 
ACET   MBZ

>  <FRAG_ATOM_NUM>  (1287) 
fragi: 7  fragj: 15

>  <atom.prop.CHAIN_ID>  (1287) 
A A A A A A A Z Z Z Z Z Z Z Z Z Z Z Z Z Z Z

>  <atom.prop.IS_HEAVY_ATOM>  (1287) 
1 0 0 0 1 1 1 1 0 0 0 1 1 0 1 0 1 0 1 0 1 0

>  <DIFUSE_FUNC_ATOM>  (1287) 
atom 6   atom 7   

>  <FINAL_SINGLE_POINT_ENERGY>  (1287) 
0

>  <NONCOV_INTER_ENERGY_QM>  (1287) 
0

>  <FF_Energy>  (1287) 
2.95

>  <QM_Energy>  (1287) 
-5.17

>  <source>  (1287) 
ACET_MBZ_01

>  <Index>  (1287) 
11092

$$$$
ACET-pdb3e6i-A-ASP-193:MBZ-pdb3e6i-A-PHE-189
     RDKit          3D

 22 21  0  0  0  0  0  0  0  0999 V2000
   -5.0096    3.7200    0.3784 C   0  0  0  0  0  0  0  0  0  0  0  0
   -5.2222    4.1416   -0.4987 H   0  0  0  0  0  0  0  0  0  0  0  0
   -4.0914    3.9746    0.6657 H   0  0  0  0  0  0  0  0  0  0  0  0
   -5.7082    4.1190    1.1138 H   0  0  0  0  0  0  0  0  0  0  0  0
   -5.0792    2.2148    0.2303 C   0  0  0  0  0  0  0  0  0  0  0  0
   -6.1908    1.6422    0.1841 O   0  0  0  0  0  1  0  0  0  0  0  0
   -4.0044    1.5932    0.1475 O   0  0  0  0  0  0  0  0  0  0  0  0
   -0.0088    2.9060    0.0129 C   0  0  0  0  0  0  0  0  0  0  0  0
    0.7888    3.2043    0.5237 H   0  0  0  0  0  0  0  0  0  0  0  0
   -0.8435    3.1965    0.4642 H   0  0  0  0  0  0  0  0  0  0  0  0
    0.0242    3.3849   -0.9658 H   0  0  0  0  0  0  0  0  0  0  0  0
   -0.0007    1.3966   -0.0151 C   0  0  0  0  0  0  0  0  0  0  0  0
   -1.1923    0.6873    0.0024 C   0  0  0  0  0  0  0  0  0  0  0  0
   -2.0605    1.1834    0.0158 H   0  0  0  0  0  0  0  0  0  0  0  0
   -1.2006   -0.6921    0.0000 C   0  0  0  0  0  0  0  0  0  0  0  0
   -2.0785   -1.1877   -0.0056 H   0  0  0  0  0  0  0  0  0  0  0  0
   -0.0038   -1.3881    0.0076 C   0  0  0  0  0  0  0  0  0  0  0  0
   -0.0074   -2.3883    0.0181 H   0  0  0  0  0  0  0  0  0  0  0  0
    1.2006   -0.6957    0.0000 C   0  0  0  0  0  0  0  0  0  0  0  0
    2.0787   -1.1964   -0.0081 H   0  0  0  0  0  0  0  0  0  0  0  0
    1.1968    0.6920    0.0051 C   0  0  0  0  0  0  0  0  0  0  0  0
    2.0631    1.1901    0.0229 H   0  0  0  0  0  0  0  0  0  0  0  0
  1  5  1  0
  5  6  1  0
  5  7  2  0
  1  2  1  0
  1  3  1  0
  1  4  1  0
  8 12  1  0
 12 13  2  0
 13 15  1  0
 15 17  2  0
 17 19  1  0
 19 21  2  0
 21 12  1  0
  8  9  1  0
  8 10  1  0
  8 11  1  0
 13 14  1  0
 15 16  1  0
 17 18  1  0
 19 20  1  0
 21 22  1  0
M  CHG  1   6  -1
M  END
>  <PDB_ID>  (1288) 
pdb3e6i

>  <RESIDUE_NAME>  (1288) 
ASP   PHE

>  <FRAG_NAME>  (1288) 
ACET   MBZ

>  <FRAG_ATOM_NUM>  (1288) 
fragi: 7  fragj: 15

>  <atom.prop.CHAIN_ID>  (1288) 
A A A A A A A Z Z Z Z Z Z Z Z Z Z Z Z Z Z Z

>  <atom.prop.IS_HEAVY_ATOM>  (1288) 
1 0 0 0 1 1 1 1 0 0 0 1 1 0 1 0 1 0 1 0 1 0

>  <DIFUSE_FUNC_ATOM>  (1288) 
atom 6   atom 7   

>  <FINAL_SINGLE_POINT_ENERGY>  (1288) 
0

>  <NONCOV_INTER_ENERGY_QM>  (1288) 
0

>  <FF_Energy>  (1288) 
5.66

>  <QM_Energy>  (1288) 
-6.82

>  <source>  (1288) 
ACET_MBZ_01

>  <Index>  (1288) 
11183

$$$$
ACET-pdb3e7p-A-GLU-151:MBZ-pdb3e7p-A-PHE-130
     RDKit          3D

 22 21  0  0  0  0  0  0  0  0999 V2000
   -2.7959    0.9550   -3.4484 C   0  0  0  0  0  0  0  0  0  0  0  0
   -2.0289    0.5939   -2.9556 H   0  0  0  0  0  0  0  0  0  0  0  0
   -2.6924    0.8725   -4.4205 H   0  0  0  0  0  0  0  0  0  0  0  0
   -3.6818    0.3930   -3.1525 H   0  0  0  0  0  0  0  0  0  0  0  0
   -2.9036    2.4337   -3.1190 C   0  0  0  0  0  0  0  0  0  0  0  0
   -4.0221    2.9966   -3.1811 O   0  0  0  0  0  1  0  0  0  0  0  0
   -1.8545    3.0491   -2.8292 O   0  0  0  0  0  0  0  0  0  0  0  0
   -0.0018    2.9187   -0.0793 C   0  0  0  0  0  0  0  0  0  0  0  0
   -0.6176    3.1855   -0.8062 H   0  0  0  0  0  0  0  0  0  0  0  0
    0.9249    3.2095   -0.2689 H   0  0  0  0  0  0  0  0  0  0  0  0
   -0.3278    3.4149    0.8348 H   0  0  0  0  0  0  0  0  0  0  0  0
   -0.0028    1.4001   -0.0094 C   0  0  0  0  0  0  0  0  0  0  0  0
   -1.1963    0.6857   -0.0117 C   0  0  0  0  0  0  0  0  0  0  0  0
   -2.0641    1.1744   -0.0237 H   0  0  0  0  0  0  0  0  0  0  0  0
   -1.1922   -0.6975    0.0000 C   0  0  0  0  0  0  0  0  0  0  0  0
   -2.0641   -1.2015   -0.0101 H   0  0  0  0  0  0  0  0  0  0  0  0
    0.0156   -1.3862    0.0272 C   0  0  0  0  0  0  0  0  0  0  0  0
    0.0069   -2.3874    0.0663 H   0  0  0  0  0  0  0  0  0  0  0  0
    1.1922   -0.6941   -0.0000 C   0  0  0  0  0  0  0  0  0  0  0  0
    2.0851   -1.1834   -0.0145 H   0  0  0  0  0  0  0  0  0  0  0  0
    1.1835    0.6921   -0.0061 C   0  0  0  0  0  0  0  0  0  0  0  0
    2.0574    1.1889   -0.0088 H   0  0  0  0  0  0  0  0  0  0  0  0
  1  5  1  0
  5  6  1  0
  5  7  2  0
  1  2  1  0
  1  3  1  0
  1  4  1  0
  8 12  1  0
 12 13  2  0
 13 15  1  0
 15 17  2  0
 17 19  1  0
 19 21  2  0
 21 12  1  0
  8  9  1  0
  8 10  1  0
  8 11  1  0
 13 14  1  0
 15 16  1  0
 17 18  1  0
 19 20  1  0
 21 22  1  0
M  CHG  1   6  -1
M  END
>  <PDB_ID>  (1289) 
pdb3e7p

>  <RESIDUE_NAME>  (1289) 
GLU   PHE

>  <FRAG_NAME>  (1289) 
ACET   MBZ

>  <FRAG_ATOM_NUM>  (1289) 
fragi: 7  fragj: 15

>  <atom.prop.CHAIN_ID>  (1289) 
A A A A A A A Z Z Z Z Z Z Z Z Z Z Z Z Z Z Z

>  <atom.prop.IS_HEAVY_ATOM>  (1289) 
1 0 0 0 1 1 1 1 0 0 0 1 1 0 1 0 1 0 1 0 1 0

>  <DIFUSE_FUNC_ATOM>  (1289) 
atom 6   atom 7   

>  <FINAL_SINGLE_POINT_ENERGY>  (1289) 
0

>  <NONCOV_INTER_ENERGY_QM>  (1289) 
0

>  <FF_Energy>  (1289) 
-0.81

>  <QM_Energy>  (1289) 
-6.21

>  <source>  (1289) 
ACET_MBZ_01

>  <Index>  (1289) 
11196

$$$$
ACET-pdb3eaq-A-GLU-215:MBZ-pdb3eaq-A-PHE-361
     RDKit          3D

 22 21  0  0  0  0  0  0  0  0999 V2000
    5.2457    0.5183   -1.2960 C   0  0  0  0  0  0  0  0  0  0  0  0
    5.9609    0.0427   -1.7642 H   0  0  0  0  0  0  0  0  0  0  0  0
    5.5733    1.2578   -0.7459 H   0  0  0  0  0  0  0  0  0  0  0  0
    4.5540    0.9175   -2.0378 H   0  0  0  0  0  0  0  0  0  0  0  0
    4.5591   -0.4646   -0.3830 C   0  0  0  0  0  0  0  0  0  0  0  0
    3.8386   -0.0138    0.5465 O   0  0  0  0  0  1  0  0  0  0  0  0
    4.6498   -1.6767   -0.6771 O   0  0  0  0  0  0  0  0  0  0  0  0
   -0.0157    2.9042   -0.0331 C   0  0  0  0  0  0  0  0  0  0  0  0
   -0.9508    3.2146    0.0709 H   0  0  0  0  0  0  0  0  0  0  0  0
    0.3598    3.1891   -0.9045 H   0  0  0  0  0  0  0  0  0  0  0  0
    0.5712    3.3963    0.7426 H   0  0  0  0  0  0  0  0  0  0  0  0
   -0.0031    1.4047    0.0227 C   0  0  0  0  0  0  0  0  0  0  0  0
   -1.1942    0.6984   -0.0209 C   0  0  0  0  0  0  0  0  0  0  0  0
   -2.0618    1.1877   -0.0693 H   0  0  0  0  0  0  0  0  0  0  0  0
   -1.1997   -0.6891    0.0000 C   0  0  0  0  0  0  0  0  0  0  0  0
   -2.0772   -1.1848    0.0094 H   0  0  0  0  0  0  0  0  0  0  0  0
    0.0030   -1.3944    0.0096 C   0  0  0  0  0  0  0  0  0  0  0  0
   -0.0135   -2.3937    0.0231 H   0  0  0  0  0  0  0  0  0  0  0  0
    1.1997   -0.7096   -0.0000 C   0  0  0  0  0  0  0  0  0  0  0  0
    2.0823   -1.2003    0.0029 H   0  0  0  0  0  0  0  0  0  0  0  0
    1.1944    0.6901   -0.0115 C   0  0  0  0  0  0  0  0  0  0  0  0
    2.0633    1.1828   -0.0451 H   0  0  0  0  0  0  0  0  0  0  0  0
  1  5  1  0
  5  6  1  0
  5  7  2  0
  1  2  1  0
  1  3  1  0
  1  4  1  0
  8 12  1  0
 12 13  2  0
 13 15  1  0
 15 17  2  0
 17 19  1  0
 19 21  2  0
 21 12  1  0
  8  9  1  0
  8 10  1  0
  8 11  1  0
 13 14  1  0
 15 16  1  0
 17 18  1  0
 19 20  1  0
 21 22  1  0
M  CHG  1   6  -1
M  END
>  <PDB_ID>  (1290) 
pdb3eaq

>  <RESIDUE_NAME>  (1290) 
GLU   PHE

>  <FRAG_NAME>  (1290) 
ACET   MBZ

>  <FRAG_ATOM_NUM>  (1290) 
fragi: 7  fragj: 15

>  <atom.prop.CHAIN_ID>  (1290) 
A A A A A A A Z Z Z Z Z Z Z Z Z Z Z Z Z Z Z

>  <atom.prop.IS_HEAVY_ATOM>  (1290) 
1 0 0 0 1 1 1 1 0 0 0 1 1 0 1 0 1 0 1 0 1 0

>  <DIFUSE_FUNC_ATOM>  (1290) 
atom 6   atom 7   

>  <FINAL_SINGLE_POINT_ENERGY>  (1290) 
0

>  <NONCOV_INTER_ENERGY_QM>  (1290) 
0

>  <FF_Energy>  (1290) 
4.54

>  <QM_Energy>  (1290) 
-5.5

>  <source>  (1290) 
ACET_MBZ_01

>  <Index>  (1290) 
11301

$$$$
ACET-pdb3eb7-A-GLU-128:MBZ-pdb3eb7-C-PHE-415
     RDKit          3D

 22 21  0  0  0  0  0  0  0  0999 V2000
    5.1743    4.4604   -1.2836 C   0  0  0  0  0  0  0  0  0  0  0  0
    5.7858    4.6145   -0.5329 H   0  0  0  0  0  0  0  0  0  0  0  0
    4.7230    5.2787   -1.5781 H   0  0  0  0  0  0  0  0  0  0  0  0
    5.7623    4.0831   -2.1203 H   0  0  0  0  0  0  0  0  0  0  0  0
    4.0825    3.4801   -0.7966 C   0  0  0  0  0  0  0  0  0  0  0  0
    3.1423    3.9224   -0.1017 O   0  0  0  0  0  1  0  0  0  0  0  0
    4.1605    2.2702   -1.1000 O   0  0  0  0  0  0  0  0  0  0  0  0
   -0.0127    2.9183   -0.0090 C   0  0  0  0  0  0  0  0  0  0  0  0
   -0.8796    3.2101   -0.3877 H   0  0  0  0  0  0  0  0  0  0  0  0
    0.7422    3.2232   -0.5727 H   0  0  0  0  0  0  0  0  0  0  0  0
    0.0959    3.3766    0.9740 H   0  0  0  0  0  0  0  0  0  0  0  0
    0.0002    1.4065    0.0006 C   0  0  0  0  0  0  0  0  0  0  0  0
   -1.1871    0.6911   -0.0077 C   0  0  0  0  0  0  0  0  0  0  0  0
   -2.0603    1.1809   -0.0210 H   0  0  0  0  0  0  0  0  0  0  0  0
   -1.1975   -0.6996   -0.0000 C   0  0  0  0  0  0  0  0  0  0  0  0
   -2.0803   -1.1865    0.0025 H   0  0  0  0  0  0  0  0  0  0  0  0
   -0.0072   -1.3969    0.0063 C   0  0  0  0  0  0  0  0  0  0  0  0
   -0.0125   -2.3973    0.0150 H   0  0  0  0  0  0  0  0  0  0  0  0
    1.1975   -0.7080    0.0000 C   0  0  0  0  0  0  0  0  0  0  0  0
    2.0780   -1.1955   -0.0035 H   0  0  0  0  0  0  0  0  0  0  0  0
    1.1941    0.7068    0.0007 C   0  0  0  0  0  0  0  0  0  0  0  0
    2.0639    1.1898    0.0001 H   0  0  0  0  0  0  0  0  0  0  0  0
  1  5  1  0
  5  6  1  0
  5  7  2  0
  1  2  1  0
  1  3  1  0
  1  4  1  0
  8 12  1  0
 12 13  2  0
 13 15  1  0
 15 17  2  0
 17 19  1  0
 19 21  2  0
 21 12  1  0
  8  9  1  0
  8 10  1  0
  8 11  1  0
 13 14  1  0
 15 16  1  0
 17 18  1  0
 19 20  1  0
 21 22  1  0
M  CHG  1   6  -1
M  END
>  <PDB_ID>  (1291) 
pdb3eb7

>  <RESIDUE_NAME>  (1291) 
GLU   PHE

>  <FRAG_NAME>  (1291) 
ACET   MBZ

>  <FRAG_ATOM_NUM>  (1291) 
fragi: 7  fragj: 15

>  <atom.prop.CHAIN_ID>  (1291) 
A A A A A A A Z Z Z Z Z Z Z Z Z Z Z Z Z Z Z

>  <atom.prop.IS_HEAVY_ATOM>  (1291) 
1 0 0 0 1 1 1 1 0 0 0 1 1 0 1 0 1 0 1 0 1 0

>  <DIFUSE_FUNC_ATOM>  (1291) 
atom 6   atom 7   

>  <FINAL_SINGLE_POINT_ENERGY>  (1291) 
0

>  <NONCOV_INTER_ENERGY_QM>  (1291) 
0

>  <FF_Energy>  (1291) 
-2.7

>  <QM_Energy>  (1291) 
-9.0

>  <source>  (1291) 
ACET_MBZ_01

>  <Index>  (1291) 
11343

$$$$
ACET-pdb3ebj-A-GLU-43:MBZ-pdb3ebj-A-PHE-9
     RDKit          3D

 22 21  0  0  0  0  0  0  0  0999 V2000
    5.8572    0.6928    0.7469 C   0  0  0  0  0  0  0  0  0  0  0  0
    6.6817    0.2927    1.1206 H   0  0  0  0  0  0  0  0  0  0  0  0
    5.9917    1.6488    0.5283 H   0  0  0  0  0  0  0  0  0  0  0  0
    5.6164    0.1655   -0.1761 H   0  0  0  0  0  0  0  0  0  0  0  0
    4.7863    0.6092    1.8019 C   0  0  0  0  0  0  0  0  0  0  0  0
    3.6055    0.8247    1.4761 O   0  0  0  0  0  1  0  0  0  0  0  0
    5.1361    0.3469    2.9748 O   0  0  0  0  0  0  0  0  0  0  0  0
    0.0075    2.8927    0.0405 C   0  0  0  0  0  0  0  0  0  0  0  0
   -0.7667    3.2248   -0.4797 H   0  0  0  0  0  0  0  0  0  0  0  0
    0.8609    3.2136   -0.3464 H   0  0  0  0  0  0  0  0  0  0  0  0
   -0.0719    3.3013    1.0479 H   0  0  0  0  0  0  0  0  0  0  0  0
    0.0017    1.4033   -0.0080 C   0  0  0  0  0  0  0  0  0  0  0  0
   -1.1978    0.6992    0.0001 C   0  0  0  0  0  0  0  0  0  0  0  0
   -2.0632    1.1882    0.0048 H   0  0  0  0  0  0  0  0  0  0  0  0
   -1.2040   -0.6972    0.0000 C   0  0  0  0  0  0  0  0  0  0  0  0
   -2.0805   -1.1879   -0.0056 H   0  0  0  0  0  0  0  0  0  0  0  0
   -0.0014   -1.3985    0.0092 C   0  0  0  0  0  0  0  0  0  0  0  0
   -0.0077   -2.3961    0.0216 H   0  0  0  0  0  0  0  0  0  0  0  0
    1.2040   -0.7027   -0.0000 C   0  0  0  0  0  0  0  0  0  0  0  0
    2.0832   -1.1974   -0.0041 H   0  0  0  0  0  0  0  0  0  0  0  0
    1.1975    0.6959   -0.0013 C   0  0  0  0  0  0  0  0  0  0  0  0
    2.0665    1.1893    0.0015 H   0  0  0  0  0  0  0  0  0  0  0  0
  1  5  1  0
  5  6  1  0
  5  7  2  0
  1  2  1  0
  1  3  1  0
  1  4  1  0
  8 12  1  0
 12 13  2  0
 13 15  1  0
 15 17  2  0
 17 19  1  0
 19 21  2  0
 21 12  1  0
  8  9  1  0
  8 10  1  0
  8 11  1  0
 13 14  1  0
 15 16  1  0
 17 18  1  0
 19 20  1  0
 21 22  1  0
M  CHG  1   6  -1
M  END
>  <PDB_ID>  (1292) 
pdb3ebj

>  <RESIDUE_NAME>  (1292) 
GLU   PHE

>  <FRAG_NAME>  (1292) 
ACET   MBZ

>  <FRAG_ATOM_NUM>  (1292) 
fragi: 7  fragj: 15

>  <atom.prop.CHAIN_ID>  (1292) 
A A A A A A A Z Z Z Z Z Z Z Z Z Z Z Z Z Z Z

>  <atom.prop.IS_HEAVY_ATOM>  (1292) 
1 0 0 0 1 1 1 1 0 0 0 1 1 0 1 0 1 0 1 0 1 0

>  <DIFUSE_FUNC_ATOM>  (1292) 
atom 6   atom 7   

>  <FINAL_SINGLE_POINT_ENERGY>  (1292) 
0

>  <NONCOV_INTER_ENERGY_QM>  (1292) 
0

>  <FF_Energy>  (1292) 
2.56

>  <QM_Energy>  (1292) 
-4.49

>  <source>  (1292) 
ACET_MBZ_01

>  <Index>  (1292) 
11360

$$$$
ACET-pdb3ebj-C-GLU-181:MBZ-pdb3ebj-C-PHE-4
     RDKit          3D

 22 21  0  0  0  0  0  0  0  0999 V2000
   -3.6005   -2.5189    0.4739 C   0  0  0  0  0  0  0  0  0  0  0  0
   -3.1495   -2.4146    1.3457 H   0  0  0  0  0  0  0  0  0  0  0  0
   -3.5288   -1.6986   -0.0717 H   0  0  0  0  0  0  0  0  0  0  0  0
   -3.1181   -3.3339   -0.0656 H   0  0  0  0  0  0  0  0  0  0  0  0
   -5.0843   -2.7464    0.7557 C   0  0  0  0  0  0  0  0  0  0  0  0
   -5.7377   -1.8008    1.2592 O   0  0  0  0  0  1  0  0  0  0  0  0
   -5.5887   -3.8607    0.4809 O   0  0  0  0  0  0  0  0  0  0  0  0
    0.0069    2.9031    0.1117 C   0  0  0  0  0  0  0  0  0  0  0  0
   -0.7756    3.2500   -0.3782 H   0  0  0  0  0  0  0  0  0  0  0  0
    0.8534    3.2343   -0.2697 H   0  0  0  0  0  0  0  0  0  0  0  0
   -0.0577    3.2611    1.1393 H   0  0  0  0  0  0  0  0  0  0  0  0
   -0.0007    1.4084    0.0091 C   0  0  0  0  0  0  0  0  0  0  0  0
   -1.1995    0.7050   -0.0015 C   0  0  0  0  0  0  0  0  0  0  0  0
   -2.0644    1.1910   -0.0111 H   0  0  0  0  0  0  0  0  0  0  0  0
   -1.2031   -0.6947    0.0000 C   0  0  0  0  0  0  0  0  0  0  0  0
   -2.0807   -1.1854    0.0057 H   0  0  0  0  0  0  0  0  0  0  0  0
    0.0005   -1.4017   -0.0047 C   0  0  0  0  0  0  0  0  0  0  0  0
   -0.0099   -2.3975   -0.0121 H   0  0  0  0  0  0  0  0  0  0  0  0
    1.2031   -0.7069   -0.0000 C   0  0  0  0  0  0  0  0  0  0  0  0
    2.0841   -1.2025    0.0072 H   0  0  0  0  0  0  0  0  0  0  0  0
    1.1997    0.6899   -0.0029 C   0  0  0  0  0  0  0  0  0  0  0  0
    2.0682    1.1849   -0.0141 H   0  0  0  0  0  0  0  0  0  0  0  0
  1  5  1  0
  5  6  1  0
  5  7  2  0
  1  2  1  0
  1  3  1  0
  1  4  1  0
  8 12  1  0
 12 13  2  0
 13 15  1  0
 15 17  2  0
 17 19  1  0
 19 21  2  0
 21 12  1  0
  8  9  1  0
  8 10  1  0
  8 11  1  0
 13 14  1  0
 15 16  1  0
 17 18  1  0
 19 20  1  0
 21 22  1  0
M  CHG  1   6  -1
M  END
>  <PDB_ID>  (1293) 
pdb3ebj

>  <RESIDUE_NAME>  (1293) 
GLU   PHE

>  <FRAG_NAME>  (1293) 
ACET   MBZ

>  <FRAG_ATOM_NUM>  (1293) 
fragi: 7  fragj: 15

>  <atom.prop.CHAIN_ID>  (1293) 
A A A A A A A Z Z Z Z Z Z Z Z Z Z Z Z Z Z Z

>  <atom.prop.IS_HEAVY_ATOM>  (1293) 
1 0 0 0 1 1 1 1 0 0 0 1 1 0 1 0 1 0 1 0 1 0

>  <DIFUSE_FUNC_ATOM>  (1293) 
atom 6   atom 7   

>  <FINAL_SINGLE_POINT_ENERGY>  (1293) 
0

>  <NONCOV_INTER_ENERGY_QM>  (1293) 
0

>  <FF_Energy>  (1293) 
37.73

>  <QM_Energy>  (1293) 
3.74

>  <source>  (1293) 
ACET_MBZ_01

>  <Index>  (1293) 
11372

$$$$
ACET-pdb3ebj-C-GLU-43:MBZ-pdb3ebj-C-PHE-9
     RDKit          3D

 22 21  0  0  0  0  0  0  0  0999 V2000
    5.8049   -0.1395    0.4351 C   0  0  0  0  0  0  0  0  0  0  0  0
    5.5438   -1.0370    0.7419 H   0  0  0  0  0  0  0  0  0  0  0  0
    6.7758    0.0038    0.4907 H   0  0  0  0  0  0  0  0  0  0  0  0
    5.5049   -0.0374   -0.6078 H   0  0  0  0  0  0  0  0  0  0  0  0
    5.1369    0.8707    1.3396 C   0  0  0  0  0  0  0  0  0  0  0  0
    3.8974    1.0200    1.2488 O   0  0  0  0  0  1  0  0  0  0  0  0
    5.8515    1.5004    2.1514 O   0  0  0  0  0  0  0  0  0  0  0  0
   -0.0061    2.9179    0.0382 C   0  0  0  0  0  0  0  0  0  0  0  0
   -0.7794    3.2346   -0.4882 H   0  0  0  0  0  0  0  0  0  0  0  0
    0.8471    3.2360   -0.3428 H   0  0  0  0  0  0  0  0  0  0  0  0
   -0.0961    3.3262    1.0448 H   0  0  0  0  0  0  0  0  0  0  0  0
   -0.0012    1.4131   -0.0030 C   0  0  0  0  0  0  0  0  0  0  0  0
   -1.1985    0.7008    0.0004 C   0  0  0  0  0  0  0  0  0  0  0  0
   -2.0666    1.1865    0.0020 H   0  0  0  0  0  0  0  0  0  0  0  0
   -1.2070   -0.7035   -0.0000 C   0  0  0  0  0  0  0  0  0  0  0  0
   -2.0829   -1.1907   -0.0016 H   0  0  0  0  0  0  0  0  0  0  0  0
   -0.0001   -1.4089    0.0032 C   0  0  0  0  0  0  0  0  0  0  0  0
   -0.0036   -2.4015    0.0069 H   0  0  0  0  0  0  0  0  0  0  0  0
    1.2070   -0.7036    0.0000 C   0  0  0  0  0  0  0  0  0  0  0  0
    2.0875   -1.1951   -0.0005 H   0  0  0  0  0  0  0  0  0  0  0  0
    1.1998    0.7021   -0.0006 C   0  0  0  0  0  0  0  0  0  0  0  0
    2.0678    1.1944   -0.0002 H   0  0  0  0  0  0  0  0  0  0  0  0
  1  5  1  0
  5  6  1  0
  5  7  2  0
  1  2  1  0
  1  3  1  0
  1  4  1  0
  8 12  1  0
 12 13  2  0
 13 15  1  0
 15 17  2  0
 17 19  1  0
 19 21  2  0
 21 12  1  0
  8  9  1  0
  8 10  1  0
  8 11  1  0
 13 14  1  0
 15 16  1  0
 17 18  1  0
 19 20  1  0
 21 22  1  0
M  CHG  1   6  -1
M  END
>  <PDB_ID>  (1294) 
pdb3ebj

>  <RESIDUE_NAME>  (1294) 
GLU   PHE

>  <FRAG_NAME>  (1294) 
ACET   MBZ

>  <FRAG_ATOM_NUM>  (1294) 
fragi: 7  fragj: 15

>  <atom.prop.CHAIN_ID>  (1294) 
A A A A A A A Z Z Z Z Z Z Z Z Z Z Z Z Z Z Z

>  <atom.prop.IS_HEAVY_ATOM>  (1294) 
1 0 0 0 1 1 1 1 0 0 0 1 1 0 1 0 1 0 1 0 1 0

>  <DIFUSE_FUNC_ATOM>  (1294) 
atom 6   atom 7   

>  <FINAL_SINGLE_POINT_ENERGY>  (1294) 
0

>  <NONCOV_INTER_ENERGY_QM>  (1294) 
0

>  <FF_Energy>  (1294) 
0.1

>  <QM_Energy>  (1294) 
-5.72

>  <source>  (1294) 
ACET_MBZ_01

>  <Index>  (1294) 
11373

$$$$
ACET-pdb3ec7-C-ASP-179:MBZ-pdb3ec7-C-PHE-125
     RDKit          3D

 22 21  0  0  0  0  0  0  0  0999 V2000
   -0.3431    0.3957    3.5848 C   0  0  0  0  0  0  0  0  0  0  0  0
   -0.1389   -0.4200    3.0663 H   0  0  0  0  0  0  0  0  0  0  0  0
   -1.1645    0.8356    3.2570 H   0  0  0  0  0  0  0  0  0  0  0  0
   -0.4846    0.1209    4.6301 H   0  0  0  0  0  0  0  0  0  0  0  0
    0.8247    1.3737    3.4163 C   0  0  0  0  0  0  0  0  0  0  0  0
    1.9843    0.9811    3.6252 O   0  0  0  0  0  1  0  0  0  0  0  0
    0.5794    2.5508    3.1300 O   0  0  0  0  0  0  0  0  0  0  0  0
    0.0037    2.9125    0.0058 C   0  0  0  0  0  0  0  0  0  0  0  0
    0.9405    3.2119    0.1059 H   0  0  0  0  0  0  0  0  0  0  0  0
   -0.5547    3.2163    0.7631 H   0  0  0  0  0  0  0  0  0  0  0  0
   -0.3940    3.3694   -0.9004 H   0  0  0  0  0  0  0  0  0  0  0  0
   -0.0038    1.4004   -0.0029 C   0  0  0  0  0  0  0  0  0  0  0  0
   -1.1920    0.6992   -0.0081 C   0  0  0  0  0  0  0  0  0  0  0  0
   -2.0625    1.1924   -0.0191 H   0  0  0  0  0  0  0  0  0  0  0  0
   -1.2071   -0.6881    0.0000 C   0  0  0  0  0  0  0  0  0  0  0  0
   -2.0775   -1.1847    0.0028 H   0  0  0  0  0  0  0  0  0  0  0  0
    0.0086   -1.3995    0.0062 C   0  0  0  0  0  0  0  0  0  0  0  0
   -0.0075   -2.3934    0.0150 H   0  0  0  0  0  0  0  0  0  0  0  0
    1.2071   -0.7038   -0.0000 C   0  0  0  0  0  0  0  0  0  0  0  0
    2.0891   -1.1912   -0.0064 H   0  0  0  0  0  0  0  0  0  0  0  0
    1.1871    0.6919    0.0049 C   0  0  0  0  0  0  0  0  0  0  0  0
    2.0598    1.1912    0.0139 H   0  0  0  0  0  0  0  0  0  0  0  0
  1  5  1  0
  5  6  1  0
  5  7  2  0
  1  2  1  0
  1  3  1  0
  1  4  1  0
  8 12  1  0
 12 13  2  0
 13 15  1  0
 15 17  2  0
 17 19  1  0
 19 21  2  0
 21 12  1  0
  8  9  1  0
  8 10  1  0
  8 11  1  0
 13 14  1  0
 15 16  1  0
 17 18  1  0
 19 20  1  0
 21 22  1  0
M  CHG  1   6  -1
M  END
>  <PDB_ID>  (1295) 
pdb3ec7

>  <RESIDUE_NAME>  (1295) 
ASP   PHE

>  <FRAG_NAME>  (1295) 
ACET   MBZ

>  <FRAG_ATOM_NUM>  (1295) 
fragi: 7  fragj: 15

>  <atom.prop.CHAIN_ID>  (1295) 
A A A A A A A Z Z Z Z Z Z Z Z Z Z Z Z Z Z Z

>  <atom.prop.IS_HEAVY_ATOM>  (1295) 
1 0 0 0 1 1 1 1 0 0 0 1 1 0 1 0 1 0 1 0 1 0

>  <DIFUSE_FUNC_ATOM>  (1295) 
atom 6   atom 7   

>  <FINAL_SINGLE_POINT_ENERGY>  (1295) 
0

>  <NONCOV_INTER_ENERGY_QM>  (1295) 
0

>  <FF_Energy>  (1295) 
0.58

>  <QM_Energy>  (1295) 
-5.12

>  <source>  (1295) 
ACET_MBZ_01

>  <Index>  (1295) 
11408

$$$$
ACET-pdb3efv-C-ASP-317:MBZ-pdb3efv-A-PHE-313
     RDKit          3D

 22 21  0  0  0  0  0  0  0  0999 V2000
   -0.5088    5.9226    2.9656 C   0  0  0  0  0  0  0  0  0  0  0  0
   -0.6916    6.8928    2.8672 H   0  0  0  0  0  0  0  0  0  0  0  0
    0.3620    5.6851    2.5569 H   0  0  0  0  0  0  0  0  0  0  0  0
   -0.4536    5.6973    4.0306 H   0  0  0  0  0  0  0  0  0  0  0  0
   -1.6162    5.1430    2.2393 C   0  0  0  0  0  0  0  0  0  0  0  0
   -1.7838    3.9576    2.5667 O   0  0  0  0  0  1  0  0  0  0  0  0
   -2.2964    5.7214    1.3104 O   0  0  0  0  0  0  0  0  0  0  0  0
   -0.0045    2.9123   -0.0040 C   0  0  0  0  0  0  0  0  0  0  0  0
    0.8255    3.2267    0.4232 H   0  0  0  0  0  0  0  0  0  0  0  0
   -0.8064    3.2188    0.4792 H   0  0  0  0  0  0  0  0  0  0  0  0
   -0.0408    3.3340   -1.0085 H   0  0  0  0  0  0  0  0  0  0  0  0
    0.0029    1.4069    0.0069 C   0  0  0  0  0  0  0  0  0  0  0  0
   -1.1990    0.7017    0.0069 C   0  0  0  0  0  0  0  0  0  0  0  0
   -2.0633    1.1921    0.0110 H   0  0  0  0  0  0  0  0  0  0  0  0
   -1.2104   -0.6979    0.0000 C   0  0  0  0  0  0  0  0  0  0  0  0
   -2.0886   -1.1838    0.0036 H   0  0  0  0  0  0  0  0  0  0  0  0
   -0.0093   -1.4029   -0.0102 C   0  0  0  0  0  0  0  0  0  0  0  0
   -0.0169   -2.4005   -0.0256 H   0  0  0  0  0  0  0  0  0  0  0  0
    1.2104   -0.7123   -0.0000 C   0  0  0  0  0  0  0  0  0  0  0  0
    2.0833   -1.2039    0.0112 H   0  0  0  0  0  0  0  0  0  0  0  0
    1.2055    0.7045   -0.0036 C   0  0  0  0  0  0  0  0  0  0  0  0
    2.0715    1.1905   -0.0141 H   0  0  0  0  0  0  0  0  0  0  0  0
  1  5  1  0
  5  6  1  0
  5  7  2  0
  1  2  1  0
  1  3  1  0
  1  4  1  0
  8 12  1  0
 12 13  2  0
 13 15  1  0
 15 17  2  0
 17 19  1  0
 19 21  2  0
 21 12  1  0
  8  9  1  0
  8 10  1  0
  8 11  1  0
 13 14  1  0
 15 16  1  0
 17 18  1  0
 19 20  1  0
 21 22  1  0
M  CHG  1   6  -1
M  END
>  <PDB_ID>  (1296) 
pdb3efv

>  <RESIDUE_NAME>  (1296) 
ASP   PHE

>  <FRAG_NAME>  (1296) 
ACET   MBZ

>  <FRAG_ATOM_NUM>  (1296) 
fragi: 7  fragj: 15

>  <atom.prop.CHAIN_ID>  (1296) 
A A A A A A A Z Z Z Z Z Z Z Z Z Z Z Z Z Z Z

>  <atom.prop.IS_HEAVY_ATOM>  (1296) 
1 0 0 0 1 1 1 1 0 0 0 1 1 0 1 0 1 0 1 0 1 0

>  <DIFUSE_FUNC_ATOM>  (1296) 
atom 6   atom 7   

>  <FINAL_SINGLE_POINT_ENERGY>  (1296) 
0

>  <NONCOV_INTER_ENERGY_QM>  (1296) 
0

>  <FF_Energy>  (1296) 
-0.57

>  <QM_Energy>  (1296) 
-5.83

>  <source>  (1296) 
ACET_MBZ_01

>  <Index>  (1296) 
11569

$$$$
ACET-pdb3efz-A-GLU-138:MBZ-pdb3efz-A-PHE-185
     RDKit          3D

 22 21  0  0  0  0  0  0  0  0999 V2000
   -0.3687    1.0684   -3.6708 C   0  0  0  0  0  0  0  0  0  0  0  0
   -0.9549    0.7146   -4.3764 H   0  0  0  0  0  0  0  0  0  0  0  0
   -0.6997    0.8561   -2.7694 H   0  0  0  0  0  0  0  0  0  0  0  0
    0.6158    0.6156   -3.7886 H   0  0  0  0  0  0  0  0  0  0  0  0
   -0.3443    2.5784   -3.8072 C   0  0  0  0  0  0  0  0  0  0  0  0
   -0.5136    3.0854   -4.9432 O   0  0  0  0  0  1  0  0  0  0  0  0
   -0.1774    3.2596   -2.7797 O   0  0  0  0  0  0  0  0  0  0  0  0
    0.0173    2.8986   -0.0002 C   0  0  0  0  0  0  0  0  0  0  0  0
   -0.7501    3.2181   -0.5381 H   0  0  0  0  0  0  0  0  0  0  0  0
    0.8756    3.2010   -0.3901 H   0  0  0  0  0  0  0  0  0  0  0  0
   -0.0679    3.3494    0.9886 H   0  0  0  0  0  0  0  0  0  0  0  0
    0.0013    1.4052    0.0042 C   0  0  0  0  0  0  0  0  0  0  0  0
   -1.2010    0.7030   -0.0067 C   0  0  0  0  0  0  0  0  0  0  0  0
   -2.0640    1.1925   -0.0209 H   0  0  0  0  0  0  0  0  0  0  0  0
   -1.2075   -0.6951   -0.0000 C   0  0  0  0  0  0  0  0  0  0  0  0
   -2.0816   -1.1876   -0.0001 H   0  0  0  0  0  0  0  0  0  0  0  0
    0.0020   -1.4002    0.0080 C   0  0  0  0  0  0  0  0  0  0  0  0
   -0.0077   -2.3962    0.0187 H   0  0  0  0  0  0  0  0  0  0  0  0
    1.2075   -0.7040    0.0000 C   0  0  0  0  0  0  0  0  0  0  0  0
    2.0866   -1.1988    0.0000 H   0  0  0  0  0  0  0  0  0  0  0  0
    1.1977    0.6910   -0.0055 C   0  0  0  0  0  0  0  0  0  0  0  0
    2.0676    1.1879   -0.0176 H   0  0  0  0  0  0  0  0  0  0  0  0
  1  5  1  0
  5  6  1  0
  5  7  2  0
  1  2  1  0
  1  3  1  0
  1  4  1  0
  8 12  1  0
 12 13  2  0
 13 15  1  0
 15 17  2  0
 17 19  1  0
 19 21  2  0
 21 12  1  0
  8  9  1  0
  8 10  1  0
  8 11  1  0
 13 14  1  0
 15 16  1  0
 17 18  1  0
 19 20  1  0
 21 22  1  0
M  CHG  1   6  -1
M  END
>  <PDB_ID>  (1297) 
pdb3efz

>  <RESIDUE_NAME>  (1297) 
GLU   PHE

>  <FRAG_NAME>  (1297) 
ACET   MBZ

>  <FRAG_ATOM_NUM>  (1297) 
fragi: 7  fragj: 15

>  <atom.prop.CHAIN_ID>  (1297) 
A A A A A A A Z Z Z Z Z Z Z Z Z Z Z Z Z Z Z

>  <atom.prop.IS_HEAVY_ATOM>  (1297) 
1 0 0 0 1 1 1 1 0 0 0 1 1 0 1 0 1 0 1 0 1 0

>  <DIFUSE_FUNC_ATOM>  (1297) 
atom 6   atom 7   

>  <FINAL_SINGLE_POINT_ENERGY>  (1297) 
0

>  <NONCOV_INTER_ENERGY_QM>  (1297) 
0

>  <FF_Energy>  (1297) 
2.7

>  <QM_Energy>  (1297) 
-3.81

>  <source>  (1297) 
ACET_MBZ_01

>  <Index>  (1297) 
11570

$$$$
ACET-pdb3efz-C-GLU-242:MBZ-pdb3efz-C-PHE-237
     RDKit          3D

 22 21  0  0  0  0  0  0  0  0999 V2000
    3.2004    5.1589   -0.4349 C   0  0  0  0  0  0  0  0  0  0  0  0
    2.4032    4.9802    0.1173 H   0  0  0  0  0  0  0  0  0  0  0  0
    2.9920    5.7475   -1.1985 H   0  0  0  0  0  0  0  0  0  0  0  0
    3.9367    5.6641    0.1902 H   0  0  0  0  0  0  0  0  0  0  0  0
    3.6660    3.8079   -1.0142 C   0  0  0  0  0  0  0  0  0  0  0  0
    2.8841    3.2049   -1.7799 O   0  0  0  0  0  1  0  0  0  0  0  0
    4.7964    3.3462   -0.7276 O   0  0  0  0  0  0  0  0  0  0  0  0
    0.0261    2.9205    0.0042 C   0  0  0  0  0  0  0  0  0  0  0  0
    0.6561    3.2195   -0.6993 H   0  0  0  0  0  0  0  0  0  0  0  0
    0.3302    3.2116    0.9003 H   0  0  0  0  0  0  0  0  0  0  0  0
   -0.9371    3.3927   -0.1893 H   0  0  0  0  0  0  0  0  0  0  0  0
    0.0014    1.4075   -0.0076 C   0  0  0  0  0  0  0  0  0  0  0  0
   -1.2023    0.6933    0.0073 C   0  0  0  0  0  0  0  0  0  0  0  0
   -2.0668    1.1867    0.0221 H   0  0  0  0  0  0  0  0  0  0  0  0
   -1.2080   -0.6977    0.0000 C   0  0  0  0  0  0  0  0  0  0  0  0
   -2.0816   -1.1931   -0.0043 H   0  0  0  0  0  0  0  0  0  0  0  0
   -0.0012   -1.3963    0.0007 C   0  0  0  0  0  0  0  0  0  0  0  0
   -0.0056   -2.3940    0.0014 H   0  0  0  0  0  0  0  0  0  0  0  0
    1.2080   -0.7001   -0.0000 C   0  0  0  0  0  0  0  0  0  0  0  0
    2.0849   -1.1989    0.0010 H   0  0  0  0  0  0  0  0  0  0  0  0
    1.2021    0.6933   -0.0004 C   0  0  0  0  0  0  0  0  0  0  0  0
    2.0694    1.1904    0.0033 H   0  0  0  0  0  0  0  0  0  0  0  0
  1  5  1  0
  5  6  1  0
  5  7  2  0
  1  2  1  0
  1  3  1  0
  1  4  1  0
  8 12  1  0
 12 13  2  0
 13 15  1  0
 15 17  2  0
 17 19  1  0
 19 21  2  0
 21 12  1  0
  8  9  1  0
  8 10  1  0
  8 11  1  0
 13 14  1  0
 15 16  1  0
 17 18  1  0
 19 20  1  0
 21 22  1  0
M  CHG  1   6  -1
M  END
>  <PDB_ID>  (1298) 
pdb3efz

>  <RESIDUE_NAME>  (1298) 
GLU   PHE

>  <FRAG_NAME>  (1298) 
ACET   MBZ

>  <FRAG_ATOM_NUM>  (1298) 
fragi: 7  fragj: 15

>  <atom.prop.CHAIN_ID>  (1298) 
A A A A A A A Z Z Z Z Z Z Z Z Z Z Z Z Z Z Z

>  <atom.prop.IS_HEAVY_ATOM>  (1298) 
1 0 0 0 1 1 1 1 0 0 0 1 1 0 1 0 1 0 1 0 1 0

>  <DIFUSE_FUNC_ATOM>  (1298) 
atom 6   atom 7   

>  <FINAL_SINGLE_POINT_ENERGY>  (1298) 
0

>  <NONCOV_INTER_ENERGY_QM>  (1298) 
0

>  <FF_Energy>  (1298) 
-1.9

>  <QM_Energy>  (1298) 
-7.26

>  <source>  (1298) 
ACET_MBZ_01

>  <Index>  (1298) 
11576

$$$$
ACET-pdb3egv-A-GLU-159:MBZ-pdb3egv-A-PHE-171
     RDKit          3D

 22 21  0  0  0  0  0  0  0  0999 V2000
   -4.0169    2.4144   -2.4624 C   0  0  0  0  0  0  0  0  0  0  0  0
   -3.0554    2.3002   -2.6379 H   0  0  0  0  0  0  0  0  0  0  0  0
   -4.3636    3.2544   -2.8397 H   0  0  0  0  0  0  0  0  0  0  0  0
   -4.5478    1.5864   -2.9323 H   0  0  0  0  0  0  0  0  0  0  0  0
   -4.1918    2.5003   -0.9253 C   0  0  0  0  0  0  0  0  0  0  0  0
   -4.8729    1.6322   -0.2697 O   0  0  0  0  0  1  0  0  0  0  0  0
   -3.6078    3.4702   -0.3727 O   0  0  0  0  0  0  0  0  0  0  0  0
   -0.0041    2.9248    0.0097 C   0  0  0  0  0  0  0  0  0  0  0  0
   -0.9388    3.2214   -0.0885 H   0  0  0  0  0  0  0  0  0  0  0  0
    0.5586    3.2341   -0.7376 H   0  0  0  0  0  0  0  0  0  0  0  0
    0.3916    3.3544    0.9300 H   0  0  0  0  0  0  0  0  0  0  0  0
    0.0042    1.4087   -0.0024 C   0  0  0  0  0  0  0  0  0  0  0  0
   -1.2004    0.7105    0.0027 C   0  0  0  0  0  0  0  0  0  0  0  0
   -2.0627    1.2071    0.0071 H   0  0  0  0  0  0  0  0  0  0  0  0
   -1.2182   -0.6849   -0.0000 C   0  0  0  0  0  0  0  0  0  0  0  0
   -2.0962   -1.1724    0.0036 H   0  0  0  0  0  0  0  0  0  0  0  0
   -0.0120   -1.4094   -0.0054 C   0  0  0  0  0  0  0  0  0  0  0  0
   -0.0274   -2.3995   -0.0137 H   0  0  0  0  0  0  0  0  0  0  0  0
    1.2182   -0.7169   -0.0000 C   0  0  0  0  0  0  0  0  0  0  0  0
    2.0844   -1.2136    0.0018 H   0  0  0  0  0  0  0  0  0  0  0  0
    1.2082    0.6921    0.0051 C   0  0  0  0  0  0  0  0  0  0  0  0
    2.0758    1.1854    0.0137 H   0  0  0  0  0  0  0  0  0  0  0  0
  1  5  1  0
  5  6  1  0
  5  7  2  0
  1  2  1  0
  1  3  1  0
  1  4  1  0
  8 12  1  0
 12 13  2  0
 13 15  1  0
 15 17  2  0
 17 19  1  0
 19 21  2  0
 21 12  1  0
  8  9  1  0
  8 10  1  0
  8 11  1  0
 13 14  1  0
 15 16  1  0
 17 18  1  0
 19 20  1  0
 21 22  1  0
M  CHG  1   6  -1
M  END
>  <PDB_ID>  (1299) 
pdb3egv

>  <RESIDUE_NAME>  (1299) 
GLU   PHE

>  <FRAG_NAME>  (1299) 
ACET   MBZ

>  <FRAG_ATOM_NUM>  (1299) 
fragi: 7  fragj: 15

>  <atom.prop.CHAIN_ID>  (1299) 
A A A A A A A Z Z Z Z Z Z Z Z Z Z Z Z Z Z Z

>  <atom.prop.IS_HEAVY_ATOM>  (1299) 
1 0 0 0 1 1 1 1 0 0 0 1 1 0 1 0 1 0 1 0 1 0

>  <DIFUSE_FUNC_ATOM>  (1299) 
atom 6   atom 7   

>  <FINAL_SINGLE_POINT_ENERGY>  (1299) 
0

>  <NONCOV_INTER_ENERGY_QM>  (1299) 
0

>  <FF_Energy>  (1299) 
-3.08

>  <QM_Energy>  (1299) 
-8.25

>  <source>  (1299) 
ACET_MBZ_01

>  <Index>  (1299) 
11602

$$$$
ACET-pdb3efz-B-GLU-95:MBZ-pdb3efz-A-PHE-102
     RDKit          3D

 22 21  0  0  0  0  0  0  0  0999 V2000
    0.2162    0.7162   -3.5836 C   0  0  0  0  0  0  0  0  0  0  0  0
   -0.2539    1.1131   -4.3520 H   0  0  0  0  0  0  0  0  0  0  0  0
   -0.3409    0.7159   -2.7713 H   0  0  0  0  0  0  0  0  0  0  0  0
    0.4711   -0.3146   -3.8298 H   0  0  0  0  0  0  0  0  0  0  0  0
    1.4325    1.5829   -3.2986 C   0  0  0  0  0  0  0  0  0  0  0  0
    2.5633    1.0516   -3.2313 O   0  0  0  0  0  1  0  0  0  0  0  0
    1.2541    2.8055   -3.1443 O   0  0  0  0  0  0  0  0  0  0  0  0
    0.0319    2.9210    0.0007 C   0  0  0  0  0  0  0  0  0  0  0  0
    0.2316    3.2127   -0.9277 H   0  0  0  0  0  0  0  0  0  0  0  0
    0.7520    3.2085    0.6203 H   0  0  0  0  0  0  0  0  0  0  0  0
   -0.8939    3.4040    0.3134 H   0  0  0  0  0  0  0  0  0  0  0  0
    0.0005    1.4061    0.0077 C   0  0  0  0  0  0  0  0  0  0  0  0
   -1.2041    0.6859    0.0029 C   0  0  0  0  0  0  0  0  0  0  0  0
   -2.0677    1.1805    0.0002 H   0  0  0  0  0  0  0  0  0  0  0  0
   -1.2046   -0.6976    0.0000 C   0  0  0  0  0  0  0  0  0  0  0  0
   -2.0775   -1.1984    0.0075 H   0  0  0  0  0  0  0  0  0  0  0  0
    0.0017   -1.3894   -0.0108 C   0  0  0  0  0  0  0  0  0  0  0  0
   -0.0018   -2.3902   -0.0265 H   0  0  0  0  0  0  0  0  0  0  0  0
    1.2046   -0.6957   -0.0000 C   0  0  0  0  0  0  0  0  0  0  0  0
    2.0837   -1.1972    0.0093 H   0  0  0  0  0  0  0  0  0  0  0  0
    1.2019    0.6907    0.0002 C   0  0  0  0  0  0  0  0  0  0  0  0
    2.0680    1.1904   -0.0060 H   0  0  0  0  0  0  0  0  0  0  0  0
  1  5  1  0
  5  6  1  0
  5  7  2  0
  1  2  1  0
  1  3  1  0
  1  4  1  0
  8 12  1  0
 12 13  2  0
 13 15  1  0
 15 17  2  0
 17 19  1  0
 19 21  2  0
 21 12  1  0
  8  9  1  0
  8 10  1  0
  8 11  1  0
 13 14  1  0
 15 16  1  0
 17 18  1  0
 19 20  1  0
 21 22  1  0
M  CHG  1   6  -1
M  END
>  <PDB_ID>  (1300) 
pdb3efz

>  <RESIDUE_NAME>  (1300) 
GLU   PHE

>  <FRAG_NAME>  (1300) 
ACET   MBZ

>  <FRAG_ATOM_NUM>  (1300) 
fragi: 7  fragj: 15

>  <atom.prop.CHAIN_ID>  (1300) 
A A A A A A A Z Z Z Z Z Z Z Z Z Z Z Z Z Z Z

>  <atom.prop.IS_HEAVY_ATOM>  (1300) 
1 0 0 0 1 1 1 1 0 0 0 1 1 0 1 0 1 0 1 0 1 0

>  <DIFUSE_FUNC_ATOM>  (1300) 
atom 6   atom 7   

>  <FINAL_SINGLE_POINT_ENERGY>  (1300) 
0

>  <NONCOV_INTER_ENERGY_QM>  (1300) 
0

>  <FF_Energy>  (1300) 
-0.53

>  <QM_Energy>  (1300) 
-6.44

>  <source>  (1300) 
ACET_MBZ_01

>  <Index>  (1300) 
11645

$$$$
ACET-pdb3ejx-A-ASP-62:MBZ-pdb3ejx-A-PHE-65
     RDKit          3D

 22 21  0  0  0  0  0  0  0  0999 V2000
   -3.8312    4.8170    0.3673 C   0  0  0  0  0  0  0  0  0  0  0  0
   -4.1544    5.0174   -0.5476 H   0  0  0  0  0  0  0  0  0  0  0  0
   -2.8972    5.1222    0.4889 H   0  0  0  0  0  0  0  0  0  0  0  0
   -4.4606    5.3549    1.0762 H   0  0  0  0  0  0  0  0  0  0  0  0
   -3.8896    3.3214    0.5892 C   0  0  0  0  0  0  0  0  0  0  0  0
   -4.6142    2.6645   -0.1625 O   0  0  0  0  0  1  0  0  0  0  0  0
   -3.2445    2.8093    1.5247 O   0  0  0  0  0  0  0  0  0  0  0  0
    0.0000    2.9286    0.0039 C   0  0  0  0  0  0  0  0  0  0  0  0
   -0.9170    3.2305   -0.1982 H   0  0  0  0  0  0  0  0  0  0  0  0
    0.6430    3.2306   -0.6811 H   0  0  0  0  0  0  0  0  0  0  0  0
    0.2956    3.3637    0.9586 H   0  0  0  0  0  0  0  0  0  0  0  0
   -0.0014    1.4130   -0.0007 C   0  0  0  0  0  0  0  0  0  0  0  0
   -1.1989    0.7016    0.0001 C   0  0  0  0  0  0  0  0  0  0  0  0
   -2.0676    1.1840   -0.0004 H   0  0  0  0  0  0  0  0  0  0  0  0
   -1.2042   -0.7061   -0.0000 C   0  0  0  0  0  0  0  0  0  0  0  0
   -2.0807   -1.1925    0.0019 H   0  0  0  0  0  0  0  0  0  0  0  0
    0.0013   -1.4068   -0.0011 C   0  0  0  0  0  0  0  0  0  0  0  0
   -0.0012   -2.4018   -0.0033 H   0  0  0  0  0  0  0  0  0  0  0  0
    1.2042   -0.7037   -0.0000 C   0  0  0  0  0  0  0  0  0  0  0  0
    2.0871   -1.1948    0.0011 H   0  0  0  0  0  0  0  0  0  0  0  0
    1.1989    0.7020    0.0017 C   0  0  0  0  0  0  0  0  0  0  0  0
    2.0667    1.1931    0.0036 H   0  0  0  0  0  0  0  0  0  0  0  0
  1  5  1  0
  5  6  1  0
  5  7  2  0
  1  2  1  0
  1  3  1  0
  1  4  1  0
  8 12  1  0
 12 13  2  0
 13 15  1  0
 15 17  2  0
 17 19  1  0
 19 21  2  0
 21 12  1  0
  8  9  1  0
  8 10  1  0
  8 11  1  0
 13 14  1  0
 15 16  1  0
 17 18  1  0
 19 20  1  0
 21 22  1  0
M  CHG  1   6  -1
M  END
>  <PDB_ID>  (1301) 
pdb3ejx

>  <RESIDUE_NAME>  (1301) 
ASP   PHE

>  <FRAG_NAME>  (1301) 
ACET   MBZ

>  <FRAG_ATOM_NUM>  (1301) 
fragi: 7  fragj: 15

>  <atom.prop.CHAIN_ID>  (1301) 
A A A A A A A Z Z Z Z Z Z Z Z Z Z Z Z Z Z Z

>  <atom.prop.IS_HEAVY_ATOM>  (1301) 
1 0 0 0 1 1 1 1 0 0 0 1 1 0 1 0 1 0 1 0 1 0

>  <DIFUSE_FUNC_ATOM>  (1301) 
atom 6   atom 7   

>  <FINAL_SINGLE_POINT_ENERGY>  (1301) 
0

>  <NONCOV_INTER_ENERGY_QM>  (1301) 
0

>  <FF_Energy>  (1301) 
-2.29

>  <QM_Energy>  (1301) 
-7.46

>  <source>  (1301) 
ACET_MBZ_01

>  <Index>  (1301) 
11769

$$$$
ACET-pdb3ejx-D-ASP-62:MBZ-pdb3ejx-D-PHE-65
     RDKit          3D

 22 21  0  0  0  0  0  0  0  0999 V2000
   -3.9636    4.8132    0.1158 C   0  0  0  0  0  0  0  0  0  0  0  0
   -4.2949    4.9775   -0.8034 H   0  0  0  0  0  0  0  0  0  0  0  0
   -3.0413    5.1538    0.2272 H   0  0  0  0  0  0  0  0  0  0  0  0
   -4.6142    5.3355    0.8172 H   0  0  0  0  0  0  0  0  0  0  0  0
   -3.9580    3.3125    0.3651 C   0  0  0  0  0  0  0  0  0  0  0  0
   -4.5549    2.5833   -0.4440 O   0  0  0  0  0  1  0  0  0  0  0  0
   -3.3770    2.8850    1.3844 O   0  0  0  0  0  0  0  0  0  0  0  0
    0.0116    2.9168    0.0052 C   0  0  0  0  0  0  0  0  0  0  0  0
   -0.8861    3.2321   -0.2590 H   0  0  0  0  0  0  0  0  0  0  0  0
    0.7051    3.2219   -0.6278 H   0  0  0  0  0  0  0  0  0  0  0  0
    0.2404    3.3498    0.9790 H   0  0  0  0  0  0  0  0  0  0  0  0
    0.0006    1.4130   -0.0005 C   0  0  0  0  0  0  0  0  0  0  0  0
   -1.1954    0.7020    0.0002 C   0  0  0  0  0  0  0  0  0  0  0  0
   -2.0651    1.1828   -0.0006 H   0  0  0  0  0  0  0  0  0  0  0  0
   -1.2014   -0.7087   -0.0000 C   0  0  0  0  0  0  0  0  0  0  0  0
   -2.0794   -1.1929    0.0008 H   0  0  0  0  0  0  0  0  0  0  0  0
    0.0018   -1.4071    0.0003 C   0  0  0  0  0  0  0  0  0  0  0  0
   -0.0006   -2.4033    0.0000 H   0  0  0  0  0  0  0  0  0  0  0  0
    1.2014   -0.7053    0.0000 C   0  0  0  0  0  0  0  0  0  0  0  0
    2.0860   -1.1909    0.0016 H   0  0  0  0  0  0  0  0  0  0  0  0
    1.1930    0.7060    0.0001 C   0  0  0  0  0  0  0  0  0  0  0  0
    2.0657    1.1928    0.0001 H   0  0  0  0  0  0  0  0  0  0  0  0
  1  5  1  0
  5  6  1  0
  5  7  2  0
  1  2  1  0
  1  3  1  0
  1  4  1  0
  8 12  1  0
 12 13  2  0
 13 15  1  0
 15 17  2  0
 17 19  1  0
 19 21  2  0
 21 12  1  0
  8  9  1  0
  8 10  1  0
  8 11  1  0
 13 14  1  0
 15 16  1  0
 17 18  1  0
 19 20  1  0
 21 22  1  0
M  CHG  1   6  -1
M  END
>  <PDB_ID>  (1302) 
pdb3ejx

>  <RESIDUE_NAME>  (1302) 
ASP   PHE

>  <FRAG_NAME>  (1302) 
ACET   MBZ

>  <FRAG_ATOM_NUM>  (1302) 
fragi: 7  fragj: 15

>  <atom.prop.CHAIN_ID>  (1302) 
A A A A A A A Z Z Z Z Z Z Z Z Z Z Z Z Z Z Z

>  <atom.prop.IS_HEAVY_ATOM>  (1302) 
1 0 0 0 1 1 1 1 0 0 0 1 1 0 1 0 1 0 1 0 1 0

>  <DIFUSE_FUNC_ATOM>  (1302) 
atom 6   atom 7   

>  <FINAL_SINGLE_POINT_ENERGY>  (1302) 
0

>  <NONCOV_INTER_ENERGY_QM>  (1302) 
0

>  <FF_Energy>  (1302) 
-2.51

>  <QM_Energy>  (1302) 
-7.61

>  <source>  (1302) 
ACET_MBZ_01

>  <Index>  (1302) 
11778

$$$$
ACET-pdb3ek1-C-GLU-109:MBZ-pdb3ek1-C-PHE-159
     RDKit          3D

 22 21  0  0  0  0  0  0  0  0999 V2000
   -4.5933    2.5327    0.2453 C   0  0  0  0  0  0  0  0  0  0  0  0
   -5.1094    3.3345    0.5165 H   0  0  0  0  0  0  0  0  0  0  0  0
   -4.1461    2.1202    1.0277 H   0  0  0  0  0  0  0  0  0  0  0  0
   -5.3036    1.8054   -0.1479 H   0  0  0  0  0  0  0  0  0  0  0  0
   -3.4781    3.0093   -0.7207 C   0  0  0  0  0  0  0  0  0  0  0  0
   -3.1624    2.3262   -1.6838 O   0  0  0  0  0  1  0  0  0  0  0  0
   -2.9414    4.1038   -0.4983 O   0  0  0  0  0  0  0  0  0  0  0  0
   -0.0051    2.8222   -0.0058 C   0  0  0  0  0  0  0  0  0  0  0  0
    0.8349    3.1560    0.3980 H   0  0  0  0  0  0  0  0  0  0  0  0
   -0.7956    3.1510    0.4923 H   0  0  0  0  0  0  0  0  0  0  0  0
   -0.0648    3.2288   -1.0153 H   0  0  0  0  0  0  0  0  0  0  0  0
    0.0012    1.3632    0.0178 C   0  0  0  0  0  0  0  0  0  0  0  0
   -1.1942    0.6622    0.0029 C   0  0  0  0  0  0  0  0  0  0  0  0
   -2.0549    1.1773   -0.0068 H   0  0  0  0  0  0  0  0  0  0  0  0
   -1.1977   -0.6763    0.0000 C   0  0  0  0  0  0  0  0  0  0  0  0
   -2.0717   -1.1923    0.0124 H   0  0  0  0  0  0  0  0  0  0  0  0
   -0.0063   -1.3550   -0.0179 C   0  0  0  0  0  0  0  0  0  0  0  0
   -0.0064   -2.3643   -0.0448 H   0  0  0  0  0  0  0  0  0  0  0  0
    1.1977   -0.6739   -0.0000 C   0  0  0  0  0  0  0  0  0  0  0  0
    2.0714   -1.1931    0.0165 H   0  0  0  0  0  0  0  0  0  0  0  0
    1.1993    0.6799   -0.0027 C   0  0  0  0  0  0  0  0  0  0  0  0
    2.0580    1.1924   -0.0202 H   0  0  0  0  0  0  0  0  0  0  0  0
  1  5  1  0
  5  6  1  0
  5  7  2  0
  1  2  1  0
  1  3  1  0
  1  4  1  0
  8 12  1  0
 12 13  2  0
 13 15  1  0
 15 17  2  0
 17 19  1  0
 19 21  2  0
 21 12  1  0
  8  9  1  0
  8 10  1  0
  8 11  1  0
 13 14  1  0
 15 16  1  0
 17 18  1  0
 19 20  1  0
 21 22  1  0
M  CHG  1   6  -1
M  END
>  <PDB_ID>  (1303) 
pdb3ek1

>  <RESIDUE_NAME>  (1303) 
GLU   PHE

>  <FRAG_NAME>  (1303) 
ACET   MBZ

>  <FRAG_ATOM_NUM>  (1303) 
fragi: 7  fragj: 15

>  <atom.prop.CHAIN_ID>  (1303) 
A A A A A A A Z Z Z Z Z Z Z Z Z Z Z Z Z Z Z

>  <atom.prop.IS_HEAVY_ATOM>  (1303) 
1 0 0 0 1 1 1 1 0 0 0 1 1 0 1 0 1 0 1 0 1 0

>  <DIFUSE_FUNC_ATOM>  (1303) 
atom 6   atom 7   

>  <FINAL_SINGLE_POINT_ENERGY>  (1303) 
0

>  <NONCOV_INTER_ENERGY_QM>  (1303) 
0

>  <FF_Energy>  (1303) 
1.14

>  <QM_Energy>  (1303) 
-6.42

>  <source>  (1303) 
ACET_MBZ_01

>  <Index>  (1303) 
11855

$$$$
ACET-pdb3ek1-E-GLU-109:MBZ-pdb3ek1-E-PHE-159
     RDKit          3D

 22 21  0  0  0  0  0  0  0  0999 V2000
   -4.7520    2.5156    0.0304 C   0  0  0  0  0  0  0  0  0  0  0  0
   -5.3212    3.3079    0.2079 H   0  0  0  0  0  0  0  0  0  0  0  0
   -4.3279    2.1930    0.8666 H   0  0  0  0  0  0  0  0  0  0  0  0
   -5.3940    1.7208   -0.3496 H   0  0  0  0  0  0  0  0  0  0  0  0
   -3.6736    2.9212   -0.9074 C   0  0  0  0  0  0  0  0  0  0  0  0
   -3.3672    2.1257   -1.8397 O   0  0  0  0  0  1  0  0  0  0  0  0
   -3.1443    4.0493   -0.7071 O   0  0  0  0  0  0  0  0  0  0  0  0
    0.0000    2.8912   -0.0118 C   0  0  0  0  0  0  0  0  0  0  0  0
    0.8519    3.2050    0.3751 H   0  0  0  0  0  0  0  0  0  0  0  0
   -0.7763    3.2077    0.5076 H   0  0  0  0  0  0  0  0  0  0  0  0
   -0.0810    3.3160   -1.0123 H   0  0  0  0  0  0  0  0  0  0  0  0
   -0.0020    1.3944    0.0000 C   0  0  0  0  0  0  0  0  0  0  0  0
   -1.1755    0.6968    0.0003 C   0  0  0  0  0  0  0  0  0  0  0  0
   -2.0540    1.1768   -0.0003 H   0  0  0  0  0  0  0  0  0  0  0  0
   -1.1844   -0.7007    0.0000 C   0  0  0  0  0  0  0  0  0  0  0  0
   -2.0702   -1.1830    0.0045 H   0  0  0  0  0  0  0  0  0  0  0  0
    0.0006   -1.3953   -0.0046 C   0  0  0  0  0  0  0  0  0  0  0  0
    0.0007   -2.3924   -0.0121 H   0  0  0  0  0  0  0  0  0  0  0  0
    1.1844   -0.6927    0.0000 C   0  0  0  0  0  0  0  0  0  0  0  0
    2.0757   -1.1828    0.0015 H   0  0  0  0  0  0  0  0  0  0  0  0
    1.1769    0.6976    0.0043 C   0  0  0  0  0  0  0  0  0  0  0  0
    2.0530    1.1887    0.0099 H   0  0  0  0  0  0  0  0  0  0  0  0
  1  5  1  0
  5  6  1  0
  5  7  2  0
  1  2  1  0
  1  3  1  0
  1  4  1  0
  8 12  1  0
 12 13  2  0
 13 15  1  0
 15 17  2  0
 17 19  1  0
 19 21  2  0
 21 12  1  0
  8  9  1  0
  8 10  1  0
  8 11  1  0
 13 14  1  0
 15 16  1  0
 17 18  1  0
 19 20  1  0
 21 22  1  0
M  CHG  1   6  -1
M  END
>  <PDB_ID>  (1304) 
pdb3ek1

>  <RESIDUE_NAME>  (1304) 
GLU   PHE

>  <FRAG_NAME>  (1304) 
ACET   MBZ

>  <FRAG_ATOM_NUM>  (1304) 
fragi: 7  fragj: 15

>  <atom.prop.CHAIN_ID>  (1304) 
A A A A A A A Z Z Z Z Z Z Z Z Z Z Z Z Z Z Z

>  <atom.prop.IS_HEAVY_ATOM>  (1304) 
1 0 0 0 1 1 1 1 0 0 0 1 1 0 1 0 1 0 1 0 1 0

>  <DIFUSE_FUNC_ATOM>  (1304) 
atom 6   atom 7   

>  <FINAL_SINGLE_POINT_ENERGY>  (1304) 
0

>  <NONCOV_INTER_ENERGY_QM>  (1304) 
0

>  <FF_Energy>  (1304) 
-0.81

>  <QM_Energy>  (1304) 
-6.43

>  <source>  (1304) 
ACET_MBZ_01

>  <Index>  (1304) 
11858

$$$$
ACET-pdb3emk-A-GLU-169:MBZ-pdb3emk-C-PHE-96
     RDKit          3D

 22 21  0  0  0  0  0  0  0  0999 V2000
    1.7447    6.8328   -2.4730 C   0  0  0  0  0  0  0  0  0  0  0  0
    2.5154    6.4987   -1.9791 H   0  0  0  0  0  0  0  0  0  0  0  0
    1.6453    7.8024   -2.4343 H   0  0  0  0  0  0  0  0  0  0  0  0
    1.8200    6.5184   -3.5140 H   0  0  0  0  0  0  0  0  0  0  0  0
    0.5170    6.2276   -1.8606 C   0  0  0  0  0  0  0  0  0  0  0  0
   -0.6081    6.7294   -2.1228 O   0  0  0  0  0  1  0  0  0  0  0  0
    0.6901    5.2250   -1.1405 O   0  0  0  0  0  0  0  0  0  0  0  0
    0.0000    2.8791    0.0017 C   0  0  0  0  0  0  0  0  0  0  0  0
   -0.5519    3.1951   -0.7574 H   0  0  0  0  0  0  0  0  0  0  0  0
    0.9350    3.1934   -0.0827 H   0  0  0  0  0  0  0  0  0  0  0  0
   -0.4129    3.3114    0.9132 H   0  0  0  0  0  0  0  0  0  0  0  0
   -0.0001    1.3979   -0.0017 C   0  0  0  0  0  0  0  0  0  0  0  0
   -1.2004    0.6959   -0.0077 C   0  0  0  0  0  0  0  0  0  0  0  0
   -2.0632    1.1866   -0.0191 H   0  0  0  0  0  0  0  0  0  0  0  0
   -1.2019   -0.6925   -0.0000 C   0  0  0  0  0  0  0  0  0  0  0  0
   -2.0765   -1.1897    0.0038 H   0  0  0  0  0  0  0  0  0  0  0  0
    0.0030   -1.3876    0.0046 C   0  0  0  0  0  0  0  0  0  0  0  0
   -0.0080   -2.3904    0.0107 H   0  0  0  0  0  0  0  0  0  0  0  0
    1.2019   -0.7025    0.0000 C   0  0  0  0  0  0  0  0  0  0  0  0
    2.0826   -1.1991   -0.0051 H   0  0  0  0  0  0  0  0  0  0  0  0
    1.1975    0.6889    0.0048 C   0  0  0  0  0  0  0  0  0  0  0  0
    2.0654    1.1853    0.0118 H   0  0  0  0  0  0  0  0  0  0  0  0
  1  5  1  0
  5  6  1  0
  5  7  2  0
  1  2  1  0
  1  3  1  0
  1  4  1  0
  8 12  1  0
 12 13  2  0
 13 15  1  0
 15 17  2  0
 17 19  1  0
 19 21  2  0
 21 12  1  0
  8  9  1  0
  8 10  1  0
  8 11  1  0
 13 14  1  0
 15 16  1  0
 17 18  1  0
 19 20  1  0
 21 22  1  0
M  CHG  1   6  -1
M  END
>  <PDB_ID>  (1305) 
pdb3emk

>  <RESIDUE_NAME>  (1305) 
GLU   PHE

>  <FRAG_NAME>  (1305) 
ACET   MBZ

>  <FRAG_ATOM_NUM>  (1305) 
fragi: 7  fragj: 15

>  <atom.prop.CHAIN_ID>  (1305) 
A A A A A A A Z Z Z Z Z Z Z Z Z Z Z Z Z Z Z

>  <atom.prop.IS_HEAVY_ATOM>  (1305) 
1 0 0 0 1 1 1 1 0 0 0 1 1 0 1 0 1 0 1 0 1 0

>  <DIFUSE_FUNC_ATOM>  (1305) 
atom 6   atom 7   

>  <FINAL_SINGLE_POINT_ENERGY>  (1305) 
0

>  <NONCOV_INTER_ENERGY_QM>  (1305) 
0

>  <FF_Energy>  (1305) 
3.54

>  <QM_Energy>  (1305) 
-3.51

>  <source>  (1305) 
ACET_MBZ_01

>  <Index>  (1305) 
11875

$$$$
ACET-pdb3eoe-B-GLU-189:MBZ-pdb3eoe-B-PHE-111
     RDKit          3D

 22 21  0  0  0  0  0  0  0  0999 V2000
   -4.0388    3.2084   -2.1715 C   0  0  0  0  0  0  0  0  0  0  0  0
   -3.3618    3.9146   -2.2566 H   0  0  0  0  0  0  0  0  0  0  0  0
   -4.9520    3.5484   -2.2893 H   0  0  0  0  0  0  0  0  0  0  0  0
   -3.8485    2.4542   -2.9352 H   0  0  0  0  0  0  0  0  0  0  0  0
   -3.9368    2.6403   -0.7787 C   0  0  0  0  0  0  0  0  0  0  0  0
   -4.6182    1.6308   -0.4863 O   0  0  0  0  0  1  0  0  0  0  0  0
   -3.1769    3.2029    0.0297 O   0  0  0  0  0  0  0  0  0  0  0  0
   -0.0050    2.9117   -0.0066 C   0  0  0  0  0  0  0  0  0  0  0  0
    0.8624    3.2207    0.3498 H   0  0  0  0  0  0  0  0  0  0  0  0
   -0.7577    3.2172    0.5544 H   0  0  0  0  0  0  0  0  0  0  0  0
   -0.1317    3.3427   -0.9998 H   0  0  0  0  0  0  0  0  0  0  0  0
   -0.0007    1.4062    0.0006 C   0  0  0  0  0  0  0  0  0  0  0  0
   -1.1982    0.6951    0.0014 C   0  0  0  0  0  0  0  0  0  0  0  0
   -2.0661    1.1833    0.0017 H   0  0  0  0  0  0  0  0  0  0  0  0
   -1.2049   -0.7023    0.0000 C   0  0  0  0  0  0  0  0  0  0  0  0
   -2.0792   -1.1939    0.0011 H   0  0  0  0  0  0  0  0  0  0  0  0
    0.0016   -1.3996   -0.0017 C   0  0  0  0  0  0  0  0  0  0  0  0
   -0.0010   -2.3963   -0.0044 H   0  0  0  0  0  0  0  0  0  0  0  0
    1.2049   -0.6984   -0.0000 C   0  0  0  0  0  0  0  0  0  0  0  0
    2.0863   -1.1919    0.0027 H   0  0  0  0  0  0  0  0  0  0  0  0
    1.1973    0.6990   -0.0003 C   0  0  0  0  0  0  0  0  0  0  0  0
    2.0651    1.1940   -0.0021 H   0  0  0  0  0  0  0  0  0  0  0  0
  1  5  1  0
  5  6  1  0
  5  7  2  0
  1  2  1  0
  1  3  1  0
  1  4  1  0
  8 12  1  0
 12 13  2  0
 13 15  1  0
 15 17  2  0
 17 19  1  0
 19 21  2  0
 21 12  1  0
  8  9  1  0
  8 10  1  0
  8 11  1  0
 13 14  1  0
 15 16  1  0
 17 18  1  0
 19 20  1  0
 21 22  1  0
M  CHG  1   6  -1
M  END
>  <PDB_ID>  (1306) 
pdb3eoe

>  <RESIDUE_NAME>  (1306) 
GLU   PHE

>  <FRAG_NAME>  (1306) 
ACET   MBZ

>  <FRAG_ATOM_NUM>  (1306) 
fragi: 7  fragj: 15

>  <atom.prop.CHAIN_ID>  (1306) 
A A A A A A A Z Z Z Z Z Z Z Z Z Z Z Z Z Z Z

>  <atom.prop.IS_HEAVY_ATOM>  (1306) 
1 0 0 0 1 1 1 1 0 0 0 1 1 0 1 0 1 0 1 0 1 0

>  <DIFUSE_FUNC_ATOM>  (1306) 
atom 6   atom 7   

>  <FINAL_SINGLE_POINT_ENERGY>  (1306) 
0

>  <NONCOV_INTER_ENERGY_QM>  (1306) 
0

>  <FF_Energy>  (1306) 
-0.77

>  <QM_Energy>  (1306) 
-8.88

>  <source>  (1306) 
ACET_MBZ_01

>  <Index>  (1306) 
11953

$$$$
ACET-pdb3epz-A-ASP-565:MBZ-pdb3epz-A-PHE-576
     RDKit          3D

 22 21  0  0  0  0  0  0  0  0999 V2000
   -1.7604    4.7264   -3.9686 C   0  0  0  0  0  0  0  0  0  0  0  0
   -2.0247    3.7803   -3.8176 H   0  0  0  0  0  0  0  0  0  0  0  0
   -0.8514    4.7738   -4.3663 H   0  0  0  0  0  0  0  0  0  0  0  0
   -2.4625    5.1631   -4.6788 H   0  0  0  0  0  0  0  0  0  0  0  0
   -1.7559    5.4494   -2.6484 C   0  0  0  0  0  0  0  0  0  0  0  0
   -1.9382    6.6832   -2.6444 O   0  0  0  0  0  1  0  0  0  0  0  0
   -1.5812    4.7867   -1.6082 O   0  0  0  0  0  0  0  0  0  0  0  0
    0.0065    2.9081   -0.0227 C   0  0  0  0  0  0  0  0  0  0  0  0
   -0.6328    3.2009   -0.7203 H   0  0  0  0  0  0  0  0  0  0  0  0
    0.9269    3.2075   -0.2365 H   0  0  0  0  0  0  0  0  0  0  0  0
   -0.2875    3.3731    0.9183 H   0  0  0  0  0  0  0  0  0  0  0  0
    0.0041    1.4044    0.0038 C   0  0  0  0  0  0  0  0  0  0  0  0
   -1.1943    0.6980   -0.0062 C   0  0  0  0  0  0  0  0  0  0  0  0
   -2.0609    1.1873   -0.0192 H   0  0  0  0  0  0  0  0  0  0  0  0
   -1.2037   -0.6998   -0.0000 C   0  0  0  0  0  0  0  0  0  0  0  0
   -2.0849   -1.1843    0.0021 H   0  0  0  0  0  0  0  0  0  0  0  0
   -0.0104   -1.3951    0.0049 C   0  0  0  0  0  0  0  0  0  0  0  0
   -0.0099   -2.3950    0.0118 H   0  0  0  0  0  0  0  0  0  0  0  0
    1.2037   -0.7002    0.0000 C   0  0  0  0  0  0  0  0  0  0  0  0
    2.0776   -1.2020   -0.0001 H   0  0  0  0  0  0  0  0  0  0  0  0
    1.2007    0.6927   -0.0025 C   0  0  0  0  0  0  0  0  0  0  0  0
    2.0696    1.1871   -0.0099 H   0  0  0  0  0  0  0  0  0  0  0  0
  1  5  1  0
  5  6  1  0
  5  7  2  0
  1  2  1  0
  1  3  1  0
  1  4  1  0
  8 12  1  0
 12 13  2  0
 13 15  1  0
 15 17  2  0
 17 19  1  0
 19 21  2  0
 21 12  1  0
  8  9  1  0
  8 10  1  0
  8 11  1  0
 13 14  1  0
 15 16  1  0
 17 18  1  0
 19 20  1  0
 21 22  1  0
M  CHG  1   6  -1
M  END
>  <PDB_ID>  (1307) 
pdb3epz

>  <RESIDUE_NAME>  (1307) 
ASP   PHE

>  <FRAG_NAME>  (1307) 
ACET   MBZ

>  <FRAG_ATOM_NUM>  (1307) 
fragi: 7  fragj: 15

>  <atom.prop.CHAIN_ID>  (1307) 
A A A A A A A Z Z Z Z Z Z Z Z Z Z Z Z Z Z Z

>  <atom.prop.IS_HEAVY_ATOM>  (1307) 
1 0 0 0 1 1 1 1 0 0 0 1 1 0 1 0 1 0 1 0 1 0

>  <DIFUSE_FUNC_ATOM>  (1307) 
atom 6   atom 7   

>  <FINAL_SINGLE_POINT_ENERGY>  (1307) 
0

>  <NONCOV_INTER_ENERGY_QM>  (1307) 
0

>  <FF_Energy>  (1307) 
4.06

>  <QM_Energy>  (1307) 
-4.85

>  <source>  (1307) 
ACET_MBZ_01

>  <Index>  (1307) 
11988

$$$$
ACET-pdb3epz-B-ASP-362:MBZ-pdb3epz-B-PHE-348
     RDKit          3D

 22 21  0  0  0  0  0  0  0  0999 V2000
   -3.0539   -0.6614   -3.1416 C   0  0  0  0  0  0  0  0  0  0  0  0
   -3.7409   -0.6601   -3.8648 H   0  0  0  0  0  0  0  0  0  0  0  0
   -3.1019   -1.5153   -2.6298 H   0  0  0  0  0  0  0  0  0  0  0  0
   -2.0720   -0.6054   -3.6115 H   0  0  0  0  0  0  0  0  0  0  0  0
   -3.3423    0.4902   -2.1956 C   0  0  0  0  0  0  0  0  0  0  0  0
   -2.4953    1.3866   -2.0148 O   0  0  0  0  0  1  0  0  0  0  0  0
   -4.4569    0.4862   -1.6410 O   0  0  0  0  0  0  0  0  0  0  0  0
    0.0034    2.9021    0.0045 C   0  0  0  0  0  0  0  0  0  0  0  0
   -0.8628    3.2144   -0.3513 H   0  0  0  0  0  0  0  0  0  0  0  0
    0.7574    3.2111   -0.5526 H   0  0  0  0  0  0  0  0  0  0  0  0
    0.1280    3.3324    0.9983 H   0  0  0  0  0  0  0  0  0  0  0  0
   -0.0001    1.4011   -0.0029 C   0  0  0  0  0  0  0  0  0  0  0  0
   -1.1969    0.6954    0.0008 C   0  0  0  0  0  0  0  0  0  0  0  0
   -2.0630    1.1861    0.0022 H   0  0  0  0  0  0  0  0  0  0  0  0
   -1.2031   -0.6952    0.0000 C   0  0  0  0  0  0  0  0  0  0  0  0
   -2.0810   -1.1874   -0.0007 H   0  0  0  0  0  0  0  0  0  0  0  0
   -0.0031   -1.3930    0.0028 C   0  0  0  0  0  0  0  0  0  0  0  0
   -0.0078   -2.3924    0.0059 H   0  0  0  0  0  0  0  0  0  0  0  0
    1.2031   -0.6993   -0.0000 C   0  0  0  0  0  0  0  0  0  0  0  0
    2.0807   -1.1998   -0.0002 H   0  0  0  0  0  0  0  0  0  0  0  0
    1.2001    0.6909   -0.0007 C   0  0  0  0  0  0  0  0  0  0  0  0
    2.0664    1.1884   -0.0008 H   0  0  0  0  0  0  0  0  0  0  0  0
  1  5  1  0
  5  6  1  0
  5  7  2  0
  1  2  1  0
  1  3  1  0
  1  4  1  0
  8 12  1  0
 12 13  2  0
 13 15  1  0
 15 17  2  0
 17 19  1  0
 19 21  2  0
 21 12  1  0
  8  9  1  0
  8 10  1  0
  8 11  1  0
 13 14  1  0
 15 16  1  0
 17 18  1  0
 19 20  1  0
 21 22  1  0
M  CHG  1   6  -1
M  END
>  <PDB_ID>  (1308) 
pdb3epz

>  <RESIDUE_NAME>  (1308) 
ASP   PHE

>  <FRAG_NAME>  (1308) 
ACET   MBZ

>  <FRAG_ATOM_NUM>  (1308) 
fragi: 7  fragj: 15

>  <atom.prop.CHAIN_ID>  (1308) 
A A A A A A A Z Z Z Z Z Z Z Z Z Z Z Z Z Z Z

>  <atom.prop.IS_HEAVY_ATOM>  (1308) 
1 0 0 0 1 1 1 1 0 0 0 1 1 0 1 0 1 0 1 0 1 0

>  <DIFUSE_FUNC_ATOM>  (1308) 
atom 6   atom 7   

>  <FINAL_SINGLE_POINT_ENERGY>  (1308) 
0

>  <NONCOV_INTER_ENERGY_QM>  (1308) 
0

>  <FF_Energy>  (1308) 
13.98

>  <QM_Energy>  (1308) 
-1.88

>  <source>  (1308) 
ACET_MBZ_01

>  <Index>  (1308) 
11989

$$$$
ACET-pdb3eud-D-ASP-11:MBZ-pdb3eud-D-PHE-14
     RDKit          3D

 22 21  0  0  0  0  0  0  0  0999 V2000
    5.2280    4.6543   -0.8191 C   0  0  0  0  0  0  0  0  0  0  0  0
    6.0226    4.3205   -1.3191 H   0  0  0  0  0  0  0  0  0  0  0  0
    5.5147    5.0733    0.0372 H   0  0  0  0  0  0  0  0  0  0  0  0
    4.7537    5.4261   -1.4253 H   0  0  0  0  0  0  0  0  0  0  0  0
    4.3173    3.4758   -0.5072 C   0  0  0  0  0  0  0  0  0  0  0  0
    3.3111    3.2724   -1.2277 O   0  0  0  0  0  1  0  0  0  0  0  0
    4.6360    2.7354    0.4662 O   0  0  0  0  0  0  0  0  0  0  0  0
    0.0103    2.8833    0.0306 C   0  0  0  0  0  0  0  0  0  0  0  0
    0.9187    3.1832    0.2979 H   0  0  0  0  0  0  0  0  0  0  0  0
   -0.6653    3.1841    0.6951 H   0  0  0  0  0  0  0  0  0  0  0  0
   -0.2272    3.3632   -0.9188 H   0  0  0  0  0  0  0  0  0  0  0  0
    0.0006    1.3939   -0.0048 C   0  0  0  0  0  0  0  0  0  0  0  0
   -1.1918    0.6985    0.0037 C   0  0  0  0  0  0  0  0  0  0  0  0
   -2.0584    1.1907    0.0120 H   0  0  0  0  0  0  0  0  0  0  0  0
   -1.2018   -0.6893   -0.0000 C   0  0  0  0  0  0  0  0  0  0  0  0
   -2.0814   -1.1798   -0.0006 H   0  0  0  0  0  0  0  0  0  0  0  0
   -0.0069   -1.3869   -0.0008 C   0  0  0  0  0  0  0  0  0  0  0  0
   -0.0124   -2.3880   -0.0025 H   0  0  0  0  0  0  0  0  0  0  0  0
    1.2018   -0.6982    0.0000 C   0  0  0  0  0  0  0  0  0  0  0  0
    2.0765   -1.2047    0.0010 H   0  0  0  0  0  0  0  0  0  0  0  0
    1.1981    0.6820    0.0019 C   0  0  0  0  0  0  0  0  0  0  0  0
    2.0653    1.1841    0.0070 H   0  0  0  0  0  0  0  0  0  0  0  0
  1  5  1  0
  5  6  1  0
  5  7  2  0
  1  2  1  0
  1  3  1  0
  1  4  1  0
  8 12  1  0
 12 13  2  0
 13 15  1  0
 15 17  2  0
 17 19  1  0
 19 21  2  0
 21 12  1  0
  8  9  1  0
  8 10  1  0
  8 11  1  0
 13 14  1  0
 15 16  1  0
 17 18  1  0
 19 20  1  0
 21 22  1  0
M  CHG  1   6  -1
M  END
>  <PDB_ID>  (1309) 
pdb3eud

>  <RESIDUE_NAME>  (1309) 
ASP   PHE

>  <FRAG_NAME>  (1309) 
ACET   MBZ

>  <FRAG_ATOM_NUM>  (1309) 
fragi: 7  fragj: 15

>  <atom.prop.CHAIN_ID>  (1309) 
A A A A A A A Z Z Z Z Z Z Z Z Z Z Z Z Z Z Z

>  <atom.prop.IS_HEAVY_ATOM>  (1309) 
1 0 0 0 1 1 1 1 0 0 0 1 1 0 1 0 1 0 1 0 1 0

>  <DIFUSE_FUNC_ATOM>  (1309) 
atom 6   atom 7   

>  <FINAL_SINGLE_POINT_ENERGY>  (1309) 
0

>  <NONCOV_INTER_ENERGY_QM>  (1309) 
0

>  <FF_Energy>  (1309) 
-2.55

>  <QM_Energy>  (1309) 
-7.92

>  <source>  (1309) 
ACET_MBZ_01

>  <Index>  (1309) 
12357

$$$$
ACET-pdb4a94-B-GLU-20:MBZ-pdb4a94-B-PHE-6
     RDKit          3D

 22 21  0  0  0  0  0  0  0  0999 V2000
    0.6376    0.8982    3.7156 C   0  0  0  0  0  0  0  0  0  0  0  0
   -0.0371    0.5081    3.1154 H   0  0  0  0  0  0  0  0  0  0  0  0
    0.3769    0.8283    4.6615 H   0  0  0  0  0  0  0  0  0  0  0  0
    1.5728    0.3557    3.5769 H   0  0  0  0  0  0  0  0  0  0  0  0
    0.7398    2.3890    3.3800 C   0  0  0  0  0  0  0  0  0  0  0  0
    1.8335    2.8484    2.9861 O   0  0  0  0  0  1  0  0  0  0  0  0
   -0.2790    3.0977    3.5127 O   0  0  0  0  0  0  0  0  0  0  0  0
    0.0055    2.9212    0.0154 C   0  0  0  0  0  0  0  0  0  0  0  0
    0.8237    3.2139    0.4856 H   0  0  0  0  0  0  0  0  0  0  0  0
   -0.8100    3.2186    0.4887 H   0  0  0  0  0  0  0  0  0  0  0  0
    0.0049    3.3810   -0.9729 H   0  0  0  0  0  0  0  0  0  0  0  0
    0.0014    1.4025   -0.0027 C   0  0  0  0  0  0  0  0  0  0  0  0
   -1.1905    0.6973    0.0025 C   0  0  0  0  0  0  0  0  0  0  0  0
   -2.0598    1.1839    0.0072 H   0  0  0  0  0  0  0  0  0  0  0  0
   -1.1963   -0.6979   -0.0000 C   0  0  0  0  0  0  0  0  0  0  0  0
   -2.0776   -1.1857    0.0018 H   0  0  0  0  0  0  0  0  0  0  0  0
   -0.0042   -1.3922   -0.0032 C   0  0  0  0  0  0  0  0  0  0  0  0
   -0.0070   -2.3927   -0.0080 H   0  0  0  0  0  0  0  0  0  0  0  0
    1.1963   -0.6998   -0.0000 C   0  0  0  0  0  0  0  0  0  0  0  0
    2.0766   -1.1984    0.0014 H   0  0  0  0  0  0  0  0  0  0  0  0
    1.1933    0.6901    0.0035 C   0  0  0  0  0  0  0  0  0  0  0  0
    2.0642    1.1845    0.0096 H   0  0  0  0  0  0  0  0  0  0  0  0
  1  5  1  0
  5  6  1  0
  5  7  2  0
  1  2  1  0
  1  3  1  0
  1  4  1  0
  8 12  1  0
 12 13  2  0
 13 15  1  0
 15 17  2  0
 17 19  1  0
 19 21  2  0
 21 12  1  0
  8  9  1  0
  8 10  1  0
  8 11  1  0
 13 14  1  0
 15 16  1  0
 17 18  1  0
 19 20  1  0
 21 22  1  0
M  CHG  1   6  -1
M  END
>  <PDB_ID>  (1310) 
pdb4a94

>  <RESIDUE_NAME>  (1310) 
GLU   PHE

>  <FRAG_NAME>  (1310) 
ACET   MBZ

>  <FRAG_ATOM_NUM>  (1310) 
fragi: 7  fragj: 15

>  <atom.prop.CHAIN_ID>  (1310) 
A A A A A A A Z Z Z Z Z Z Z Z Z Z Z Z Z Z Z

>  <atom.prop.IS_HEAVY_ATOM>  (1310) 
1 0 0 0 1 1 1 1 0 0 0 1 1 0 1 0 1 0 1 0 1 0

>  <DIFUSE_FUNC_ATOM>  (1310) 
atom 6   atom 7   

>  <FINAL_SINGLE_POINT_ENERGY>  (1310) 
0

>  <NONCOV_INTER_ENERGY_QM>  (1310) 
0

>  <FF_Energy>  (1310) 
-0.92

>  <QM_Energy>  (1310) 
-6.66

>  <source>  (1310) 
ACET_MBZ_01

>  <Index>  (1310) 
12395

$$$$
ACET-pdb3eul-B-ASP-15:MBZ-pdb3eul-B-PHE-20
     RDKit          3D

 22 21  0  0  0  0  0  0  0  0999 V2000
    5.1244    3.1090   -1.0083 C   0  0  0  0  0  0  0  0  0  0  0  0
    5.3059    2.2287   -0.5860 H   0  0  0  0  0  0  0  0  0  0  0  0
    4.8946    3.7855   -0.3200 H   0  0  0  0  0  0  0  0  0  0  0  0
    6.0367    3.4356   -1.5073 H   0  0  0  0  0  0  0  0  0  0  0  0
    3.9381    2.9579   -1.9615 C   0  0  0  0  0  0  0  0  0  0  0  0
    3.7069    3.8815   -2.7789 O   0  0  0  0  0  1  0  0  0  0  0  0
    3.2218    1.9279   -1.8798 O   0  0  0  0  0  0  0  0  0  0  0  0
   -0.0161    2.8795    0.0529 C   0  0  0  0  0  0  0  0  0  0  0  0
   -0.7754    3.2074   -0.4764 H   0  0  0  0  0  0  0  0  0  0  0  0
    0.8453    3.2155   -0.2758 H   0  0  0  0  0  0  0  0  0  0  0  0
   -0.1444    3.2347    1.0753 H   0  0  0  0  0  0  0  0  0  0  0  0
   -0.0001    1.3934   -0.0136 C   0  0  0  0  0  0  0  0  0  0  0  0
   -1.1875    0.6870   -0.0018 C   0  0  0  0  0  0  0  0  0  0  0  0
   -2.0563    1.1839    0.0047 H   0  0  0  0  0  0  0  0  0  0  0  0
   -1.1924   -0.6833   -0.0000 C   0  0  0  0  0  0  0  0  0  0  0  0
   -2.0775   -1.1794   -0.0025 H   0  0  0  0  0  0  0  0  0  0  0  0
   -0.0108   -1.3778    0.0077 C   0  0  0  0  0  0  0  0  0  0  0  0
   -0.0199   -2.3836    0.0188 H   0  0  0  0  0  0  0  0  0  0  0  0
    1.1924   -0.7014    0.0000 C   0  0  0  0  0  0  0  0  0  0  0  0
    2.0687   -1.2080   -0.0103 H   0  0  0  0  0  0  0  0  0  0  0  0
    1.1983    0.6822    0.0076 C   0  0  0  0  0  0  0  0  0  0  0  0
    2.0642    1.1778    0.0270 H   0  0  0  0  0  0  0  0  0  0  0  0
  1  5  1  0
  5  6  1  0
  5  7  2  0
  1  2  1  0
  1  3  1  0
  1  4  1  0
  8 12  1  0
 12 13  2  0
 13 15  1  0
 15 17  2  0
 17 19  1  0
 19 21  2  0
 21 12  1  0
  8  9  1  0
  8 10  1  0
  8 11  1  0
 13 14  1  0
 15 16  1  0
 17 18  1  0
 19 20  1  0
 21 22  1  0
M  CHG  1   6  -1
M  END
>  <PDB_ID>  (1311) 
pdb3eul

>  <RESIDUE_NAME>  (1311) 
ASP   PHE

>  <FRAG_NAME>  (1311) 
ACET   MBZ

>  <FRAG_ATOM_NUM>  (1311) 
fragi: 7  fragj: 15

>  <atom.prop.CHAIN_ID>  (1311) 
A A A A A A A Z Z Z Z Z Z Z Z Z Z Z Z Z Z Z

>  <atom.prop.IS_HEAVY_ATOM>  (1311) 
1 0 0 0 1 1 1 1 0 0 0 1 1 0 1 0 1 0 1 0 1 0

>  <DIFUSE_FUNC_ATOM>  (1311) 
atom 6   atom 7   

>  <FINAL_SINGLE_POINT_ENERGY>  (1311) 
0

>  <NONCOV_INTER_ENERGY_QM>  (1311) 
0

>  <FF_Energy>  (1311) 
-0.01

>  <QM_Energy>  (1311) 
-5.21

>  <source>  (1311) 
ACET_MBZ_01

>  <Index>  (1311) 
12403

$$$$
ACET-pdb4a8j-F-GLU-149:MBZ-pdb4a8j-F-PHE-89
     RDKit          3D

 22 21  0  0  0  0  0  0  0  0999 V2000
    0.0564   -6.4647    0.9516 C   0  0  0  0  0  0  0  0  0  0  0  0
    0.9100   -6.8968    0.7309 H   0  0  0  0  0  0  0  0  0  0  0  0
   -0.6856   -7.1046    1.0023 H   0  0  0  0  0  0  0  0  0  0  0  0
    0.1560   -5.9648    1.9151 H   0  0  0  0  0  0  0  0  0  0  0  0
   -0.2669   -5.4944   -0.2033 C   0  0  0  0  0  0  0  0  0  0  0  0
    0.4637   -4.4920   -0.3792 O   0  0  0  0  0  1  0  0  0  0  0  0
   -1.2509   -5.7357   -0.9421 O   0  0  0  0  0  0  0  0  0  0  0  0
   -0.0181    2.9078   -0.0223 C   0  0  0  0  0  0  0  0  0  0  0  0
    0.8821    3.2253    0.2248 H   0  0  0  0  0  0  0  0  0  0  0  0
   -0.7041    3.2153    0.6150 H   0  0  0  0  0  0  0  0  0  0  0  0
   -0.2623    3.3104   -1.0054 H   0  0  0  0  0  0  0  0  0  0  0  0
   -0.0009    1.3997    0.0112 C   0  0  0  0  0  0  0  0  0  0  0  0
   -1.1891    0.6852   -0.0039 C   0  0  0  0  0  0  0  0  0  0  0  0
   -2.0613    1.1778   -0.0193 H   0  0  0  0  0  0  0  0  0  0  0  0
   -1.1977   -0.6981    0.0000 C   0  0  0  0  0  0  0  0  0  0  0  0
   -2.0777   -1.1907    0.0032 H   0  0  0  0  0  0  0  0  0  0  0  0
   -0.0053   -1.3912    0.0013 C   0  0  0  0  0  0  0  0  0  0  0  0
   -0.0055   -2.3912    0.0033 H   0  0  0  0  0  0  0  0  0  0  0  0
    1.1977   -0.6955    0.0000 C   0  0  0  0  0  0  0  0  0  0  0  0
    2.0778   -1.1925    0.0067 H   0  0  0  0  0  0  0  0  0  0  0  0
    1.1953    0.6999   -0.0087 C   0  0  0  0  0  0  0  0  0  0  0  0
    2.0619    1.1931   -0.0300 H   0  0  0  0  0  0  0  0  0  0  0  0
  1  5  1  0
  5  6  1  0
  5  7  2  0
  1  2  1  0
  1  3  1  0
  1  4  1  0
  8 12  1  0
 12 13  2  0
 13 15  1  0
 15 17  2  0
 17 19  1  0
 19 21  2  0
 21 12  1  0
  8  9  1  0
  8 10  1  0
  8 11  1  0
 13 14  1  0
 15 16  1  0
 17 18  1  0
 19 20  1  0
 21 22  1  0
M  CHG  1   6  -1
M  END
>  <PDB_ID>  (1312) 
pdb4a8j

>  <RESIDUE_NAME>  (1312) 
GLU   PHE

>  <FRAG_NAME>  (1312) 
ACET   MBZ

>  <FRAG_ATOM_NUM>  (1312) 
fragi: 7  fragj: 15

>  <atom.prop.CHAIN_ID>  (1312) 
A A A A A A A Z Z Z Z Z Z Z Z Z Z Z Z Z Z Z

>  <atom.prop.IS_HEAVY_ATOM>  (1312) 
1 0 0 0 1 1 1 1 0 0 0 1 1 0 1 0 1 0 1 0 1 0

>  <DIFUSE_FUNC_ATOM>  (1312) 
atom 6   atom 7   

>  <FINAL_SINGLE_POINT_ENERGY>  (1312) 
0

>  <NONCOV_INTER_ENERGY_QM>  (1312) 
0

>  <FF_Energy>  (1312) 
-0.81

>  <QM_Energy>  (1312) 
-5.89

>  <source>  (1312) 
ACET_MBZ_01

>  <Index>  (1312) 
12434

$$$$
ACET-pdb3euw-B-ASP-178:MBZ-pdb3euw-B-PHE-121
     RDKit          3D

 22 21  0  0  0  0  0  0  0  0999 V2000
   -0.5407    0.5881    3.7096 C   0  0  0  0  0  0  0  0  0  0  0  0
   -0.5049   -0.2558    3.1981 H   0  0  0  0  0  0  0  0  0  0  0  0
   -1.3385    1.1200    3.4765 H   0  0  0  0  0  0  0  0  0  0  0  0
   -0.5907    0.3420    4.7703 H   0  0  0  0  0  0  0  0  0  0  0  0
    0.7033    1.4075    3.3864 C   0  0  0  0  0  0  0  0  0  0  0  0
    1.8088    0.8387    3.4705 O   0  0  0  0  0  1  0  0  0  0  0  0
    0.5874    2.6125    3.0893 O   0  0  0  0  0  0  0  0  0  0  0  0
   -0.0059    2.9040   -0.0514 C   0  0  0  0  0  0  0  0  0  0  0  0
    0.9262    3.2203    0.0265 H   0  0  0  0  0  0  0  0  0  0  0  0
   -0.5641    3.2376    0.6918 H   0  0  0  0  0  0  0  0  0  0  0  0
   -0.4143    3.3100   -0.9768 H   0  0  0  0  0  0  0  0  0  0  0  0
   -0.0013    1.4060   -0.0005 C   0  0  0  0  0  0  0  0  0  0  0  0
   -1.2013    0.6922    0.0003 C   0  0  0  0  0  0  0  0  0  0  0  0
   -2.0678    1.1806    0.0000 H   0  0  0  0  0  0  0  0  0  0  0  0
   -1.2063   -0.7053   -0.0000 C   0  0  0  0  0  0  0  0  0  0  0  0
   -2.0779   -1.1985    0.0031 H   0  0  0  0  0  0  0  0  0  0  0  0
    0.0038   -1.3974   -0.0032 C   0  0  0  0  0  0  0  0  0  0  0  0
    0.0038   -2.3959   -0.0080 H   0  0  0  0  0  0  0  0  0  0  0  0
    1.2063   -0.6948    0.0000 C   0  0  0  0  0  0  0  0  0  0  0  0
    2.0876   -1.1901    0.0008 H   0  0  0  0  0  0  0  0  0  0  0  0
    1.1988    0.6993    0.0035 C   0  0  0  0  0  0  0  0  0  0  0  0
    2.0652    1.1966    0.0087 H   0  0  0  0  0  0  0  0  0  0  0  0
  1  5  1  0
  5  6  1  0
  5  7  2  0
  1  2  1  0
  1  3  1  0
  1  4  1  0
  8 12  1  0
 12 13  2  0
 13 15  1  0
 15 17  2  0
 17 19  1  0
 19 21  2  0
 21 12  1  0
  8  9  1  0
  8 10  1  0
  8 11  1  0
 13 14  1  0
 15 16  1  0
 17 18  1  0
 19 20  1  0
 21 22  1  0
M  CHG  1   6  -1
M  END
>  <PDB_ID>  (1313) 
pdb3euw

>  <RESIDUE_NAME>  (1313) 
ASP   PHE

>  <FRAG_NAME>  (1313) 
ACET   MBZ

>  <FRAG_ATOM_NUM>  (1313) 
fragi: 7  fragj: 15

>  <atom.prop.CHAIN_ID>  (1313) 
A A A A A A A Z Z Z Z Z Z Z Z Z Z Z Z Z Z Z

>  <atom.prop.IS_HEAVY_ATOM>  (1313) 
1 0 0 0 1 1 1 1 0 0 0 1 1 0 1 0 1 0 1 0 1 0

>  <DIFUSE_FUNC_ATOM>  (1313) 
atom 6   atom 7   

>  <FINAL_SINGLE_POINT_ENERGY>  (1313) 
0

>  <NONCOV_INTER_ENERGY_QM>  (1313) 
0

>  <FF_Energy>  (1313) 
1.05

>  <QM_Energy>  (1313) 
-4.83

>  <source>  (1313) 
ACET_MBZ_01

>  <Index>  (1313) 
12485

$$$$
ACET-pdb3euw-B-GLU-278:MBZ-pdb3euw-B-PHE-275
     RDKit          3D

 22 21  0  0  0  0  0  0  0  0999 V2000
    3.3772    4.2357    1.4058 C   0  0  0  0  0  0  0  0  0  0  0  0
    3.8453    4.3743    2.2548 H   0  0  0  0  0  0  0  0  0  0  0  0
    2.4180    4.0738    1.5217 H   0  0  0  0  0  0  0  0  0  0  0  0
    3.5100    5.1227    0.7864 H   0  0  0  0  0  0  0  0  0  0  0  0
    3.9718    2.9953    0.7542 C   0  0  0  0  0  0  0  0  0  0  0  0
    3.5663    2.6519   -0.3861 O   0  0  0  0  0  1  0  0  0  0  0  0
    4.8485    2.3632    1.3855 O   0  0  0  0  0  0  0  0  0  0  0  0
    0.0014    2.8989   -0.0158 C   0  0  0  0  0  0  0  0  0  0  0  0
    0.9028    3.2120    0.2369 H   0  0  0  0  0  0  0  0  0  0  0  0
   -0.6842    3.2164    0.6203 H   0  0  0  0  0  0  0  0  0  0  0  0
   -0.2331    3.3205   -0.9932 H   0  0  0  0  0  0  0  0  0  0  0  0
    0.0011    1.4051    0.0001 C   0  0  0  0  0  0  0  0  0  0  0  0
   -1.1997    0.6953   -0.0007 C   0  0  0  0  0  0  0  0  0  0  0  0
   -2.0650    1.1834   -0.0026 H   0  0  0  0  0  0  0  0  0  0  0  0
   -1.2054   -0.7044    0.0000 C   0  0  0  0  0  0  0  0  0  0  0  0
   -2.0805   -1.1947    0.0011 H   0  0  0  0  0  0  0  0  0  0  0  0
   -0.0002   -1.3971    0.0008 C   0  0  0  0  0  0  0  0  0  0  0  0
    0.0012   -2.3952    0.0012 H   0  0  0  0  0  0  0  0  0  0  0  0
    1.2054   -0.6959   -0.0000 C   0  0  0  0  0  0  0  0  0  0  0  0
    2.0848   -1.1937    0.0010 H   0  0  0  0  0  0  0  0  0  0  0  0
    1.1988    0.6971   -0.0002 C   0  0  0  0  0  0  0  0  0  0  0  0
    2.0668    1.1936   -0.0014 H   0  0  0  0  0  0  0  0  0  0  0  0
  1  5  1  0
  5  6  1  0
  5  7  2  0
  1  2  1  0
  1  3  1  0
  1  4  1  0
  8 12  1  0
 12 13  2  0
 13 15  1  0
 15 17  2  0
 17 19  1  0
 19 21  2  0
 21 12  1  0
  8  9  1  0
  8 10  1  0
  8 11  1  0
 13 14  1  0
 15 16  1  0
 17 18  1  0
 19 20  1  0
 21 22  1  0
M  CHG  1   6  -1
M  END
>  <PDB_ID>  (1314) 
pdb3euw

>  <RESIDUE_NAME>  (1314) 
GLU   PHE

>  <FRAG_NAME>  (1314) 
ACET   MBZ

>  <FRAG_ATOM_NUM>  (1314) 
fragi: 7  fragj: 15

>  <atom.prop.CHAIN_ID>  (1314) 
A A A A A A A Z Z Z Z Z Z Z Z Z Z Z Z Z Z Z

>  <atom.prop.IS_HEAVY_ATOM>  (1314) 
1 0 0 0 1 1 1 1 0 0 0 1 1 0 1 0 1 0 1 0 1 0

>  <DIFUSE_FUNC_ATOM>  (1314) 
atom 6   atom 7   

>  <FINAL_SINGLE_POINT_ENERGY>  (1314) 
0

>  <NONCOV_INTER_ENERGY_QM>  (1314) 
0

>  <FF_Energy>  (1314) 
0.68

>  <QM_Energy>  (1314) 
-7.53

>  <source>  (1314) 
ACET_MBZ_01

>  <Index>  (1314) 
12492

$$$$
ACET-pdb3ewn-A-GLU-135:MBZ-pdb3ewn-A-PHE-108
     RDKit          3D

 22 21  0  0  0  0  0  0  0  0999 V2000
    4.4165    0.8850    0.9307 C   0  0  0  0  0  0  0  0  0  0  0  0
    3.4604    0.6477    0.9272 H   0  0  0  0  0  0  0  0  0  0  0  0
    4.5924    1.6915    1.4682 H   0  0  0  0  0  0  0  0  0  0  0  0
    4.9731    0.0547    1.3652 H   0  0  0  0  0  0  0  0  0  0  0  0
    4.8166    1.1937   -0.5003 C   0  0  0  0  0  0  0  0  0  0  0  0
    4.1842    2.0844   -1.1143 O   0  0  0  0  0  1  0  0  0  0  0  0
    5.7609    0.5521   -1.0111 O   0  0  0  0  0  0  0  0  0  0  0  0
    0.0037    2.9044    0.0309 C   0  0  0  0  0  0  0  0  0  0  0  0
    0.8226    3.2188   -0.4257 H   0  0  0  0  0  0  0  0  0  0  0  0
   -0.0138    3.1940    0.9767 H   0  0  0  0  0  0  0  0  0  0  0  0
   -0.8510    3.3577   -0.4710 H   0  0  0  0  0  0  0  0  0  0  0  0
   -0.0001    1.4030    0.0021 C   0  0  0  0  0  0  0  0  0  0  0  0
   -1.1980    0.6961    0.0003 C   0  0  0  0  0  0  0  0  0  0  0  0
   -2.0647    1.1859   -0.0017 H   0  0  0  0  0  0  0  0  0  0  0  0
   -1.2036   -0.6976    0.0000 C   0  0  0  0  0  0  0  0  0  0  0  0
   -2.0789   -1.1904    0.0025 H   0  0  0  0  0  0  0  0  0  0  0  0
    0.0005   -1.3961   -0.0019 C   0  0  0  0  0  0  0  0  0  0  0  0
   -0.0049   -2.3935   -0.0054 H   0  0  0  0  0  0  0  0  0  0  0  0
    1.2036   -0.7001    0.0000 C   0  0  0  0  0  0  0  0  0  0  0  0
    2.0840   -1.1960    0.0030 H   0  0  0  0  0  0  0  0  0  0  0  0
    1.1976    0.6947   -0.0005 C   0  0  0  0  0  0  0  0  0  0  0  0
    2.0651    1.1898   -0.0036 H   0  0  0  0  0  0  0  0  0  0  0  0
  1  5  1  0
  5  6  1  0
  5  7  2  0
  1  2  1  0
  1  3  1  0
  1  4  1  0
  8 12  1  0
 12 13  2  0
 13 15  1  0
 15 17  2  0
 17 19  1  0
 19 21  2  0
 21 12  1  0
  8  9  1  0
  8 10  1  0
  8 11  1  0
 13 14  1  0
 15 16  1  0
 17 18  1  0
 19 20  1  0
 21 22  1  0
M  CHG  1   6  -1
M  END
>  <PDB_ID>  (1315) 
pdb3ewn

>  <RESIDUE_NAME>  (1315) 
GLU   PHE

>  <FRAG_NAME>  (1315) 
ACET   MBZ

>  <FRAG_ATOM_NUM>  (1315) 
fragi: 7  fragj: 15

>  <atom.prop.CHAIN_ID>  (1315) 
A A A A A A A Z Z Z Z Z Z Z Z Z Z Z Z Z Z Z

>  <atom.prop.IS_HEAVY_ATOM>  (1315) 
1 0 0 0 1 1 1 1 0 0 0 1 1 0 1 0 1 0 1 0 1 0

>  <DIFUSE_FUNC_ATOM>  (1315) 
atom 6   atom 7   

>  <FINAL_SINGLE_POINT_ENERGY>  (1315) 
0

>  <NONCOV_INTER_ENERGY_QM>  (1315) 
0

>  <FF_Energy>  (1315) 
3.94

>  <QM_Energy>  (1315) 
-3.75

>  <source>  (1315) 
ACET_MBZ_01

>  <Index>  (1315) 
12545

$$$$
ACET-pdb4adn-A-GLU-82:MBZ-pdb4adn-B-PHE-165
     RDKit          3D

 22 21  0  0  0  0  0  0  0  0999 V2000
   -4.6183    0.6826    0.4510 C   0  0  0  0  0  0  0  0  0  0  0  0
   -4.1945    0.5668    1.3244 H   0  0  0  0  0  0  0  0  0  0  0  0
   -4.0656    0.3659   -0.2903 H   0  0  0  0  0  0  0  0  0  0  0  0
   -5.5496    0.1163    0.4481 H   0  0  0  0  0  0  0  0  0  0  0  0
   -4.8484    2.1849    0.2454 C   0  0  0  0  0  0  0  0  0  0  0  0
   -6.0273    2.6020    0.1977 O   0  0  0  0  0  1  0  0  0  0  0  0
   -3.8658    2.9517    0.1244 O   0  0  0  0  0  0  0  0  0  0  0  0
   -0.0033    2.8948    0.0106 C   0  0  0  0  0  0  0  0  0  0  0  0
   -0.7470    3.2065   -0.5584 H   0  0  0  0  0  0  0  0  0  0  0  0
    0.8695    3.2070   -0.3287 H   0  0  0  0  0  0  0  0  0  0  0  0
   -0.1449    3.3183    1.0049 H   0  0  0  0  0  0  0  0  0  0  0  0
   -0.0011    1.3958   -0.0016 C   0  0  0  0  0  0  0  0  0  0  0  0
   -1.1931    0.6877    0.0019 C   0  0  0  0  0  0  0  0  0  0  0  0
   -2.0607    1.1797    0.0042 H   0  0  0  0  0  0  0  0  0  0  0  0
   -1.1936   -0.6920   -0.0000 C   0  0  0  0  0  0  0  0  0  0  0  0
   -2.0721   -1.1912    0.0017 H   0  0  0  0  0  0  0  0  0  0  0  0
    0.0014   -1.3841   -0.0029 C   0  0  0  0  0  0  0  0  0  0  0  0
   -0.0063   -2.3880   -0.0077 H   0  0  0  0  0  0  0  0  0  0  0  0
    1.1936   -0.6974    0.0000 C   0  0  0  0  0  0  0  0  0  0  0  0
    2.0774   -1.1949    0.0020 H   0  0  0  0  0  0  0  0  0  0  0  0
    1.1928    0.6900    0.0026 C   0  0  0  0  0  0  0  0  0  0  0  0
    2.0612    1.1850    0.0068 H   0  0  0  0  0  0  0  0  0  0  0  0
  1  5  1  0
  5  6  1  0
  5  7  2  0
  1  2  1  0
  1  3  1  0
  1  4  1  0
  8 12  1  0
 12 13  2  0
 13 15  1  0
 15 17  2  0
 17 19  1  0
 19 21  2  0
 21 12  1  0
  8  9  1  0
  8 10  1  0
  8 11  1  0
 13 14  1  0
 15 16  1  0
 17 18  1  0
 19 20  1  0
 21 22  1  0
M  CHG  1   6  -1
M  END
>  <PDB_ID>  (1316) 
pdb4adn

>  <RESIDUE_NAME>  (1316) 
GLU   PHE

>  <FRAG_NAME>  (1316) 
ACET   MBZ

>  <FRAG_ATOM_NUM>  (1316) 
fragi: 7  fragj: 15

>  <atom.prop.CHAIN_ID>  (1316) 
A A A A A A A Z Z Z Z Z Z Z Z Z Z Z Z Z Z Z

>  <atom.prop.IS_HEAVY_ATOM>  (1316) 
1 0 0 0 1 1 1 1 0 0 0 1 1 0 1 0 1 0 1 0 1 0

>  <DIFUSE_FUNC_ATOM>  (1316) 
atom 6   atom 7   

>  <FINAL_SINGLE_POINT_ENERGY>  (1316) 
0

>  <NONCOV_INTER_ENERGY_QM>  (1316) 
0

>  <FF_Energy>  (1316) 
-1.7

>  <QM_Energy>  (1316) 
-6.73

>  <source>  (1316) 
ACET_MBZ_01

>  <Index>  (1316) 
12577

$$$$
ACET-pdb4a0t-B-ASP-520:MBZ-pdb4a0t-A-PHE-516
     RDKit          3D

 22 21  0  0  0  0  0  0  0  0999 V2000
    0.1075    1.5503   -3.4950 C   0  0  0  0  0  0  0  0  0  0  0  0
    0.4404    2.1525   -2.7795 H   0  0  0  0  0  0  0  0  0  0  0  0
    0.1869    1.9838   -4.3834 H   0  0  0  0  0  0  0  0  0  0  0  0
    0.7174    0.6470   -3.4964 H   0  0  0  0  0  0  0  0  0  0  0  0
   -1.3972    1.2789   -3.2286 C   0  0  0  0  0  0  0  0  0  0  0  0
   -1.8581    0.1208   -3.4064 O   0  0  0  0  0  1  0  0  0  0  0  0
   -2.1095    2.2466   -2.8169 O   0  0  0  0  0  0  0  0  0  0  0  0
    0.0144    2.9378    0.0295 C   0  0  0  0  0  0  0  0  0  0  0  0
   -0.7934    3.2578   -0.4355 H   0  0  0  0  0  0  0  0  0  0  0  0
    0.8391    3.2514   -0.4106 H   0  0  0  0  0  0  0  0  0  0  0  0
    0.0002    3.3542    1.0366 H   0  0  0  0  0  0  0  0  0  0  0  0
    0.0091    1.4311    0.0003 C   0  0  0  0  0  0  0  0  0  0  0  0
   -1.2055    0.7183    0.0181 C   0  0  0  0  0  0  0  0  0  0  0  0
   -2.0679    1.1857    0.0420 H   0  0  0  0  0  0  0  0  0  0  0  0
   -1.2112   -0.7334   -0.0000 C   0  0  0  0  0  0  0  0  0  0  0  0
   -2.0950   -1.1939   -0.0052 H   0  0  0  0  0  0  0  0  0  0  0  0
   -0.0165   -1.4217   -0.0073 C   0  0  0  0  0  0  0  0  0  0  0  0
    0.0016   -2.4168   -0.0185 H   0  0  0  0  0  0  0  0  0  0  0  0
    1.2112   -0.7075   -0.0000 C   0  0  0  0  0  0  0  0  0  0  0  0
    2.0841   -1.2035    0.0141 H   0  0  0  0  0  0  0  0  0  0  0  0
    1.2128    0.7131   -0.0111 C   0  0  0  0  0  0  0  0  0  0  0  0
    2.0808    1.1953   -0.0281 H   0  0  0  0  0  0  0  0  0  0  0  0
  1  5  1  0
  5  6  1  0
  5  7  2  0
  1  2  1  0
  1  3  1  0
  1  4  1  0
  8 12  1  0
 12 13  2  0
 13 15  1  0
 15 17  2  0
 17 19  1  0
 19 21  2  0
 21 12  1  0
  8  9  1  0
  8 10  1  0
  8 11  1  0
 13 14  1  0
 15 16  1  0
 17 18  1  0
 19 20  1  0
 21 22  1  0
M  CHG  1   6  -1
M  END
>  <PDB_ID>  (1317) 
pdb4a0t

>  <RESIDUE_NAME>  (1317) 
ASP   PHE

>  <FRAG_NAME>  (1317) 
ACET   MBZ

>  <FRAG_ATOM_NUM>  (1317) 
fragi: 7  fragj: 15

>  <atom.prop.CHAIN_ID>  (1317) 
A A A A A A A Z Z Z Z Z Z Z Z Z Z Z Z Z Z Z

>  <atom.prop.IS_HEAVY_ATOM>  (1317) 
1 0 0 0 1 1 1 1 0 0 0 1 1 0 1 0 1 0 1 0 1 0

>  <DIFUSE_FUNC_ATOM>  (1317) 
atom 6   atom 7   

>  <FINAL_SINGLE_POINT_ENERGY>  (1317) 
0

>  <NONCOV_INTER_ENERGY_QM>  (1317) 
0

>  <FF_Energy>  (1317) 
0.6

>  <QM_Energy>  (1317) 
-4.54

>  <source>  (1317) 
ACET_MBZ_01

>  <Index>  (1317) 
12586

$$$$
ACET-pdb3ez4-D-ASP-24:MBZ-pdb3ez4-D-PHE-27
     RDKit          3D

 22 21  0  0  0  0  0  0  0  0999 V2000
    5.2830    4.2944    0.2059 C   0  0  0  0  0  0  0  0  0  0  0  0
    5.8655    4.3174   -0.5957 H   0  0  0  0  0  0  0  0  0  0  0  0
    5.7911    4.0056    1.0049 H   0  0  0  0  0  0  0  0  0  0  0  0
    4.9032    5.3005    0.3840 H   0  0  0  0  0  0  0  0  0  0  0  0
    4.1600    3.2696   -0.0463 C   0  0  0  0  0  0  0  0  0  0  0  0
    3.4423    3.3198   -1.0944 O   0  0  0  0  0  1  0  0  0  0  0  0
    4.0084    2.3888    0.8258 O   0  0  0  0  0  0  0  0  0  0  0  0
   -0.0023    2.8842   -0.0028 C   0  0  0  0  0  0  0  0  0  0  0  0
    0.9088    3.1974    0.2254 H   0  0  0  0  0  0  0  0  0  0  0  0
   -0.6625    3.1841    0.6704 H   0  0  0  0  0  0  0  0  0  0  0  0
   -0.2776    3.3267   -0.9601 H   0  0  0  0  0  0  0  0  0  0  0  0
    0.0072    1.3909   -0.0138 C   0  0  0  0  0  0  0  0  0  0  0  0
   -1.1893    0.6751   -0.0006 C   0  0  0  0  0  0  0  0  0  0  0  0
   -2.0552    1.1752    0.0075 H   0  0  0  0  0  0  0  0  0  0  0  0
   -1.1898   -0.6917    0.0000 C   0  0  0  0  0  0  0  0  0  0  0  0
   -2.0745   -1.1909   -0.0087 H   0  0  0  0  0  0  0  0  0  0  0  0
   -0.0109   -1.3749    0.0142 C   0  0  0  0  0  0  0  0  0  0  0  0
   -0.0114   -2.3832    0.0345 H   0  0  0  0  0  0  0  0  0  0  0  0
    1.1898   -0.6946    0.0000 C   0  0  0  0  0  0  0  0  0  0  0  0
    2.0690   -1.1958   -0.0089 H   0  0  0  0  0  0  0  0  0  0  0  0
    1.1931    0.6952    0.0002 C   0  0  0  0  0  0  0  0  0  0  0  0
    2.0637    1.1847    0.0097 H   0  0  0  0  0  0  0  0  0  0  0  0
  1  5  1  0
  5  6  1  0
  5  7  2  0
  1  2  1  0
  1  3  1  0
  1  4  1  0
  8 12  1  0
 12 13  2  0
 13 15  1  0
 15 17  2  0
 17 19  1  0
 19 21  2  0
 21 12  1  0
  8  9  1  0
  8 10  1  0
  8 11  1  0
 13 14  1  0
 15 16  1  0
 17 18  1  0
 19 20  1  0
 21 22  1  0
M  CHG  1   6  -1
M  END
>  <PDB_ID>  (1318) 
pdb3ez4

>  <RESIDUE_NAME>  (1318) 
ASP   PHE

>  <FRAG_NAME>  (1318) 
ACET   MBZ

>  <FRAG_ATOM_NUM>  (1318) 
fragi: 7  fragj: 15

>  <atom.prop.CHAIN_ID>  (1318) 
A A A A A A A Z Z Z Z Z Z Z Z Z Z Z Z Z Z Z

>  <atom.prop.IS_HEAVY_ATOM>  (1318) 
1 0 0 0 1 1 1 1 0 0 0 1 1 0 1 0 1 0 1 0 1 0

>  <DIFUSE_FUNC_ATOM>  (1318) 
atom 6   atom 7   

>  <FINAL_SINGLE_POINT_ENERGY>  (1318) 
0

>  <NONCOV_INTER_ENERGY_QM>  (1318) 
0

>  <FF_Energy>  (1318) 
-2.62

>  <QM_Energy>  (1318) 
-9.11

>  <source>  (1318) 
ACET_MBZ_01

>  <Index>  (1318) 
12709

$$$$
ACET-pdb3ezo-A-GLU-32:MBZ-pdb3ezo-A-PHE-104
     RDKit          3D

 22 21  0  0  0  0  0  0  0  0999 V2000
    4.5751    0.2357    2.3390 C   0  0  0  0  0  0  0  0  0  0  0  0
    3.6943   -0.0898    2.6397 H   0  0  0  0  0  0  0  0  0  0  0  0
    5.1160    0.5712    3.0922 H   0  0  0  0  0  0  0  0  0  0  0  0
    5.1083   -0.5802    1.8510 H   0  0  0  0  0  0  0  0  0  0  0  0
    4.2895    1.4790    1.4225 C   0  0  0  0  0  0  0  0  0  0  0  0
    4.4548    1.4296    0.1601 O   0  0  0  0  0  1  0  0  0  0  0  0
    3.9132    2.5084    2.0351 O   0  0  0  0  0  0  0  0  0  0  0  0
    0.0097    2.9504   -0.0332 C   0  0  0  0  0  0  0  0  0  0  0  0
   -0.3740    3.2270   -0.9034 H   0  0  0  0  0  0  0  0  0  0  0  0
    0.9545    3.2380    0.0468 H   0  0  0  0  0  0  0  0  0  0  0  0
   -0.5633    3.4259    0.7629 H   0  0  0  0  0  0  0  0  0  0  0  0
   -0.0007    1.4228   -0.0005 C   0  0  0  0  0  0  0  0  0  0  0  0
   -1.1955    0.7023   -0.0156 C   0  0  0  0  0  0  0  0  0  0  0  0
   -2.0686    1.1809   -0.0388 H   0  0  0  0  0  0  0  0  0  0  0  0
   -1.2102   -0.7214    0.0000 C   0  0  0  0  0  0  0  0  0  0  0  0
   -2.0848   -1.1968    0.0142 H   0  0  0  0  0  0  0  0  0  0  0  0
   -0.0012   -1.4167   -0.0036 C   0  0  0  0  0  0  0  0  0  0  0  0
    0.0057   -2.4096   -0.0087 H   0  0  0  0  0  0  0  0  0  0  0  0
    1.2102   -0.7021   -0.0000 C   0  0  0  0  0  0  0  0  0  0  0  0
    2.0912   -1.1872   -0.0103 H   0  0  0  0  0  0  0  0  0  0  0  0
    1.1974    0.7151    0.0198 C   0  0  0  0  0  0  0  0  0  0  0  0
    2.0675    1.2022    0.0482 H   0  0  0  0  0  0  0  0  0  0  0  0
  1  5  1  0
  5  6  1  0
  5  7  2  0
  1  2  1  0
  1  3  1  0
  1  4  1  0
  8 12  1  0
 12 13  2  0
 13 15  1  0
 15 17  2  0
 17 19  1  0
 19 21  2  0
 21 12  1  0
  8  9  1  0
  8 10  1  0
  8 11  1  0
 13 14  1  0
 15 16  1  0
 17 18  1  0
 19 20  1  0
 21 22  1  0
M  CHG  1   6  -1
M  END
>  <PDB_ID>  (1319) 
pdb3ezo

>  <RESIDUE_NAME>  (1319) 
GLU   PHE

>  <FRAG_NAME>  (1319) 
ACET   MBZ

>  <FRAG_ATOM_NUM>  (1319) 
fragi: 7  fragj: 15

>  <atom.prop.CHAIN_ID>  (1319) 
A A A A A A A Z Z Z Z Z Z Z Z Z Z Z Z Z Z Z

>  <atom.prop.IS_HEAVY_ATOM>  (1319) 
1 0 0 0 1 1 1 1 0 0 0 1 1 0 1 0 1 0 1 0 1 0

>  <DIFUSE_FUNC_ATOM>  (1319) 
atom 6   atom 7   

>  <FINAL_SINGLE_POINT_ENERGY>  (1319) 
0

>  <NONCOV_INTER_ENERGY_QM>  (1319) 
0

>  <FF_Energy>  (1319) 
-2.12

>  <QM_Energy>  (1319) 
-7.46

>  <source>  (1319) 
ACET_MBZ_01

>  <Index>  (1319) 
12751

$$$$
ACET-pdb3ezs-B-GLU-368:MBZ-pdb3ezs-B-PHE-299
     RDKit          3D

 22 21  0  0  0  0  0  0  0  0999 V2000
   -4.9339    1.7438   -2.5383 C   0  0  0  0  0  0  0  0  0  0  0  0
   -4.4240    2.0731   -3.3066 H   0  0  0  0  0  0  0  0  0  0  0  0
   -5.9025    1.7676   -2.6859 H   0  0  0  0  0  0  0  0  0  0  0  0
   -4.6535    0.7016   -2.3865 H   0  0  0  0  0  0  0  0  0  0  0  0
   -4.6194    2.6614   -1.3362 C   0  0  0  0  0  0  0  0  0  0  0  0
   -4.0639    2.1935   -0.3216 O   0  0  0  0  0  1  0  0  0  0  0  0
   -4.9031    3.8747   -1.4065 O   0  0  0  0  0  0  0  0  0  0  0  0
   -0.0216    2.9157   -0.0262 C   0  0  0  0  0  0  0  0  0  0  0  0
    0.9126    3.2308   -0.0309 H   0  0  0  0  0  0  0  0  0  0  0  0
   -0.5082    3.2202    0.7755 H   0  0  0  0  0  0  0  0  0  0  0  0
   -0.5215    3.3308   -0.9013 H   0  0  0  0  0  0  0  0  0  0  0  0
   -0.0006    1.4026   -0.0088 C   0  0  0  0  0  0  0  0  0  0  0  0
   -1.1862    0.6783    0.0014 C   0  0  0  0  0  0  0  0  0  0  0  0
   -2.0621    1.1662    0.0084 H   0  0  0  0  0  0  0  0  0  0  0  0
   -1.1916   -0.7100    0.0000 C   0  0  0  0  0  0  0  0  0  0  0  0
   -2.0715   -1.2013   -0.0060 H   0  0  0  0  0  0  0  0  0  0  0  0
   -0.0001   -1.3948    0.0087 C   0  0  0  0  0  0  0  0  0  0  0  0
    0.0086   -2.3936    0.0206 H   0  0  0  0  0  0  0  0  0  0  0  0
    1.1916   -0.6871   -0.0000 C   0  0  0  0  0  0  0  0  0  0  0  0
    2.0806   -1.1781   -0.0044 H   0  0  0  0  0  0  0  0  0  0  0  0
    1.1870    0.7110   -0.0013 C   0  0  0  0  0  0  0  0  0  0  0  0
    2.0574    1.2000    0.0021 H   0  0  0  0  0  0  0  0  0  0  0  0
  1  5  1  0
  5  6  1  0
  5  7  2  0
  1  2  1  0
  1  3  1  0
  1  4  1  0
  8 12  1  0
 12 13  2  0
 13 15  1  0
 15 17  2  0
 17 19  1  0
 19 21  2  0
 21 12  1  0
  8  9  1  0
  8 10  1  0
  8 11  1  0
 13 14  1  0
 15 16  1  0
 17 18  1  0
 19 20  1  0
 21 22  1  0
M  CHG  1   6  -1
M  END
>  <PDB_ID>  (1320) 
pdb3ezs

>  <RESIDUE_NAME>  (1320) 
GLU   PHE

>  <FRAG_NAME>  (1320) 
ACET   MBZ

>  <FRAG_ATOM_NUM>  (1320) 
fragi: 7  fragj: 15

>  <atom.prop.CHAIN_ID>  (1320) 
A A A A A A A Z Z Z Z Z Z Z Z Z Z Z Z Z Z Z

>  <atom.prop.IS_HEAVY_ATOM>  (1320) 
1 0 0 0 1 1 1 1 0 0 0 1 1 0 1 0 1 0 1 0 1 0

>  <DIFUSE_FUNC_ATOM>  (1320) 
atom 6   atom 7   

>  <FINAL_SINGLE_POINT_ENERGY>  (1320) 
0

>  <NONCOV_INTER_ENERGY_QM>  (1320) 
0

>  <FF_Energy>  (1320) 
-1.6

>  <QM_Energy>  (1320) 
-6.94

>  <source>  (1320) 
ACET_MBZ_01

>  <Index>  (1320) 
12766

$$$$
ACET-pdb3f1s-A-GLU-155:MBZ-pdb3f1s-A-PHE-158
     RDKit          3D

 22 21  0  0  0  0  0  0  0  0999 V2000
    0.2559    4.2900    4.8598 C   0  0  0  0  0  0  0  0  0  0  0  0
    1.2217    4.4706    4.9044 H   0  0  0  0  0  0  0  0  0  0  0  0
   -0.1779    4.3774    5.7391 H   0  0  0  0  0  0  0  0  0  0  0  0
   -0.1934    5.0198    4.1862 H   0  0  0  0  0  0  0  0  0  0  0  0
    0.0812    2.8396    4.4046 C   0  0  0  0  0  0  0  0  0  0  0  0
    0.0796    1.9467    5.2789 O   0  0  0  0  0  1  0  0  0  0  0  0
   -0.0500    2.5829    3.1841 O   0  0  0  0  0  0  0  0  0  0  0  0
    0.0064    2.8955   -0.0022 C   0  0  0  0  0  0  0  0  0  0  0  0
    0.8961    3.2022    0.3009 H   0  0  0  0  0  0  0  0  0  0  0  0
   -0.7083    3.2090    0.6039 H   0  0  0  0  0  0  0  0  0  0  0  0
   -0.1770    3.3313   -0.9843 H   0  0  0  0  0  0  0  0  0  0  0  0
    0.0001    1.3993    0.0013 C   0  0  0  0  0  0  0  0  0  0  0  0
   -1.1962    0.6969    0.0001 C   0  0  0  0  0  0  0  0  0  0  0  0
   -2.0624    1.1888   -0.0020 H   0  0  0  0  0  0  0  0  0  0  0  0
   -1.2026   -0.6917   -0.0000 C   0  0  0  0  0  0  0  0  0  0  0  0
   -2.0789   -1.1858    0.0033 H   0  0  0  0  0  0  0  0  0  0  0  0
   -0.0007   -1.3923   -0.0022 C   0  0  0  0  0  0  0  0  0  0  0  0
   -0.0090   -2.3908   -0.0063 H   0  0  0  0  0  0  0  0  0  0  0  0
    1.2026   -0.6996    0.0000 C   0  0  0  0  0  0  0  0  0  0  0  0
    2.0811   -1.1997    0.0026 H   0  0  0  0  0  0  0  0  0  0  0  0
    1.1967    0.6873    0.0009 C   0  0  0  0  0  0  0  0  0  0  0  0
    2.0651    1.1863    0.0007 H   0  0  0  0  0  0  0  0  0  0  0  0
  1  5  1  0
  5  6  1  0
  5  7  2  0
  1  2  1  0
  1  3  1  0
  1  4  1  0
  8 12  1  0
 12 13  2  0
 13 15  1  0
 15 17  2  0
 17 19  1  0
 19 21  2  0
 21 12  1  0
  8  9  1  0
  8 10  1  0
  8 11  1  0
 13 14  1  0
 15 16  1  0
 17 18  1  0
 19 20  1  0
 21 22  1  0
M  CHG  1   6  -1
M  END
>  <PDB_ID>  (1321) 
pdb3f1s

>  <RESIDUE_NAME>  (1321) 
GLU   PHE

>  <FRAG_NAME>  (1321) 
ACET   MBZ

>  <FRAG_ATOM_NUM>  (1321) 
fragi: 7  fragj: 15

>  <atom.prop.CHAIN_ID>  (1321) 
A A A A A A A Z Z Z Z Z Z Z Z Z Z Z Z Z Z Z

>  <atom.prop.IS_HEAVY_ATOM>  (1321) 
1 0 0 0 1 1 1 1 0 0 0 1 1 0 1 0 1 0 1 0 1 0

>  <DIFUSE_FUNC_ATOM>  (1321) 
atom 6   atom 7   

>  <FINAL_SINGLE_POINT_ENERGY>  (1321) 
0

>  <NONCOV_INTER_ENERGY_QM>  (1321) 
0

>  <FF_Energy>  (1321) 
2.55

>  <QM_Energy>  (1321) 
-2.47

>  <source>  (1321) 
ACET_MBZ_01

>  <Index>  (1321) 
12959

$$$$
ACET-pdb4amq-A-GLU-9:MBZ-pdb4amq-A-PHE-4
     RDKit          3D

 22 21  0  0  0  0  0  0  0  0999 V2000
    1.6228   -4.4831   -2.3309 C   0  0  0  0  0  0  0  0  0  0  0  0
    1.7998   -5.2430   -2.9303 H   0  0  0  0  0  0  0  0  0  0  0  0
    2.4518   -4.1046   -1.9598 H   0  0  0  0  0  0  0  0  0  0  0  0
    1.1232   -3.7058   -2.9093 H   0  0  0  0  0  0  0  0  0  0  0  0
    0.7919   -5.0003   -1.1648 C   0  0  0  0  0  0  0  0  0  0  0  0
   -0.0115   -4.2281   -0.6027 O   0  0  0  0  0  1  0  0  0  0  0  0
    0.9415   -6.1890   -0.8112 O   0  0  0  0  0  0  0  0  0  0  0  0
   -0.0010    2.8926   -0.0114 C   0  0  0  0  0  0  0  0  0  0  0  0
    0.8689    3.2043    0.3347 H   0  0  0  0  0  0  0  0  0  0  0  0
   -0.7493    3.2054    0.5515 H   0  0  0  0  0  0  0  0  0  0  0  0
   -0.1340    3.3140   -1.0078 H   0  0  0  0  0  0  0  0  0  0  0  0
   -0.0000    1.3928    0.0052 C   0  0  0  0  0  0  0  0  0  0  0  0
   -1.1914    0.6870   -0.0009 C   0  0  0  0  0  0  0  0  0  0  0  0
   -2.0589    1.1801   -0.0071 H   0  0  0  0  0  0  0  0  0  0  0  0
   -1.1938   -0.6918    0.0000 C   0  0  0  0  0  0  0  0  0  0  0  0
   -2.0716   -1.1898    0.0029 H   0  0  0  0  0  0  0  0  0  0  0  0
    0.0007   -1.3819   -0.0007 C   0  0  0  0  0  0  0  0  0  0  0  0
   -0.0042   -2.3853   -0.0021 H   0  0  0  0  0  0  0  0  0  0  0  0
    1.1938   -0.6937    0.0000 C   0  0  0  0  0  0  0  0  0  0  0  0
    2.0772   -1.1940    0.0048 H   0  0  0  0  0  0  0  0  0  0  0  0
    1.1907    0.6875   -0.0036 C   0  0  0  0  0  0  0  0  0  0  0  0
    2.0605    1.1855   -0.0133 H   0  0  0  0  0  0  0  0  0  0  0  0
  1  5  1  0
  5  6  1  0
  5  7  2  0
  1  2  1  0
  1  3  1  0
  1  4  1  0
  8 12  1  0
 12 13  2  0
 13 15  1  0
 15 17  2  0
 17 19  1  0
 19 21  2  0
 21 12  1  0
  8  9  1  0
  8 10  1  0
  8 11  1  0
 13 14  1  0
 15 16  1  0
 17 18  1  0
 19 20  1  0
 21 22  1  0
M  CHG  1   6  -1
M  END
>  <PDB_ID>  (1322) 
pdb4amq

>  <RESIDUE_NAME>  (1322) 
GLU   PHE

>  <FRAG_NAME>  (1322) 
ACET   MBZ

>  <FRAG_ATOM_NUM>  (1322) 
fragi: 7  fragj: 15

>  <atom.prop.CHAIN_ID>  (1322) 
A A A A A A A Z Z Z Z Z Z Z Z Z Z Z Z Z Z Z

>  <atom.prop.IS_HEAVY_ATOM>  (1322) 
1 0 0 0 1 1 1 1 0 0 0 1 1 0 1 0 1 0 1 0 1 0

>  <DIFUSE_FUNC_ATOM>  (1322) 
atom 6   atom 7   

>  <FINAL_SINGLE_POINT_ENERGY>  (1322) 
0

>  <NONCOV_INTER_ENERGY_QM>  (1322) 
0

>  <FF_Energy>  (1322) 
9.0

>  <QM_Energy>  (1322) 
-4.79

>  <source>  (1322) 
ACET_MBZ_01

>  <Index>  (1322) 
13070

$$$$
ACET-pdb3f4c-B-ASP-166:MBZ-pdb3f4c-B-PHE-124
     RDKit          3D

 22 21  0  0  0  0  0  0  0  0999 V2000
   -5.3746    1.0574    1.2312 C   0  0  0  0  0  0  0  0  0  0  0  0
   -4.6506    0.3922    1.1077 H   0  0  0  0  0  0  0  0  0  0  0  0
   -5.9440    1.1155    0.4239 H   0  0  0  0  0  0  0  0  0  0  0  0
   -5.9977    0.7284    2.0628 H   0  0  0  0  0  0  0  0  0  0  0  0
   -4.7519    2.4151    1.4899 C   0  0  0  0  0  0  0  0  0  0  0  0
   -5.4685    3.2633    2.0598 O   0  0  0  0  0  1  0  0  0  0  0  0
   -3.5740    2.6510    1.1395 O   0  0  0  0  0  0  0  0  0  0  0  0
    0.0103    2.9228    0.0736 C   0  0  0  0  0  0  0  0  0  0  0  0
   -0.8601    3.2462   -0.2499 H   0  0  0  0  0  0  0  0  0  0  0  0
    0.7573    3.2500   -0.4757 H   0  0  0  0  0  0  0  0  0  0  0  0
    0.1511    3.3010    1.0863 H   0  0  0  0  0  0  0  0  0  0  0  0
    0.0038    1.4084   -0.0002 C   0  0  0  0  0  0  0  0  0  0  0  0
   -1.1971    0.7006   -0.0016 C   0  0  0  0  0  0  0  0  0  0  0  0
   -2.0616    1.2061   -0.0049 H   0  0  0  0  0  0  0  0  0  0  0  0
   -1.2177   -0.6775    0.0000 C   0  0  0  0  0  0  0  0  0  0  0  0
   -2.0944   -1.1724    0.0021 H   0  0  0  0  0  0  0  0  0  0  0  0
   -0.0102   -1.4083    0.0001 C   0  0  0  0  0  0  0  0  0  0  0  0
   -0.0321   -2.3972   -0.0003 H   0  0  0  0  0  0  0  0  0  0  0  0
    1.2177   -0.7198    0.0000 C   0  0  0  0  0  0  0  0  0  0  0  0
    2.0846   -1.2101   -0.0003 H   0  0  0  0  0  0  0  0  0  0  0  0
    1.2036    0.6966    0.0017 C   0  0  0  0  0  0  0  0  0  0  0  0
    2.0735    1.1861    0.0031 H   0  0  0  0  0  0  0  0  0  0  0  0
  1  5  1  0
  5  6  1  0
  5  7  2  0
  1  2  1  0
  1  3  1  0
  1  4  1  0
  8 12  1  0
 12 13  2  0
 13 15  1  0
 15 17  2  0
 17 19  1  0
 19 21  2  0
 21 12  1  0
  8  9  1  0
  8 10  1  0
  8 11  1  0
 13 14  1  0
 15 16  1  0
 17 18  1  0
 19 20  1  0
 21 22  1  0
M  CHG  1   6  -1
M  END
>  <PDB_ID>  (1323) 
pdb3f4c

>  <RESIDUE_NAME>  (1323) 
ASP   PHE

>  <FRAG_NAME>  (1323) 
ACET   MBZ

>  <FRAG_ATOM_NUM>  (1323) 
fragi: 7  fragj: 15

>  <atom.prop.CHAIN_ID>  (1323) 
A A A A A A A Z Z Z Z Z Z Z Z Z Z Z Z Z Z Z

>  <atom.prop.IS_HEAVY_ATOM>  (1323) 
1 0 0 0 1 1 1 1 0 0 0 1 1 0 1 0 1 0 1 0 1 0

>  <DIFUSE_FUNC_ATOM>  (1323) 
atom 6   atom 7   

>  <FINAL_SINGLE_POINT_ENERGY>  (1323) 
0

>  <NONCOV_INTER_ENERGY_QM>  (1323) 
0

>  <FF_Energy>  (1323) 
-1.75

>  <QM_Energy>  (1323) 
-6.81

>  <source>  (1323) 
ACET_MBZ_01

>  <Index>  (1323) 
13152

$$$$
ACET-pdb3f4k-A-ASP-76:MBZ-pdb3f4k-A-PHE-81
     RDKit          3D

 22 21  0  0  0  0  0  0  0  0999 V2000
    4.1603    4.7931    0.9401 C   0  0  0  0  0  0  0  0  0  0  0  0
    3.8419    5.1038    1.8262 H   0  0  0  0  0  0  0  0  0  0  0  0
    3.5857    5.1452    0.2145 H   0  0  0  0  0  0  0  0  0  0  0  0
    5.1698    5.1757    0.7899 H   0  0  0  0  0  0  0  0  0  0  0  0
    4.1073    3.2721    0.9101 C   0  0  0  0  0  0  0  0  0  0  0  0
    4.4609    2.6455    1.9306 O   0  0  0  0  0  1  0  0  0  0  0  0
    3.7287    2.6977   -0.1334 O   0  0  0  0  0  0  0  0  0  0  0  0
    0.0133    2.9140    0.0575 C   0  0  0  0  0  0  0  0  0  0  0  0
    0.7801    3.2327   -0.4829 H   0  0  0  0  0  0  0  0  0  0  0  0
    0.1093    3.1827    1.0054 H   0  0  0  0  0  0  0  0  0  0  0  0
   -0.8872    3.3889   -0.3320 H   0  0  0  0  0  0  0  0  0  0  0  0
   -0.0002    1.4068    0.0008 C   0  0  0  0  0  0  0  0  0  0  0  0
   -1.1976    0.6993   -0.0005 C   0  0  0  0  0  0  0  0  0  0  0  0
   -2.0642    1.1880   -0.0035 H   0  0  0  0  0  0  0  0  0  0  0  0
   -1.2031   -0.6952    0.0000 C   0  0  0  0  0  0  0  0  0  0  0  0
   -2.0804   -1.1872    0.0019 H   0  0  0  0  0  0  0  0  0  0  0  0
   -0.0011   -1.3976   -0.0002 C   0  0  0  0  0  0  0  0  0  0  0  0
   -0.0098   -2.3958   -0.0010 H   0  0  0  0  0  0  0  0  0  0  0  0
    1.2031   -0.7052    0.0000 C   0  0  0  0  0  0  0  0  0  0  0  0
    2.0822   -1.2009    0.0011 H   0  0  0  0  0  0  0  0  0  0  0  0
    1.1990    0.6919   -0.0000 C   0  0  0  0  0  0  0  0  0  0  0  0
    2.0676    1.1860   -0.0018 H   0  0  0  0  0  0  0  0  0  0  0  0
  1  5  1  0
  5  6  1  0
  5  7  2  0
  1  2  1  0
  1  3  1  0
  1  4  1  0
  8 12  1  0
 12 13  2  0
 13 15  1  0
 15 17  2  0
 17 19  1  0
 19 21  2  0
 21 12  1  0
  8  9  1  0
  8 10  1  0
  8 11  1  0
 13 14  1  0
 15 16  1  0
 17 18  1  0
 19 20  1  0
 21 22  1  0
M  CHG  1   6  -1
M  END
>  <PDB_ID>  (1324) 
pdb3f4k

>  <RESIDUE_NAME>  (1324) 
ASP   PHE

>  <FRAG_NAME>  (1324) 
ACET   MBZ

>  <FRAG_ATOM_NUM>  (1324) 
fragi: 7  fragj: 15

>  <atom.prop.CHAIN_ID>  (1324) 
A A A A A A A Z Z Z Z Z Z Z Z Z Z Z Z Z Z Z

>  <atom.prop.IS_HEAVY_ATOM>  (1324) 
1 0 0 0 1 1 1 1 0 0 0 1 1 0 1 0 1 0 1 0 1 0

>  <DIFUSE_FUNC_ATOM>  (1324) 
atom 6   atom 7   

>  <FINAL_SINGLE_POINT_ENERGY>  (1324) 
0

>  <NONCOV_INTER_ENERGY_QM>  (1324) 
0

>  <FF_Energy>  (1324) 
-1.42

>  <QM_Energy>  (1324) 
-8.0

>  <source>  (1324) 
ACET_MBZ_01

>  <Index>  (1324) 
13178

$$$$
ACET-pdb3f4l-A-GLU-319:MBZ-pdb3f4l-A-PHE-109
     RDKit          3D

 22 21  0  0  0  0  0  0  0  0999 V2000
    0.4055    0.5126    3.4244 C   0  0  0  0  0  0  0  0  0  0  0  0
    1.3341    0.2910    3.6409 H   0  0  0  0  0  0  0  0  0  0  0  0
    0.1680    0.3050    2.4977 H   0  0  0  0  0  0  0  0  0  0  0  0
   -0.2456   -0.0617    4.0835 H   0  0  0  0  0  0  0  0  0  0  0  0
    0.2436    2.0329    3.6070 C   0  0  0  0  0  0  0  0  0  0  0  0
   -0.9162    2.5068    3.6175 O   0  0  0  0  0  1  0  0  0  0  0  0
    1.2681    2.7515    3.7287 O   0  0  0  0  0  0  0  0  0  0  0  0
    0.0009    2.9026    0.0473 C   0  0  0  0  0  0  0  0  0  0  0  0
    0.9392    3.2128    0.0098 H   0  0  0  0  0  0  0  0  0  0  0  0
   -0.4368    3.1840    0.8887 H   0  0  0  0  0  0  0  0  0  0  0  0
   -0.5362    3.3705   -0.7778 H   0  0  0  0  0  0  0  0  0  0  0  0
    0.0031    1.4017    0.0015 C   0  0  0  0  0  0  0  0  0  0  0  0
   -1.1979    0.6923   -0.0014 C   0  0  0  0  0  0  0  0  0  0  0  0
   -2.0629    1.1841   -0.0061 H   0  0  0  0  0  0  0  0  0  0  0  0
   -1.2046   -0.7004    0.0000 C   0  0  0  0  0  0  0  0  0  0  0  0
   -2.0800   -1.1923    0.0013 H   0  0  0  0  0  0  0  0  0  0  0  0
   -0.0023   -1.3953    0.0013 C   0  0  0  0  0  0  0  0  0  0  0  0
   -0.0019   -2.3934    0.0029 H   0  0  0  0  0  0  0  0  0  0  0  0
    1.2046   -0.6947    0.0000 C   0  0  0  0  0  0  0  0  0  0  0  0
    2.0833   -1.1934    0.0012 H   0  0  0  0  0  0  0  0  0  0  0  0
    1.1971    0.6964   -0.0014 C   0  0  0  0  0  0  0  0  0  0  0  0
    2.0663    1.1926   -0.0048 H   0  0  0  0  0  0  0  0  0  0  0  0
  1  5  1  0
  5  6  1  0
  5  7  2  0
  1  2  1  0
  1  3  1  0
  1  4  1  0
  8 12  1  0
 12 13  2  0
 13 15  1  0
 15 17  2  0
 17 19  1  0
 19 21  2  0
 21 12  1  0
  8  9  1  0
  8 10  1  0
  8 11  1  0
 13 14  1  0
 15 16  1  0
 17 18  1  0
 19 20  1  0
 21 22  1  0
M  CHG  1   6  -1
M  END
>  <PDB_ID>  (1325) 
pdb3f4l

>  <RESIDUE_NAME>  (1325) 
GLU   PHE

>  <FRAG_NAME>  (1325) 
ACET   MBZ

>  <FRAG_ATOM_NUM>  (1325) 
fragi: 7  fragj: 15

>  <atom.prop.CHAIN_ID>  (1325) 
A A A A A A A Z Z Z Z Z Z Z Z Z Z Z Z Z Z Z

>  <atom.prop.IS_HEAVY_ATOM>  (1325) 
1 0 0 0 1 1 1 1 0 0 0 1 1 0 1 0 1 0 1 0 1 0

>  <DIFUSE_FUNC_ATOM>  (1325) 
atom 6   atom 7   

>  <FINAL_SINGLE_POINT_ENERGY>  (1325) 
0

>  <NONCOV_INTER_ENERGY_QM>  (1325) 
0

>  <FF_Energy>  (1325) 
-0.03

>  <QM_Energy>  (1325) 
-5.13

>  <source>  (1325) 
ACET_MBZ_01

>  <Index>  (1325) 
13202

$$$$
ACET-pdb3f4l-C-GLU-319:MBZ-pdb3f4l-C-PHE-109
     RDKit          3D

 22 21  0  0  0  0  0  0  0  0999 V2000
   -0.1950    0.3228    3.3604 C   0  0  0  0  0  0  0  0  0  0  0  0
    0.6357    0.1470    3.8554 H   0  0  0  0  0  0  0  0  0  0  0  0
   -0.1160    0.0964    2.4074 H   0  0  0  0  0  0  0  0  0  0  0  0
   -0.9916   -0.2807    3.7955 H   0  0  0  0  0  0  0  0  0  0  0  0
   -0.4649    1.8263    3.4482 C   0  0  0  0  0  0  0  0  0  0  0  0
   -1.5413    2.2708    2.9894 O   0  0  0  0  0  1  0  0  0  0  0  0
    0.4064    2.5623    3.9696 O   0  0  0  0  0  0  0  0  0  0  0  0
   -0.0048    2.9070    0.0006 C   0  0  0  0  0  0  0  0  0  0  0  0
    0.9338    3.2168    0.0062 H   0  0  0  0  0  0  0  0  0  0  0  0
   -0.4904    3.2131    0.8053 H   0  0  0  0  0  0  0  0  0  0  0  0
   -0.4946    3.3449   -0.8691 H   0  0  0  0  0  0  0  0  0  0  0  0
   -0.0002    1.4047    0.0001 C   0  0  0  0  0  0  0  0  0  0  0  0
   -1.2020    0.6944   -0.0004 C   0  0  0  0  0  0  0  0  0  0  0  0
   -2.0669    1.1848   -0.0021 H   0  0  0  0  0  0  0  0  0  0  0  0
   -1.2064   -0.7007   -0.0000 C   0  0  0  0  0  0  0  0  0  0  0  0
   -2.0788   -1.1958    0.0015 H   0  0  0  0  0  0  0  0  0  0  0  0
    0.0036   -1.3982    0.0005 C   0  0  0  0  0  0  0  0  0  0  0  0
   -0.0004   -2.3951    0.0010 H   0  0  0  0  0  0  0  0  0  0  0  0
    1.2064   -0.6975    0.0000 C   0  0  0  0  0  0  0  0  0  0  0  0
    2.0877   -1.1925    0.0010 H   0  0  0  0  0  0  0  0  0  0  0  0
    1.1986    0.6972   -0.0001 C   0  0  0  0  0  0  0  0  0  0  0  0
    2.0661    1.1934   -0.0013 H   0  0  0  0  0  0  0  0  0  0  0  0
  1  5  1  0
  5  6  1  0
  5  7  2  0
  1  2  1  0
  1  3  1  0
  1  4  1  0
  8 12  1  0
 12 13  2  0
 13 15  1  0
 15 17  2  0
 17 19  1  0
 19 21  2  0
 21 12  1  0
  8  9  1  0
  8 10  1  0
  8 11  1  0
 13 14  1  0
 15 16  1  0
 17 18  1  0
 19 20  1  0
 21 22  1  0
M  CHG  1   6  -1
M  END
>  <PDB_ID>  (1326) 
pdb3f4l

>  <RESIDUE_NAME>  (1326) 
GLU   PHE

>  <FRAG_NAME>  (1326) 
ACET   MBZ

>  <FRAG_ATOM_NUM>  (1326) 
fragi: 7  fragj: 15

>  <atom.prop.CHAIN_ID>  (1326) 
A A A A A A A Z Z Z Z Z Z Z Z Z Z Z Z Z Z Z

>  <atom.prop.IS_HEAVY_ATOM>  (1326) 
1 0 0 0 1 1 1 1 0 0 0 1 1 0 1 0 1 0 1 0 1 0

>  <DIFUSE_FUNC_ATOM>  (1326) 
atom 6   atom 7   

>  <FINAL_SINGLE_POINT_ENERGY>  (1326) 
0

>  <NONCOV_INTER_ENERGY_QM>  (1326) 
0

>  <FF_Energy>  (1326) 
0.86

>  <QM_Energy>  (1326) 
-5.82

>  <source>  (1326) 
ACET_MBZ_01

>  <Index>  (1326) 
13222

$$$$
ACET-pdb3f4l-D-GLU-319:MBZ-pdb3f4l-D-PHE-109
     RDKit          3D

 22 21  0  0  0  0  0  0  0  0999 V2000
    0.5660    0.1912    3.4774 C   0  0  0  0  0  0  0  0  0  0  0  0
    1.4365    0.0013    3.8937 H   0  0  0  0  0  0  0  0  0  0  0  0
    0.5591   -0.0255    2.5172 H   0  0  0  0  0  0  0  0  0  0  0  0
   -0.1919   -0.4149    3.9737 H   0  0  0  0  0  0  0  0  0  0  0  0
    0.3133    1.6828    3.6092 C   0  0  0  0  0  0  0  0  0  0  0  0
   -0.7671    2.1430    3.1734 O   0  0  0  0  0  1  0  0  0  0  0  0
    1.1967    2.3928    4.1415 O   0  0  0  0  0  0  0  0  0  0  0  0
   -0.0065    2.9080    0.0274 C   0  0  0  0  0  0  0  0  0  0  0  0
    0.9242    3.2195   -0.0867 H   0  0  0  0  0  0  0  0  0  0  0  0
   -0.3813    3.1967    0.8950 H   0  0  0  0  0  0  0  0  0  0  0  0
   -0.6085    3.3579   -0.7620 H   0  0  0  0  0  0  0  0  0  0  0  0
    0.0003    1.4036    0.0009 C   0  0  0  0  0  0  0  0  0  0  0  0
   -1.1963    0.6936   -0.0008 C   0  0  0  0  0  0  0  0  0  0  0  0
   -2.0641    1.1834   -0.0034 H   0  0  0  0  0  0  0  0  0  0  0  0
   -1.2025   -0.6996    0.0000 C   0  0  0  0  0  0  0  0  0  0  0  0
   -2.0794   -1.1917    0.0021 H   0  0  0  0  0  0  0  0  0  0  0  0
   -0.0018   -1.3957   -0.0002 C   0  0  0  0  0  0  0  0  0  0  0  0
   -0.0052   -2.3951   -0.0011 H   0  0  0  0  0  0  0  0  0  0  0  0
    1.2025   -0.6997   -0.0000 C   0  0  0  0  0  0  0  0  0  0  0  0
    2.0826   -1.1950    0.0018 H   0  0  0  0  0  0  0  0  0  0  0  0
    1.1977    0.6978    0.0001 C   0  0  0  0  0  0  0  0  0  0  0  0
    2.0653    1.1909   -0.0013 H   0  0  0  0  0  0  0  0  0  0  0  0
  1  5  1  0
  5  6  1  0
  5  7  2  0
  1  2  1  0
  1  3  1  0
  1  4  1  0
  8 12  1  0
 12 13  2  0
 13 15  1  0
 15 17  2  0
 17 19  1  0
 19 21  2  0
 21 12  1  0
  8  9  1  0
  8 10  1  0
  8 11  1  0
 13 14  1  0
 15 16  1  0
 17 18  1  0
 19 20  1  0
 21 22  1  0
M  CHG  1   6  -1
M  END
>  <PDB_ID>  (1327) 
pdb3f4l

>  <RESIDUE_NAME>  (1327) 
GLU   PHE

>  <FRAG_NAME>  (1327) 
ACET   MBZ

>  <FRAG_ATOM_NUM>  (1327) 
fragi: 7  fragj: 15

>  <atom.prop.CHAIN_ID>  (1327) 
A A A A A A A Z Z Z Z Z Z Z Z Z Z Z Z Z Z Z

>  <atom.prop.IS_HEAVY_ATOM>  (1327) 
1 0 0 0 1 1 1 1 0 0 0 1 1 0 1 0 1 0 1 0 1 0

>  <DIFUSE_FUNC_ATOM>  (1327) 
atom 6   atom 7   

>  <FINAL_SINGLE_POINT_ENERGY>  (1327) 
0

>  <NONCOV_INTER_ENERGY_QM>  (1327) 
0

>  <FF_Energy>  (1327) 
1.12

>  <QM_Energy>  (1327) 
-4.94

>  <source>  (1327) 
ACET_MBZ_01

>  <Index>  (1327) 
13232

$$$$
ACET-pdb3f63-A-ASP-57:MBZ-pdb3f63-A-PHE-61
     RDKit          3D

 22 21  0  0  0  0  0  0  0  0999 V2000
    4.3759    4.4198    0.4885 C   0  0  0  0  0  0  0  0  0  0  0  0
    5.1204    4.6533   -0.1294 H   0  0  0  0  0  0  0  0  0  0  0  0
    4.4807    3.4864    0.8165 H   0  0  0  0  0  0  0  0  0  0  0  0
    4.4459    5.0817    1.3518 H   0  0  0  0  0  0  0  0  0  0  0  0
    3.0566    4.5320   -0.2668 C   0  0  0  0  0  0  0  0  0  0  0  0
    2.2355    5.4645   -0.0267 O   0  0  0  0  0  1  0  0  0  0  0  0
    2.8438    3.6720   -1.1538 O   0  0  0  0  0  0  0  0  0  0  0  0
    0.0185    2.9390   -0.0074 C   0  0  0  0  0  0  0  0  0  0  0  0
   -0.5746    3.2346   -0.7410 H   0  0  0  0  0  0  0  0  0  0  0  0
    0.9514    3.2299   -0.1593 H   0  0  0  0  0  0  0  0  0  0  0  0
   -0.3319    3.4003    0.9159 H   0  0  0  0  0  0  0  0  0  0  0  0
    0.0077    1.4175    0.0085 C   0  0  0  0  0  0  0  0  0  0  0  0
   -1.2013    0.7079   -0.0074 C   0  0  0  0  0  0  0  0  0  0  0  0
   -2.0635    1.1924   -0.0252 H   0  0  0  0  0  0  0  0  0  0  0  0
   -1.2055   -0.7035    0.0000 C   0  0  0  0  0  0  0  0  0  0  0  0
   -2.0867   -1.1855    0.0094 H   0  0  0  0  0  0  0  0  0  0  0  0
   -0.0083   -1.4033   -0.0033 C   0  0  0  0  0  0  0  0  0  0  0  0
   -0.0144   -2.4030   -0.0090 H   0  0  0  0  0  0  0  0  0  0  0  0
    1.2055   -0.7139    0.0000 C   0  0  0  0  0  0  0  0  0  0  0  0
    2.0801   -1.2078    0.0020 H   0  0  0  0  0  0  0  0  0  0  0  0
    1.2019    0.6953    0.0021 C   0  0  0  0  0  0  0  0  0  0  0  0
    2.0750    1.1816   -0.0016 H   0  0  0  0  0  0  0  0  0  0  0  0
  1  5  1  0
  5  6  1  0
  5  7  2  0
  1  2  1  0
  1  3  1  0
  1  4  1  0
  8 12  1  0
 12 13  2  0
 13 15  1  0
 15 17  2  0
 17 19  1  0
 19 21  2  0
 21 12  1  0
  8  9  1  0
  8 10  1  0
  8 11  1  0
 13 14  1  0
 15 16  1  0
 17 18  1  0
 19 20  1  0
 21 22  1  0
M  CHG  1   6  -1
M  END
>  <PDB_ID>  (1328) 
pdb3f63

>  <RESIDUE_NAME>  (1328) 
ASP   PHE

>  <FRAG_NAME>  (1328) 
ACET   MBZ

>  <FRAG_ATOM_NUM>  (1328) 
fragi: 7  fragj: 15

>  <atom.prop.CHAIN_ID>  (1328) 
A A A A A A A Z Z Z Z Z Z Z Z Z Z Z Z Z Z Z

>  <atom.prop.IS_HEAVY_ATOM>  (1328) 
1 0 0 0 1 1 1 1 0 0 0 1 1 0 1 0 1 0 1 0 1 0

>  <DIFUSE_FUNC_ATOM>  (1328) 
atom 6   atom 7   

>  <FINAL_SINGLE_POINT_ENERGY>  (1328) 
0

>  <NONCOV_INTER_ENERGY_QM>  (1328) 
0

>  <FF_Energy>  (1328) 
1.04

>  <QM_Energy>  (1328) 
-7.42

>  <source>  (1328) 
ACET_MBZ_01

>  <Index>  (1328) 
13332

$$$$
ACET-pdb3f65-H-ASP-26:MBZ-pdb3f65-H-PHE-31
     RDKit          3D

 22 21  0  0  0  0  0  0  0  0999 V2000
   -4.2602   -1.6777   -0.7185 C   0  0  0  0  0  0  0  0  0  0  0  0
   -3.3944   -1.9721   -1.1101 H   0  0  0  0  0  0  0  0  0  0  0  0
   -4.2114   -0.7218   -0.4499 H   0  0  0  0  0  0  0  0  0  0  0  0
   -5.0260   -1.7722   -1.4885 H   0  0  0  0  0  0  0  0  0  0  0  0
   -4.5523   -2.5159    0.5068 C   0  0  0  0  0  0  0  0  0  0  0  0
   -5.7161   -2.5289    0.9649 O   0  0  0  0  0  1  0  0  0  0  0  0
   -3.6083   -3.1548    1.0184 O   0  0  0  0  0  0  0  0  0  0  0  0
    0.0062    2.8935    0.0017 C   0  0  0  0  0  0  0  0  0  0  0  0
   -0.7844    3.2055   -0.5034 H   0  0  0  0  0  0  0  0  0  0  0  0
    0.8462    3.1989   -0.4206 H   0  0  0  0  0  0  0  0  0  0  0  0
   -0.0429    3.3298    0.9993 H   0  0  0  0  0  0  0  0  0  0  0  0
    0.0003    1.3943   -0.0016 C   0  0  0  0  0  0  0  0  0  0  0  0
   -1.1924    0.6915   -0.0015 C   0  0  0  0  0  0  0  0  0  0  0  0
   -2.0600    1.1830   -0.0034 H   0  0  0  0  0  0  0  0  0  0  0  0
   -1.1950   -0.6914   -0.0000 C   0  0  0  0  0  0  0  0  0  0  0  0
   -2.0745   -1.1876    0.0013 H   0  0  0  0  0  0  0  0  0  0  0  0
   -0.0001   -1.3856    0.0012 C   0  0  0  0  0  0  0  0  0  0  0  0
   -0.0054   -2.3870    0.0028 H   0  0  0  0  0  0  0  0  0  0  0  0
    1.1950   -0.6948    0.0000 C   0  0  0  0  0  0  0  0  0  0  0  0
    2.0775   -1.1961   -0.0007 H   0  0  0  0  0  0  0  0  0  0  0  0
    1.1922    0.6860    0.0019 C   0  0  0  0  0  0  0  0  0  0  0  0
    2.0624    1.1846    0.0055 H   0  0  0  0  0  0  0  0  0  0  0  0
  1  5  1  0
  5  6  1  0
  5  7  2  0
  1  2  1  0
  1  3  1  0
  1  4  1  0
  8 12  1  0
 12 13  2  0
 13 15  1  0
 15 17  2  0
 17 19  1  0
 19 21  2  0
 21 12  1  0
  8  9  1  0
  8 10  1  0
  8 11  1  0
 13 14  1  0
 15 16  1  0
 17 18  1  0
 19 20  1  0
 21 22  1  0
M  CHG  1   6  -1
M  END
>  <PDB_ID>  (1329) 
pdb3f65

>  <RESIDUE_NAME>  (1329) 
ASP   PHE

>  <FRAG_NAME>  (1329) 
ACET   MBZ

>  <FRAG_ATOM_NUM>  (1329) 
fragi: 7  fragj: 15

>  <atom.prop.CHAIN_ID>  (1329) 
A A A A A A A Z Z Z Z Z Z Z Z Z Z Z Z Z Z Z

>  <atom.prop.IS_HEAVY_ATOM>  (1329) 
1 0 0 0 1 1 1 1 0 0 0 1 1 0 1 0 1 0 1 0 1 0

>  <DIFUSE_FUNC_ATOM>  (1329) 
atom 6   atom 7   

>  <FINAL_SINGLE_POINT_ENERGY>  (1329) 
0

>  <NONCOV_INTER_ENERGY_QM>  (1329) 
0

>  <FF_Energy>  (1329) 
2.6

>  <QM_Energy>  (1329) 
-2.72

>  <source>  (1329) 
ACET_MBZ_01

>  <Index>  (1329) 
13380

$$$$
ACET-pdb4au9-A-GLU-162:MBZ-pdb4au9-A-PHE-166
     RDKit          3D

 22 21  0  0  0  0  0  0  0  0999 V2000
   -3.1091    5.7224   -0.8203 C   0  0  0  0  0  0  0  0  0  0  0  0
   -2.8987    5.8361   -1.7697 H   0  0  0  0  0  0  0  0  0  0  0  0
   -2.3366    5.8714   -0.2377 H   0  0  0  0  0  0  0  0  0  0  0  0
   -3.8688    6.4594   -0.5597 H   0  0  0  0  0  0  0  0  0  0  0  0
   -3.5902    4.3060   -0.6102 C   0  0  0  0  0  0  0  0  0  0  0  0
   -4.6541    3.9718   -1.1695 O   0  0  0  0  0  1  0  0  0  0  0  0
   -2.9688    3.5567    0.1861 O   0  0  0  0  0  0  0  0  0  0  0  0
    0.0082    2.9322    0.0709 C   0  0  0  0  0  0  0  0  0  0  0  0
   -0.7504    3.2706   -0.4572 H   0  0  0  0  0  0  0  0  0  0  0  0
    0.8718    3.2580   -0.2708 H   0  0  0  0  0  0  0  0  0  0  0  0
   -0.1059    3.2964    1.0919 H   0  0  0  0  0  0  0  0  0  0  0  0
    0.0090    1.4128   -0.0371 C   0  0  0  0  0  0  0  0  0  0  0  0
   -1.1927    0.7023   -0.0196 C   0  0  0  0  0  0  0  0  0  0  0  0
   -2.0593    1.1891   -0.0226 H   0  0  0  0  0  0  0  0  0  0  0  0
   -1.2073   -0.7075    0.0000 C   0  0  0  0  0  0  0  0  0  0  0  0
   -2.0941   -1.1818   -0.0018 H   0  0  0  0  0  0  0  0  0  0  0  0
   -0.0212   -1.4083    0.0231 C   0  0  0  0  0  0  0  0  0  0  0  0
   -0.0084   -2.3992    0.0549 H   0  0  0  0  0  0  0  0  0  0  0  0
    1.2073   -0.6952    0.0000 C   0  0  0  0  0  0  0  0  0  0  0  0
    2.0763   -1.2034   -0.0390 H   0  0  0  0  0  0  0  0  0  0  0  0
    1.2049    0.6959    0.0335 C   0  0  0  0  0  0  0  0  0  0  0  0
    2.0705    1.1902    0.1086 H   0  0  0  0  0  0  0  0  0  0  0  0
  1  5  1  0
  5  6  1  0
  5  7  2  0
  1  2  1  0
  1  3  1  0
  1  4  1  0
  8 12  1  0
 12 13  2  0
 13 15  1  0
 15 17  2  0
 17 19  1  0
 19 21  2  0
 21 12  1  0
  8  9  1  0
  8 10  1  0
  8 11  1  0
 13 14  1  0
 15 16  1  0
 17 18  1  0
 19 20  1  0
 21 22  1  0
M  CHG  1   6  -1
M  END
>  <PDB_ID>  (1330) 
pdb4au9

>  <RESIDUE_NAME>  (1330) 
GLU   PHE

>  <FRAG_NAME>  (1330) 
ACET   MBZ

>  <FRAG_ATOM_NUM>  (1330) 
fragi: 7  fragj: 15

>  <atom.prop.CHAIN_ID>  (1330) 
A A A A A A A Z Z Z Z Z Z Z Z Z Z Z Z Z Z Z

>  <atom.prop.IS_HEAVY_ATOM>  (1330) 
1 0 0 0 1 1 1 1 0 0 0 1 1 0 1 0 1 0 1 0 1 0

>  <DIFUSE_FUNC_ATOM>  (1330) 
atom 6   atom 7   

>  <FINAL_SINGLE_POINT_ENERGY>  (1330) 
0

>  <NONCOV_INTER_ENERGY_QM>  (1330) 
0

>  <FF_Energy>  (1330) 
-1.06

>  <QM_Energy>  (1330) 
-7.18

>  <source>  (1330) 
ACET_MBZ_01

>  <Index>  (1330) 
13499

$$$$
ACET-pdb4ay9-X-ASP-336:MBZ-pdb4ay9-X-PHE-333
     RDKit          3D

 22 21  0  0  0  0  0  0  0  0999 V2000
    2.0850   -4.2646    3.3446 C   0  0  0  0  0  0  0  0  0  0  0  0
    2.3547   -5.1293    2.9445 H   0  0  0  0  0  0  0  0  0  0  0  0
    1.1130   -4.1116    3.2396 H   0  0  0  0  0  0  0  0  0  0  0  0
    2.3148   -4.2930    4.4097 H   0  0  0  0  0  0  0  0  0  0  0  0
    2.8320   -3.1472    2.6331 C   0  0  0  0  0  0  0  0  0  0  0  0
    3.9000   -2.7365    3.1370 O   0  0  0  0  0  1  0  0  0  0  0  0
    2.3494   -2.6759    1.5809 O   0  0  0  0  0  0  0  0  0  0  0  0
    0.0032    2.9117   -0.0129 C   0  0  0  0  0  0  0  0  0  0  0  0
   -0.6099    3.2072   -0.7304 H   0  0  0  0  0  0  0  0  0  0  0  0
    0.9302    3.2112   -0.1876 H   0  0  0  0  0  0  0  0  0  0  0  0
   -0.3259    3.3732    0.9181 H   0  0  0  0  0  0  0  0  0  0  0  0
   -0.0002    1.4000    0.0057 C   0  0  0  0  0  0  0  0  0  0  0  0
   -1.1924    0.6909   -0.0042 C   0  0  0  0  0  0  0  0  0  0  0  0
   -2.0613    1.1800   -0.0158 H   0  0  0  0  0  0  0  0  0  0  0  0
   -1.1946   -0.6958   -0.0000 C   0  0  0  0  0  0  0  0  0  0  0  0
   -2.0739   -1.1903    0.0033 H   0  0  0  0  0  0  0  0  0  0  0  0
   -0.0002   -1.3887    0.0015 C   0  0  0  0  0  0  0  0  0  0  0  0
   -0.0045   -2.3898    0.0032 H   0  0  0  0  0  0  0  0  0  0  0  0
    1.1946   -0.6962    0.0000 C   0  0  0  0  0  0  0  0  0  0  0  0
    2.0780   -1.1954    0.0028 H   0  0  0  0  0  0  0  0  0  0  0  0
    1.1928    0.6898   -0.0031 C   0  0  0  0  0  0  0  0  0  0  0  0
    2.0622    1.1858   -0.0125 H   0  0  0  0  0  0  0  0  0  0  0  0
  1  5  1  0
  5  6  1  0
  5  7  2  0
  1  2  1  0
  1  3  1  0
  1  4  1  0
  8 12  1  0
 12 13  2  0
 13 15  1  0
 15 17  2  0
 17 19  1  0
 19 21  2  0
 21 12  1  0
  8  9  1  0
  8 10  1  0
  8 11  1  0
 13 14  1  0
 15 16  1  0
 17 18  1  0
 19 20  1  0
 21 22  1  0
M  CHG  1   6  -1
M  END
>  <PDB_ID>  (1331) 
pdb4ay9

>  <RESIDUE_NAME>  (1331) 
ASP   PHE

>  <FRAG_NAME>  (1331) 
ACET   MBZ

>  <FRAG_ATOM_NUM>  (1331) 
fragi: 7  fragj: 15

>  <atom.prop.CHAIN_ID>  (1331) 
A A A A A A A Z Z Z Z Z Z Z Z Z Z Z Z Z Z Z

>  <atom.prop.IS_HEAVY_ATOM>  (1331) 
1 0 0 0 1 1 1 1 0 0 0 1 1 0 1 0 1 0 1 0 1 0

>  <DIFUSE_FUNC_ATOM>  (1331) 
atom 6   atom 7   

>  <FINAL_SINGLE_POINT_ENERGY>  (1331) 
0

>  <NONCOV_INTER_ENERGY_QM>  (1331) 
0

>  <FF_Energy>  (1331) 
2.57

>  <QM_Energy>  (1331) 
-3.85

>  <source>  (1331) 
ACET_MBZ_01

>  <Index>  (1331) 
13750

$$$$
ACET-pdb3fcp-B-GLU-63:MBZ-pdb3fcp-B-PHE-104
     RDKit          3D

 22 21  0  0  0  0  0  0  0  0999 V2000
    2.1959    2.0871    4.2320 C   0  0  0  0  0  0  0  0  0  0  0  0
    2.3189    2.8587    4.8276 H   0  0  0  0  0  0  0  0  0  0  0  0
    2.7208    1.3069    4.5176 H   0  0  0  0  0  0  0  0  0  0  0  0
    1.1419    1.8106    4.2580 H   0  0  0  0  0  0  0  0  0  0  0  0
    2.6935    2.4936    2.8400 C   0  0  0  0  0  0  0  0  0  0  0  0
    2.0707    3.3660    2.1989 O   0  0  0  0  0  1  0  0  0  0  0  0
    3.7230    1.9442    2.3964 O   0  0  0  0  0  0  0  0  0  0  0  0
   -0.0039    2.9287    0.0146 C   0  0  0  0  0  0  0  0  0  0  0  0
    0.3368    3.2256    0.8925 H   0  0  0  0  0  0  0  0  0  0  0  0
   -0.9330    3.2292   -0.1342 H   0  0  0  0  0  0  0  0  0  0  0  0
    0.6195    3.3834   -0.7553 H   0  0  0  0  0  0  0  0  0  0  0  0
    0.0028    1.4140    0.0008 C   0  0  0  0  0  0  0  0  0  0  0  0
   -1.1978    0.6983    0.0001 C   0  0  0  0  0  0  0  0  0  0  0  0
   -2.0648    1.1858   -0.0011 H   0  0  0  0  0  0  0  0  0  0  0  0
   -1.2048   -0.7036    0.0000 C   0  0  0  0  0  0  0  0  0  0  0  0
   -2.0842   -1.1903    0.0019 H   0  0  0  0  0  0  0  0  0  0  0  0
   -0.0045   -1.4082   -0.0007 C   0  0  0  0  0  0  0  0  0  0  0  0
   -0.0059   -2.4012   -0.0025 H   0  0  0  0  0  0  0  0  0  0  0  0
    1.2048   -0.7035   -0.0000 C   0  0  0  0  0  0  0  0  0  0  0  0
    2.0843   -1.1961    0.0023 H   0  0  0  0  0  0  0  0  0  0  0  0
    1.1995    0.7029   -0.0002 C   0  0  0  0  0  0  0  0  0  0  0  0
    2.0693    1.1918   -0.0021 H   0  0  0  0  0  0  0  0  0  0  0  0
  1  5  1  0
  5  6  1  0
  5  7  2  0
  1  2  1  0
  1  3  1  0
  1  4  1  0
  8 12  1  0
 12 13  2  0
 13 15  1  0
 15 17  2  0
 17 19  1  0
 19 21  2  0
 21 12  1  0
  8  9  1  0
  8 10  1  0
  8 11  1  0
 13 14  1  0
 15 16  1  0
 17 18  1  0
 19 20  1  0
 21 22  1  0
M  CHG  1   6  -1
M  END
>  <PDB_ID>  (1332) 
pdb3fcp

>  <RESIDUE_NAME>  (1332) 
GLU   PHE

>  <FRAG_NAME>  (1332) 
ACET   MBZ

>  <FRAG_ATOM_NUM>  (1332) 
fragi: 7  fragj: 15

>  <atom.prop.CHAIN_ID>  (1332) 
A A A A A A A Z Z Z Z Z Z Z Z Z Z Z Z Z Z Z

>  <atom.prop.IS_HEAVY_ATOM>  (1332) 
1 0 0 0 1 1 1 1 0 0 0 1 1 0 1 0 1 0 1 0 1 0

>  <DIFUSE_FUNC_ATOM>  (1332) 
atom 6   atom 7   

>  <FINAL_SINGLE_POINT_ENERGY>  (1332) 
0

>  <NONCOV_INTER_ENERGY_QM>  (1332) 
0

>  <FF_Energy>  (1332) 
0.62

>  <QM_Energy>  (1332) 
-7.54

>  <source>  (1332) 
ACET_MBZ_01

>  <Index>  (1332) 
13764

$$$$
ACET-pdb3fd0-A-GLU-372:MBZ-pdb3fd0-A-PHE-365
     RDKit          3D

 22 21  0  0  0  0  0  0  0  0999 V2000
    5.3951    3.6800   -0.9872 C   0  0  0  0  0  0  0  0  0  0  0  0
    5.6298    3.0091   -0.3076 H   0  0  0  0  0  0  0  0  0  0  0  0
    5.5863    4.5961   -0.6863 H   0  0  0  0  0  0  0  0  0  0  0  0
    5.9777    3.4808   -1.8866 H   0  0  0  0  0  0  0  0  0  0  0  0
    3.9020    3.5825   -1.2266 C   0  0  0  0  0  0  0  0  0  0  0  0
    3.4499    2.5351   -1.7475 O   0  0  0  0  0  1  0  0  0  0  0  0
    3.1974    4.5601   -0.8916 O   0  0  0  0  0  0  0  0  0  0  0  0
   -0.0074    2.8927   -0.0345 C   0  0  0  0  0  0  0  0  0  0  0  0
    0.8907    3.2086    0.2136 H   0  0  0  0  0  0  0  0  0  0  0  0
   -0.6972    3.2076    0.5924 H   0  0  0  0  0  0  0  0  0  0  0  0
   -0.2446    3.2794   -1.0255 H   0  0  0  0  0  0  0  0  0  0  0  0
    0.0038    1.3898    0.0071 C   0  0  0  0  0  0  0  0  0  0  0  0
   -1.1854    0.6814    0.0063 C   0  0  0  0  0  0  0  0  0  0  0  0
   -2.0549    1.1799    0.0096 H   0  0  0  0  0  0  0  0  0  0  0  0
   -1.1942   -0.6904   -0.0000 C   0  0  0  0  0  0  0  0  0  0  0  0
   -2.0767   -1.1859    0.0044 H   0  0  0  0  0  0  0  0  0  0  0  0
   -0.0076   -1.3835   -0.0103 C   0  0  0  0  0  0  0  0  0  0  0  0
   -0.0091   -2.3851   -0.0254 H   0  0  0  0  0  0  0  0  0  0  0  0
    1.1942   -0.6933    0.0000 C   0  0  0  0  0  0  0  0  0  0  0  0
    2.0736   -1.1924    0.0111 H   0  0  0  0  0  0  0  0  0  0  0  0
    1.1892    0.6959   -0.0031 C   0  0  0  0  0  0  0  0  0  0  0  0
    2.0604    1.1890   -0.0142 H   0  0  0  0  0  0  0  0  0  0  0  0
  1  5  1  0
  5  6  1  0
  5  7  2  0
  1  2  1  0
  1  3  1  0
  1  4  1  0
  8 12  1  0
 12 13  2  0
 13 15  1  0
 15 17  2  0
 17 19  1  0
 19 21  2  0
 21 12  1  0
  8  9  1  0
  8 10  1  0
  8 11  1  0
 13 14  1  0
 15 16  1  0
 17 18  1  0
 19 20  1  0
 21 22  1  0
M  CHG  1   6  -1
M  END
>  <PDB_ID>  (1333) 
pdb3fd0

>  <RESIDUE_NAME>  (1333) 
GLU   PHE

>  <FRAG_NAME>  (1333) 
ACET   MBZ

>  <FRAG_ATOM_NUM>  (1333) 
fragi: 7  fragj: 15

>  <atom.prop.CHAIN_ID>  (1333) 
A A A A A A A Z Z Z Z Z Z Z Z Z Z Z Z Z Z Z

>  <atom.prop.IS_HEAVY_ATOM>  (1333) 
1 0 0 0 1 1 1 1 0 0 0 1 1 0 1 0 1 0 1 0 1 0

>  <DIFUSE_FUNC_ATOM>  (1333) 
atom 6   atom 7   

>  <FINAL_SINGLE_POINT_ENERGY>  (1333) 
0

>  <NONCOV_INTER_ENERGY_QM>  (1333) 
0

>  <FF_Energy>  (1333) 
-2.01

>  <QM_Energy>  (1333) 
-7.12

>  <source>  (1333) 
ACET_MBZ_01

>  <Index>  (1333) 
13782

$$$$
ACET-pdb4b2g-B-GLU-491:MBZ-pdb4b2g-B-PHE-544
     RDKit          3D

 22 21  0  0  0  0  0  0  0  0999 V2000
   -5.2507    1.6334   -0.9170 C   0  0  0  0  0  0  0  0  0  0  0  0
   -5.9575    1.7351   -1.5950 H   0  0  0  0  0  0  0  0  0  0  0  0
   -5.6186    1.4247   -0.0282 H   0  0  0  0  0  0  0  0  0  0  0  0
   -4.6040    0.8103   -1.2208 H   0  0  0  0  0  0  0  0  0  0  0  0
   -4.5237    2.9641   -0.8101 C   0  0  0  0  0  0  0  0  0  0  0  0
   -3.6205    3.1020    0.0521 O   0  0  0  0  0  1  0  0  0  0  0  0
   -4.8754    3.8846   -1.5817 O   0  0  0  0  0  0  0  0  0  0  0  0
    0.0013    2.9061   -0.0132 C   0  0  0  0  0  0  0  0  0  0  0  0
   -0.8013    3.2074   -0.5050 H   0  0  0  0  0  0  0  0  0  0  0  0
    0.8316    3.2066   -0.4566 H   0  0  0  0  0  0  0  0  0  0  0  0
   -0.0281    3.3519    0.9810 H   0  0  0  0  0  0  0  0  0  0  0  0
    0.0001    1.3998   -0.0024 C   0  0  0  0  0  0  0  0  0  0  0  0
   -1.1942    0.6906   -0.0018 C   0  0  0  0  0  0  0  0  0  0  0  0
   -2.0618    1.1826   -0.0046 H   0  0  0  0  0  0  0  0  0  0  0  0
   -1.1970   -0.6930    0.0000 C   0  0  0  0  0  0  0  0  0  0  0  0
   -2.0763   -1.1885   -0.0010 H   0  0  0  0  0  0  0  0  0  0  0  0
   -0.0017   -1.3884    0.0050 C   0  0  0  0  0  0  0  0  0  0  0  0
   -0.0074   -2.3895    0.0116 H   0  0  0  0  0  0  0  0  0  0  0  0
    1.1970   -0.6979   -0.0000 C   0  0  0  0  0  0  0  0  0  0  0  0
    2.0778   -1.1984   -0.0012 H   0  0  0  0  0  0  0  0  0  0  0  0
    1.1958    0.6888   -0.0007 C   0  0  0  0  0  0  0  0  0  0  0  0
    2.0639    1.1854   -0.0008 H   0  0  0  0  0  0  0  0  0  0  0  0
  1  5  1  0
  5  6  1  0
  5  7  2  0
  1  2  1  0
  1  3  1  0
  1  4  1  0
  8 12  1  0
 12 13  2  0
 13 15  1  0
 15 17  2  0
 17 19  1  0
 19 21  2  0
 21 12  1  0
  8  9  1  0
  8 10  1  0
  8 11  1  0
 13 14  1  0
 15 16  1  0
 17 18  1  0
 19 20  1  0
 21 22  1  0
M  CHG  1   6  -1
M  END
>  <PDB_ID>  (1334) 
pdb4b2g

>  <RESIDUE_NAME>  (1334) 
GLU   PHE

>  <FRAG_NAME>  (1334) 
ACET   MBZ

>  <FRAG_ATOM_NUM>  (1334) 
fragi: 7  fragj: 15

>  <atom.prop.CHAIN_ID>  (1334) 
A A A A A A A Z Z Z Z Z Z Z Z Z Z Z Z Z Z Z

>  <atom.prop.IS_HEAVY_ATOM>  (1334) 
1 0 0 0 1 1 1 1 0 0 0 1 1 0 1 0 1 0 1 0 1 0

>  <DIFUSE_FUNC_ATOM>  (1334) 
atom 6   atom 7   

>  <FINAL_SINGLE_POINT_ENERGY>  (1334) 
0

>  <NONCOV_INTER_ENERGY_QM>  (1334) 
0

>  <FF_Energy>  (1334) 
-2.38

>  <QM_Energy>  (1334) 
-7.61

>  <source>  (1334) 
ACET_MBZ_01

>  <Index>  (1334) 
13939

$$$$
ACET-pdb4b2n-A-GLU-204:MBZ-pdb4b2n-A-PHE-557
     RDKit          3D

 22 21  0  0  0  0  0  0  0  0999 V2000
    1.0742    1.0903   -4.7597 C   0  0  0  0  0  0  0  0  0  0  0  0
    2.0160    1.2506   -4.8948 H   0  0  0  0  0  0  0  0  0  0  0  0
    0.5412    1.0435   -5.5632 H   0  0  0  0  0  0  0  0  0  0  0  0
    0.9635    0.1495   -4.2206 H   0  0  0  0  0  0  0  0  0  0  0  0
    0.5274    2.1799   -3.8923 C   0  0  0  0  0  0  0  0  0  0  0  0
   -0.7035    2.1586   -3.6637 O   0  0  0  0  0  1  0  0  0  0  0  0
    1.3420    3.0125   -3.4567 O   0  0  0  0  0  0  0  0  0  0  0  0
    0.0988    2.9443   -0.0451 C   0  0  0  0  0  0  0  0  0  0  0  0
    0.6656    3.1863   -0.8241 H   0  0  0  0  0  0  0  0  0  0  0  0
    0.5356    3.2239    0.8026 H   0  0  0  0  0  0  0  0  0  0  0  0
   -0.8557    3.4632   -0.1332 H   0  0  0  0  0  0  0  0  0  0  0  0
    0.0131    1.4132   -0.0169 C   0  0  0  0  0  0  0  0  0  0  0  0
   -1.2009    0.7127   -0.0106 C   0  0  0  0  0  0  0  0  0  0  0  0
   -2.0574    1.1913   -0.0151 H   0  0  0  0  0  0  0  0  0  0  0  0
   -1.1900   -0.7005   -0.0000 C   0  0  0  0  0  0  0  0  0  0  0  0
   -2.0784   -1.1833   -0.0284 H   0  0  0  0  0  0  0  0  0  0  0  0
   -0.0091   -1.3906    0.0497 C   0  0  0  0  0  0  0  0  0  0  0  0
   -0.0092   -2.3897    0.1209 H   0  0  0  0  0  0  0  0  0  0  0  0
    1.1900   -0.7012    0.0000 C   0  0  0  0  0  0  0  0  0  0  0  0
    2.0695   -1.2150   -0.0184 H   0  0  0  0  0  0  0  0  0  0  0  0
    1.1970    0.6663   -0.0221 C   0  0  0  0  0  0  0  0  0  0  0  0
    2.0756    1.1652   -0.0433 H   0  0  0  0  0  0  0  0  0  0  0  0
  1  5  1  0
  5  6  1  0
  5  7  2  0
  1  2  1  0
  1  3  1  0
  1  4  1  0
  8 12  1  0
 12 13  2  0
 13 15  1  0
 15 17  2  0
 17 19  1  0
 19 21  2  0
 21 12  1  0
  8  9  1  0
  8 10  1  0
  8 11  1  0
 13 14  1  0
 15 16  1  0
 17 18  1  0
 19 20  1  0
 21 22  1  0
M  CHG  1   6  -1
M  END
>  <PDB_ID>  (1335) 
pdb4b2n

>  <RESIDUE_NAME>  (1335) 
GLU   PHE

>  <FRAG_NAME>  (1335) 
ACET   MBZ

>  <FRAG_ATOM_NUM>  (1335) 
fragi: 7  fragj: 15

>  <atom.prop.CHAIN_ID>  (1335) 
A A A A A A A Z Z Z Z Z Z Z Z Z Z Z Z Z Z Z

>  <atom.prop.IS_HEAVY_ATOM>  (1335) 
1 0 0 0 1 1 1 1 0 0 0 1 1 0 1 0 1 0 1 0 1 0

>  <DIFUSE_FUNC_ATOM>  (1335) 
atom 6   atom 7   

>  <FINAL_SINGLE_POINT_ENERGY>  (1335) 
0

>  <NONCOV_INTER_ENERGY_QM>  (1335) 
0

>  <FF_Energy>  (1335) 
0.51

>  <QM_Energy>  (1335) 
-4.53

>  <source>  (1335) 
ACET_MBZ_01

>  <Index>  (1335) 
13958

$$$$
ACET-pdb4b2n-B-GLU-204:MBZ-pdb4b2n-B-PHE-557
     RDKit          3D

 22 21  0  0  0  0  0  0  0  0999 V2000
    1.1092    1.2294   -4.4538 C   0  0  0  0  0  0  0  0  0  0  0  0
    2.0719    1.3009   -4.2581 H   0  0  0  0  0  0  0  0  0  0  0  0
    0.9177    1.3545   -5.4118 H   0  0  0  0  0  0  0  0  0  0  0  0
    0.7633    0.2407   -4.1525 H   0  0  0  0  0  0  0  0  0  0  0  0
    0.4125    2.3557   -3.7047 C   0  0  0  0  0  0  0  0  0  0  0  0
   -0.8237    2.3971   -3.6147 O   0  0  0  0  0  1  0  0  0  0  0  0
    1.1087    3.3019   -3.3032 O   0  0  0  0  0  0  0  0  0  0  0  0
    0.0866    2.9179    0.0411 C   0  0  0  0  0  0  0  0  0  0  0  0
    0.5902    3.2280   -0.7544 H   0  0  0  0  0  0  0  0  0  0  0  0
    0.5554    3.1714    0.8767 H   0  0  0  0  0  0  0  0  0  0  0  0
   -0.8857    3.4106    0.0372 H   0  0  0  0  0  0  0  0  0  0  0  0
    0.0250    1.4110   -0.0121 C   0  0  0  0  0  0  0  0  0  0  0  0
   -1.2178    0.6963    0.0043 C   0  0  0  0  0  0  0  0  0  0  0  0
   -2.0593    1.1892    0.0170 H   0  0  0  0  0  0  0  0  0  0  0  0
   -1.1990   -0.7024    0.0000 C   0  0  0  0  0  0  0  0  0  0  0  0
   -2.0839   -1.1967   -0.0151 H   0  0  0  0  0  0  0  0  0  0  0  0
   -0.0145   -1.3837    0.0171 C   0  0  0  0  0  0  0  0  0  0  0  0
   -0.0138   -2.3926    0.0419 H   0  0  0  0  0  0  0  0  0  0  0  0
    1.1990   -0.7058   -0.0000 C   0  0  0  0  0  0  0  0  0  0  0  0
    2.0704   -1.2141   -0.0043 H   0  0  0  0  0  0  0  0  0  0  0  0
    1.2073    0.6846   -0.0093 C   0  0  0  0  0  0  0  0  0  0  0  0
    2.0857    1.1709   -0.0152 H   0  0  0  0  0  0  0  0  0  0  0  0
  1  5  1  0
  5  6  1  0
  5  7  2  0
  1  2  1  0
  1  3  1  0
  1  4  1  0
  8 12  1  0
 12 13  2  0
 13 15  1  0
 15 17  2  0
 17 19  1  0
 19 21  2  0
 21 12  1  0
  8  9  1  0
  8 10  1  0
  8 11  1  0
 13 14  1  0
 15 16  1  0
 17 18  1  0
 19 20  1  0
 21 22  1  0
M  CHG  1   6  -1
M  END
>  <PDB_ID>  (1336) 
pdb4b2n

>  <RESIDUE_NAME>  (1336) 
GLU   PHE

>  <FRAG_NAME>  (1336) 
ACET   MBZ

>  <FRAG_ATOM_NUM>  (1336) 
fragi: 7  fragj: 15

>  <atom.prop.CHAIN_ID>  (1336) 
A A A A A A A Z Z Z Z Z Z Z Z Z Z Z Z Z Z Z

>  <atom.prop.IS_HEAVY_ATOM>  (1336) 
1 0 0 0 1 1 1 1 0 0 0 1 1 0 1 0 1 0 1 0 1 0

>  <DIFUSE_FUNC_ATOM>  (1336) 
atom 6   atom 7   

>  <FINAL_SINGLE_POINT_ENERGY>  (1336) 
0

>  <NONCOV_INTER_ENERGY_QM>  (1336) 
0

>  <FF_Energy>  (1336) 
0.21

>  <QM_Energy>  (1336) 
-4.97

>  <source>  (1336) 
ACET_MBZ_01

>  <Index>  (1336) 
13970

$$$$
ACET-pdb4b3h-A-GLU-474:MBZ-pdb4b3h-A-PHE-510
     RDKit          3D

 22 21  0  0  0  0  0  0  0  0999 V2000
    4.6553    5.3571    1.2686 C   0  0  0  0  0  0  0  0  0  0  0  0
    4.6814    6.3275    1.1183 H   0  0  0  0  0  0  0  0  0  0  0  0
    4.6536    4.8486    0.4274 H   0  0  0  0  0  0  0  0  0  0  0  0
    5.5416    5.0759    1.8372 H   0  0  0  0  0  0  0  0  0  0  0  0
    3.3614    5.0409    1.9987 C   0  0  0  0  0  0  0  0  0  0  0  0
    3.2481    5.3442    3.2083 O   0  0  0  0  0  1  0  0  0  0  0  0
    2.4514    4.4757    1.3622 O   0  0  0  0  0  0  0  0  0  0  0  0
    0.0136    2.9105   -0.0075 C   0  0  0  0  0  0  0  0  0  0  0  0
   -0.2872    3.2121   -0.9003 H   0  0  0  0  0  0  0  0  0  0  0  0
    0.9378    3.2101    0.1797 H   0  0  0  0  0  0  0  0  0  0  0  0
   -0.6400    3.3694    0.7344 H   0  0  0  0  0  0  0  0  0  0  0  0
    0.0010    1.4025    0.0038 C   0  0  0  0  0  0  0  0  0  0  0  0
   -1.1971    0.6909   -0.0059 C   0  0  0  0  0  0  0  0  0  0  0  0
   -2.0634    1.1819   -0.0185 H   0  0  0  0  0  0  0  0  0  0  0  0
   -1.1988   -0.6969   -0.0000 C   0  0  0  0  0  0  0  0  0  0  0  0
   -2.0757   -1.1933    0.0036 H   0  0  0  0  0  0  0  0  0  0  0  0
    0.0010   -1.3904    0.0024 C   0  0  0  0  0  0  0  0  0  0  0  0
   -0.0034   -2.3916    0.0051 H   0  0  0  0  0  0  0  0  0  0  0  0
    1.1988   -0.6973    0.0000 C   0  0  0  0  0  0  0  0  0  0  0  0
    2.0815   -1.1951    0.0005 H   0  0  0  0  0  0  0  0  0  0  0  0
    1.1951    0.6911   -0.0003 C   0  0  0  0  0  0  0  0  0  0  0  0
    2.0644    1.1876   -0.0040 H   0  0  0  0  0  0  0  0  0  0  0  0
  1  5  1  0
  5  6  1  0
  5  7  2  0
  1  2  1  0
  1  3  1  0
  1  4  1  0
  8 12  1  0
 12 13  2  0
 13 15  1  0
 15 17  2  0
 17 19  1  0
 19 21  2  0
 21 12  1  0
  8  9  1  0
  8 10  1  0
  8 11  1  0
 13 14  1  0
 15 16  1  0
 17 18  1  0
 19 20  1  0
 21 22  1  0
M  CHG  1   6  -1
M  END
>  <PDB_ID>  (1337) 
pdb4b3h

>  <RESIDUE_NAME>  (1337) 
GLU   PHE

>  <FRAG_NAME>  (1337) 
ACET   MBZ

>  <FRAG_ATOM_NUM>  (1337) 
fragi: 7  fragj: 15

>  <atom.prop.CHAIN_ID>  (1337) 
A A A A A A A Z Z Z Z Z Z Z Z Z Z Z Z Z Z Z

>  <atom.prop.IS_HEAVY_ATOM>  (1337) 
1 0 0 0 1 1 1 1 0 0 0 1 1 0 1 0 1 0 1 0 1 0

>  <DIFUSE_FUNC_ATOM>  (1337) 
atom 6   atom 7   

>  <FINAL_SINGLE_POINT_ENERGY>  (1337) 
0

>  <NONCOV_INTER_ENERGY_QM>  (1337) 
0

>  <FF_Energy>  (1337) 
-0.36

>  <QM_Energy>  (1337) 
-5.59

>  <source>  (1337) 
ACET_MBZ_01

>  <Index>  (1337) 
14045

$$$$
ACET-pdb3fj1-D-GLU-221:MBZ-pdb3fj1-D-PHE-155
     RDKit          3D

 22 21  0  0  0  0  0  0  0  0999 V2000
   -0.8137   -0.2030   -3.5324 C   0  0  0  0  0  0  0  0  0  0  0  0
   -0.1595   -0.2513   -2.7862 H   0  0  0  0  0  0  0  0  0  0  0  0
   -0.3503    0.0024   -4.3869 H   0  0  0  0  0  0  0  0  0  0  0  0
   -1.3037   -1.1721   -3.6269 H   0  0  0  0  0  0  0  0  0  0  0  0
   -1.7391    0.9878   -3.2343 C   0  0  0  0  0  0  0  0  0  0  0  0
   -2.9616    0.7908   -3.0573 O   0  0  0  0  0  1  0  0  0  0  0  0
   -1.2011    2.1331   -3.1696 O   0  0  0  0  0  0  0  0  0  0  0  0
   -0.0237    2.9117    0.0931 C   0  0  0  0  0  0  0  0  0  0  0  0
   -0.7849    3.2445   -0.4273 H   0  0  0  0  0  0  0  0  0  0  0  0
    0.8366    3.2537   -0.2309 H   0  0  0  0  0  0  0  0  0  0  0  0
   -0.1500    3.2528    1.1206 H   0  0  0  0  0  0  0  0  0  0  0  0
   -0.0024    1.4041   -0.0144 C   0  0  0  0  0  0  0  0  0  0  0  0
   -1.2005    0.6827    0.0104 C   0  0  0  0  0  0  0  0  0  0  0  0
   -2.0667    1.1793    0.0353 H   0  0  0  0  0  0  0  0  0  0  0  0
   -1.2006   -0.6924   -0.0000 C   0  0  0  0  0  0  0  0  0  0  0  0
   -2.0667   -1.2033    0.0055 H   0  0  0  0  0  0  0  0  0  0  0  0
    0.0205   -1.3966   -0.0161 C   0  0  0  0  0  0  0  0  0  0  0  0
   -0.0018   -2.3952   -0.0395 H   0  0  0  0  0  0  0  0  0  0  0  0
    1.2006   -0.7085    0.0000 C   0  0  0  0  0  0  0  0  0  0  0  0
    2.0932   -1.1775    0.0002 H   0  0  0  0  0  0  0  0  0  0  0  0
    1.1824    0.7107    0.0201 C   0  0  0  0  0  0  0  0  0  0  0  0
    2.0564    1.1944    0.0587 H   0  0  0  0  0  0  0  0  0  0  0  0
  1  5  1  0
  5  6  1  0
  5  7  2  0
  1  2  1  0
  1  3  1  0
  1  4  1  0
  8 12  1  0
 12 13  2  0
 13 15  1  0
 15 17  2  0
 17 19  1  0
 19 21  2  0
 21 12  1  0
  8  9  1  0
  8 10  1  0
  8 11  1  0
 13 14  1  0
 15 16  1  0
 17 18  1  0
 19 20  1  0
 21 22  1  0
M  CHG  1   6  -1
M  END
>  <PDB_ID>  (1338) 
pdb3fj1

>  <RESIDUE_NAME>  (1338) 
GLU   PHE

>  <FRAG_NAME>  (1338) 
ACET   MBZ

>  <FRAG_ATOM_NUM>  (1338) 
fragi: 7  fragj: 15

>  <atom.prop.CHAIN_ID>  (1338) 
A A A A A A A Z Z Z Z Z Z Z Z Z Z Z Z Z Z Z

>  <atom.prop.IS_HEAVY_ATOM>  (1338) 
1 0 0 0 1 1 1 1 0 0 0 1 1 0 1 0 1 0 1 0 1 0

>  <DIFUSE_FUNC_ATOM>  (1338) 
atom 6   atom 7   

>  <FINAL_SINGLE_POINT_ENERGY>  (1338) 
0

>  <NONCOV_INTER_ENERGY_QM>  (1338) 
0

>  <FF_Energy>  (1338) 
0.31

>  <QM_Energy>  (1338) 
-5.38

>  <source>  (1338) 
ACET_MBZ_01

>  <Index>  (1338) 
14512

$$$$
ACET-pdb4bae-C-ASP-210:MBZ-pdb4bae-C-PHE-187
     RDKit          3D

 22 21  0  0  0  0  0  0  0  0999 V2000
    4.0617    1.5498    1.7684 C   0  0  0  0  0  0  0  0  0  0  0  0
    3.5819    1.2748    0.9340 H   0  0  0  0  0  0  0  0  0  0  0  0
    3.6203    1.1227    2.5587 H   0  0  0  0  0  0  0  0  0  0  0  0
    5.0798    1.1653    1.7077 H   0  0  0  0  0  0  0  0  0  0  0  0
    3.9590    3.0598    1.9123 C   0  0  0  0  0  0  0  0  0  0  0  0
    4.9670    3.6952    2.3240 O   0  0  0  0  0  1  0  0  0  0  0  0
    2.8634    3.6075    1.6482 O   0  0  0  0  0  0  0  0  0  0  0  0
   -0.0004    2.9186   -0.0572 C   0  0  0  0  0  0  0  0  0  0  0  0
    0.8250    3.2442    0.3648 H   0  0  0  0  0  0  0  0  0  0  0  0
   -0.8076    3.2440    0.3989 H   0  0  0  0  0  0  0  0  0  0  0  0
   -0.0222    3.3026   -1.0771 H   0  0  0  0  0  0  0  0  0  0  0  0
    0.0011    1.4042    0.0109 C   0  0  0  0  0  0  0  0  0  0  0  0
   -1.1929    0.6888    0.0138 C   0  0  0  0  0  0  0  0  0  0  0  0
   -2.0617    1.1745    0.0246 H   0  0  0  0  0  0  0  0  0  0  0  0
   -1.1906   -0.7017    0.0000 C   0  0  0  0  0  0  0  0  0  0  0  0
   -2.0711   -1.1947   -0.0099 H   0  0  0  0  0  0  0  0  0  0  0  0
   -0.0003   -1.3866    0.0018 C   0  0  0  0  0  0  0  0  0  0  0  0
   -0.0019   -2.3916    0.0043 H   0  0  0  0  0  0  0  0  0  0  0  0
    1.1906   -0.6981   -0.0000 C   0  0  0  0  0  0  0  0  0  0  0  0
    2.0765   -1.1934    0.0200 H   0  0  0  0  0  0  0  0  0  0  0  0
    1.1921    0.6934   -0.0266 C   0  0  0  0  0  0  0  0  0  0  0  0
    2.0617    1.1844   -0.0734 H   0  0  0  0  0  0  0  0  0  0  0  0
  1  5  1  0
  5  6  1  0
  5  7  2  0
  1  2  1  0
  1  3  1  0
  1  4  1  0
  8 12  1  0
 12 13  2  0
 13 15  1  0
 15 17  2  0
 17 19  1  0
 19 21  2  0
 21 12  1  0
  8  9  1  0
  8 10  1  0
  8 11  1  0
 13 14  1  0
 15 16  1  0
 17 18  1  0
 19 20  1  0
 21 22  1  0
M  CHG  1   6  -1
M  END
>  <PDB_ID>  (1339) 
pdb4bae

>  <RESIDUE_NAME>  (1339) 
ASP   PHE

>  <FRAG_NAME>  (1339) 
ACET   MBZ

>  <FRAG_ATOM_NUM>  (1339) 
fragi: 7  fragj: 15

>  <atom.prop.CHAIN_ID>  (1339) 
A A A A A A A Z Z Z Z Z Z Z Z Z Z Z Z Z Z Z

>  <atom.prop.IS_HEAVY_ATOM>  (1339) 
1 0 0 0 1 1 1 1 0 0 0 1 1 0 1 0 1 0 1 0 1 0

>  <DIFUSE_FUNC_ATOM>  (1339) 
atom 6   atom 7   

>  <FINAL_SINGLE_POINT_ENERGY>  (1339) 
0

>  <NONCOV_INTER_ENERGY_QM>  (1339) 
0

>  <FF_Energy>  (1339) 
1.46

>  <QM_Energy>  (1339) 
-5.01

>  <source>  (1339) 
ACET_MBZ_01

>  <Index>  (1339) 
14566

$$$$
ACET-pdb4bae-D-ASP-210:MBZ-pdb4bae-D-PHE-187
     RDKit          3D

 22 21  0  0  0  0  0  0  0  0999 V2000
    4.0600    1.5164    1.7977 C   0  0  0  0  0  0  0  0  0  0  0  0
    3.5783    1.2435    0.9635 H   0  0  0  0  0  0  0  0  0  0  0  0
    3.6192    1.0871    2.5870 H   0  0  0  0  0  0  0  0  0  0  0  0
    5.0789    1.1344    1.7349 H   0  0  0  0  0  0  0  0  0  0  0  0
    3.9514    3.0273    1.9461 C   0  0  0  0  0  0  0  0  0  0  0  0
    4.9663    3.6698    2.3516 O   0  0  0  0  0  1  0  0  0  0  0  0
    2.8568    3.5703    1.6823 O   0  0  0  0  0  0  0  0  0  0  0  0
   -0.0004    2.9121   -0.0494 C   0  0  0  0  0  0  0  0  0  0  0  0
    0.8288    3.2396    0.3623 H   0  0  0  0  0  0  0  0  0  0  0  0
   -0.8031    3.2387    0.4121 H   0  0  0  0  0  0  0  0  0  0  0  0
   -0.0318    3.2952   -1.0694 H   0  0  0  0  0  0  0  0  0  0  0  0
    0.0019    1.4029    0.0133 C   0  0  0  0  0  0  0  0  0  0  0  0
   -1.1912    0.6890    0.0204 C   0  0  0  0  0  0  0  0  0  0  0  0
   -2.0602    1.1771    0.0390 H   0  0  0  0  0  0  0  0  0  0  0  0
   -1.1921   -0.6994   -0.0000 C   0  0  0  0  0  0  0  0  0  0  0  0
   -2.0740   -1.1914   -0.0048 H   0  0  0  0  0  0  0  0  0  0  0  0
   -0.0034   -1.3873   -0.0116 C   0  0  0  0  0  0  0  0  0  0  0  0
   -0.0058   -2.3911   -0.0293 H   0  0  0  0  0  0  0  0  0  0  0  0
    1.1921   -0.6997    0.0000 C   0  0  0  0  0  0  0  0  0  0  0  0
    2.0749   -1.1955    0.0262 H   0  0  0  0  0  0  0  0  0  0  0  0
    1.1927    0.6944   -0.0221 C   0  0  0  0  0  0  0  0  0  0  0  0
    2.0626    1.1839   -0.0645 H   0  0  0  0  0  0  0  0  0  0  0  0
  1  5  1  0
  5  6  1  0
  5  7  2  0
  1  2  1  0
  1  3  1  0
  1  4  1  0
  8 12  1  0
 12 13  2  0
 13 15  1  0
 15 17  2  0
 17 19  1  0
 19 21  2  0
 21 12  1  0
  8  9  1  0
  8 10  1  0
  8 11  1  0
 13 14  1  0
 15 16  1  0
 17 18  1  0
 19 20  1  0
 21 22  1  0
M  CHG  1   6  -1
M  END
>  <PDB_ID>  (1340) 
pdb4bae

>  <RESIDUE_NAME>  (1340) 
ASP   PHE

>  <FRAG_NAME>  (1340) 
ACET   MBZ

>  <FRAG_ATOM_NUM>  (1340) 
fragi: 7  fragj: 15

>  <atom.prop.CHAIN_ID>  (1340) 
A A A A A A A Z Z Z Z Z Z Z Z Z Z Z Z Z Z Z

>  <atom.prop.IS_HEAVY_ATOM>  (1340) 
1 0 0 0 1 1 1 1 0 0 0 1 1 0 1 0 1 0 1 0 1 0

>  <DIFUSE_FUNC_ATOM>  (1340) 
atom 6   atom 7   

>  <FINAL_SINGLE_POINT_ENERGY>  (1340) 
0

>  <NONCOV_INTER_ENERGY_QM>  (1340) 
0

>  <FF_Energy>  (1340) 
1.34

>  <QM_Energy>  (1340) 
-5.0

>  <source>  (1340) 
ACET_MBZ_01

>  <Index>  (1340) 
14568

$$$$
ACET-pdb3fka-A-GLU-39:MBZ-pdb3fka-A-PHE-55
     RDKit          3D

 22 21  0  0  0  0  0  0  0  0999 V2000
   -2.9069    1.9536   -3.8481 C   0  0  0  0  0  0  0  0  0  0  0  0
   -3.5548    2.5385   -4.3162 H   0  0  0  0  0  0  0  0  0  0  0  0
   -2.8538    1.0645   -4.2816 H   0  0  0  0  0  0  0  0  0  0  0  0
   -1.9238    2.4213   -3.9023 H   0  0  0  0  0  0  0  0  0  0  0  0
   -3.4018    1.7503   -2.4511 C   0  0  0  0  0  0  0  0  0  0  0  0
   -3.4750    2.7338   -1.6935 O   0  0  0  0  0  1  0  0  0  0  0  0
   -3.7599    0.6139   -2.1007 O   0  0  0  0  0  0  0  0  0  0  0  0
    0.0575    2.9183   -0.0614 C   0  0  0  0  0  0  0  0  0  0  0  0
   -0.5370    3.2091   -0.8003 H   0  0  0  0  0  0  0  0  0  0  0  0
    0.9942    3.1980   -0.2306 H   0  0  0  0  0  0  0  0  0  0  0  0
   -0.2746    3.4312    0.8412 H   0  0  0  0  0  0  0  0  0  0  0  0
    0.0206    1.4154    0.0082 C   0  0  0  0  0  0  0  0  0  0  0  0
   -1.1919    0.7052   -0.0224 C   0  0  0  0  0  0  0  0  0  0  0  0
   -2.0520    1.1833   -0.0611 H   0  0  0  0  0  0  0  0  0  0  0  0
   -1.1956   -0.7200   -0.0000 C   0  0  0  0  0  0  0  0  0  0  0  0
   -2.0961   -1.1802    0.0040 H   0  0  0  0  0  0  0  0  0  0  0  0
   -0.0400   -1.3964    0.0169 C   0  0  0  0  0  0  0  0  0  0  0  0
   -0.0121   -2.4000    0.0405 H   0  0  0  0  0  0  0  0  0  0  0  0
    1.1956   -0.6962   -0.0000 C   0  0  0  0  0  0  0  0  0  0  0  0
    2.0601   -1.2168   -0.0083 H   0  0  0  0  0  0  0  0  0  0  0  0
    1.2113    0.6920   -0.0027 C   0  0  0  0  0  0  0  0  0  0  0  0
    2.0836    1.1786   -0.0131 H   0  0  0  0  0  0  0  0  0  0  0  0
  1  5  1  0
  5  6  1  0
  5  7  2  0
  1  2  1  0
  1  3  1  0
  1  4  1  0
  8 12  1  0
 12 13  2  0
 13 15  1  0
 15 17  2  0
 17 19  1  0
 19 21  2  0
 21 12  1  0
  8  9  1  0
  8 10  1  0
  8 11  1  0
 13 14  1  0
 15 16  1  0
 17 18  1  0
 19 20  1  0
 21 22  1  0
M  CHG  1   6  -1
M  END
>  <PDB_ID>  (1341) 
pdb3fka

>  <RESIDUE_NAME>  (1341) 
GLU   PHE

>  <FRAG_NAME>  (1341) 
ACET   MBZ

>  <FRAG_ATOM_NUM>  (1341) 
fragi: 7  fragj: 15

>  <atom.prop.CHAIN_ID>  (1341) 
A A A A A A A Z Z Z Z Z Z Z Z Z Z Z Z Z Z Z

>  <atom.prop.IS_HEAVY_ATOM>  (1341) 
1 0 0 0 1 1 1 1 0 0 0 1 1 0 1 0 1 0 1 0 1 0

>  <DIFUSE_FUNC_ATOM>  (1341) 
atom 6   atom 7   

>  <FINAL_SINGLE_POINT_ENERGY>  (1341) 
0

>  <NONCOV_INTER_ENERGY_QM>  (1341) 
0

>  <FF_Energy>  (1341) 
-2.31

>  <QM_Energy>  (1341) 
-7.91

>  <source>  (1341) 
ACET_MBZ_01

>  <Index>  (1341) 
14592

$$$$
ACET-pdb4bby-D-ASP-647:MBZ-pdb4bby-D-PHE-652
     RDKit          3D

 22 21  0  0  0  0  0  0  0  0999 V2000
   -4.6889    3.8606   -1.5740 C   0  0  0  0  0  0  0  0  0  0  0  0
   -4.2290    3.2390   -2.1880 H   0  0  0  0  0  0  0  0  0  0  0  0
   -4.5094    4.8018   -1.8094 H   0  0  0  0  0  0  0  0  0  0  0  0
   -5.7612    3.6919   -1.6723 H   0  0  0  0  0  0  0  0  0  0  0  0
   -4.1461    3.6068   -0.1265 C   0  0  0  0  0  0  0  0  0  0  0  0
   -4.8262    2.8655    0.6849 O   0  0  0  0  0  1  0  0  0  0  0  0
   -3.0063    4.1283    0.1518 O   0  0  0  0  0  0  0  0  0  0  0  0
    0.0363    2.8575    0.1266 C   0  0  0  0  0  0  0  0  0  0  0  0
   -0.7576    3.2375   -0.2892 H   0  0  0  0  0  0  0  0  0  0  0  0
    0.8747    3.2023   -0.2280 H   0  0  0  0  0  0  0  0  0  0  0  0
    0.0029    3.1279    1.1820 H   0  0  0  0  0  0  0  0  0  0  0  0
    0.0095    1.3965   -0.0053 C   0  0  0  0  0  0  0  0  0  0  0  0
   -1.2120    0.7214    0.0196 C   0  0  0  0  0  0  0  0  0  0  0  0
   -2.0562    1.2225    0.0491 H   0  0  0  0  0  0  0  0  0  0  0  0
   -1.2069   -0.6538    0.0000 C   0  0  0  0  0  0  0  0  0  0  0  0
   -2.0951   -1.1559    0.0026 H   0  0  0  0  0  0  0  0  0  0  0  0
   -0.0165   -1.3830   -0.0220 C   0  0  0  0  0  0  0  0  0  0  0  0
   -0.0543   -2.3836   -0.0550 H   0  0  0  0  0  0  0  0  0  0  0  0
    1.2069   -0.7303   -0.0000 C   0  0  0  0  0  0  0  0  0  0  0  0
    2.0675   -1.2490    0.0124 H   0  0  0  0  0  0  0  0  0  0  0  0
    1.2190    0.6492    0.0077 C   0  0  0  0  0  0  0  0  0  0  0  0
    2.0852    1.1493    0.0219 H   0  0  0  0  0  0  0  0  0  0  0  0
  1  5  1  0
  5  6  1  0
  5  7  2  0
  1  2  1  0
  1  3  1  0
  1  4  1  0
  8 12  1  0
 12 13  2  0
 13 15  1  0
 15 17  2  0
 17 19  1  0
 19 21  2  0
 21 12  1  0
  8  9  1  0
  8 10  1  0
  8 11  1  0
 13 14  1  0
 15 16  1  0
 17 18  1  0
 19 20  1  0
 21 22  1  0
M  CHG  1   6  -1
M  END
>  <PDB_ID>  (1342) 
pdb4bby

>  <RESIDUE_NAME>  (1342) 
ASP   PHE

>  <FRAG_NAME>  (1342) 
ACET   MBZ

>  <FRAG_ATOM_NUM>  (1342) 
fragi: 7  fragj: 15

>  <atom.prop.CHAIN_ID>  (1342) 
A A A A A A A Z Z Z Z Z Z Z Z Z Z Z Z Z Z Z

>  <atom.prop.IS_HEAVY_ATOM>  (1342) 
1 0 0 0 1 1 1 1 0 0 0 1 1 0 1 0 1 0 1 0 1 0

>  <DIFUSE_FUNC_ATOM>  (1342) 
atom 6   atom 7   

>  <FINAL_SINGLE_POINT_ENERGY>  (1342) 
0

>  <NONCOV_INTER_ENERGY_QM>  (1342) 
0

>  <FF_Energy>  (1342) 
-2.3

>  <QM_Energy>  (1342) 
-7.62

>  <source>  (1342) 
ACET_MBZ_01

>  <Index>  (1342) 
14642

$$$$
ACET-pdb3fle-A-GLU-274:MBZ-pdb3fle-A-PHE-63
     RDKit          3D

 22 21  0  0  0  0  0  0  0  0999 V2000
    0.3648    2.2407    4.8424 C   0  0  0  0  0  0  0  0  0  0  0  0
   -0.4855    2.6797    5.0674 H   0  0  0  0  0  0  0  0  0  0  0  0
    1.0443    2.3656    5.5424 H   0  0  0  0  0  0  0  0  0  0  0  0
    0.1770    1.1721    4.7374 H   0  0  0  0  0  0  0  0  0  0  0  0
    0.8956    2.8954    3.5673 C   0  0  0  0  0  0  0  0  0  0  0  0
    2.0588    2.6338    3.1795 O   0  0  0  0  0  1  0  0  0  0  0  0
    0.1557    3.6978    2.9614 O   0  0  0  0  0  0  0  0  0  0  0  0
    0.0135    2.9117    0.0097 C   0  0  0  0  0  0  0  0  0  0  0  0
    0.9045    3.2027    0.3226 H   0  0  0  0  0  0  0  0  0  0  0  0
   -0.7006    3.2136    0.6237 H   0  0  0  0  0  0  0  0  0  0  0  0
   -0.1666    3.3596   -0.9676 H   0  0  0  0  0  0  0  0  0  0  0  0
    0.0014    1.4022   -0.0024 C   0  0  0  0  0  0  0  0  0  0  0  0
   -1.2025    0.6872    0.0087 C   0  0  0  0  0  0  0  0  0  0  0  0
   -2.0661    1.1766    0.0220 H   0  0  0  0  0  0  0  0  0  0  0  0
   -1.1985   -0.7030    0.0000 C   0  0  0  0  0  0  0  0  0  0  0  0
   -2.0705   -1.2022   -0.0048 H   0  0  0  0  0  0  0  0  0  0  0  0
    0.0081   -1.3889   -0.0003 C   0  0  0  0  0  0  0  0  0  0  0  0
    0.0073   -2.3903   -0.0008 H   0  0  0  0  0  0  0  0  0  0  0  0
    1.1985   -0.6912    0.0000 C   0  0  0  0  0  0  0  0  0  0  0  0
    2.0847   -1.1872    0.0063 H   0  0  0  0  0  0  0  0  0  0  0  0
    1.1929    0.6938   -0.0060 C   0  0  0  0  0  0  0  0  0  0  0  0
    2.0634    1.1918   -0.0144 H   0  0  0  0  0  0  0  0  0  0  0  0
  1  5  1  0
  5  6  1  0
  5  7  2  0
  1  2  1  0
  1  3  1  0
  1  4  1  0
  8 12  1  0
 12 13  2  0
 13 15  1  0
 15 17  2  0
 17 19  1  0
 19 21  2  0
 21 12  1  0
  8  9  1  0
  8 10  1  0
  8 11  1  0
 13 14  1  0
 15 16  1  0
 17 18  1  0
 19 20  1  0
 21 22  1  0
M  CHG  1   6  -1
M  END
>  <PDB_ID>  (1343) 
pdb3fle

>  <RESIDUE_NAME>  (1343) 
GLU   PHE

>  <FRAG_NAME>  (1343) 
ACET   MBZ

>  <FRAG_ATOM_NUM>  (1343) 
fragi: 7  fragj: 15

>  <atom.prop.CHAIN_ID>  (1343) 
A A A A A A A Z Z Z Z Z Z Z Z Z Z Z Z Z Z Z

>  <atom.prop.IS_HEAVY_ATOM>  (1343) 
1 0 0 0 1 1 1 1 0 0 0 1 1 0 1 0 1 0 1 0 1 0

>  <DIFUSE_FUNC_ATOM>  (1343) 
atom 6   atom 7   

>  <FINAL_SINGLE_POINT_ENERGY>  (1343) 
0

>  <NONCOV_INTER_ENERGY_QM>  (1343) 
0

>  <FF_Energy>  (1343) 
0.43

>  <QM_Energy>  (1343) 
-5.37

>  <source>  (1343) 
ACET_MBZ_01

>  <Index>  (1343) 
14679

$$$$
ACET-pdb3fm3-A-ASP-141:MBZ-pdb3fm3-A-PHE-97
     RDKit          3D

 22 21  0  0  0  0  0  0  0  0999 V2000
    3.4194   -3.5490   -1.1086 C   0  0  0  0  0  0  0  0  0  0  0  0
    3.5893   -2.5662   -1.1517 H   0  0  0  0  0  0  0  0  0  0  0  0
    4.1237   -4.0347   -1.6225 H   0  0  0  0  0  0  0  0  0  0  0  0
    3.4910   -3.8569   -0.0655 H   0  0  0  0  0  0  0  0  0  0  0  0
    2.0770   -3.8388   -1.7294 C   0  0  0  0  0  0  0  0  0  0  0  0
    1.0557   -3.9998   -1.0102 O   0  0  0  0  0  1  0  0  0  0  0  0
    2.0532   -3.8886   -2.9833 O   0  0  0  0  0  0  0  0  0  0  0  0
    0.0032    2.8981   -0.0162 C   0  0  0  0  0  0  0  0  0  0  0  0
   -0.7806    3.1996   -0.5423 H   0  0  0  0  0  0  0  0  0  0  0  0
    0.8488    3.1931   -0.4405 H   0  0  0  0  0  0  0  0  0  0  0  0
   -0.0563    3.3743    0.9624 H   0  0  0  0  0  0  0  0  0  0  0  0
   -0.0040    1.3907    0.0122 C   0  0  0  0  0  0  0  0  0  0  0  0
   -1.1925    0.6896   -0.0065 C   0  0  0  0  0  0  0  0  0  0  0  0
   -2.0603    1.1822   -0.0258 H   0  0  0  0  0  0  0  0  0  0  0  0
   -1.1919   -0.6846    0.0000 C   0  0  0  0  0  0  0  0  0  0  0  0
   -2.0693   -1.1865    0.0061 H   0  0  0  0  0  0  0  0  0  0  0  0
    0.0034   -1.3756    0.0003 C   0  0  0  0  0  0  0  0  0  0  0  0
   -0.0064   -2.3802    0.0006 H   0  0  0  0  0  0  0  0  0  0  0  0
    1.1919   -0.6924   -0.0000 C   0  0  0  0  0  0  0  0  0  0  0  0
    2.0757   -1.2006    0.0058 H   0  0  0  0  0  0  0  0  0  0  0  0
    1.1931    0.6723   -0.0060 C   0  0  0  0  0  0  0  0  0  0  0  0
    2.0594    1.1794   -0.0244 H   0  0  0  0  0  0  0  0  0  0  0  0
  1  5  1  0
  5  6  1  0
  5  7  2  0
  1  2  1  0
  1  3  1  0
  1  4  1  0
  8 12  1  0
 12 13  2  0
 13 15  1  0
 15 17  2  0
 17 19  1  0
 19 21  2  0
 21 12  1  0
  8  9  1  0
  8 10  1  0
  8 11  1  0
 13 14  1  0
 15 16  1  0
 17 18  1  0
 19 20  1  0
 21 22  1  0
M  CHG  1   6  -1
M  END
>  <PDB_ID>  (1344) 
pdb3fm3

>  <RESIDUE_NAME>  (1344) 
ASP   PHE

>  <FRAG_NAME>  (1344) 
ACET   MBZ

>  <FRAG_ATOM_NUM>  (1344) 
fragi: 7  fragj: 15

>  <atom.prop.CHAIN_ID>  (1344) 
A A A A A A A Z Z Z Z Z Z Z Z Z Z Z Z Z Z Z

>  <atom.prop.IS_HEAVY_ATOM>  (1344) 
1 0 0 0 1 1 1 1 0 0 0 1 1 0 1 0 1 0 1 0 1 0

>  <DIFUSE_FUNC_ATOM>  (1344) 
atom 6   atom 7   

>  <FINAL_SINGLE_POINT_ENERGY>  (1344) 
0

>  <NONCOV_INTER_ENERGY_QM>  (1344) 
0

>  <FF_Energy>  (1344) 
0.13

>  <QM_Energy>  (1344) 
-4.88

>  <source>  (1344) 
ACET_MBZ_01

>  <Index>  (1344) 
14741

$$$$
ACET-pdb4bff-N-GLU-52:MBZ-pdb4bff-N-PHE-107
     RDKit          3D

 22 21  0  0  0  0  0  0  0  0999 V2000
    3.2162    4.2944    0.4815 C   0  0  0  0  0  0  0  0  0  0  0  0
    2.6253    5.0004    0.8249 H   0  0  0  0  0  0  0  0  0  0  0  0
    2.7720    3.7290   -0.1881 H   0  0  0  0  0  0  0  0  0  0  0  0
    4.0853    4.7637    0.0206 H   0  0  0  0  0  0  0  0  0  0  0  0
    3.5945    3.4091    1.6457 C   0  0  0  0  0  0  0  0  0  0  0  0
    4.7451    3.5133    2.1270 O   0  0  0  0  0  1  0  0  0  0  0  0
    2.7423    2.6043    2.0756 O   0  0  0  0  0  0  0  0  0  0  0  0
    0.0023    2.8767    0.0157 C   0  0  0  0  0  0  0  0  0  0  0  0
    0.9451    3.1847    0.0486 H   0  0  0  0  0  0  0  0  0  0  0  0
   -0.4930    3.1771    0.8217 H   0  0  0  0  0  0  0  0  0  0  0  0
   -0.4679    3.3363   -0.8537 H   0  0  0  0  0  0  0  0  0  0  0  0
   -0.0009    1.3889   -0.0055 C   0  0  0  0  0  0  0  0  0  0  0  0
   -1.1900    0.6911   -0.0024 C   0  0  0  0  0  0  0  0  0  0  0  0
   -2.0578    1.1839   -0.0036 H   0  0  0  0  0  0  0  0  0  0  0  0
   -1.1924   -0.6865   -0.0000 C   0  0  0  0  0  0  0  0  0  0  0  0
   -2.0707   -1.1855    0.0003 H   0  0  0  0  0  0  0  0  0  0  0  0
    0.0033   -1.3806    0.0036 C   0  0  0  0  0  0  0  0  0  0  0  0
   -0.0073   -2.3840    0.0085 H   0  0  0  0  0  0  0  0  0  0  0  0
    1.1924   -0.6961    0.0000 C   0  0  0  0  0  0  0  0  0  0  0  0
    2.0771   -1.1947   -0.0041 H   0  0  0  0  0  0  0  0  0  0  0  0
    1.1876    0.6833    0.0043 C   0  0  0  0  0  0  0  0  0  0  0  0
    2.0588    1.1822    0.0135 H   0  0  0  0  0  0  0  0  0  0  0  0
  1  5  1  0
  5  6  1  0
  5  7  2  0
  1  2  1  0
  1  3  1  0
  1  4  1  0
  8 12  1  0
 12 13  2  0
 13 15  1  0
 15 17  2  0
 17 19  1  0
 19 21  2  0
 21 12  1  0
  8  9  1  0
  8 10  1  0
  8 11  1  0
 13 14  1  0
 15 16  1  0
 17 18  1  0
 19 20  1  0
 21 22  1  0
M  CHG  1   6  -1
M  END
>  <PDB_ID>  (1345) 
pdb4bff

>  <RESIDUE_NAME>  (1345) 
GLU   PHE

>  <FRAG_NAME>  (1345) 
ACET   MBZ

>  <FRAG_ATOM_NUM>  (1345) 
fragi: 7  fragj: 15

>  <atom.prop.CHAIN_ID>  (1345) 
A A A A A A A Z Z Z Z Z Z Z Z Z Z Z Z Z Z Z

>  <atom.prop.IS_HEAVY_ATOM>  (1345) 
1 0 0 0 1 1 1 1 0 0 0 1 1 0 1 0 1 0 1 0 1 0

>  <DIFUSE_FUNC_ATOM>  (1345) 
atom 6   atom 7   

>  <FINAL_SINGLE_POINT_ENERGY>  (1345) 
0

>  <NONCOV_INTER_ENERGY_QM>  (1345) 
0

>  <FF_Energy>  (1345) 
0.8

>  <QM_Energy>  (1345) 
-4.31

>  <source>  (1345) 
ACET_MBZ_01

>  <Index>  (1345) 
14796

$$$$
ACET-pdb3fp2-A-ASP-157:MBZ-pdb3fp2-A-PHE-163
     RDKit          3D

 22 21  0  0  0  0  0  0  0  0999 V2000
    4.1349   -2.6053   -0.7852 C   0  0  0  0  0  0  0  0  0  0  0  0
    4.1117   -3.3787   -0.1623 H   0  0  0  0  0  0  0  0  0  0  0  0
    3.3530   -2.0125   -0.6352 H   0  0  0  0  0  0  0  0  0  0  0  0
    5.0377   -2.0316   -0.5757 H   0  0  0  0  0  0  0  0  0  0  0  0
    4.0905   -3.1235   -2.2098 C   0  0  0  0  0  0  0  0  0  0  0  0
    5.0953   -2.9608   -2.9339 O   0  0  0  0  0  1  0  0  0  0  0  0
    3.0526   -3.6923   -2.6049 O   0  0  0  0  0  0  0  0  0  0  0  0
    0.0396    2.9021   -0.1025 C   0  0  0  0  0  0  0  0  0  0  0  0
    0.8001    3.1732   -0.6732 H   0  0  0  0  0  0  0  0  0  0  0  0
    0.1488    3.2326    0.8229 H   0  0  0  0  0  0  0  0  0  0  0  0
   -0.8570    3.3681   -0.5112 H   0  0  0  0  0  0  0  0  0  0  0  0
    0.0075    1.3829   -0.0564 C   0  0  0  0  0  0  0  0  0  0  0  0
   -1.1929    0.6825    0.0093 C   0  0  0  0  0  0  0  0  0  0  0  0
   -2.0495    1.2107    0.0632 H   0  0  0  0  0  0  0  0  0  0  0  0
   -1.2156   -0.6517    0.0000 C   0  0  0  0  0  0  0  0  0  0  0  0
   -2.0969   -1.1630   -0.0526 H   0  0  0  0  0  0  0  0  0  0  0  0
   -0.0214   -1.4016    0.0637 C   0  0  0  0  0  0  0  0  0  0  0  0
   -0.0254   -2.3650    0.1464 H   0  0  0  0  0  0  0  0  0  0  0  0
    1.2156   -0.6709   -0.0000 C   0  0  0  0  0  0  0  0  0  0  0  0
    2.0770   -1.2109   -0.0293 H   0  0  0  0  0  0  0  0  0  0  0  0
    1.2068    0.6588   -0.0166 C   0  0  0  0  0  0  0  0  0  0  0  0
    2.0707    1.1891   -0.0022 H   0  0  0  0  0  0  0  0  0  0  0  0
  1  5  1  0
  5  6  1  0
  5  7  2  0
  1  2  1  0
  1  3  1  0
  1  4  1  0
  8 12  1  0
 12 13  2  0
 13 15  1  0
 15 17  2  0
 17 19  1  0
 19 21  2  0
 21 12  1  0
  8  9  1  0
  8 10  1  0
  8 11  1  0
 13 14  1  0
 15 16  1  0
 17 18  1  0
 19 20  1  0
 21 22  1  0
M  CHG  1   6  -1
M  END
>  <PDB_ID>  (1346) 
pdb3fp2

>  <RESIDUE_NAME>  (1346) 
ASP   PHE

>  <FRAG_NAME>  (1346) 
ACET   MBZ

>  <FRAG_ATOM_NUM>  (1346) 
fragi: 7  fragj: 15

>  <atom.prop.CHAIN_ID>  (1346) 
A A A A A A A Z Z Z Z Z Z Z Z Z Z Z Z Z Z Z

>  <atom.prop.IS_HEAVY_ATOM>  (1346) 
1 0 0 0 1 1 1 1 0 0 0 1 1 0 1 0 1 0 1 0 1 0

>  <DIFUSE_FUNC_ATOM>  (1346) 
atom 6   atom 7   

>  <FINAL_SINGLE_POINT_ENERGY>  (1346) 
0

>  <NONCOV_INTER_ENERGY_QM>  (1346) 
0

>  <FF_Energy>  (1346) 
10.9

>  <QM_Energy>  (1346) 
0.79

>  <source>  (1346) 
ACET_MBZ_01

>  <Index>  (1346) 
14916

$$$$
ACET-pdb4b31-B-ASP-400:MBZ-pdb4b31-C-PHE-337
     RDKit          3D

 22 21  0  0  0  0  0  0  0  0999 V2000
   -0.1526    0.2315    3.6398 C   0  0  0  0  0  0  0  0  0  0  0  0
    0.1061   -0.0364    4.5476 H   0  0  0  0  0  0  0  0  0  0  0  0
    0.3721   -0.2222    2.9481 H   0  0  0  0  0  0  0  0  0  0  0  0
   -1.2054   -0.0101    3.4932 H   0  0  0  0  0  0  0  0  0  0  0  0
    0.1299    1.7908    3.5052 C   0  0  0  0  0  0  0  0  0  0  0  0
   -0.8547    2.5288    3.1790 O   0  0  0  0  0  1  0  0  0  0  0  0
    1.3093    2.2782    3.6434 O   0  0  0  0  0  0  0  0  0  0  0  0
    0.0068    2.9068   -0.0052 C   0  0  0  0  0  0  0  0  0  0  0  0
    0.8448    3.2192    0.4054 H   0  0  0  0  0  0  0  0  0  0  0  0
   -0.7853    3.2231    0.4852 H   0  0  0  0  0  0  0  0  0  0  0  0
   -0.0418    3.3105   -1.0164 H   0  0  0  0  0  0  0  0  0  0  0  0
    0.0042    1.4098    0.0165 C   0  0  0  0  0  0  0  0  0  0  0  0
   -1.2104    0.6971   -0.0120 C   0  0  0  0  0  0  0  0  0  0  0  0
   -2.0688    1.1832   -0.0416 H   0  0  0  0  0  0  0  0  0  0  0  0
   -1.2105   -0.7116    0.0000 C   0  0  0  0  0  0  0  0  0  0  0  0
   -2.0853   -1.1994    0.0089 H   0  0  0  0  0  0  0  0  0  0  0  0
   -0.0058   -1.3971    0.0005 C   0  0  0  0  0  0  0  0  0  0  0  0
    0.0027   -2.3973    0.0009 H   0  0  0  0  0  0  0  0  0  0  0  0
    1.2105   -0.6949   -0.0000 C   0  0  0  0  0  0  0  0  0  0  0  0
    2.0847   -1.2003    0.0044 H   0  0  0  0  0  0  0  0  0  0  0  0
    1.2120    0.6967   -0.0050 C   0  0  0  0  0  0  0  0  0  0  0  0
    2.0741    1.1943   -0.0247 H   0  0  0  0  0  0  0  0  0  0  0  0
  1  5  1  0
  5  6  1  0
  5  7  2  0
  1  2  1  0
  1  3  1  0
  1  4  1  0
  8 12  1  0
 12 13  2  0
 13 15  1  0
 15 17  2  0
 17 19  1  0
 19 21  2  0
 21 12  1  0
  8  9  1  0
  8 10  1  0
  8 11  1  0
 13 14  1  0
 15 16  1  0
 17 18  1  0
 19 20  1  0
 21 22  1  0
M  CHG  1   6  -1
M  END
>  <PDB_ID>  (1347) 
pdb4b31

>  <RESIDUE_NAME>  (1347) 
ASP   PHE

>  <FRAG_NAME>  (1347) 
ACET   MBZ

>  <FRAG_ATOM_NUM>  (1347) 
fragi: 7  fragj: 15

>  <atom.prop.CHAIN_ID>  (1347) 
A A A A A A A Z Z Z Z Z Z Z Z Z Z Z Z Z Z Z

>  <atom.prop.IS_HEAVY_ATOM>  (1347) 
1 0 0 0 1 1 1 1 0 0 0 1 1 0 1 0 1 0 1 0 1 0

>  <DIFUSE_FUNC_ATOM>  (1347) 
atom 6   atom 7   

>  <FINAL_SINGLE_POINT_ENERGY>  (1347) 
0

>  <NONCOV_INTER_ENERGY_QM>  (1347) 
0

>  <FF_Energy>  (1347) 
0.25

>  <QM_Energy>  (1347) 
-5.65

>  <source>  (1347) 
ACET_MBZ_01

>  <Index>  (1347) 
15056

$$$$
ACET-pdb4bih-A-ASP-245:MBZ-pdb4bih-A-PHE-155
     RDKit          3D

 22 21  0  0  0  0  0  0  0  0999 V2000
    2.0271    2.9443   -3.1664 C   0  0  0  0  0  0  0  0  0  0  0  0
    1.0484    3.0567   -3.0468 H   0  0  0  0  0  0  0  0  0  0  0  0
    2.2655    1.9828   -3.2150 H   0  0  0  0  0  0  0  0  0  0  0  0
    2.3093    3.4121   -4.1096 H   0  0  0  0  0  0  0  0  0  0  0  0
    2.7370    3.5639   -1.9758 C   0  0  0  0  0  0  0  0  0  0  0  0
    2.3722    4.6866   -1.5472 O   0  0  0  0  0  1  0  0  0  0  0  0
    3.6709    2.9179   -1.4551 O   0  0  0  0  0  0  0  0  0  0  0  0
   -0.0054    2.8816    0.0022 C   0  0  0  0  0  0  0  0  0  0  0  0
   -0.7237    3.1918   -0.6044 H   0  0  0  0  0  0  0  0  0  0  0  0
    0.8808    3.1962   -0.3060 H   0  0  0  0  0  0  0  0  0  0  0  0
   -0.1896    3.3118    0.9867 H   0  0  0  0  0  0  0  0  0  0  0  0
   -0.0004    1.3959   -0.0018 C   0  0  0  0  0  0  0  0  0  0  0  0
   -1.1904    0.6882   -0.0054 C   0  0  0  0  0  0  0  0  0  0  0  0
   -2.0606    1.1761   -0.0128 H   0  0  0  0  0  0  0  0  0  0  0  0
   -1.1945   -0.7022    0.0000 C   0  0  0  0  0  0  0  0  0  0  0  0
   -2.0739   -1.1923    0.0011 H   0  0  0  0  0  0  0  0  0  0  0  0
   -0.0022   -1.3874    0.0058 C   0  0  0  0  0  0  0  0  0  0  0  0
    0.0025   -2.3891    0.0138 H   0  0  0  0  0  0  0  0  0  0  0  0
    1.1945   -0.6891   -0.0000 C   0  0  0  0  0  0  0  0  0  0  0  0
    2.0784   -1.1904   -0.0038 H   0  0  0  0  0  0  0  0  0  0  0  0
    1.1930    0.6947    0.0014 C   0  0  0  0  0  0  0  0  0  0  0  0
    2.0606    1.1919    0.0036 H   0  0  0  0  0  0  0  0  0  0  0  0
  1  5  1  0
  5  6  1  0
  5  7  2  0
  1  2  1  0
  1  3  1  0
  1  4  1  0
  8 12  1  0
 12 13  2  0
 13 15  1  0
 15 17  2  0
 17 19  1  0
 19 21  2  0
 21 12  1  0
  8  9  1  0
  8 10  1  0
  8 11  1  0
 13 14  1  0
 15 16  1  0
 17 18  1  0
 19 20  1  0
 21 22  1  0
M  CHG  1   6  -1
M  END
>  <PDB_ID>  (1348) 
pdb4bih

>  <RESIDUE_NAME>  (1348) 
ASP   PHE

>  <FRAG_NAME>  (1348) 
ACET   MBZ

>  <FRAG_ATOM_NUM>  (1348) 
fragi: 7  fragj: 15

>  <atom.prop.CHAIN_ID>  (1348) 
A A A A A A A Z Z Z Z Z Z Z Z Z Z Z Z Z Z Z

>  <atom.prop.IS_HEAVY_ATOM>  (1348) 
1 0 0 0 1 1 1 1 0 0 0 1 1 0 1 0 1 0 1 0 1 0

>  <DIFUSE_FUNC_ATOM>  (1348) 
atom 6   atom 7   

>  <FINAL_SINGLE_POINT_ENERGY>  (1348) 
0

>  <NONCOV_INTER_ENERGY_QM>  (1348) 
0

>  <FF_Energy>  (1348) 
-1.93

>  <QM_Energy>  (1348) 
-7.42

>  <source>  (1348) 
ACET_MBZ_01

>  <Index>  (1348) 
15072

$$$$
ACET-pdb3fsl-B-GLU-275:MBZ-pdb3fsl-A-PHE-6
     RDKit          3D

 22 21  0  0  0  0  0  0  0  0999 V2000
   -4.6001    4.0114    3.0737 C   0  0  0  0  0  0  0  0  0  0  0  0
   -4.2243    4.7253    3.6401 H   0  0  0  0  0  0  0  0  0  0  0  0
   -4.9438    3.2605    3.6115 H   0  0  0  0  0  0  0  0  0  0  0  0
   -5.4260    4.4292    2.4980 H   0  0  0  0  0  0  0  0  0  0  0  0
   -3.4719    3.4727    2.2108 C   0  0  0  0  0  0  0  0  0  0  0  0
   -3.3846    3.8197    1.0207 O   0  0  0  0  0  1  0  0  0  0  0  0
   -2.6647    2.6885    2.7394 O   0  0  0  0  0  0  0  0  0  0  0  0
    0.0049    2.9034    0.0041 C   0  0  0  0  0  0  0  0  0  0  0  0
   -0.9328    3.2146    0.0009 H   0  0  0  0  0  0  0  0  0  0  0  0
    0.4923    3.2147   -0.7966 H   0  0  0  0  0  0  0  0  0  0  0  0
    0.4949    3.3309    0.8789 H   0  0  0  0  0  0  0  0  0  0  0  0
   -0.0033    1.4006   -0.0101 C   0  0  0  0  0  0  0  0  0  0  0  0
   -1.1933    0.7110    0.0069 C   0  0  0  0  0  0  0  0  0  0  0  0
   -2.0609    1.1986    0.0234 H   0  0  0  0  0  0  0  0  0  0  0  0
   -1.2015   -0.6828    0.0000 C   0  0  0  0  0  0  0  0  0  0  0  0
   -2.0784   -1.1750   -0.0074 H   0  0  0  0  0  0  0  0  0  0  0  0
    0.0043   -1.3946    0.0050 C   0  0  0  0  0  0  0  0  0  0  0  0
   -0.0185   -2.3933    0.0115 H   0  0  0  0  0  0  0  0  0  0  0  0
    1.2015   -0.7137   -0.0000 C   0  0  0  0  0  0  0  0  0  0  0  0
    2.0815   -1.2065   -0.0013 H   0  0  0  0  0  0  0  0  0  0  0  0
    1.1924    0.6796   -0.0018 C   0  0  0  0  0  0  0  0  0  0  0  0
    2.0637    1.1766    0.0021 H   0  0  0  0  0  0  0  0  0  0  0  0
  1  5  1  0
  5  6  1  0
  5  7  2  0
  1  2  1  0
  1  3  1  0
  1  4  1  0
  8 12  1  0
 12 13  2  0
 13 15  1  0
 15 17  2  0
 17 19  1  0
 19 21  2  0
 21 12  1  0
  8  9  1  0
  8 10  1  0
  8 11  1  0
 13 14  1  0
 15 16  1  0
 17 18  1  0
 19 20  1  0
 21 22  1  0
M  CHG  1   6  -1
M  END
>  <PDB_ID>  (1349) 
pdb3fsl

>  <RESIDUE_NAME>  (1349) 
GLU   PHE

>  <FRAG_NAME>  (1349) 
ACET   MBZ

>  <FRAG_ATOM_NUM>  (1349) 
fragi: 7  fragj: 15

>  <atom.prop.CHAIN_ID>  (1349) 
A A A A A A A Z Z Z Z Z Z Z Z Z Z Z Z Z Z Z

>  <atom.prop.IS_HEAVY_ATOM>  (1349) 
1 0 0 0 1 1 1 1 0 0 0 1 1 0 1 0 1 0 1 0 1 0

>  <DIFUSE_FUNC_ATOM>  (1349) 
atom 6   atom 7   

>  <FINAL_SINGLE_POINT_ENERGY>  (1349) 
0

>  <NONCOV_INTER_ENERGY_QM>  (1349) 
0

>  <FF_Energy>  (1349) 
-1.48

>  <QM_Energy>  (1349) 
-7.15

>  <source>  (1349) 
ACET_MBZ_01

>  <Index>  (1349) 
15195

$$$$
ACET-pdb3fsl-D-GLU-275:MBZ-pdb3fsl-C-PHE-6
     RDKit          3D

 22 21  0  0  0  0  0  0  0  0999 V2000
   -4.4054    4.1156    3.1969 C   0  0  0  0  0  0  0  0  0  0  0  0
   -4.0580    4.7303    3.8772 H   0  0  0  0  0  0  0  0  0  0  0  0
   -4.8270    3.3206    3.5877 H   0  0  0  0  0  0  0  0  0  0  0  0
   -5.1737    4.6505    2.6387 H   0  0  0  0  0  0  0  0  0  0  0  0
   -3.2111    3.6400    2.3401 C   0  0  0  0  0  0  0  0  0  0  0  0
   -3.2014    3.8857    1.1273 O   0  0  0  0  0  1  0  0  0  0  0  0
   -2.2774    2.9935    2.8731 O   0  0  0  0  0  0  0  0  0  0  0  0
    0.0076    2.9035    0.0432 C   0  0  0  0  0  0  0  0  0  0  0  0
   -0.9151    3.2187    0.1614 H   0  0  0  0  0  0  0  0  0  0  0  0
    0.4150    3.2361   -0.7862 H   0  0  0  0  0  0  0  0  0  0  0  0
    0.5971    3.2853    0.8768 H   0  0  0  0  0  0  0  0  0  0  0  0
   -0.0122    1.3976   -0.0116 C   0  0  0  0  0  0  0  0  0  0  0  0
   -1.2030    0.7073   -0.0018 C   0  0  0  0  0  0  0  0  0  0  0  0
   -2.0700    1.1940    0.0032 H   0  0  0  0  0  0  0  0  0  0  0  0
   -1.2109   -0.6880   -0.0000 C   0  0  0  0  0  0  0  0  0  0  0  0
   -2.0714   -1.1911   -0.0053 H   0  0  0  0  0  0  0  0  0  0  0  0
    0.0252   -1.4006    0.0115 C   0  0  0  0  0  0  0  0  0  0  0  0
    0.0035   -2.3920    0.0270 H   0  0  0  0  0  0  0  0  0  0  0  0
    1.2109   -0.7000    0.0000 C   0  0  0  0  0  0  0  0  0  0  0  0
    2.0989   -1.1880   -0.0086 H   0  0  0  0  0  0  0  0  0  0  0  0
    1.1900    0.6837    0.0019 C   0  0  0  0  0  0  0  0  0  0  0  0
    2.0569    1.1927    0.0120 H   0  0  0  0  0  0  0  0  0  0  0  0
  1  5  1  0
  5  6  1  0
  5  7  2  0
  1  2  1  0
  1  3  1  0
  1  4  1  0
  8 12  1  0
 12 13  2  0
 13 15  1  0
 15 17  2  0
 17 19  1  0
 19 21  2  0
 21 12  1  0
  8  9  1  0
  8 10  1  0
  8 11  1  0
 13 14  1  0
 15 16  1  0
 17 18  1  0
 19 20  1  0
 21 22  1  0
M  CHG  1   6  -1
M  END
>  <PDB_ID>  (1350) 
pdb3fsl

>  <RESIDUE_NAME>  (1350) 
GLU   PHE

>  <FRAG_NAME>  (1350) 
ACET   MBZ

>  <FRAG_ATOM_NUM>  (1350) 
fragi: 7  fragj: 15

>  <atom.prop.CHAIN_ID>  (1350) 
A A A A A A A Z Z Z Z Z Z Z Z Z Z Z Z Z Z Z

>  <atom.prop.IS_HEAVY_ATOM>  (1350) 
1 0 0 0 1 1 1 1 0 0 0 1 1 0 1 0 1 0 1 0 1 0

>  <DIFUSE_FUNC_ATOM>  (1350) 
atom 6   atom 7   

>  <FINAL_SINGLE_POINT_ENERGY>  (1350) 
0

>  <NONCOV_INTER_ENERGY_QM>  (1350) 
0

>  <FF_Energy>  (1350) 
-1.27

>  <QM_Energy>  (1350) 
-7.35

>  <source>  (1350) 
ACET_MBZ_01

>  <Index>  (1350) 
15200

$$$$
ACET-pdb3fsl-C-GLU-275:MBZ-pdb3fsl-D-PHE-6
     RDKit          3D

 22 21  0  0  0  0  0  0  0  0999 V2000
   -4.0878    3.8225    3.6293 C   0  0  0  0  0  0  0  0  0  0  0  0
   -3.6739    4.5544    4.1372 H   0  0  0  0  0  0  0  0  0  0  0  0
   -4.3290    3.0601    4.2005 H   0  0  0  0  0  0  0  0  0  0  0  0
   -5.0098    4.2094    3.1953 H   0  0  0  0  0  0  0  0  0  0  0  0
   -3.0717    3.3333    2.5967 C   0  0  0  0  0  0  0  0  0  0  0  0
   -3.3124    3.5674    1.3834 O   0  0  0  0  0  1  0  0  0  0  0  0
   -2.0298    2.7234    2.9865 O   0  0  0  0  0  0  0  0  0  0  0  0
    0.0033    2.9323    0.0174 C   0  0  0  0  0  0  0  0  0  0  0  0
   -0.9180    3.2419    0.1966 H   0  0  0  0  0  0  0  0  0  0  0  0
    0.3224    3.2413   -0.8655 H   0  0  0  0  0  0  0  0  0  0  0  0
    0.6515    3.3735    0.7745 H   0  0  0  0  0  0  0  0  0  0  0  0
   -0.0034    1.4232    0.0099 C   0  0  0  0  0  0  0  0  0  0  0  0
   -1.2031    0.7165    0.0150 C   0  0  0  0  0  0  0  0  0  0  0  0
   -2.0696    1.2025    0.0274 H   0  0  0  0  0  0  0  0  0  0  0  0
   -1.2111   -0.6875   -0.0000 C   0  0  0  0  0  0  0  0  0  0  0  0
   -2.0881   -1.1781   -0.0012 H   0  0  0  0  0  0  0  0  0  0  0  0
    0.0013   -1.4168   -0.0114 C   0  0  0  0  0  0  0  0  0  0  0  0
   -0.0250   -2.4069   -0.0279 H   0  0  0  0  0  0  0  0  0  0  0  0
    1.2111   -0.7277    0.0000 C   0  0  0  0  0  0  0  0  0  0  0  0
    2.0883   -1.2129    0.0192 H   0  0  0  0  0  0  0  0  0  0  0  0
    1.2052    0.6924   -0.0134 C   0  0  0  0  0  0  0  0  0  0  0  0
    2.0731    1.1798   -0.0409 H   0  0  0  0  0  0  0  0  0  0  0  0
  1  5  1  0
  5  6  1  0
  5  7  2  0
  1  2  1  0
  1  3  1  0
  1  4  1  0
  8 12  1  0
 12 13  2  0
 13 15  1  0
 15 17  2  0
 17 19  1  0
 19 21  2  0
 21 12  1  0
  8  9  1  0
  8 10  1  0
  8 11  1  0
 13 14  1  0
 15 16  1  0
 17 18  1  0
 19 20  1  0
 21 22  1  0
M  CHG  1   6  -1
M  END
>  <PDB_ID>  (1351) 
pdb3fsl

>  <RESIDUE_NAME>  (1351) 
GLU   PHE

>  <FRAG_NAME>  (1351) 
ACET   MBZ

>  <FRAG_ATOM_NUM>  (1351) 
fragi: 7  fragj: 15

>  <atom.prop.CHAIN_ID>  (1351) 
A A A A A A A Z Z Z Z Z Z Z Z Z Z Z Z Z Z Z

>  <atom.prop.IS_HEAVY_ATOM>  (1351) 
1 0 0 0 1 1 1 1 0 0 0 1 1 0 1 0 1 0 1 0 1 0

>  <DIFUSE_FUNC_ATOM>  (1351) 
atom 6   atom 7   

>  <FINAL_SINGLE_POINT_ENERGY>  (1351) 
0

>  <NONCOV_INTER_ENERGY_QM>  (1351) 
0

>  <FF_Energy>  (1351) 
-1.03

>  <QM_Energy>  (1351) 
-7.27

>  <source>  (1351) 
ACET_MBZ_01

>  <Index>  (1351) 
15203

$$$$
ACET-pdb4blk-A-ASP-136:MBZ-pdb4blk-A-PHE-76
     RDKit          3D

 22 21  0  0  0  0  0  0  0  0999 V2000
   -0.8891   -0.5430    3.7987 C   0  0  0  0  0  0  0  0  0  0  0  0
   -1.3209   -1.2110    3.2435 H   0  0  0  0  0  0  0  0  0  0  0  0
   -1.1648   -0.6543    4.7224 H   0  0  0  0  0  0  0  0  0  0  0  0
    0.1908   -0.6773    3.7361 H   0  0  0  0  0  0  0  0  0  0  0  0
   -1.3631    0.8259    3.3342 C   0  0  0  0  0  0  0  0  0  0  0  0
   -0.5393    1.7408    3.1366 O   0  0  0  0  0  1  0  0  0  0  0  0
   -2.5985    0.9853    3.1766 O   0  0  0  0  0  0  0  0  0  0  0  0
    0.0416    2.9148    0.0049 C   0  0  0  0  0  0  0  0  0  0  0  0
    0.6210    3.1980   -0.7200 H   0  0  0  0  0  0  0  0  0  0  0  0
    0.4198    3.1943    0.8533 H   0  0  0  0  0  0  0  0  0  0  0  0
   -0.9286    3.3962   -0.1181 H   0  0  0  0  0  0  0  0  0  0  0  0
    0.0024    1.3980   -0.0040 C   0  0  0  0  0  0  0  0  0  0  0  0
   -1.1922    0.6892    0.0055 C   0  0  0  0  0  0  0  0  0  0  0  0
   -2.0008    1.1485    0.0064 H   0  0  0  0  0  0  0  0  0  0  0  0
   -1.1873   -0.6963   -0.0000 C   0  0  0  0  0  0  0  0  0  0  0  0
   -1.9915   -1.1630    0.0066 H   0  0  0  0  0  0  0  0  0  0  0  0
    0.0016   -1.3804    0.0056 C   0  0  0  0  0  0  0  0  0  0  0  0
    0.0028   -2.3102    0.0013 H   0  0  0  0  0  0  0  0  0  0  0  0
    1.1873   -0.6941   -0.0000 C   0  0  0  0  0  0  0  0  0  0  0  0
    1.9923   -1.1587   -0.0043 H   0  0  0  0  0  0  0  0  0  0  0  0
    1.1882    0.6834   -0.0070 C   0  0  0  0  0  0  0  0  0  0  0  0
    1.9984    1.1406   -0.0060 H   0  0  0  0  0  0  0  0  0  0  0  0
  1  5  1  0
  5  6  1  0
  5  7  2  0
  1  2  1  0
  1  3  1  0
  1  4  1  0
  8 12  1  0
 12 13  2  0
 13 15  1  0
 15 17  2  0
 17 19  1  0
 19 21  2  0
 21 12  1  0
  8  9  1  0
  8 10  1  0
  8 11  1  0
 13 14  1  0
 15 16  1  0
 17 18  1  0
 19 20  1  0
 21 22  1  0
M  CHG  1   6  -1
M  END
>  <PDB_ID>  (1352) 
pdb4blk

>  <RESIDUE_NAME>  (1352) 
ASP   PHE

>  <FRAG_NAME>  (1352) 
ACET   MBZ

>  <FRAG_ATOM_NUM>  (1352) 
fragi: 7  fragj: 15

>  <atom.prop.CHAIN_ID>  (1352) 
A A A A A A A Z Z Z Z Z Z Z Z Z Z Z Z Z Z Z

>  <atom.prop.IS_HEAVY_ATOM>  (1352) 
1 0 0 0 1 1 1 1 0 0 0 1 1 0 1 0 1 0 1 0 1 0

>  <DIFUSE_FUNC_ATOM>  (1352) 
atom 6   atom 7   

>  <FINAL_SINGLE_POINT_ENERGY>  (1352) 
0

>  <NONCOV_INTER_ENERGY_QM>  (1352) 
0

>  <FF_Energy>  (1352) 
1.36

>  <QM_Energy>  (1352) 
-4.35

>  <source>  (1352) 
ACET_MBZ_01

>  <Index>  (1352) 
15244

$$$$
ACET-pdb4bmv-B-GLU-170:MBZ-pdb4bmv-A-PHE-97
     RDKit          3D

 22 21  0  0  0  0  0  0  0  0999 V2000
    0.1739    6.3998   -3.4863 C   0  0  0  0  0  0  0  0  0  0  0  0
    0.3343    7.3071   -3.1453 H   0  0  0  0  0  0  0  0  0  0  0  0
   -0.4513    6.3913   -4.2445 H   0  0  0  0  0  0  0  0  0  0  0  0
    1.1240    5.9735   -3.8082 H   0  0  0  0  0  0  0  0  0  0  0  0
   -0.4478    5.5996   -2.3767 C   0  0  0  0  0  0  0  0  0  0  0  0
   -1.2026    4.6348   -2.6975 O   0  0  0  0  0  1  0  0  0  0  0  0
   -0.2327    5.9958   -1.1879 O   0  0  0  0  0  0  0  0  0  0  0  0
    0.0107    2.8982   -0.0001 C   0  0  0  0  0  0  0  0  0  0  0  0
   -0.5810    3.2055   -0.7256 H   0  0  0  0  0  0  0  0  0  0  0  0
    0.9403    3.1966   -0.1334 H   0  0  0  0  0  0  0  0  0  0  0  0
   -0.3508    3.3254    0.9352 H   0  0  0  0  0  0  0  0  0  0  0  0
    0.0052    1.3839   -0.0087 C   0  0  0  0  0  0  0  0  0  0  0  0
   -1.1792    0.6966   -0.0291 C   0  0  0  0  0  0  0  0  0  0  0  0
   -2.0469    1.1959   -0.0672 H   0  0  0  0  0  0  0  0  0  0  0  0
   -1.1953   -0.6745    0.0000 C   0  0  0  0  0  0  0  0  0  0  0  0
   -2.0816   -1.1637    0.0255 H   0  0  0  0  0  0  0  0  0  0  0  0
   -0.0148   -1.3778   -0.0039 C   0  0  0  0  0  0  0  0  0  0  0  0
   -0.0272   -2.3803   -0.0099 H   0  0  0  0  0  0  0  0  0  0  0  0
    1.1953   -0.7020    0.0000 C   0  0  0  0  0  0  0  0  0  0  0  0
    2.0658   -1.2085   -0.0261 H   0  0  0  0  0  0  0  0  0  0  0  0
    1.1887    0.6738    0.0417 C   0  0  0  0  0  0  0  0  0  0  0  0
    2.0601    1.1720    0.1089 H   0  0  0  0  0  0  0  0  0  0  0  0
  1  5  1  0
  5  6  1  0
  5  7  2  0
  1  2  1  0
  1  3  1  0
  1  4  1  0
  8 12  1  0
 12 13  2  0
 13 15  1  0
 15 17  2  0
 17 19  1  0
 19 21  2  0
 21 12  1  0
  8  9  1  0
  8 10  1  0
  8 11  1  0
 13 14  1  0
 15 16  1  0
 17 18  1  0
 19 20  1  0
 21 22  1  0
M  CHG  1   6  -1
M  END
>  <PDB_ID>  (1353) 
pdb4bmv

>  <RESIDUE_NAME>  (1353) 
GLU   PHE

>  <FRAG_NAME>  (1353) 
ACET   MBZ

>  <FRAG_ATOM_NUM>  (1353) 
fragi: 7  fragj: 15

>  <atom.prop.CHAIN_ID>  (1353) 
A A A A A A A Z Z Z Z Z Z Z Z Z Z Z Z Z Z Z

>  <atom.prop.IS_HEAVY_ATOM>  (1353) 
1 0 0 0 1 1 1 1 0 0 0 1 1 0 1 0 1 0 1 0 1 0

>  <DIFUSE_FUNC_ATOM>  (1353) 
atom 6   atom 7   

>  <FINAL_SINGLE_POINT_ENERGY>  (1353) 
0

>  <NONCOV_INTER_ENERGY_QM>  (1353) 
0

>  <FF_Energy>  (1353) 
-0.94

>  <QM_Energy>  (1353) 
-6.28

>  <source>  (1353) 
ACET_MBZ_01

>  <Index>  (1353) 
15331

$$$$
ACET-pdb4bmv-D-GLU-170:MBZ-pdb4bmv-C-PHE-97
     RDKit          3D

 22 21  0  0  0  0  0  0  0  0999 V2000
    0.2511    6.4162   -3.5129 C   0  0  0  0  0  0  0  0  0  0  0  0
    0.4018    7.3346   -3.1981 H   0  0  0  0  0  0  0  0  0  0  0  0
   -0.3854    6.3767   -4.2601 H   0  0  0  0  0  0  0  0  0  0  0  0
    1.2020    5.9882   -3.8301 H   0  0  0  0  0  0  0  0  0  0  0  0
   -0.3608    5.6427   -2.3631 C   0  0  0  0  0  0  0  0  0  0  0  0
   -1.0692    4.6203   -2.6435 O   0  0  0  0  0  1  0  0  0  0  0  0
   -0.1314    6.0824   -1.1914 O   0  0  0  0  0  0  0  0  0  0  0  0
   -0.0101    2.8940   -0.0010 C   0  0  0  0  0  0  0  0  0  0  0  0
   -0.5944    3.1906   -0.7380 H   0  0  0  0  0  0  0  0  0  0  0  0
    0.9178    3.2049   -0.1221 H   0  0  0  0  0  0  0  0  0  0  0  0
   -0.3925    3.3200    0.9267 H   0  0  0  0  0  0  0  0  0  0  0  0
    0.0051    1.3849   -0.0011 C   0  0  0  0  0  0  0  0  0  0  0  0
   -1.2041    0.6660    0.0090 C   0  0  0  0  0  0  0  0  0  0  0  0
   -2.0619    1.1752    0.0219 H   0  0  0  0  0  0  0  0  0  0  0  0
   -1.2006   -0.6888   -0.0000 C   0  0  0  0  0  0  0  0  0  0  0  0
   -2.0718   -1.2036   -0.0019 H   0  0  0  0  0  0  0  0  0  0  0  0
    0.0013   -1.3717   -0.0045 C   0  0  0  0  0  0  0  0  0  0  0  0
    0.0009   -2.3775   -0.0114 H   0  0  0  0  0  0  0  0  0  0  0  0
    1.2006   -0.6815    0.0000 C   0  0  0  0  0  0  0  0  0  0  0  0
    2.0802   -1.1881    0.0069 H   0  0  0  0  0  0  0  0  0  0  0  0
    1.1977    0.6911   -0.0034 C   0  0  0  0  0  0  0  0  0  0  0  0
    2.0636    1.1947   -0.0085 H   0  0  0  0  0  0  0  0  0  0  0  0
  1  5  1  0
  5  6  1  0
  5  7  2  0
  1  2  1  0
  1  3  1  0
  1  4  1  0
  8 12  1  0
 12 13  2  0
 13 15  1  0
 15 17  2  0
 17 19  1  0
 19 21  2  0
 21 12  1  0
  8  9  1  0
  8 10  1  0
  8 11  1  0
 13 14  1  0
 15 16  1  0
 17 18  1  0
 19 20  1  0
 21 22  1  0
M  CHG  1   6  -1
M  END
>  <PDB_ID>  (1354) 
pdb4bmv

>  <RESIDUE_NAME>  (1354) 
GLU   PHE

>  <FRAG_NAME>  (1354) 
ACET   MBZ

>  <FRAG_ATOM_NUM>  (1354) 
fragi: 7  fragj: 15

>  <atom.prop.CHAIN_ID>  (1354) 
A A A A A A A Z Z Z Z Z Z Z Z Z Z Z Z Z Z Z

>  <atom.prop.IS_HEAVY_ATOM>  (1354) 
1 0 0 0 1 1 1 1 0 0 0 1 1 0 1 0 1 0 1 0 1 0

>  <DIFUSE_FUNC_ATOM>  (1354) 
atom 6   atom 7   

>  <FINAL_SINGLE_POINT_ENERGY>  (1354) 
0

>  <NONCOV_INTER_ENERGY_QM>  (1354) 
0

>  <FF_Energy>  (1354) 
-0.76

>  <QM_Energy>  (1354) 
-6.29

>  <source>  (1354) 
ACET_MBZ_01

>  <Index>  (1354) 
15333

$$$$
ACET-pdb4bmv-C-GLU-170:MBZ-pdb4bmv-D-PHE-97
     RDKit          3D

 22 21  0  0  0  0  0  0  0  0999 V2000
    0.1201    6.3332   -3.6539 C   0  0  0  0  0  0  0  0  0  0  0  0
    0.2784    7.2470   -3.3400 H   0  0  0  0  0  0  0  0  0  0  0  0
   -0.5244    6.2905   -4.3903 H   0  0  0  0  0  0  0  0  0  0  0  0
    1.0665    5.9086   -3.9885 H   0  0  0  0  0  0  0  0  0  0  0  0
   -0.4576    5.5487   -2.4988 C   0  0  0  0  0  0  0  0  0  0  0  0
   -1.2031    4.5751   -2.7728 O   0  0  0  0  0  1  0  0  0  0  0  0
   -0.2280    5.9603   -1.3427 O   0  0  0  0  0  0  0  0  0  0  0  0
    0.0066    2.8693   -0.0444 C   0  0  0  0  0  0  0  0  0  0  0  0
   -0.5922    3.1663   -0.7717 H   0  0  0  0  0  0  0  0  0  0  0  0
    0.9344    3.1728   -0.1932 H   0  0  0  0  0  0  0  0  0  0  0  0
   -0.3459    3.3247    0.8810 H   0  0  0  0  0  0  0  0  0  0  0  0
   -0.0029    1.3860   -0.0019 C   0  0  0  0  0  0  0  0  0  0  0  0
   -1.1861    0.7015   -0.0051 C   0  0  0  0  0  0  0  0  0  0  0  0
   -2.0548    1.1920   -0.0122 H   0  0  0  0  0  0  0  0  0  0  0  0
   -1.1904   -0.6763    0.0000 C   0  0  0  0  0  0  0  0  0  0  0  0
   -2.0688   -1.1759   -0.0194 H   0  0  0  0  0  0  0  0  0  0  0  0
    0.0076   -1.3820    0.0332 C   0  0  0  0  0  0  0  0  0  0  0  0
   -0.0136   -2.3807    0.0805 H   0  0  0  0  0  0  0  0  0  0  0  0
    1.1904   -0.7008    0.0000 C   0  0  0  0  0  0  0  0  0  0  0  0
    2.0763   -1.1984   -0.0042 H   0  0  0  0  0  0  0  0  0  0  0  0
    1.1814    0.6715   -0.0262 C   0  0  0  0  0  0  0  0  0  0  0  0
    2.0546    1.1740   -0.0650 H   0  0  0  0  0  0  0  0  0  0  0  0
  1  5  1  0
  5  6  1  0
  5  7  2  0
  1  2  1  0
  1  3  1  0
  1  4  1  0
  8 12  1  0
 12 13  2  0
 13 15  1  0
 15 17  2  0
 17 19  1  0
 19 21  2  0
 21 12  1  0
  8  9  1  0
  8 10  1  0
  8 11  1  0
 13 14  1  0
 15 16  1  0
 17 18  1  0
 19 20  1  0
 21 22  1  0
M  CHG  1   6  -1
M  END
>  <PDB_ID>  (1355) 
pdb4bmv

>  <RESIDUE_NAME>  (1355) 
GLU   PHE

>  <FRAG_NAME>  (1355) 
ACET   MBZ

>  <FRAG_ATOM_NUM>  (1355) 
fragi: 7  fragj: 15

>  <atom.prop.CHAIN_ID>  (1355) 
A A A A A A A Z Z Z Z Z Z Z Z Z Z Z Z Z Z Z

>  <atom.prop.IS_HEAVY_ATOM>  (1355) 
1 0 0 0 1 1 1 1 0 0 0 1 1 0 1 0 1 0 1 0 1 0

>  <DIFUSE_FUNC_ATOM>  (1355) 
atom 6   atom 7   

>  <FINAL_SINGLE_POINT_ENERGY>  (1355) 
0

>  <NONCOV_INTER_ENERGY_QM>  (1355) 
0

>  <FF_Energy>  (1355) 
-1.04

>  <QM_Energy>  (1355) 
-6.36

>  <source>  (1355) 
ACET_MBZ_01

>  <Index>  (1355) 
15334

$$$$
ACET-pdb4bmv-E-GLU-170:MBZ-pdb4bmv-F-PHE-97
     RDKit          3D

 22 21  0  0  0  0  0  0  0  0999 V2000
    0.1965    6.3241   -3.6881 C   0  0  0  0  0  0  0  0  0  0  0  0
    0.3365    7.2378   -3.3658 H   0  0  0  0  0  0  0  0  0  0  0  0
   -0.4294    6.2767   -4.4396 H   0  0  0  0  0  0  0  0  0  0  0  0
    1.1542    5.9029   -3.9935 H   0  0  0  0  0  0  0  0  0  0  0  0
   -0.4142    5.5323   -2.5448 C   0  0  0  0  0  0  0  0  0  0  0  0
   -1.1532    4.5530   -2.8341 O   0  0  0  0  0  1  0  0  0  0  0  0
   -0.2367    5.9574   -1.3794 O   0  0  0  0  0  0  0  0  0  0  0  0
   -0.0013    2.8716   -0.0519 C   0  0  0  0  0  0  0  0  0  0  0  0
   -0.5767    3.1557   -0.8034 H   0  0  0  0  0  0  0  0  0  0  0  0
    0.9313    3.1732   -0.1777 H   0  0  0  0  0  0  0  0  0  0  0  0
   -0.3855    3.3289    0.8599 H   0  0  0  0  0  0  0  0  0  0  0  0
   -0.0059    1.3870    0.0025 C   0  0  0  0  0  0  0  0  0  0  0  0
   -1.1816    0.6997   -0.0027 C   0  0  0  0  0  0  0  0  0  0  0  0
   -2.0541    1.1839   -0.0098 H   0  0  0  0  0  0  0  0  0  0  0  0
   -1.1783   -0.6789   -0.0000 C   0  0  0  0  0  0  0  0  0  0  0  0
   -2.0628   -1.1779   -0.0057 H   0  0  0  0  0  0  0  0  0  0  0  0
    0.0103   -1.3833    0.0114 C   0  0  0  0  0  0  0  0  0  0  0  0
   -0.0121   -2.3852    0.0272 H   0  0  0  0  0  0  0  0  0  0  0  0
    1.1783   -0.7039   -0.0000 C   0  0  0  0  0  0  0  0  0  0  0  0
    2.0736   -1.1944    0.0009 H   0  0  0  0  0  0  0  0  0  0  0  0
    1.1772    0.6795   -0.0112 C   0  0  0  0  0  0  0  0  0  0  0  0
    2.0513    1.1725   -0.0306 H   0  0  0  0  0  0  0  0  0  0  0  0
  1  5  1  0
  5  6  1  0
  5  7  2  0
  1  2  1  0
  1  3  1  0
  1  4  1  0
  8 12  1  0
 12 13  2  0
 13 15  1  0
 15 17  2  0
 17 19  1  0
 19 21  2  0
 21 12  1  0
  8  9  1  0
  8 10  1  0
  8 11  1  0
 13 14  1  0
 15 16  1  0
 17 18  1  0
 19 20  1  0
 21 22  1  0
M  CHG  1   6  -1
M  END
>  <PDB_ID>  (1356) 
pdb4bmv

>  <RESIDUE_NAME>  (1356) 
GLU   PHE

>  <FRAG_NAME>  (1356) 
ACET   MBZ

>  <FRAG_ATOM_NUM>  (1356) 
fragi: 7  fragj: 15

>  <atom.prop.CHAIN_ID>  (1356) 
A A A A A A A Z Z Z Z Z Z Z Z Z Z Z Z Z Z Z

>  <atom.prop.IS_HEAVY_ATOM>  (1356) 
1 0 0 0 1 1 1 1 0 0 0 1 1 0 1 0 1 0 1 0 1 0

>  <DIFUSE_FUNC_ATOM>  (1356) 
atom 6   atom 7   

>  <FINAL_SINGLE_POINT_ENERGY>  (1356) 
0

>  <NONCOV_INTER_ENERGY_QM>  (1356) 
0

>  <FF_Energy>  (1356) 
-0.99

>  <QM_Energy>  (1356) 
-6.28

>  <source>  (1356) 
ACET_MBZ_01

>  <Index>  (1356) 
15336

$$$$
ACET-pdb4bmv-J-GLU-170:MBZ-pdb4bmv-G-PHE-97
     RDKit          3D

 22 21  0  0  0  0  0  0  0  0999 V2000
    0.1533    6.3173   -3.4791 C   0  0  0  0  0  0  0  0  0  0  0  0
    0.3233    7.2242   -3.1452 H   0  0  0  0  0  0  0  0  0  0  0  0
   -0.4778    6.3060   -4.2310 H   0  0  0  0  0  0  0  0  0  0  0  0
    1.0982    5.8858   -3.8096 H   0  0  0  0  0  0  0  0  0  0  0  0
   -0.4721    5.5255   -2.3485 C   0  0  0  0  0  0  0  0  0  0  0  0
   -1.1883    4.5481   -2.6400 O   0  0  0  0  0  1  0  0  0  0  0  0
   -0.2273    5.8926   -1.1838 O   0  0  0  0  0  0  0  0  0  0  0  0
   -0.0122    2.8833    0.0172 C   0  0  0  0  0  0  0  0  0  0  0  0
   -0.6080    3.1940   -0.7088 H   0  0  0  0  0  0  0  0  0  0  0  0
    0.9161    3.1980   -0.1206 H   0  0  0  0  0  0  0  0  0  0  0  0
   -0.3743    3.3087    0.9532 H   0  0  0  0  0  0  0  0  0  0  0  0
   -0.0040    1.3913    0.0057 C   0  0  0  0  0  0  0  0  0  0  0  0
   -1.1935    0.6991    0.0052 C   0  0  0  0  0  0  0  0  0  0  0  0
   -2.0607    1.1871    0.0072 H   0  0  0  0  0  0  0  0  0  0  0  0
   -1.1963   -0.6879   -0.0000 C   0  0  0  0  0  0  0  0  0  0  0  0
   -2.0722   -1.1839   -0.0001 H   0  0  0  0  0  0  0  0  0  0  0  0
    0.0051   -1.3845   -0.0034 C   0  0  0  0  0  0  0  0  0  0  0  0
   -0.0045   -2.3854   -0.0089 H   0  0  0  0  0  0  0  0  0  0  0  0
    1.1963   -0.6941    0.0000 C   0  0  0  0  0  0  0  0  0  0  0  0
    2.0799   -1.1984    0.0100 H   0  0  0  0  0  0  0  0  0  0  0  0
    1.1924    0.6761   -0.0075 C   0  0  0  0  0  0  0  0  0  0  0  0
    2.0597    1.1830   -0.0238 H   0  0  0  0  0  0  0  0  0  0  0  0
  1  5  1  0
  5  6  1  0
  5  7  2  0
  1  2  1  0
  1  3  1  0
  1  4  1  0
  8 12  1  0
 12 13  2  0
 13 15  1  0
 15 17  2  0
 17 19  1  0
 19 21  2  0
 21 12  1  0
  8  9  1  0
  8 10  1  0
  8 11  1  0
 13 14  1  0
 15 16  1  0
 17 18  1  0
 19 20  1  0
 21 22  1  0
M  CHG  1   6  -1
M  END
>  <PDB_ID>  (1357) 
pdb4bmv

>  <RESIDUE_NAME>  (1357) 
GLU   PHE

>  <FRAG_NAME>  (1357) 
ACET   MBZ

>  <FRAG_ATOM_NUM>  (1357) 
fragi: 7  fragj: 15

>  <atom.prop.CHAIN_ID>  (1357) 
A A A A A A A Z Z Z Z Z Z Z Z Z Z Z Z Z Z Z

>  <atom.prop.IS_HEAVY_ATOM>  (1357) 
1 0 0 0 1 1 1 1 0 0 0 1 1 0 1 0 1 0 1 0 1 0

>  <DIFUSE_FUNC_ATOM>  (1357) 
atom 6   atom 7   

>  <FINAL_SINGLE_POINT_ENERGY>  (1357) 
0

>  <NONCOV_INTER_ENERGY_QM>  (1357) 
0

>  <FF_Energy>  (1357) 
-0.67

>  <QM_Energy>  (1357) 
-6.53

>  <source>  (1357) 
ACET_MBZ_01

>  <Index>  (1357) 
15337

$$$$
ACET-pdb4bmv-H-GLU-170:MBZ-pdb4bmv-I-PHE-97
     RDKit          3D

 22 21  0  0  0  0  0  0  0  0999 V2000
    0.2081    6.2624   -3.6849 C   0  0  0  0  0  0  0  0  0  0  0  0
    0.3675    7.1794   -3.3730 H   0  0  0  0  0  0  0  0  0  0  0  0
   -0.4156    6.2274   -4.4432 H   0  0  0  0  0  0  0  0  0  0  0  0
    1.1589    5.8275   -3.9928 H   0  0  0  0  0  0  0  0  0  0  0  0
   -0.4210    5.4970   -2.5440 C   0  0  0  0  0  0  0  0  0  0  0  0
   -1.1437    4.5135   -2.8207 O   0  0  0  0  0  1  0  0  0  0  0  0
   -0.1978    5.8935   -1.3769 O   0  0  0  0  0  0  0  0  0  0  0  0
   -0.0119    2.8860   -0.0122 C   0  0  0  0  0  0  0  0  0  0  0  0
   -0.5987    3.1820   -0.7528 H   0  0  0  0  0  0  0  0  0  0  0  0
    0.9181    3.1982   -0.1451 H   0  0  0  0  0  0  0  0  0  0  0  0
   -0.3865    3.3282    0.9109 H   0  0  0  0  0  0  0  0  0  0  0  0
   -0.0007    1.3897    0.0008 C   0  0  0  0  0  0  0  0  0  0  0  0
   -1.1924    0.6808    0.0025 C   0  0  0  0  0  0  0  0  0  0  0  0
   -2.0604    1.1775    0.0040 H   0  0  0  0  0  0  0  0  0  0  0  0
   -1.1978   -0.6940   -0.0000 C   0  0  0  0  0  0  0  0  0  0  0  0
   -2.0719   -1.1943   -0.0028 H   0  0  0  0  0  0  0  0  0  0  0  0
    0.0027   -1.3828    0.0037 C   0  0  0  0  0  0  0  0  0  0  0  0
    0.0024   -2.3841    0.0088 H   0  0  0  0  0  0  0  0  0  0  0  0
    1.1978   -0.6862    0.0000 C   0  0  0  0  0  0  0  0  0  0  0  0
    2.0810   -1.1860    0.0036 H   0  0  0  0  0  0  0  0  0  0  0  0
    1.1903    0.6925   -0.0070 C   0  0  0  0  0  0  0  0  0  0  0  0
    2.0586    1.1934   -0.0188 H   0  0  0  0  0  0  0  0  0  0  0  0
  1  5  1  0
  5  6  1  0
  5  7  2  0
  1  2  1  0
  1  3  1  0
  1  4  1  0
  8 12  1  0
 12 13  2  0
 13 15  1  0
 15 17  2  0
 17 19  1  0
 19 21  2  0
 21 12  1  0
  8  9  1  0
  8 10  1  0
  8 11  1  0
 13 14  1  0
 15 16  1  0
 17 18  1  0
 19 20  1  0
 21 22  1  0
M  CHG  1   6  -1
M  END
>  <PDB_ID>  (1358) 
pdb4bmv

>  <RESIDUE_NAME>  (1358) 
GLU   PHE

>  <FRAG_NAME>  (1358) 
ACET   MBZ

>  <FRAG_ATOM_NUM>  (1358) 
fragi: 7  fragj: 15

>  <atom.prop.CHAIN_ID>  (1358) 
A A A A A A A Z Z Z Z Z Z Z Z Z Z Z Z Z Z Z

>  <atom.prop.IS_HEAVY_ATOM>  (1358) 
1 0 0 0 1 1 1 1 0 0 0 1 1 0 1 0 1 0 1 0 1 0

>  <DIFUSE_FUNC_ATOM>  (1358) 
atom 6   atom 7   

>  <FINAL_SINGLE_POINT_ENERGY>  (1358) 
0

>  <NONCOV_INTER_ENERGY_QM>  (1358) 
0

>  <FF_Energy>  (1358) 
-0.92

>  <QM_Energy>  (1358) 
-6.36

>  <source>  (1358) 
ACET_MBZ_01

>  <Index>  (1358) 
15339

$$$$
ACET-pdb4bmv-G-GLU-170:MBZ-pdb4bmv-J-PHE-97
     RDKit          3D

 22 21  0  0  0  0  0  0  0  0999 V2000
    0.2639    6.2302   -3.6897 C   0  0  0  0  0  0  0  0  0  0  0  0
    0.4202    7.1506   -3.3855 H   0  0  0  0  0  0  0  0  0  0  0  0
   -0.3501    6.1886   -4.4549 H   0  0  0  0  0  0  0  0  0  0  0  0
    1.2186    5.7930   -3.9820 H   0  0  0  0  0  0  0  0  0  0  0  0
   -0.3856    5.4774   -2.5459 C   0  0  0  0  0  0  0  0  0  0  0  0
   -1.0943    4.4806   -2.8240 O   0  0  0  0  0  1  0  0  0  0  0  0
   -0.1667    5.8806   -1.3787 O   0  0  0  0  0  0  0  0  0  0  0  0
   -0.0123    2.8986   -0.0221 C   0  0  0  0  0  0  0  0  0  0  0  0
   -0.5917    3.1859   -0.7705 H   0  0  0  0  0  0  0  0  0  0  0  0
    0.9191    3.2075   -0.1508 H   0  0  0  0  0  0  0  0  0  0  0  0
   -0.3945    3.3487    0.8942 H   0  0  0  0  0  0  0  0  0  0  0  0
   -0.0001    1.3952    0.0012 C   0  0  0  0  0  0  0  0  0  0  0  0
   -1.1929    0.6838   -0.0001 C   0  0  0  0  0  0  0  0  0  0  0  0
   -2.0610    1.1761   -0.0017 H   0  0  0  0  0  0  0  0  0  0  0  0
   -1.1956   -0.6985    0.0000 C   0  0  0  0  0  0  0  0  0  0  0  0
   -2.0706   -1.1963   -0.0001 H   0  0  0  0  0  0  0  0  0  0  0  0
    0.0043   -1.3857    0.0021 C   0  0  0  0  0  0  0  0  0  0  0  0
    0.0039   -2.3877    0.0047 H   0  0  0  0  0  0  0  0  0  0  0  0
    1.1956   -0.6886    0.0000 C   0  0  0  0  0  0  0  0  0  0  0  0
    2.0816   -1.1861    0.0022 H   0  0  0  0  0  0  0  0  0  0  0  0
    1.1888    0.6938   -0.0032 C   0  0  0  0  0  0  0  0  0  0  0  0
    2.0595    1.1923   -0.0099 H   0  0  0  0  0  0  0  0  0  0  0  0
  1  5  1  0
  5  6  1  0
  5  7  2  0
  1  2  1  0
  1  3  1  0
  1  4  1  0
  8 12  1  0
 12 13  2  0
 13 15  1  0
 15 17  2  0
 17 19  1  0
 19 21  2  0
 21 12  1  0
  8  9  1  0
  8 10  1  0
  8 11  1  0
 13 14  1  0
 15 16  1  0
 17 18  1  0
 19 20  1  0
 21 22  1  0
M  CHG  1   6  -1
M  END
>  <PDB_ID>  (1359) 
pdb4bmv

>  <RESIDUE_NAME>  (1359) 
GLU   PHE

>  <FRAG_NAME>  (1359) 
ACET   MBZ

>  <FRAG_ATOM_NUM>  (1359) 
fragi: 7  fragj: 15

>  <atom.prop.CHAIN_ID>  (1359) 
A A A A A A A Z Z Z Z Z Z Z Z Z Z Z Z Z Z Z

>  <atom.prop.IS_HEAVY_ATOM>  (1359) 
1 0 0 0 1 1 1 1 0 0 0 1 1 0 1 0 1 0 1 0 1 0

>  <DIFUSE_FUNC_ATOM>  (1359) 
atom 6   atom 7   

>  <FINAL_SINGLE_POINT_ENERGY>  (1359) 
0

>  <NONCOV_INTER_ENERGY_QM>  (1359) 
0

>  <FF_Energy>  (1359) 
7.1

>  <QM_Energy>  (1359) 
-6.43

>  <source>  (1359) 
ACET_MBZ_01

>  <Index>  (1359) 
15340

$$$$
ACET-pdb3fw6-A-ASP-231:MBZ-pdb3fw6-A-PHE-96
     RDKit          3D

 22 21  0  0  0  0  0  0  0  0999 V2000
    2.4283    1.6158   -3.1425 C   0  0  0  0  0  0  0  0  0  0  0  0
    2.2102    2.3735   -3.7443 H   0  0  0  0  0  0  0  0  0  0  0  0
    1.6071    1.2506   -2.7237 H   0  0  0  0  0  0  0  0  0  0  0  0
    2.8795    0.8269   -3.7442 H   0  0  0  0  0  0  0  0  0  0  0  0
    3.3563    2.1189   -2.0415 C   0  0  0  0  0  0  0  0  0  0  0  0
    3.1390    3.2359   -1.5337 O   0  0  0  0  0  1  0  0  0  0  0  0
    4.2963    1.3949   -1.6700 O   0  0  0  0  0  0  0  0  0  0  0  0
   -0.0055    2.9181    0.0265 C   0  0  0  0  0  0  0  0  0  0  0  0
   -0.7525    3.2321   -0.5374 H   0  0  0  0  0  0  0  0  0  0  0  0
    0.8652    3.2335   -0.3152 H   0  0  0  0  0  0  0  0  0  0  0  0
   -0.1424    3.3388    1.0226 H   0  0  0  0  0  0  0  0  0  0  0  0
   -0.0005    1.4115    0.0003 C   0  0  0  0  0  0  0  0  0  0  0  0
   -1.2025    0.6933    0.0005 C   0  0  0  0  0  0  0  0  0  0  0  0
   -2.0691    1.1812   -0.0002 H   0  0  0  0  0  0  0  0  0  0  0  0
   -1.2109   -0.7087    0.0000 C   0  0  0  0  0  0  0  0  0  0  0  0
   -2.0824   -1.1992    0.0015 H   0  0  0  0  0  0  0  0  0  0  0  0
    0.0019   -1.4060    0.0000 C   0  0  0  0  0  0  0  0  0  0  0  0
    0.0050   -2.3992   -0.0007 H   0  0  0  0  0  0  0  0  0  0  0  0
    1.2109   -0.6938    0.0000 C   0  0  0  0  0  0  0  0  0  0  0  0
    2.0912   -1.1891    0.0021 H   0  0  0  0  0  0  0  0  0  0  0  0
    1.2011    0.7038   -0.0008 C   0  0  0  0  0  0  0  0  0  0  0  0
    2.0670    1.2007   -0.0025 H   0  0  0  0  0  0  0  0  0  0  0  0
  1  5  1  0
  5  6  1  0
  5  7  2  0
  1  2  1  0
  1  3  1  0
  1  4  1  0
  8 12  1  0
 12 13  2  0
 13 15  1  0
 15 17  2  0
 17 19  1  0
 19 21  2  0
 21 12  1  0
  8  9  1  0
  8 10  1  0
  8 11  1  0
 13 14  1  0
 15 16  1  0
 17 18  1  0
 19 20  1  0
 21 22  1  0
M  CHG  1   6  -1
M  END
>  <PDB_ID>  (1360) 
pdb3fw6

>  <RESIDUE_NAME>  (1360) 
ASP   PHE

>  <FRAG_NAME>  (1360) 
ACET   MBZ

>  <FRAG_ATOM_NUM>  (1360) 
fragi: 7  fragj: 15

>  <atom.prop.CHAIN_ID>  (1360) 
A A A A A A A Z Z Z Z Z Z Z Z Z Z Z Z Z Z Z

>  <atom.prop.IS_HEAVY_ATOM>  (1360) 
1 0 0 0 1 1 1 1 0 0 0 1 1 0 1 0 1 0 1 0 1 0

>  <DIFUSE_FUNC_ATOM>  (1360) 
atom 6   atom 7   

>  <FINAL_SINGLE_POINT_ENERGY>  (1360) 
0

>  <NONCOV_INTER_ENERGY_QM>  (1360) 
0

>  <FF_Energy>  (1360) 
-2.27

>  <QM_Energy>  (1360) 
-8.33

>  <source>  (1360) 
ACET_MBZ_01

>  <Index>  (1360) 
15541

$$$$
ACET-pdb3fz3-B-GLU-356:MBZ-pdb3fz3-B-PHE-420
     RDKit          3D

 22 21  0  0  0  0  0  0  0  0999 V2000
    3.3165   -0.5455    2.8606 C   0  0  0  0  0  0  0  0  0  0  0  0
    2.4327   -0.6742    2.4511 H   0  0  0  0  0  0  0  0  0  0  0  0
    3.3031   -0.6980    3.8316 H   0  0  0  0  0  0  0  0  0  0  0  0
    4.0110   -1.2539    2.4092 H   0  0  0  0  0  0  0  0  0  0  0  0
    3.7181    0.9062    2.6326 C   0  0  0  0  0  0  0  0  0  0  0  0
    3.7150    1.3619    1.4702 O   0  0  0  0  0  1  0  0  0  0  0  0
    4.0404    1.5937    3.6263 O   0  0  0  0  0  0  0  0  0  0  0  0
    0.0286    2.9290    0.0360 C   0  0  0  0  0  0  0  0  0  0  0  0
    0.5996    3.2376   -0.7117 H   0  0  0  0  0  0  0  0  0  0  0  0
    0.4091    3.2010    0.9086 H   0  0  0  0  0  0  0  0  0  0  0  0
   -0.9502    3.3970   -0.0686 H   0  0  0  0  0  0  0  0  0  0  0  0
    0.0043    1.4157   -0.0007 C   0  0  0  0  0  0  0  0  0  0  0  0
   -1.1987    0.7040    0.0003 C   0  0  0  0  0  0  0  0  0  0  0  0
   -2.0657    1.1883   -0.0001 H   0  0  0  0  0  0  0  0  0  0  0  0
   -1.2157   -0.7139    0.0000 C   0  0  0  0  0  0  0  0  0  0  0  0
   -2.0895   -1.1921   -0.0021 H   0  0  0  0  0  0  0  0  0  0  0  0
   -0.0058   -1.4097    0.0041 C   0  0  0  0  0  0  0  0  0  0  0  0
    0.0015   -2.4039    0.0096 H   0  0  0  0  0  0  0  0  0  0  0  0
    1.2157   -0.6983    0.0000 C   0  0  0  0  0  0  0  0  0  0  0  0
    2.0888   -1.1939    0.0019 H   0  0  0  0  0  0  0  0  0  0  0  0
    1.2002    0.7022   -0.0038 C   0  0  0  0  0  0  0  0  0  0  0  0
    2.0712    1.1985   -0.0098 H   0  0  0  0  0  0  0  0  0  0  0  0
  1  5  1  0
  5  6  1  0
  5  7  2  0
  1  2  1  0
  1  3  1  0
  1  4  1  0
  8 12  1  0
 12 13  2  0
 13 15  1  0
 15 17  2  0
 17 19  1  0
 19 21  2  0
 21 12  1  0
  8  9  1  0
  8 10  1  0
  8 11  1  0
 13 14  1  0
 15 16  1  0
 17 18  1  0
 19 20  1  0
 21 22  1  0
M  CHG  1   6  -1
M  END
>  <PDB_ID>  (1361) 
pdb3fz3

>  <RESIDUE_NAME>  (1361) 
GLU   PHE

>  <FRAG_NAME>  (1361) 
ACET   MBZ

>  <FRAG_ATOM_NUM>  (1361) 
fragi: 7  fragj: 15

>  <atom.prop.CHAIN_ID>  (1361) 
A A A A A A A Z Z Z Z Z Z Z Z Z Z Z Z Z Z Z

>  <atom.prop.IS_HEAVY_ATOM>  (1361) 
1 0 0 0 1 1 1 1 0 0 0 1 1 0 1 0 1 0 1 0 1 0

>  <DIFUSE_FUNC_ATOM>  (1361) 
atom 6   atom 7   

>  <FINAL_SINGLE_POINT_ENERGY>  (1361) 
0

>  <NONCOV_INTER_ENERGY_QM>  (1361) 
0

>  <FF_Energy>  (1361) 
0.1

>  <QM_Energy>  (1361) 
-5.79

>  <source>  (1361) 
ACET_MBZ_01

>  <Index>  (1361) 
15559

$$$$
ACET-pdb4bwv-B-ASP-218:MBZ-pdb4bwv-B-PHE-109
     RDKit          3D

 22 21  0  0  0  0  0  0  0  0999 V2000
   -4.6445    2.7931    1.8807 C   0  0  0  0  0  0  0  0  0  0  0  0
   -4.6819    1.9462    1.3613 H   0  0  0  0  0  0  0  0  0  0  0  0
   -5.5186    3.2642    1.8397 H   0  0  0  0  0  0  0  0  0  0  0  0
   -4.4544    2.5350    2.9225 H   0  0  0  0  0  0  0  0  0  0  0  0
   -3.5721    3.6957    1.2687 C   0  0  0  0  0  0  0  0  0  0  0  0
   -2.6466    4.1789    1.9736 O   0  0  0  0  0  1  0  0  0  0  0  0
   -3.6074    3.8794    0.0467 O   0  0  0  0  0  0  0  0  0  0  0  0
   -0.0025    2.8998   -0.0586 C   0  0  0  0  0  0  0  0  0  0  0  0
    0.8507    3.2199    0.3129 H   0  0  0  0  0  0  0  0  0  0  0  0
   -0.7756    3.2223    0.4587 H   0  0  0  0  0  0  0  0  0  0  0  0
   -0.0927    3.2911   -1.0720 H   0  0  0  0  0  0  0  0  0  0  0  0
    0.0004    1.3892   -0.0024 C   0  0  0  0  0  0  0  0  0  0  0  0
   -1.1842    0.6963    0.0068 C   0  0  0  0  0  0  0  0  0  0  0  0
   -2.0547    1.1911    0.0171 H   0  0  0  0  0  0  0  0  0  0  0  0
   -1.1987   -0.6849   -0.0000 C   0  0  0  0  0  0  0  0  0  0  0  0
   -2.0819   -1.1736   -0.0019 H   0  0  0  0  0  0  0  0  0  0  0  0
   -0.0119   -1.3816   -0.0028 C   0  0  0  0  0  0  0  0  0  0  0  0
   -0.0182   -2.3843   -0.0079 H   0  0  0  0  0  0  0  0  0  0  0  0
    1.1987   -0.6987    0.0000 C   0  0  0  0  0  0  0  0  0  0  0  0
    2.0714   -1.2063    0.0044 H   0  0  0  0  0  0  0  0  0  0  0  0
    1.1956    0.6797   -0.0016 C   0  0  0  0  0  0  0  0  0  0  0  0
    2.0634    1.1809   -0.0023 H   0  0  0  0  0  0  0  0  0  0  0  0
  1  5  1  0
  5  6  1  0
  5  7  2  0
  1  2  1  0
  1  3  1  0
  1  4  1  0
  8 12  1  0
 12 13  2  0
 13 15  1  0
 15 17  2  0
 17 19  1  0
 19 21  2  0
 21 12  1  0
  8  9  1  0
  8 10  1  0
  8 11  1  0
 13 14  1  0
 15 16  1  0
 17 18  1  0
 19 20  1  0
 21 22  1  0
M  CHG  1   6  -1
M  END
>  <PDB_ID>  (1362) 
pdb4bwv

>  <RESIDUE_NAME>  (1362) 
ASP   PHE

>  <FRAG_NAME>  (1362) 
ACET   MBZ

>  <FRAG_ATOM_NUM>  (1362) 
fragi: 7  fragj: 15

>  <atom.prop.CHAIN_ID>  (1362) 
A A A A A A A Z Z Z Z Z Z Z Z Z Z Z Z Z Z Z

>  <atom.prop.IS_HEAVY_ATOM>  (1362) 
1 0 0 0 1 1 1 1 0 0 0 1 1 0 1 0 1 0 1 0 1 0

>  <DIFUSE_FUNC_ATOM>  (1362) 
atom 6   atom 7   

>  <FINAL_SINGLE_POINT_ENERGY>  (1362) 
0

>  <NONCOV_INTER_ENERGY_QM>  (1362) 
0

>  <FF_Energy>  (1362) 
-2.34

>  <QM_Energy>  (1362) 
-7.58

>  <source>  (1362) 
ACET_MBZ_01

>  <Index>  (1362) 
15651

$$$$
ACET-pdb4bxj-A-ASP-5:MBZ-pdb4bxj-B-PHE-68
     RDKit          3D

 22 21  0  0  0  0  0  0  0  0999 V2000
   -3.7990    1.1571   -2.4021 C   0  0  0  0  0  0  0  0  0  0  0  0
   -3.4606    0.5835   -3.1390 H   0  0  0  0  0  0  0  0  0  0  0  0
   -3.0463    1.6004   -1.9307 H   0  0  0  0  0  0  0  0  0  0  0  0
   -4.4364    1.9288   -2.8339 H   0  0  0  0  0  0  0  0  0  0  0  0
   -4.5317    0.2505   -1.3875 C   0  0  0  0  0  0  0  0  0  0  0  0
   -5.6408    0.5882   -0.8809 O   0  0  0  0  0  1  0  0  0  0  0  0
   -3.9626   -0.8236   -1.0891 O   0  0  0  0  0  0  0  0  0  0  0  0
    0.0044    2.9027    0.0093 C   0  0  0  0  0  0  0  0  0  0  0  0
    0.9361    3.2037    0.1599 H   0  0  0  0  0  0  0  0  0  0  0  0
   -0.5900    3.2028    0.7416 H   0  0  0  0  0  0  0  0  0  0  0  0
   -0.3490    3.3579   -0.9159 H   0  0  0  0  0  0  0  0  0  0  0  0
   -0.0009    1.3998   -0.0051 C   0  0  0  0  0  0  0  0  0  0  0  0
   -1.1986    0.6921    0.0067 C   0  0  0  0  0  0  0  0  0  0  0  0
   -2.0640    1.1806    0.0188 H   0  0  0  0  0  0  0  0  0  0  0  0
   -1.1998   -0.6986    0.0000 C   0  0  0  0  0  0  0  0  0  0  0  0
   -2.0757   -1.1938    0.0008 H   0  0  0  0  0  0  0  0  0  0  0  0
    0.0024   -1.3909   -0.0059 C   0  0  0  0  0  0  0  0  0  0  0  0
   -0.0001   -2.3907   -0.0149 H   0  0  0  0  0  0  0  0  0  0  0  0
    1.1998   -0.6948   -0.0000 C   0  0  0  0  0  0  0  0  0  0  0  0
    2.0820   -1.1939    0.0026 H   0  0  0  0  0  0  0  0  0  0  0  0
    1.1971    0.6924    0.0043 C   0  0  0  0  0  0  0  0  0  0  0  0
    2.0640    1.1897    0.0131 H   0  0  0  0  0  0  0  0  0  0  0  0
  1  5  1  0
  5  6  1  0
  5  7  2  0
  1  2  1  0
  1  3  1  0
  1  4  1  0
  8 12  1  0
 12 13  2  0
 13 15  1  0
 15 17  2  0
 17 19  1  0
 19 21  2  0
 21 12  1  0
  8  9  1  0
  8 10  1  0
  8 11  1  0
 13 14  1  0
 15 16  1  0
 17 18  1  0
 19 20  1  0
 21 22  1  0
M  CHG  1   6  -1
M  END
>  <PDB_ID>  (1363) 
pdb4bxj

>  <RESIDUE_NAME>  (1363) 
ASP   PHE

>  <FRAG_NAME>  (1363) 
ACET   MBZ

>  <FRAG_ATOM_NUM>  (1363) 
fragi: 7  fragj: 15

>  <atom.prop.CHAIN_ID>  (1363) 
A A A A A A A Z Z Z Z Z Z Z Z Z Z Z Z Z Z Z

>  <atom.prop.IS_HEAVY_ATOM>  (1363) 
1 0 0 0 1 1 1 1 0 0 0 1 1 0 1 0 1 0 1 0 1 0

>  <DIFUSE_FUNC_ATOM>  (1363) 
atom 6   atom 7   

>  <FINAL_SINGLE_POINT_ENERGY>  (1363) 
0

>  <NONCOV_INTER_ENERGY_QM>  (1363) 
0

>  <FF_Energy>  (1363) 
-0.4

>  <QM_Energy>  (1363) 
-5.56

>  <source>  (1363) 
ACET_MBZ_01

>  <Index>  (1363) 
15675

$$$$
ACET-pdb3g14-A-ASP-116:MBZ-pdb3g14-B-PHE-3
     RDKit          3D

 22 21  0  0  0  0  0  0  0  0999 V2000
    2.1676    1.1593   -3.4111 C   0  0  0  0  0  0  0  0  0  0  0  0
    1.3346    0.8399   -2.9678 H   0  0  0  0  0  0  0  0  0  0  0  0
    2.8604    0.4446   -3.3921 H   0  0  0  0  0  0  0  0  0  0  0  0
    1.9326    1.3717   -4.4540 H   0  0  0  0  0  0  0  0  0  0  0  0
    2.6874    2.3646   -2.6631 C   0  0  0  0  0  0  0  0  0  0  0  0
    1.9582    3.3740   -2.5556 O   0  0  0  0  0  1  0  0  0  0  0  0
    3.8345    2.2931   -2.1973 O   0  0  0  0  0  0  0  0  0  0  0  0
   -0.0131    2.8746    0.0696 C   0  0  0  0  0  0  0  0  0  0  0  0
   -0.7785    3.2153   -0.4430 H   0  0  0  0  0  0  0  0  0  0  0  0
    0.8452    3.2120   -0.2683 H   0  0  0  0  0  0  0  0  0  0  0  0
   -0.1220    3.2415    1.0902 H   0  0  0  0  0  0  0  0  0  0  0  0
   -0.0093    1.3895    0.0011 C   0  0  0  0  0  0  0  0  0  0  0  0
   -1.1931    0.6841   -0.0061 C   0  0  0  0  0  0  0  0  0  0  0  0
   -2.0633    1.1679   -0.0174 H   0  0  0  0  0  0  0  0  0  0  0  0
   -1.1807   -0.6947    0.0000 C   0  0  0  0  0  0  0  0  0  0  0  0
   -2.0583   -1.1972    0.0125 H   0  0  0  0  0  0  0  0  0  0  0  0
    0.0091   -1.3623   -0.0098 C   0  0  0  0  0  0  0  0  0  0  0  0
    0.0001   -2.3809   -0.0255 H   0  0  0  0  0  0  0  0  0  0  0  0
    1.1807   -0.6964   -0.0000 C   0  0  0  0  0  0  0  0  0  0  0  0
    2.0722   -1.1984   -0.0014 H   0  0  0  0  0  0  0  0  0  0  0  0
    1.1933    0.6796    0.0149 C   0  0  0  0  0  0  0  0  0  0  0  0
    2.0554    1.1773    0.0347 H   0  0  0  0  0  0  0  0  0  0  0  0
  1  5  1  0
  5  6  1  0
  5  7  2  0
  1  2  1  0
  1  3  1  0
  1  4  1  0
  8 12  1  0
 12 13  2  0
 13 15  1  0
 15 17  2  0
 17 19  1  0
 19 21  2  0
 21 12  1  0
  8  9  1  0
  8 10  1  0
  8 11  1  0
 13 14  1  0
 15 16  1  0
 17 18  1  0
 19 20  1  0
 21 22  1  0
M  CHG  1   6  -1
M  END
>  <PDB_ID>  (1364) 
pdb3g14

>  <RESIDUE_NAME>  (1364) 
ASP   PHE

>  <FRAG_NAME>  (1364) 
ACET   MBZ

>  <FRAG_ATOM_NUM>  (1364) 
fragi: 7  fragj: 15

>  <atom.prop.CHAIN_ID>  (1364) 
A A A A A A A Z Z Z Z Z Z Z Z Z Z Z Z Z Z Z

>  <atom.prop.IS_HEAVY_ATOM>  (1364) 
1 0 0 0 1 1 1 1 0 0 0 1 1 0 1 0 1 0 1 0 1 0

>  <DIFUSE_FUNC_ATOM>  (1364) 
atom 6   atom 7   

>  <FINAL_SINGLE_POINT_ENERGY>  (1364) 
0

>  <NONCOV_INTER_ENERGY_QM>  (1364) 
0

>  <FF_Energy>  (1364) 
-1.72

>  <QM_Energy>  (1364) 
-6.91

>  <source>  (1364) 
ACET_MBZ_01

>  <Index>  (1364) 
15715

$$$$
ACET-pdb4c0f-C-ASP-454:MBZ-pdb4c0f-D-PHE-531
     RDKit          3D

 22 21  0  0  0  0  0  0  0  0999 V2000
    2.1232    0.2306   -3.5008 C   0  0  0  0  0  0  0  0  0  0  0  0
    1.6186   -0.2695   -4.1616 H   0  0  0  0  0  0  0  0  0  0  0  0
    2.0677   -0.2090   -2.6382 H   0  0  0  0  0  0  0  0  0  0  0  0
    3.1671    0.2750   -3.8111 H   0  0  0  0  0  0  0  0  0  0  0  0
    1.4934    1.6033   -3.3694 C   0  0  0  0  0  0  0  0  0  0  0  0
    2.2447    2.5987   -3.2792 O   0  0  0  0  0  1  0  0  0  0  0  0
    0.2453    1.6853   -3.3476 O   0  0  0  0  0  0  0  0  0  0  0  0
    0.0179    2.9014    0.0038 C   0  0  0  0  0  0  0  0  0  0  0  0
    0.6949    3.1918   -0.6276 H   0  0  0  0  0  0  0  0  0  0  0  0
    0.2567    3.1913    0.8979 H   0  0  0  0  0  0  0  0  0  0  0  0
   -0.9331    3.3584   -0.2697 H   0  0  0  0  0  0  0  0  0  0  0  0
    0.0019    1.3957   -0.0010 C   0  0  0  0  0  0  0  0  0  0  0  0
   -1.1932    0.6889    0.0000 C   0  0  0  0  0  0  0  0  0  0  0  0
   -2.0009    1.1495   -0.0002 H   0  0  0  0  0  0  0  0  0  0  0  0
   -1.1965   -0.6940   -0.0000 C   0  0  0  0  0  0  0  0  0  0  0  0
   -2.0030   -1.1580   -0.0009 H   0  0  0  0  0  0  0  0  0  0  0  0
   -0.0017   -1.3858   -0.0008 C   0  0  0  0  0  0  0  0  0  0  0  0
   -0.0022   -2.3156   -0.0015 H   0  0  0  0  0  0  0  0  0  0  0  0
    1.1965   -0.6930   -0.0000 C   0  0  0  0  0  0  0  0  0  0  0  0
    2.0023   -1.1566   -0.0003 H   0  0  0  0  0  0  0  0  0  0  0  0
    1.1930    0.6883    0.0017 C   0  0  0  0  0  0  0  0  0  0  0  0
    2.0006    1.1485    0.0014 H   0  0  0  0  0  0  0  0  0  0  0  0
  1  5  1  0
  5  6  1  0
  5  7  2  0
  1  2  1  0
  1  3  1  0
  1  4  1  0
  8 12  1  0
 12 13  2  0
 13 15  1  0
 15 17  2  0
 17 19  1  0
 19 21  2  0
 21 12  1  0
  8  9  1  0
  8 10  1  0
  8 11  1  0
 13 14  1  0
 15 16  1  0
 17 18  1  0
 19 20  1  0
 21 22  1  0
M  CHG  1   6  -1
M  END
>  <PDB_ID>  (1365) 
pdb4c0f

>  <RESIDUE_NAME>  (1365) 
ASP   PHE

>  <FRAG_NAME>  (1365) 
ACET   MBZ

>  <FRAG_ATOM_NUM>  (1365) 
fragi: 7  fragj: 15

>  <atom.prop.CHAIN_ID>  (1365) 
A A A A A A A Z Z Z Z Z Z Z Z Z Z Z Z Z Z Z

>  <atom.prop.IS_HEAVY_ATOM>  (1365) 
1 0 0 0 1 1 1 1 0 0 0 1 1 0 1 0 1 0 1 0 1 0

>  <DIFUSE_FUNC_ATOM>  (1365) 
atom 6   atom 7   

>  <FINAL_SINGLE_POINT_ENERGY>  (1365) 
0

>  <NONCOV_INTER_ENERGY_QM>  (1365) 
0

>  <FF_Energy>  (1365) 
0.9

>  <QM_Energy>  (1365) 
-4.11

>  <source>  (1365) 
ACET_MBZ_01

>  <Index>  (1365) 
15847

$$$$
ACET-pdb3g3a-D-GLU-7:MBZ-pdb3g3a-D-PHE-3
     RDKit          3D

 22 21  0  0  0  0  0  0  0  0999 V2000
   -4.1868    1.1932   -1.5564 C   0  0  0  0  0  0  0  0  0  0  0  0
   -3.5135    0.8148   -0.9479 H   0  0  0  0  0  0  0  0  0  0  0  0
   -4.9558    0.5933   -1.6798 H   0  0  0  0  0  0  0  0  0  0  0  0
   -4.5367    2.1433   -1.1527 H   0  0  0  0  0  0  0  0  0  0  0  0
   -3.5199    1.3510   -2.9185 C   0  0  0  0  0  0  0  0  0  0  0  0
   -2.9614    2.4339   -3.2393 O   0  0  0  0  0  1  0  0  0  0  0  0
   -3.5588    0.3614   -3.6653 O   0  0  0  0  0  0  0  0  0  0  0  0
    0.0183    2.9436   -0.0151 C   0  0  0  0  0  0  0  0  0  0  0  0
    0.8004    3.2540    0.4891 H   0  0  0  0  0  0  0  0  0  0  0  0
   -0.8270    3.2633    0.3668 H   0  0  0  0  0  0  0  0  0  0  0  0
    0.0958    3.3621   -1.0186 H   0  0  0  0  0  0  0  0  0  0  0  0
    0.0075    1.4181    0.0145 C   0  0  0  0  0  0  0  0  0  0  0  0
   -1.2081    0.7096   -0.0161 C   0  0  0  0  0  0  0  0  0  0  0  0
   -2.0647    1.2062   -0.0504 H   0  0  0  0  0  0  0  0  0  0  0  0
   -1.2209   -0.6895    0.0000 C   0  0  0  0  0  0  0  0  0  0  0  0
   -2.0959   -1.1817    0.0054 H   0  0  0  0  0  0  0  0  0  0  0  0
   -0.0043   -1.4219    0.0115 C   0  0  0  0  0  0  0  0  0  0  0  0
   -0.0174   -2.4036    0.0262 H   0  0  0  0  0  0  0  0  0  0  0  0
    1.2209   -0.7103    0.0000 C   0  0  0  0  0  0  0  0  0  0  0  0
    2.0925   -1.2052    0.0001 H   0  0  0  0  0  0  0  0  0  0  0  0
    1.2049    0.6941   -0.0099 C   0  0  0  0  0  0  0  0  0  0  0  0
    2.0772    1.1901   -0.0359 H   0  0  0  0  0  0  0  0  0  0  0  0
  1  5  1  0
  5  6  1  0
  5  7  2  0
  1  2  1  0
  1  3  1  0
  1  4  1  0
  8 12  1  0
 12 13  2  0
 13 15  1  0
 15 17  2  0
 17 19  1  0
 19 21  2  0
 21 12  1  0
  8  9  1  0
  8 10  1  0
  8 11  1  0
 13 14  1  0
 15 16  1  0
 17 18  1  0
 19 20  1  0
 21 22  1  0
M  CHG  1   6  -1
M  END
>  <PDB_ID>  (1366) 
pdb3g3a

>  <RESIDUE_NAME>  (1366) 
GLU   PHE

>  <FRAG_NAME>  (1366) 
ACET   MBZ

>  <FRAG_ATOM_NUM>  (1366) 
fragi: 7  fragj: 15

>  <atom.prop.CHAIN_ID>  (1366) 
A A A A A A A Z Z Z Z Z Z Z Z Z Z Z Z Z Z Z

>  <atom.prop.IS_HEAVY_ATOM>  (1366) 
1 0 0 0 1 1 1 1 0 0 0 1 1 0 1 0 1 0 1 0 1 0

>  <DIFUSE_FUNC_ATOM>  (1366) 
atom 6   atom 7   

>  <FINAL_SINGLE_POINT_ENERGY>  (1366) 
0

>  <NONCOV_INTER_ENERGY_QM>  (1366) 
0

>  <FF_Energy>  (1366) 
5.5

>  <QM_Energy>  (1366) 
-0.62

>  <source>  (1366) 
ACET_MBZ_01

>  <Index>  (1366) 
15862

$$$$
ACET-pdb3g4d-A-GLU-475:MBZ-pdb3g4d-A-PHE-397
     RDKit          3D

 22 21  0  0  0  0  0  0  0  0999 V2000
    0.4193    1.4078    3.5252 C   0  0  0  0  0  0  0  0  0  0  0  0
    0.0697    0.9350    2.7390 H   0  0  0  0  0  0  0  0  0  0  0  0
    0.0840    1.0311    4.3685 H   0  0  0  0  0  0  0  0  0  0  0  0
    1.5059    1.3226    3.5197 H   0  0  0  0  0  0  0  0  0  0  0  0
   -0.0563    2.8476    3.4448 C   0  0  0  0  0  0  0  0  0  0  0  0
    0.7908    3.7491    3.2623 O   0  0  0  0  0  1  0  0  0  0  0  0
   -1.2800    3.0755    3.5508 O   0  0  0  0  0  0  0  0  0  0  0  0
    0.0059    2.8916   -0.0023 C   0  0  0  0  0  0  0  0  0  0  0  0
    0.4809    3.2008    0.8078 H   0  0  0  0  0  0  0  0  0  0  0  0
   -0.9320    3.2027   -0.0106 H   0  0  0  0  0  0  0  0  0  0  0  0
    0.5080    3.3216   -0.8689 H   0  0  0  0  0  0  0  0  0  0  0  0
    0.0009    1.3940    0.0036 C   0  0  0  0  0  0  0  0  0  0  0  0
   -1.1932    0.6897   -0.0016 C   0  0  0  0  0  0  0  0  0  0  0  0
   -2.0603    1.1819   -0.0074 H   0  0  0  0  0  0  0  0  0  0  0  0
   -1.1974   -0.6950   -0.0000 C   0  0  0  0  0  0  0  0  0  0  0  0
   -2.0747   -1.1900    0.0015 H   0  0  0  0  0  0  0  0  0  0  0  0
    0.0001   -1.3871    0.0007 C   0  0  0  0  0  0  0  0  0  0  0  0
   -0.0022   -2.3873    0.0015 H   0  0  0  0  0  0  0  0  0  0  0  0
    1.1974   -0.6913    0.0000 C   0  0  0  0  0  0  0  0  0  0  0  0
    2.0794   -1.1923    0.0031 H   0  0  0  0  0  0  0  0  0  0  0  0
    1.1923    0.6896   -0.0027 C   0  0  0  0  0  0  0  0  0  0  0  0
    2.0616    1.1897   -0.0097 H   0  0  0  0  0  0  0  0  0  0  0  0
  1  5  1  0
  5  6  1  0
  5  7  2  0
  1  2  1  0
  1  3  1  0
  1  4  1  0
  8 12  1  0
 12 13  2  0
 13 15  1  0
 15 17  2  0
 17 19  1  0
 19 21  2  0
 21 12  1  0
  8  9  1  0
  8 10  1  0
  8 11  1  0
 13 14  1  0
 15 16  1  0
 17 18  1  0
 19 20  1  0
 21 22  1  0
M  CHG  1   6  -1
M  END
>  <PDB_ID>  (1367) 
pdb3g4d

>  <RESIDUE_NAME>  (1367) 
GLU   PHE

>  <FRAG_NAME>  (1367) 
ACET   MBZ

>  <FRAG_ATOM_NUM>  (1367) 
fragi: 7  fragj: 15

>  <atom.prop.CHAIN_ID>  (1367) 
A A A A A A A Z Z Z Z Z Z Z Z Z Z Z Z Z Z Z

>  <atom.prop.IS_HEAVY_ATOM>  (1367) 
1 0 0 0 1 1 1 1 0 0 0 1 1 0 1 0 1 0 1 0 1 0

>  <DIFUSE_FUNC_ATOM>  (1367) 
atom 6   atom 7   

>  <FINAL_SINGLE_POINT_ENERGY>  (1367) 
0

>  <NONCOV_INTER_ENERGY_QM>  (1367) 
0

>  <FF_Energy>  (1367) 
-0.55

>  <QM_Energy>  (1367) 
-5.73

>  <source>  (1367) 
ACET_MBZ_01

>  <Index>  (1367) 
15892

$$$$
ACET-pdb4c5f-A-GLU-49:MBZ-pdb4c5f-A-PHE-54
     RDKit          3D

 22 21  0  0  0  0  0  0  0  0999 V2000
   -4.1256    3.3117    0.3996 C   0  0  0  0  0  0  0  0  0  0  0  0
   -3.9584    4.1121   -0.1305 H   0  0  0  0  0  0  0  0  0  0  0  0
   -3.3850    3.0647    0.9826 H   0  0  0  0  0  0  0  0  0  0  0  0
   -5.0154    3.4729    1.0083 H   0  0  0  0  0  0  0  0  0  0  0  0
   -4.3667    2.1756   -0.5454 C   0  0  0  0  0  0  0  0  0  0  0  0
   -4.2167    1.0212   -0.0797 O   0  0  0  0  0  1  0  0  0  0  0  0
   -4.7601    2.4411   -1.7128 O   0  0  0  0  0  0  0  0  0  0  0  0
    0.0087    2.9247   -0.0047 C   0  0  0  0  0  0  0  0  0  0  0  0
   -0.6141    3.2285   -0.7067 H   0  0  0  0  0  0  0  0  0  0  0  0
    0.9325    3.2201   -0.1838 H   0  0  0  0  0  0  0  0  0  0  0  0
   -0.3075    3.3698    0.9387 H   0  0  0  0  0  0  0  0  0  0  0  0
   -0.0008    1.4083   -0.0004 C   0  0  0  0  0  0  0  0  0  0  0  0
   -1.1952    0.7020   -0.0011 C   0  0  0  0  0  0  0  0  0  0  0  0
   -2.0634    1.1863   -0.0036 H   0  0  0  0  0  0  0  0  0  0  0  0
   -1.1959   -0.6953   -0.0000 C   0  0  0  0  0  0  0  0  0  0  0  0
   -2.0743   -1.1873    0.0009 H   0  0  0  0  0  0  0  0  0  0  0  0
    0.0049   -1.3970    0.0024 C   0  0  0  0  0  0  0  0  0  0  0  0
   -0.0086   -2.3963    0.0055 H   0  0  0  0  0  0  0  0  0  0  0  0
    1.1959   -0.7081   -0.0000 C   0  0  0  0  0  0  0  0  0  0  0  0
    2.0816   -1.1977    0.0004 H   0  0  0  0  0  0  0  0  0  0  0  0
    1.1911    0.6901   -0.0009 C   0  0  0  0  0  0  0  0  0  0  0  0
    2.0643    1.1811   -0.0027 H   0  0  0  0  0  0  0  0  0  0  0  0
  1  5  1  0
  5  6  1  0
  5  7  2  0
  1  2  1  0
  1  3  1  0
  1  4  1  0
  8 12  1  0
 12 13  2  0
 13 15  1  0
 15 17  2  0
 17 19  1  0
 19 21  2  0
 21 12  1  0
  8  9  1  0
  8 10  1  0
  8 11  1  0
 13 14  1  0
 15 16  1  0
 17 18  1  0
 19 20  1  0
 21 22  1  0
M  CHG  1   6  -1
M  END
>  <PDB_ID>  (1368) 
pdb4c5f

>  <RESIDUE_NAME>  (1368) 
GLU   PHE

>  <FRAG_NAME>  (1368) 
ACET   MBZ

>  <FRAG_ATOM_NUM>  (1368) 
fragi: 7  fragj: 15

>  <atom.prop.CHAIN_ID>  (1368) 
A A A A A A A Z Z Z Z Z Z Z Z Z Z Z Z Z Z Z

>  <atom.prop.IS_HEAVY_ATOM>  (1368) 
1 0 0 0 1 1 1 1 0 0 0 1 1 0 1 0 1 0 1 0 1 0

>  <DIFUSE_FUNC_ATOM>  (1368) 
atom 6   atom 7   

>  <FINAL_SINGLE_POINT_ENERGY>  (1368) 
0

>  <NONCOV_INTER_ENERGY_QM>  (1368) 
0

>  <FF_Energy>  (1368) 
0.56

>  <QM_Energy>  (1368) 
-6.19

>  <source>  (1368) 
ACET_MBZ_01

>  <Index>  (1368) 
16081

$$$$
ACET-pdb4c60-C-ASP-156:MBZ-pdb4c60-C-PHE-114
     RDKit          3D

 22 21  0  0  0  0  0  0  0  0999 V2000
   -2.9738    0.8147   -2.9980 C   0  0  0  0  0  0  0  0  0  0  0  0
   -2.5093    0.1921   -2.3760 H   0  0  0  0  0  0  0  0  0  0  0  0
   -2.7336    0.6022   -3.9397 H   0  0  0  0  0  0  0  0  0  0  0  0
   -4.0473    0.6654   -2.8827 H   0  0  0  0  0  0  0  0  0  0  0  0
   -2.5193    2.2392   -2.6890 C   0  0  0  0  0  0  0  0  0  0  0  0
   -3.1288    2.9114   -1.8171 O   0  0  0  0  0  1  0  0  0  0  0  0
   -1.5352    2.6721   -3.3184 O   0  0  0  0  0  0  0  0  0  0  0  0
    0.0209    2.8918    0.0286 C   0  0  0  0  0  0  0  0  0  0  0  0
   -0.3902    3.2209   -0.8093 H   0  0  0  0  0  0  0  0  0  0  0  0
    0.9625    3.1871    0.1045 H   0  0  0  0  0  0  0  0  0  0  0  0
   -0.5295    3.3299    0.8612 H   0  0  0  0  0  0  0  0  0  0  0  0
   -0.0006    1.3949    0.0043 C   0  0  0  0  0  0  0  0  0  0  0  0
   -1.1897    0.6977   -0.0006 C   0  0  0  0  0  0  0  0  0  0  0  0
   -2.0568    1.1893   -0.0061 H   0  0  0  0  0  0  0  0  0  0  0  0
   -1.1901   -0.6805    0.0000 C   0  0  0  0  0  0  0  0  0  0  0  0
   -2.0739   -1.1774    0.0035 H   0  0  0  0  0  0  0  0  0  0  0  0
   -0.0016   -1.3813   -0.0032 C   0  0  0  0  0  0  0  0  0  0  0  0
   -0.0184   -2.3857   -0.0079 H   0  0  0  0  0  0  0  0  0  0  0  0
    1.1901   -0.7058   -0.0000 C   0  0  0  0  0  0  0  0  0  0  0  0
    2.0723   -1.2078    0.0040 H   0  0  0  0  0  0  0  0  0  0  0  0
    1.1919    0.6750   -0.0006 C   0  0  0  0  0  0  0  0  0  0  0  0
    2.0627    1.1723   -0.0052 H   0  0  0  0  0  0  0  0  0  0  0  0
  1  5  1  0
  5  6  1  0
  5  7  2  0
  1  2  1  0
  1  3  1  0
  1  4  1  0
  8 12  1  0
 12 13  2  0
 13 15  1  0
 15 17  2  0
 17 19  1  0
 19 21  2  0
 21 12  1  0
  8  9  1  0
  8 10  1  0
  8 11  1  0
 13 14  1  0
 15 16  1  0
 17 18  1  0
 19 20  1  0
 21 22  1  0
M  CHG  1   6  -1
M  END
>  <PDB_ID>  (1369) 
pdb4c60

>  <RESIDUE_NAME>  (1369) 
ASP   PHE

>  <FRAG_NAME>  (1369) 
ACET   MBZ

>  <FRAG_ATOM_NUM>  (1369) 
fragi: 7  fragj: 15

>  <atom.prop.CHAIN_ID>  (1369) 
A A A A A A A Z Z Z Z Z Z Z Z Z Z Z Z Z Z Z

>  <atom.prop.IS_HEAVY_ATOM>  (1369) 
1 0 0 0 1 1 1 1 0 0 0 1 1 0 1 0 1 0 1 0 1 0

>  <DIFUSE_FUNC_ATOM>  (1369) 
atom 6   atom 7   

>  <FINAL_SINGLE_POINT_ENERGY>  (1369) 
0

>  <NONCOV_INTER_ENERGY_QM>  (1369) 
0

>  <FF_Energy>  (1369) 
-1.04

>  <QM_Energy>  (1369) 
-7.5

>  <source>  (1369) 
ACET_MBZ_01

>  <Index>  (1369) 
16118

$$$$
ACET-pdb4c7d-A-GLU-302:MBZ-pdb4c7d-A-PHE-311
     RDKit          3D

 22 21  0  0  0  0  0  0  0  0999 V2000
   -2.3878    0.7327   -3.1636 C   0  0  0  0  0  0  0  0  0  0  0  0
   -2.6424    0.9369   -2.2310 H   0  0  0  0  0  0  0  0  0  0  0  0
   -2.4207   -0.2384   -3.3425 H   0  0  0  0  0  0  0  0  0  0  0  0
   -3.0911    1.2316   -3.8303 H   0  0  0  0  0  0  0  0  0  0  0  0
   -0.9394    1.1752   -3.3435 C   0  0  0  0  0  0  0  0  0  0  0  0
   -0.7192    2.3975   -3.3267 O   0  0  0  0  0  1  0  0  0  0  0  0
   -0.0307    0.3081   -3.4745 O   0  0  0  0  0  0  0  0  0  0  0  0
   -0.0183    2.9280    0.0166 C   0  0  0  0  0  0  0  0  0  0  0  0
   -0.7239    3.2230   -0.5997 H   0  0  0  0  0  0  0  0  0  0  0  0
    0.8723    3.2388   -0.2574 H   0  0  0  0  0  0  0  0  0  0  0  0
   -0.2338    3.3355    1.0043 H   0  0  0  0  0  0  0  0  0  0  0  0
    0.0029    1.3956   -0.0113 C   0  0  0  0  0  0  0  0  0  0  0  0
   -1.1882    0.6898    0.0089 C   0  0  0  0  0  0  0  0  0  0  0  0
   -2.0585    1.1756    0.0292 H   0  0  0  0  0  0  0  0  0  0  0  0
   -1.2001   -0.7123    0.0000 C   0  0  0  0  0  0  0  0  0  0  0  0
   -2.0773   -1.1957   -0.0024 H   0  0  0  0  0  0  0  0  0  0  0  0
   -0.0023   -1.3997   -0.0039 C   0  0  0  0  0  0  0  0  0  0  0  0
    0.0082   -2.3958   -0.0099 H   0  0  0  0  0  0  0  0  0  0  0  0
    1.2001   -0.6870   -0.0000 C   0  0  0  0  0  0  0  0  0  0  0  0
    2.0837   -1.1766   -0.0006 H   0  0  0  0  0  0  0  0  0  0  0  0
    1.1876    0.7136    0.0063 C   0  0  0  0  0  0  0  0  0  0  0  0
    2.0588    1.2045    0.0229 H   0  0  0  0  0  0  0  0  0  0  0  0
  1  5  1  0
  5  6  1  0
  5  7  2  0
  1  2  1  0
  1  3  1  0
  1  4  1  0
  8 12  1  0
 12 13  2  0
 13 15  1  0
 15 17  2  0
 17 19  1  0
 19 21  2  0
 21 12  1  0
  8  9  1  0
  8 10  1  0
  8 11  1  0
 13 14  1  0
 15 16  1  0
 17 18  1  0
 19 20  1  0
 21 22  1  0
M  CHG  1   6  -1
M  END
>  <PDB_ID>  (1370) 
pdb4c7d

>  <RESIDUE_NAME>  (1370) 
GLU   PHE

>  <FRAG_NAME>  (1370) 
ACET   MBZ

>  <FRAG_ATOM_NUM>  (1370) 
fragi: 7  fragj: 15

>  <atom.prop.CHAIN_ID>  (1370) 
A A A A A A A Z Z Z Z Z Z Z Z Z Z Z Z Z Z Z

>  <atom.prop.IS_HEAVY_ATOM>  (1370) 
1 0 0 0 1 1 1 1 0 0 0 1 1 0 1 0 1 0 1 0 1 0

>  <DIFUSE_FUNC_ATOM>  (1370) 
atom 6   atom 7   

>  <FINAL_SINGLE_POINT_ENERGY>  (1370) 
0

>  <NONCOV_INTER_ENERGY_QM>  (1370) 
0

>  <FF_Energy>  (1370) 
3.19

>  <QM_Energy>  (1370) 
-2.31

>  <source>  (1370) 
ACET_MBZ_01

>  <Index>  (1370) 
16152

$$$$
ACET-pdb3g7s-A-ASP-425:MBZ-pdb3g7s-A-PHE-429
     RDKit          3D

 22 21  0  0  0  0  0  0  0  0999 V2000
   -3.0180    6.3095   -2.1733 C   0  0  0  0  0  0  0  0  0  0  0  0
   -3.5645    6.1493   -2.9890 H   0  0  0  0  0  0  0  0  0  0  0  0
   -2.3128    6.9848   -2.3571 H   0  0  0  0  0  0  0  0  0  0  0  0
   -3.6768    6.7166   -1.4064 H   0  0  0  0  0  0  0  0  0  0  0  0
   -2.3499    5.0008   -1.7681 C   0  0  0  0  0  0  0  0  0  0  0  0
   -3.0082    4.1299   -1.1695 O   0  0  0  0  0  1  0  0  0  0  0  0
   -1.1537    4.8405   -2.0783 O   0  0  0  0  0  0  0  0  0  0  0  0
   -0.0070    2.9049    0.0976 C   0  0  0  0  0  0  0  0  0  0  0  0
   -0.5249    3.2589   -0.6632 H   0  0  0  0  0  0  0  0  0  0  0  0
    0.9281    3.2155    0.0810 H   0  0  0  0  0  0  0  0  0  0  0  0
   -0.4650    3.2777    1.0138 H   0  0  0  0  0  0  0  0  0  0  0  0
   -0.0021    1.4018    0.0016 C   0  0  0  0  0  0  0  0  0  0  0  0
   -1.1987    0.6882   -0.0030 C   0  0  0  0  0  0  0  0  0  0  0  0
   -2.0655    1.1801   -0.0098 H   0  0  0  0  0  0  0  0  0  0  0  0
   -1.2009   -0.6980   -0.0000 C   0  0  0  0  0  0  0  0  0  0  0  0
   -2.0743   -1.1971    0.0001 H   0  0  0  0  0  0  0  0  0  0  0  0
    0.0051   -1.3926    0.0044 C   0  0  0  0  0  0  0  0  0  0  0  0
   -0.0002   -2.3916    0.0106 H   0  0  0  0  0  0  0  0  0  0  0  0
    1.2009   -0.6969   -0.0000 C   0  0  0  0  0  0  0  0  0  0  0  0
    2.0849   -1.1905    0.0001 H   0  0  0  0  0  0  0  0  0  0  0  0
    1.1957    0.6974   -0.0030 C   0  0  0  0  0  0  0  0  0  0  0  0
    2.0632    1.1927   -0.0090 H   0  0  0  0  0  0  0  0  0  0  0  0
  1  5  1  0
  5  6  1  0
  5  7  2  0
  1  2  1  0
  1  3  1  0
  1  4  1  0
  8 12  1  0
 12 13  2  0
 13 15  1  0
 15 17  2  0
 17 19  1  0
 19 21  2  0
 21 12  1  0
  8  9  1  0
  8 10  1  0
  8 11  1  0
 13 14  1  0
 15 16  1  0
 17 18  1  0
 19 20  1  0
 21 22  1  0
M  CHG  1   6  -1
M  END
>  <PDB_ID>  (1371) 
pdb3g7s

>  <RESIDUE_NAME>  (1371) 
ASP   PHE

>  <FRAG_NAME>  (1371) 
ACET   MBZ

>  <FRAG_ATOM_NUM>  (1371) 
fragi: 7  fragj: 15

>  <atom.prop.CHAIN_ID>  (1371) 
A A A A A A A Z Z Z Z Z Z Z Z Z Z Z Z Z Z Z

>  <atom.prop.IS_HEAVY_ATOM>  (1371) 
1 0 0 0 1 1 1 1 0 0 0 1 1 0 1 0 1 0 1 0 1 0

>  <DIFUSE_FUNC_ATOM>  (1371) 
atom 6   atom 7   

>  <FINAL_SINGLE_POINT_ENERGY>  (1371) 
0

>  <NONCOV_INTER_ENERGY_QM>  (1371) 
0

>  <FF_Energy>  (1371) 
0.25

>  <QM_Energy>  (1371) 
-7.48

>  <source>  (1371) 
ACET_MBZ_01

>  <Index>  (1371) 
16189

$$$$
ACET-pdb3g7s-B-ASP-425:MBZ-pdb3g7s-B-PHE-429
     RDKit          3D

 22 21  0  0  0  0  0  0  0  0999 V2000
   -3.3375    6.3049   -2.0775 C   0  0  0  0  0  0  0  0  0  0  0  0
   -3.9189    6.2480   -2.8834 H   0  0  0  0  0  0  0  0  0  0  0  0
   -2.6241    6.9837   -2.2158 H   0  0  0  0  0  0  0  0  0  0  0  0
   -3.9572    6.6400   -1.2457 H   0  0  0  0  0  0  0  0  0  0  0  0
   -2.6845    4.9457   -1.8472 C   0  0  0  0  0  0  0  0  0  0  0  0
   -3.2403    4.1234   -1.0847 O   0  0  0  0  0  1  0  0  0  0  0  0
   -1.6161    4.6969   -2.4585 O   0  0  0  0  0  0  0  0  0  0  0  0
    0.0000    2.9032    0.0459 C   0  0  0  0  0  0  0  0  0  0  0  0
   -0.5397    3.2341   -0.7113 H   0  0  0  0  0  0  0  0  0  0  0  0
    0.9368    3.2109   -0.0140 H   0  0  0  0  0  0  0  0  0  0  0  0
   -0.4266    3.3085    0.9634 H   0  0  0  0  0  0  0  0  0  0  0  0
   -0.0023    1.4048    0.0009 C   0  0  0  0  0  0  0  0  0  0  0  0
   -1.2041    0.6984   -0.0004 C   0  0  0  0  0  0  0  0  0  0  0  0
   -2.0683    1.1863   -0.0029 H   0  0  0  0  0  0  0  0  0  0  0  0
   -1.2067   -0.6991   -0.0000 C   0  0  0  0  0  0  0  0  0  0  0  0
   -2.0778   -1.1948    0.0016 H   0  0  0  0  0  0  0  0  0  0  0  0
    0.0071   -1.3979   -0.0002 C   0  0  0  0  0  0  0  0  0  0  0  0
   -0.0006   -2.3958   -0.0014 H   0  0  0  0  0  0  0  0  0  0  0  0
    1.2067   -0.7004   -0.0000 C   0  0  0  0  0  0  0  0  0  0  0  0
    2.0891   -1.1941    0.0021 H   0  0  0  0  0  0  0  0  0  0  0  0
    1.1994    0.6942   -0.0002 C   0  0  0  0  0  0  0  0  0  0  0  0
    2.0659    1.1923   -0.0020 H   0  0  0  0  0  0  0  0  0  0  0  0
  1  5  1  0
  5  6  1  0
  5  7  2  0
  1  2  1  0
  1  3  1  0
  1  4  1  0
  8 12  1  0
 12 13  2  0
 13 15  1  0
 15 17  2  0
 17 19  1  0
 19 21  2  0
 21 12  1  0
  8  9  1  0
  8 10  1  0
  8 11  1  0
 13 14  1  0
 15 16  1  0
 17 18  1  0
 19 20  1  0
 21 22  1  0
M  CHG  1   6  -1
M  END
>  <PDB_ID>  (1372) 
pdb3g7s

>  <RESIDUE_NAME>  (1372) 
ASP   PHE

>  <FRAG_NAME>  (1372) 
ACET   MBZ

>  <FRAG_ATOM_NUM>  (1372) 
fragi: 7  fragj: 15

>  <atom.prop.CHAIN_ID>  (1372) 
A A A A A A A Z Z Z Z Z Z Z Z Z Z Z Z Z Z Z

>  <atom.prop.IS_HEAVY_ATOM>  (1372) 
1 0 0 0 1 1 1 1 0 0 0 1 1 0 1 0 1 0 1 0 1 0

>  <DIFUSE_FUNC_ATOM>  (1372) 
atom 6   atom 7   

>  <FINAL_SINGLE_POINT_ENERGY>  (1372) 
0

>  <NONCOV_INTER_ENERGY_QM>  (1372) 
0

>  <FF_Energy>  (1372) 
-1.54

>  <QM_Energy>  (1372) 
-7.5

>  <source>  (1372) 
ACET_MBZ_01

>  <Index>  (1372) 
16190

$$$$
ACET-pdb4c89-C-ASP-31:MBZ-pdb4c89-C-PHE-21
     RDKit          3D

 22 21  0  0  0  0  0  0  0  0999 V2000
    0.3166    1.8589   -3.7193 C   0  0  0  0  0  0  0  0  0  0  0  0
    0.8508    2.2465   -2.9727 H   0  0  0  0  0  0  0  0  0  0  0  0
    0.6896    2.1507   -4.5945 H   0  0  0  0  0  0  0  0  0  0  0  0
    0.4012    0.7735   -3.6641 H   0  0  0  0  0  0  0  0  0  0  0  0
   -1.1116    2.3572   -3.6064 C   0  0  0  0  0  0  0  0  0  0  0  0
   -2.0116    1.7896   -4.2521 O   0  0  0  0  0  1  0  0  0  0  0  0
   -1.3470    3.3428   -2.8766 O   0  0  0  0  0  0  0  0  0  0  0  0
    0.0099    2.9098   -0.0341 C   0  0  0  0  0  0  0  0  0  0  0  0
   -0.6494    3.1950   -0.7183 H   0  0  0  0  0  0  0  0  0  0  0  0
    0.9252    3.2005   -0.2864 H   0  0  0  0  0  0  0  0  0  0  0  0
   -0.2486    3.4055    0.9016 H   0  0  0  0  0  0  0  0  0  0  0  0
    0.0016    1.3980    0.0146 C   0  0  0  0  0  0  0  0  0  0  0  0
   -1.1921    0.6827   -0.0102 C   0  0  0  0  0  0  0  0  0  0  0  0
   -2.0606    1.1748   -0.0371 H   0  0  0  0  0  0  0  0  0  0  0  0
   -1.1968   -0.7008    0.0000 C   0  0  0  0  0  0  0  0  0  0  0  0
   -2.0756   -1.1943    0.0109 H   0  0  0  0  0  0  0  0  0  0  0  0
   -0.0039   -1.3867   -0.0032 C   0  0  0  0  0  0  0  0  0  0  0  0
    0.0014   -2.3875   -0.0080 H   0  0  0  0  0  0  0  0  0  0  0  0
    1.1968   -0.6869    0.0000 C   0  0  0  0  0  0  0  0  0  0  0  0
    2.0781   -1.1903    0.0050 H   0  0  0  0  0  0  0  0  0  0  0  0
    1.1945    0.6936   -0.0012 C   0  0  0  0  0  0  0  0  0  0  0  0
    2.0628    1.1923   -0.0142 H   0  0  0  0  0  0  0  0  0  0  0  0
  1  5  1  0
  5  6  1  0
  5  7  2  0
  1  2  1  0
  1  3  1  0
  1  4  1  0
  8 12  1  0
 12 13  2  0
 13 15  1  0
 15 17  2  0
 17 19  1  0
 19 21  2  0
 21 12  1  0
  8  9  1  0
  8 10  1  0
  8 11  1  0
 13 14  1  0
 15 16  1  0
 17 18  1  0
 19 20  1  0
 21 22  1  0
M  CHG  1   6  -1
M  END
>  <PDB_ID>  (1373) 
pdb4c89

>  <RESIDUE_NAME>  (1373) 
ASP   PHE

>  <FRAG_NAME>  (1373) 
ACET   MBZ

>  <FRAG_ATOM_NUM>  (1373) 
fragi: 7  fragj: 15

>  <atom.prop.CHAIN_ID>  (1373) 
A A A A A A A Z Z Z Z Z Z Z Z Z Z Z Z Z Z Z

>  <atom.prop.IS_HEAVY_ATOM>  (1373) 
1 0 0 0 1 1 1 1 0 0 0 1 1 0 1 0 1 0 1 0 1 0

>  <DIFUSE_FUNC_ATOM>  (1373) 
atom 6   atom 7   

>  <FINAL_SINGLE_POINT_ENERGY>  (1373) 
0

>  <NONCOV_INTER_ENERGY_QM>  (1373) 
0

>  <FF_Energy>  (1373) 
0.11

>  <QM_Energy>  (1373) 
-5.48

>  <source>  (1373) 
ACET_MBZ_01

>  <Index>  (1373) 
16203

$$$$
ACET-pdb4c89-D-ASP-31:MBZ-pdb4c89-D-PHE-21
     RDKit          3D

 22 21  0  0  0  0  0  0  0  0999 V2000
    0.8154    1.8209   -3.9842 C   0  0  0  0  0  0  0  0  0  0  0  0
    1.3488    2.2313   -3.2532 H   0  0  0  0  0  0  0  0  0  0  0  0
    1.2105    2.0431   -4.8683 H   0  0  0  0  0  0  0  0  0  0  0  0
    0.8504    0.7385   -3.8605 H   0  0  0  0  0  0  0  0  0  0  0  0
   -0.5974    2.3779   -3.9278 C   0  0  0  0  0  0  0  0  0  0  0  0
   -1.4199    2.0327   -4.8003 O   0  0  0  0  0  1  0  0  0  0  0  0
   -0.8874    3.1895   -3.0270 O   0  0  0  0  0  0  0  0  0  0  0  0
    0.0047    2.9039   -0.0234 C   0  0  0  0  0  0  0  0  0  0  0  0
   -0.6798    3.1984   -0.6764 H   0  0  0  0  0  0  0  0  0  0  0  0
    0.9091    3.2009   -0.2986 H   0  0  0  0  0  0  0  0  0  0  0  0
   -0.2230    3.3767    0.9320 H   0  0  0  0  0  0  0  0  0  0  0  0
    0.0003    1.3971    0.0068 C   0  0  0  0  0  0  0  0  0  0  0  0
   -1.1943    0.6873   -0.0066 C   0  0  0  0  0  0  0  0  0  0  0  0
   -2.0611    1.1784   -0.0226 H   0  0  0  0  0  0  0  0  0  0  0  0
   -1.1964   -0.6977   -0.0000 C   0  0  0  0  0  0  0  0  0  0  0  0
   -2.0736   -1.1933    0.0048 H   0  0  0  0  0  0  0  0  0  0  0  0
    0.0007   -1.3871    0.0023 C   0  0  0  0  0  0  0  0  0  0  0  0
    0.0005   -2.3884    0.0052 H   0  0  0  0  0  0  0  0  0  0  0  0
    1.1964   -0.6910    0.0000 C   0  0  0  0  0  0  0  0  0  0  0  0
    2.0798   -1.1911    0.0015 H   0  0  0  0  0  0  0  0  0  0  0  0
    1.1932    0.6915   -0.0026 C   0  0  0  0  0  0  0  0  0  0  0  0
    2.0622    1.1904   -0.0121 H   0  0  0  0  0  0  0  0  0  0  0  0
  1  5  1  0
  5  6  1  0
  5  7  2  0
  1  2  1  0
  1  3  1  0
  1  4  1  0
  8 12  1  0
 12 13  2  0
 13 15  1  0
 15 17  2  0
 17 19  1  0
 19 21  2  0
 21 12  1  0
  8  9  1  0
  8 10  1  0
  8 11  1  0
 13 14  1  0
 15 16  1  0
 17 18  1  0
 19 20  1  0
 21 22  1  0
M  CHG  1   6  -1
M  END
>  <PDB_ID>  (1374) 
pdb4c89

>  <RESIDUE_NAME>  (1374) 
ASP   PHE

>  <FRAG_NAME>  (1374) 
ACET   MBZ

>  <FRAG_ATOM_NUM>  (1374) 
fragi: 7  fragj: 15

>  <atom.prop.CHAIN_ID>  (1374) 
A A A A A A A Z Z Z Z Z Z Z Z Z Z Z Z Z Z Z

>  <atom.prop.IS_HEAVY_ATOM>  (1374) 
1 0 0 0 1 1 1 1 0 0 0 1 1 0 1 0 1 0 1 0 1 0

>  <DIFUSE_FUNC_ATOM>  (1374) 
atom 6   atom 7   

>  <FINAL_SINGLE_POINT_ENERGY>  (1374) 
0

>  <NONCOV_INTER_ENERGY_QM>  (1374) 
0

>  <FF_Energy>  (1374) 
0.46

>  <QM_Energy>  (1374) 
-4.58

>  <source>  (1374) 
ACET_MBZ_01

>  <Index>  (1374) 
16206

$$$$
ACET-pdb3g8q-B-GLU-203:MBZ-pdb3g8q-B-PHE-199
     RDKit          3D

 22 21  0  0  0  0  0  0  0  0999 V2000
    0.1968    4.8528   -4.1629 C   0  0  0  0  0  0  0  0  0  0  0  0
    0.8250    4.9016   -4.9151 H   0  0  0  0  0  0  0  0  0  0  0  0
   -0.5880    5.4279   -4.2902 H   0  0  0  0  0  0  0  0  0  0  0  0
   -0.1415    3.8215   -4.0624 H   0  0  0  0  0  0  0  0  0  0  0  0
    0.9235    5.3385   -2.9276 C   0  0  0  0  0  0  0  0  0  0  0  0
    1.0100    4.5686   -1.9498 O   0  0  0  0  0  1  0  0  0  0  0  0
    1.4031    6.4899   -2.9344 O   0  0  0  0  0  0  0  0  0  0  0  0
    0.0076    2.9061   -0.0161 C   0  0  0  0  0  0  0  0  0  0  0  0
   -0.3982    3.2018   -0.8682 H   0  0  0  0  0  0  0  0  0  0  0  0
    0.9470    3.2065    0.0563 H   0  0  0  0  0  0  0  0  0  0  0  0
   -0.5534    3.3657    0.7976 H   0  0  0  0  0  0  0  0  0  0  0  0
   -0.0005    1.3998    0.0034 C   0  0  0  0  0  0  0  0  0  0  0  0
   -1.1963    0.6946   -0.0027 C   0  0  0  0  0  0  0  0  0  0  0  0
   -2.0629    1.1840   -0.0097 H   0  0  0  0  0  0  0  0  0  0  0  0
   -1.1994   -0.6952    0.0000 C   0  0  0  0  0  0  0  0  0  0  0  0
   -2.0766   -1.1896    0.0027 H   0  0  0  0  0  0  0  0  0  0  0  0
    0.0010   -1.3907    0.0014 C   0  0  0  0  0  0  0  0  0  0  0  0
   -0.0044   -2.3909    0.0030 H   0  0  0  0  0  0  0  0  0  0  0  0
    1.1994   -0.6977    0.0000 C   0  0  0  0  0  0  0  0  0  0  0  0
    2.0809   -1.1964    0.0022 H   0  0  0  0  0  0  0  0  0  0  0  0
    1.1958    0.6892   -0.0021 C   0  0  0  0  0  0  0  0  0  0  0  0
    2.0641    1.1870   -0.0081 H   0  0  0  0  0  0  0  0  0  0  0  0
  1  5  1  0
  5  6  1  0
  5  7  2  0
  1  2  1  0
  1  3  1  0
  1  4  1  0
  8 12  1  0
 12 13  2  0
 13 15  1  0
 15 17  2  0
 17 19  1  0
 19 21  2  0
 21 12  1  0
  8  9  1  0
  8 10  1  0
  8 11  1  0
 13 14  1  0
 15 16  1  0
 17 18  1  0
 19 20  1  0
 21 22  1  0
M  CHG  1   6  -1
M  END
>  <PDB_ID>  (1375) 
pdb3g8q

>  <RESIDUE_NAME>  (1375) 
GLU   PHE

>  <FRAG_NAME>  (1375) 
ACET   MBZ

>  <FRAG_ATOM_NUM>  (1375) 
fragi: 7  fragj: 15

>  <atom.prop.CHAIN_ID>  (1375) 
A A A A A A A Z Z Z Z Z Z Z Z Z Z Z Z Z Z Z

>  <atom.prop.IS_HEAVY_ATOM>  (1375) 
1 0 0 0 1 1 1 1 0 0 0 1 1 0 1 0 1 0 1 0 1 0

>  <DIFUSE_FUNC_ATOM>  (1375) 
atom 6   atom 7   

>  <FINAL_SINGLE_POINT_ENERGY>  (1375) 
0

>  <NONCOV_INTER_ENERGY_QM>  (1375) 
0

>  <FF_Energy>  (1375) 
3.5

>  <QM_Energy>  (1375) 
-3.19

>  <source>  (1375) 
ACET_MBZ_01

>  <Index>  (1375) 
16270

$$$$
ACET-pdb4cbu-A-GLU-260:MBZ-pdb4cbu-A-PHE-224
     RDKit          3D

 22 21  0  0  0  0  0  0  0  0999 V2000
   -1.3680    0.5827   -3.5317 C   0  0  0  0  0  0  0  0  0  0  0  0
   -0.8426    0.1181   -2.8620 H   0  0  0  0  0  0  0  0  0  0  0  0
   -0.9543    0.4809   -4.4032 H   0  0  0  0  0  0  0  0  0  0  0  0
   -2.3645    0.1420   -3.5636 H   0  0  0  0  0  0  0  0  0  0  0  0
   -1.3581    2.0589   -3.1851 C   0  0  0  0  0  0  0  0  0  0  0  0
   -2.3895    2.5877   -2.7049 O   0  0  0  0  0  1  0  0  0  0  0  0
   -0.3104    2.7057   -3.4280 O   0  0  0  0  0  0  0  0  0  0  0  0
    0.0057    2.8941   -0.0054 C   0  0  0  0  0  0  0  0  0  0  0  0
   -0.5960    3.1912   -0.7054 H   0  0  0  0  0  0  0  0  0  0  0  0
    0.9088    3.1927   -0.1956 H   0  0  0  0  0  0  0  0  0  0  0  0
   -0.3167    3.3220    0.9438 H   0  0  0  0  0  0  0  0  0  0  0  0
    0.0058    1.4003    0.0008 C   0  0  0  0  0  0  0  0  0  0  0  0
   -1.1782    0.7164   -0.0166 C   0  0  0  0  0  0  0  0  0  0  0  0
   -1.9808    1.1861   -0.0131 H   0  0  0  0  0  0  0  0  0  0  0  0
   -1.1953   -0.6911   -0.0000 C   0  0  0  0  0  0  0  0  0  0  0  0
   -2.0085   -1.1431   -0.0073 H   0  0  0  0  0  0  0  0  0  0  0  0
   -0.0170   -1.4051    0.0079 C   0  0  0  0  0  0  0  0  0  0  0  0
   -0.0265   -2.3350    0.0063 H   0  0  0  0  0  0  0  0  0  0  0  0
    1.1953   -0.7059    0.0000 C   0  0  0  0  0  0  0  0  0  0  0  0
    2.0019   -1.1692    0.0135 H   0  0  0  0  0  0  0  0  0  0  0  0
    1.1894    0.6853    0.0079 C   0  0  0  0  0  0  0  0  0  0  0  0
    1.9983    1.1443    0.0082 H   0  0  0  0  0  0  0  0  0  0  0  0
  1  5  1  0
  5  6  1  0
  5  7  2  0
  1  2  1  0
  1  3  1  0
  1  4  1  0
  8 12  1  0
 12 13  2  0
 13 15  1  0
 15 17  2  0
 17 19  1  0
 19 21  2  0
 21 12  1  0
  8  9  1  0
  8 10  1  0
  8 11  1  0
 13 14  1  0
 15 16  1  0
 17 18  1  0
 19 20  1  0
 21 22  1  0
M  CHG  1   6  -1
M  END
>  <PDB_ID>  (1376) 
pdb4cbu

>  <RESIDUE_NAME>  (1376) 
GLU   PHE

>  <FRAG_NAME>  (1376) 
ACET   MBZ

>  <FRAG_ATOM_NUM>  (1376) 
fragi: 7  fragj: 15

>  <atom.prop.CHAIN_ID>  (1376) 
A A A A A A A Z Z Z Z Z Z Z Z Z Z Z Z Z Z Z

>  <atom.prop.IS_HEAVY_ATOM>  (1376) 
1 0 0 0 1 1 1 1 0 0 0 1 1 0 1 0 1 0 1 0 1 0

>  <DIFUSE_FUNC_ATOM>  (1376) 
atom 6   atom 7   

>  <FINAL_SINGLE_POINT_ENERGY>  (1376) 
0

>  <NONCOV_INTER_ENERGY_QM>  (1376) 
0

>  <FF_Energy>  (1376) 
-0.78

>  <QM_Energy>  (1376) 
-7.36

>  <source>  (1376) 
ACET_MBZ_01

>  <Index>  (1376) 
16356

$$$$
ACET-pdb3gac-B-ASP-15:MBZ-pdb3gac-F-PHE-115
     RDKit          3D

 22 21  0  0  0  0  0  0  0  0999 V2000
    5.8310    3.9543   -0.0849 C   0  0  0  0  0  0  0  0  0  0  0  0
    6.5121    3.6759    0.5811 H   0  0  0  0  0  0  0  0  0  0  0  0
    5.5067    4.8720    0.1090 H   0  0  0  0  0  0  0  0  0  0  0  0
    6.3037    3.9634   -1.0670 H   0  0  0  0  0  0  0  0  0  0  0  0
    4.6651    2.9992   -0.0212 C   0  0  0  0  0  0  0  0  0  0  0  0
    3.7458    3.1262   -0.8598 O   0  0  0  0  0  1  0  0  0  0  0  0
    4.6762    2.1142    0.8537 O   0  0  0  0  0  0  0  0  0  0  0  0
   -0.0097    2.9227   -0.0192 C   0  0  0  0  0  0  0  0  0  0  0  0
   -0.9321    3.2220    0.1772 H   0  0  0  0  0  0  0  0  0  0  0  0
    0.2744    3.2113   -0.9223 H   0  0  0  0  0  0  0  0  0  0  0  0
    0.6564    3.3887    0.7069 H   0  0  0  0  0  0  0  0  0  0  0  0
   -0.0012    1.4101    0.0050 C   0  0  0  0  0  0  0  0  0  0  0  0
   -1.2013    0.7011    0.0028 C   0  0  0  0  0  0  0  0  0  0  0  0
   -2.0675    1.1866    0.0013 H   0  0  0  0  0  0  0  0  0  0  0  0
   -1.2087   -0.7033    0.0000 C   0  0  0  0  0  0  0  0  0  0  0  0
   -2.0808   -1.1931    0.0020 H   0  0  0  0  0  0  0  0  0  0  0  0
    0.0030   -1.4022   -0.0041 C   0  0  0  0  0  0  0  0  0  0  0  0
   -0.0007   -2.3979   -0.0107 H   0  0  0  0  0  0  0  0  0  0  0  0
    1.2087   -0.7008    0.0000 C   0  0  0  0  0  0  0  0  0  0  0  0
    2.0884   -1.1959    0.0070 H   0  0  0  0  0  0  0  0  0  0  0  0
    1.1995    0.6951   -0.0037 C   0  0  0  0  0  0  0  0  0  0  0  0
    2.0671    1.1930   -0.0135 H   0  0  0  0  0  0  0  0  0  0  0  0
  1  5  1  0
  5  6  1  0
  5  7  2  0
  1  2  1  0
  1  3  1  0
  1  4  1  0
  8 12  1  0
 12 13  2  0
 13 15  1  0
 15 17  2  0
 17 19  1  0
 19 21  2  0
 21 12  1  0
  8  9  1  0
  8 10  1  0
  8 11  1  0
 13 14  1  0
 15 16  1  0
 17 18  1  0
 19 20  1  0
 21 22  1  0
M  CHG  1   6  -1
M  END
>  <PDB_ID>  (1377) 
pdb3gac

>  <RESIDUE_NAME>  (1377) 
ASP   PHE

>  <FRAG_NAME>  (1377) 
ACET   MBZ

>  <FRAG_ATOM_NUM>  (1377) 
fragi: 7  fragj: 15

>  <atom.prop.CHAIN_ID>  (1377) 
A A A A A A A Z Z Z Z Z Z Z Z Z Z Z Z Z Z Z

>  <atom.prop.IS_HEAVY_ATOM>  (1377) 
1 0 0 0 1 1 1 1 0 0 0 1 1 0 1 0 1 0 1 0 1 0

>  <DIFUSE_FUNC_ATOM>  (1377) 
atom 6   atom 7   

>  <FINAL_SINGLE_POINT_ENERGY>  (1377) 
0

>  <NONCOV_INTER_ENERGY_QM>  (1377) 
0

>  <FF_Energy>  (1377) 
-2.68

>  <QM_Energy>  (1377) 
-7.75

>  <source>  (1377) 
ACET_MBZ_01

>  <Index>  (1377) 
16384

$$$$
ACET-pdb3gas-B-GLU-132:MBZ-pdb3gas-A-PHE-247
     RDKit          3D

 22 21  0  0  0  0  0  0  0  0999 V2000
   -3.7860   -4.0292   -1.9313 C   0  0  0  0  0  0  0  0  0  0  0  0
   -4.3712   -4.7435   -1.6107 H   0  0  0  0  0  0  0  0  0  0  0  0
   -3.0799   -4.3475   -2.5278 H   0  0  0  0  0  0  0  0  0  0  0  0
   -4.3941   -3.3037   -2.4717 H   0  0  0  0  0  0  0  0  0  0  0  0
   -3.1149   -3.4038   -0.7180 C   0  0  0  0  0  0  0  0  0  0  0  0
   -3.7719   -2.5607   -0.0711 O   0  0  0  0  0  1  0  0  0  0  0  0
   -1.9514   -3.7529   -0.4084 O   0  0  0  0  0  0  0  0  0  0  0  0
    0.0022    2.9068   -0.0209 C   0  0  0  0  0  0  0  0  0  0  0  0
    0.9229    3.2158    0.1521 H   0  0  0  0  0  0  0  0  0  0  0  0
   -0.6241    3.2233    0.6726 H   0  0  0  0  0  0  0  0  0  0  0  0
   -0.3168    3.3285   -0.9741 H   0  0  0  0  0  0  0  0  0  0  0  0
    0.0019    1.4036    0.0002 C   0  0  0  0  0  0  0  0  0  0  0  0
   -1.1971    0.6941   -0.0003 C   0  0  0  0  0  0  0  0  0  0  0  0
   -2.0632    1.1850   -0.0026 H   0  0  0  0  0  0  0  0  0  0  0  0
   -1.2026   -0.6981    0.0000 C   0  0  0  0  0  0  0  0  0  0  0  0
   -2.0808   -1.1905    0.0026 H   0  0  0  0  0  0  0  0  0  0  0  0
   -0.0027   -1.3962   -0.0011 C   0  0  0  0  0  0  0  0  0  0  0  0
   -0.0063   -2.3942   -0.0028 H   0  0  0  0  0  0  0  0  0  0  0  0
    1.2026   -0.6996    0.0000 C   0  0  0  0  0  0  0  0  0  0  0  0
    2.0820   -1.1962    0.0018 H   0  0  0  0  0  0  0  0  0  0  0  0
    1.1979    0.6962    0.0011 C   0  0  0  0  0  0  0  0  0  0  0  0
    2.0668    1.1897    0.0018 H   0  0  0  0  0  0  0  0  0  0  0  0
  1  5  1  0
  5  6  1  0
  5  7  2  0
  1  2  1  0
  1  3  1  0
  1  4  1  0
  8 12  1  0
 12 13  2  0
 13 15  1  0
 15 17  2  0
 17 19  1  0
 19 21  2  0
 21 12  1  0
  8  9  1  0
  8 10  1  0
  8 11  1  0
 13 14  1  0
 15 16  1  0
 17 18  1  0
 19 20  1  0
 21 22  1  0
M  CHG  1   6  -1
M  END
>  <PDB_ID>  (1378) 
pdb3gas

>  <RESIDUE_NAME>  (1378) 
GLU   PHE

>  <FRAG_NAME>  (1378) 
ACET   MBZ

>  <FRAG_ATOM_NUM>  (1378) 
fragi: 7  fragj: 15

>  <atom.prop.CHAIN_ID>  (1378) 
A A A A A A A Z Z Z Z Z Z Z Z Z Z Z Z Z Z Z

>  <atom.prop.IS_HEAVY_ATOM>  (1378) 
1 0 0 0 1 1 1 1 0 0 0 1 1 0 1 0 1 0 1 0 1 0

>  <DIFUSE_FUNC_ATOM>  (1378) 
atom 6   atom 7   

>  <FINAL_SINGLE_POINT_ENERGY>  (1378) 
0

>  <NONCOV_INTER_ENERGY_QM>  (1378) 
0

>  <FF_Energy>  (1378) 
0.08

>  <QM_Energy>  (1378) 
-8.39

>  <source>  (1378) 
ACET_MBZ_01

>  <Index>  (1378) 
16449

$$$$
ACET-pdb3gas-E-GLU-132:MBZ-pdb3gas-F-PHE-247
     RDKit          3D

 22 21  0  0  0  0  0  0  0  0999 V2000
   -3.9994   -3.8228   -2.2846 C   0  0  0  0  0  0  0  0  0  0  0  0
   -4.6189   -4.5506   -2.0720 H   0  0  0  0  0  0  0  0  0  0  0  0
   -3.2474   -4.1124   -2.8415 H   0  0  0  0  0  0  0  0  0  0  0  0
   -4.5470   -3.0439   -2.8153 H   0  0  0  0  0  0  0  0  0  0  0  0
   -3.4302   -3.3107   -0.9793 C   0  0  0  0  0  0  0  0  0  0  0  0
   -4.0698   -2.4167   -0.4003 O   0  0  0  0  0  1  0  0  0  0  0  0
   -2.3636   -3.8003   -0.5426 O   0  0  0  0  0  0  0  0  0  0  0  0
    0.0023    2.9039    0.0064 C   0  0  0  0  0  0  0  0  0  0  0  0
    0.9260    3.2090    0.1729 H   0  0  0  0  0  0  0  0  0  0  0  0
   -0.6136    3.2074    0.7165 H   0  0  0  0  0  0  0  0  0  0  0  0
   -0.3305    3.3409   -0.9350 H   0  0  0  0  0  0  0  0  0  0  0  0
    0.0019    1.4020    0.0013 C   0  0  0  0  0  0  0  0  0  0  0  0
   -1.1934    0.6975   -0.0011 C   0  0  0  0  0  0  0  0  0  0  0  0
   -2.0610    1.1876   -0.0054 H   0  0  0  0  0  0  0  0  0  0  0  0
   -1.2029   -0.6973   -0.0000 C   0  0  0  0  0  0  0  0  0  0  0  0
   -2.0838   -1.1841    0.0023 H   0  0  0  0  0  0  0  0  0  0  0  0
   -0.0080   -1.3964    0.0001 C   0  0  0  0  0  0  0  0  0  0  0  0
   -0.0096   -2.3940   -0.0007 H   0  0  0  0  0  0  0  0  0  0  0  0
    1.2029   -0.7000    0.0000 C   0  0  0  0  0  0  0  0  0  0  0  0
    2.0794   -1.2005    0.0017 H   0  0  0  0  0  0  0  0  0  0  0  0
    1.1995    0.6942   -0.0002 C   0  0  0  0  0  0  0  0  0  0  0  0
    2.0675    1.1892   -0.0021 H   0  0  0  0  0  0  0  0  0  0  0  0
  1  5  1  0
  5  6  1  0
  5  7  2  0
  1  2  1  0
  1  3  1  0
  1  4  1  0
  8 12  1  0
 12 13  2  0
 13 15  1  0
 15 17  2  0
 17 19  1  0
 19 21  2  0
 21 12  1  0
  8  9  1  0
  8 10  1  0
  8 11  1  0
 13 14  1  0
 15 16  1  0
 17 18  1  0
 19 20  1  0
 21 22  1  0
M  CHG  1   6  -1
M  END
>  <PDB_ID>  (1379) 
pdb3gas

>  <RESIDUE_NAME>  (1379) 
GLU   PHE

>  <FRAG_NAME>  (1379) 
ACET   MBZ

>  <FRAG_ATOM_NUM>  (1379) 
fragi: 7  fragj: 15

>  <atom.prop.CHAIN_ID>  (1379) 
A A A A A A A Z Z Z Z Z Z Z Z Z Z Z Z Z Z Z

>  <atom.prop.IS_HEAVY_ATOM>  (1379) 
1 0 0 0 1 1 1 1 0 0 0 1 1 0 1 0 1 0 1 0 1 0

>  <DIFUSE_FUNC_ATOM>  (1379) 
atom 6   atom 7   

>  <FINAL_SINGLE_POINT_ENERGY>  (1379) 
0

>  <NONCOV_INTER_ENERGY_QM>  (1379) 
0

>  <FF_Energy>  (1379) 
-2.95

>  <QM_Energy>  (1379) 
-8.28

>  <source>  (1379) 
ACET_MBZ_01

>  <Index>  (1379) 
16463

$$$$
ACET-pdb4c8v-G-GLU-126:MBZ-pdb4c8v-G-PHE-117
     RDKit          3D

 22 21  0  0  0  0  0  0  0  0999 V2000
    3.3572   -1.3760    1.7946 C   0  0  0  0  0  0  0  0  0  0  0  0
    2.3837   -1.1763    1.6908 H   0  0  0  0  0  0  0  0  0  0  0  0
    3.8278   -1.1991    0.9305 H   0  0  0  0  0  0  0  0  0  0  0  0
    3.7580   -0.6872    2.5384 H   0  0  0  0  0  0  0  0  0  0  0  0
    3.4947   -2.8367    2.1002 C   0  0  0  0  0  0  0  0  0  0  0  0
    4.0179   -3.2761    3.1127 O   0  0  0  0  0  1  0  0  0  0  0  0
    3.0229   -3.5554    1.1945 O   0  0  0  0  0  0  0  0  0  0  0  0
    0.0070    2.8978   -0.0311 C   0  0  0  0  0  0  0  0  0  0  0  0
   -0.7931    3.1950   -0.5351 H   0  0  0  0  0  0  0  0  0  0  0  0
    0.8389    3.1882   -0.4852 H   0  0  0  0  0  0  0  0  0  0  0  0
   -0.0215    3.3651    0.9533 H   0  0  0  0  0  0  0  0  0  0  0  0
    0.0006    1.3986    0.0024 C   0  0  0  0  0  0  0  0  0  0  0  0
   -1.2044    0.6930   -0.0018 C   0  0  0  0  0  0  0  0  0  0  0  0
   -2.0656    1.1875   -0.0076 H   0  0  0  0  0  0  0  0  0  0  0  0
   -1.2073   -0.6945   -0.0000 C   0  0  0  0  0  0  0  0  0  0  0  0
   -2.0803   -1.1928   -0.0001 H   0  0  0  0  0  0  0  0  0  0  0  0
   -0.0003   -1.3878    0.0040 C   0  0  0  0  0  0  0  0  0  0  0  0
   -0.0054   -2.3891    0.0088 H   0  0  0  0  0  0  0  0  0  0  0  0
    1.2073   -0.6968   -0.0000 C   0  0  0  0  0  0  0  0  0  0  0  0
    2.0837   -1.2004    0.0014 H   0  0  0  0  0  0  0  0  0  0  0  0
    1.2041    0.6875   -0.0046 C   0  0  0  0  0  0  0  0  0  0  0  0
    2.0686    1.1892   -0.0145 H   0  0  0  0  0  0  0  0  0  0  0  0
  1  5  1  0
  5  6  1  0
  5  7  2  0
  1  2  1  0
  1  3  1  0
  1  4  1  0
  8 12  1  0
 12 13  2  0
 13 15  1  0
 15 17  2  0
 17 19  1  0
 19 21  2  0
 21 12  1  0
  8  9  1  0
  8 10  1  0
  8 11  1  0
 13 14  1  0
 15 16  1  0
 17 18  1  0
 19 20  1  0
 21 22  1  0
M  CHG  1   6  -1
M  END
>  <PDB_ID>  (1380) 
pdb4c8v

>  <RESIDUE_NAME>  (1380) 
GLU   PHE

>  <FRAG_NAME>  (1380) 
ACET   MBZ

>  <FRAG_ATOM_NUM>  (1380) 
fragi: 7  fragj: 15

>  <atom.prop.CHAIN_ID>  (1380) 
A A A A A A A Z Z Z Z Z Z Z Z Z Z Z Z Z Z Z

>  <atom.prop.IS_HEAVY_ATOM>  (1380) 
1 0 0 0 1 1 1 1 0 0 0 1 1 0 1 0 1 0 1 0 1 0

>  <DIFUSE_FUNC_ATOM>  (1380) 
atom 6   atom 7   

>  <FINAL_SINGLE_POINT_ENERGY>  (1380) 
0

>  <NONCOV_INTER_ENERGY_QM>  (1380) 
0

>  <FF_Energy>  (1380) 
22.42

>  <QM_Energy>  (1380) 
3.68

>  <source>  (1380) 
ACET_MBZ_01

>  <Index>  (1380) 
16524

$$$$
ACET-pdb3gcf-G-ASP-363:MBZ-pdb3gcf-G-PHE-360
     RDKit          3D

 22 21  0  0  0  0  0  0  0  0999 V2000
   -4.8206    1.1694   -3.0916 C   0  0  0  0  0  0  0  0  0  0  0  0
   -4.4314    2.0814   -3.0311 H   0  0  0  0  0  0  0  0  0  0  0  0
   -5.8099    1.2153   -3.1526 H   0  0  0  0  0  0  0  0  0  0  0  0
   -4.4493    0.7072   -4.0061 H   0  0  0  0  0  0  0  0  0  0  0  0
   -4.4421    0.3917   -1.8411 C   0  0  0  0  0  0  0  0  0  0  0  0
   -4.5180   -0.8535   -1.8636 O   0  0  0  0  0  1  0  0  0  0  0  0
   -4.0791    1.0304   -0.8313 O   0  0  0  0  0  0  0  0  0  0  0  0
    0.0305    2.9066    0.0817 C   0  0  0  0  0  0  0  0  0  0  0  0
    0.9490    3.2118   -0.1412 H   0  0  0  0  0  0  0  0  0  0  0  0
   -0.2109    3.1730    1.0081 H   0  0  0  0  0  0  0  0  0  0  0  0
   -0.6532    3.4254   -0.5902 H   0  0  0  0  0  0  0  0  0  0  0  0
    0.0012    1.4057    0.0006 C   0  0  0  0  0  0  0  0  0  0  0  0
   -1.1995    0.7004   -0.0008 C   0  0  0  0  0  0  0  0  0  0  0  0
   -2.0633    1.1878   -0.0039 H   0  0  0  0  0  0  0  0  0  0  0  0
   -1.2018   -0.6973   -0.0000 C   0  0  0  0  0  0  0  0  0  0  0  0
   -2.0783   -1.1894    0.0010 H   0  0  0  0  0  0  0  0  0  0  0  0
    0.0020   -1.3970    0.0017 C   0  0  0  0  0  0  0  0  0  0  0  0
   -0.0052   -2.3948    0.0038 H   0  0  0  0  0  0  0  0  0  0  0  0
    1.2018   -0.7011    0.0000 C   0  0  0  0  0  0  0  0  0  0  0  0
    2.0836   -1.1976    0.0010 H   0  0  0  0  0  0  0  0  0  0  0  0
    1.1963    0.6894   -0.0014 C   0  0  0  0  0  0  0  0  0  0  0  0
    2.0663    1.1858   -0.0045 H   0  0  0  0  0  0  0  0  0  0  0  0
  1  5  1  0
  5  6  1  0
  5  7  2  0
  1  2  1  0
  1  3  1  0
  1  4  1  0
  8 12  1  0
 12 13  2  0
 13 15  1  0
 15 17  2  0
 17 19  1  0
 19 21  2  0
 21 12  1  0
  8  9  1  0
  8 10  1  0
  8 11  1  0
 13 14  1  0
 15 16  1  0
 17 18  1  0
 19 20  1  0
 21 22  1  0
M  CHG  1   6  -1
M  END
>  <PDB_ID>  (1381) 
pdb3gcf

>  <RESIDUE_NAME>  (1381) 
ASP   PHE

>  <FRAG_NAME>  (1381) 
ACET   MBZ

>  <FRAG_ATOM_NUM>  (1381) 
fragi: 7  fragj: 15

>  <atom.prop.CHAIN_ID>  (1381) 
A A A A A A A Z Z Z Z Z Z Z Z Z Z Z Z Z Z Z

>  <atom.prop.IS_HEAVY_ATOM>  (1381) 
1 0 0 0 1 1 1 1 0 0 0 1 1 0 1 0 1 0 1 0 1 0

>  <DIFUSE_FUNC_ATOM>  (1381) 
atom 6   atom 7   

>  <FINAL_SINGLE_POINT_ENERGY>  (1381) 
0

>  <NONCOV_INTER_ENERGY_QM>  (1381) 
0

>  <FF_Energy>  (1381) 
-0.55

>  <QM_Energy>  (1381) 
-7.18

>  <source>  (1381) 
ACET_MBZ_01

>  <Index>  (1381) 
16606

$$$$
ACET-pdb3gde-A-GLU-151:MBZ-pdb3gde-A-PHE-3
     RDKit          3D

 22 21  0  0  0  0  0  0  0  0999 V2000
   -4.1517    2.8429    0.0814 C   0  0  0  0  0  0  0  0  0  0  0  0
   -3.2406    2.5082   -0.0906 H   0  0  0  0  0  0  0  0  0  0  0  0
   -4.6667    2.9495   -0.7528 H   0  0  0  0  0  0  0  0  0  0  0  0
   -4.6711    2.1435    0.7365 H   0  0  0  0  0  0  0  0  0  0  0  0
   -3.9995    4.2453    0.6871 C   0  0  0  0  0  0  0  0  0  0  0  0
   -4.7750    4.6109    1.5941 O   0  0  0  0  0  1  0  0  0  0  0  0
   -3.1011    4.9919    0.2443 O   0  0  0  0  0  0  0  0  0  0  0  0
   -0.0010    2.9194    0.0024 C   0  0  0  0  0  0  0  0  0  0  0  0
    0.7628    3.2221    0.5514 H   0  0  0  0  0  0  0  0  0  0  0  0
   -0.8611    3.2247    0.3806 H   0  0  0  0  0  0  0  0  0  0  0  0
    0.1038    3.3639   -0.9873 H   0  0  0  0  0  0  0  0  0  0  0  0
   -0.0042    1.4095    0.0013 C   0  0  0  0  0  0  0  0  0  0  0  0
   -1.2006    0.7026    0.0072 C   0  0  0  0  0  0  0  0  0  0  0  0
   -2.0685    1.1891    0.0152 H   0  0  0  0  0  0  0  0  0  0  0  0
   -1.2100   -0.7006    0.0000 C   0  0  0  0  0  0  0  0  0  0  0  0
   -2.0805   -1.1922   -0.0016 H   0  0  0  0  0  0  0  0  0  0  0  0
    0.0065   -1.4057   -0.0033 C   0  0  0  0  0  0  0  0  0  0  0  0
   -0.0001   -2.3990   -0.0084 H   0  0  0  0  0  0  0  0  0  0  0  0
    1.2100   -0.7005    0.0000 C   0  0  0  0  0  0  0  0  0  0  0  0
    2.0917   -1.1939    0.0074 H   0  0  0  0  0  0  0  0  0  0  0  0
    1.1983    0.6948   -0.0052 C   0  0  0  0  0  0  0  0  0  0  0  0
    2.0648    1.1945   -0.0145 H   0  0  0  0  0  0  0  0  0  0  0  0
  1  5  1  0
  5  6  1  0
  5  7  2  0
  1  2  1  0
  1  3  1  0
  1  4  1  0
  8 12  1  0
 12 13  2  0
 13 15  1  0
 15 17  2  0
 17 19  1  0
 19 21  2  0
 21 12  1  0
  8  9  1  0
  8 10  1  0
  8 11  1  0
 13 14  1  0
 15 16  1  0
 17 18  1  0
 19 20  1  0
 21 22  1  0
M  CHG  1   6  -1
M  END
>  <PDB_ID>  (1382) 
pdb3gde

>  <RESIDUE_NAME>  (1382) 
GLU   PHE

>  <FRAG_NAME>  (1382) 
ACET   MBZ

>  <FRAG_ATOM_NUM>  (1382) 
fragi: 7  fragj: 15

>  <atom.prop.CHAIN_ID>  (1382) 
A A A A A A A Z Z Z Z Z Z Z Z Z Z Z Z Z Z Z

>  <atom.prop.IS_HEAVY_ATOM>  (1382) 
1 0 0 0 1 1 1 1 0 0 0 1 1 0 1 0 1 0 1 0 1 0

>  <DIFUSE_FUNC_ATOM>  (1382) 
atom 6   atom 7   

>  <FINAL_SINGLE_POINT_ENERGY>  (1382) 
0

>  <NONCOV_INTER_ENERGY_QM>  (1382) 
0

>  <FF_Energy>  (1382) 
2.26

>  <QM_Energy>  (1382) 
-3.43

>  <source>  (1382) 
ACET_MBZ_01

>  <Index>  (1382) 
16662

$$$$
ACET-pdb4cil-A-GLU-75:MBZ-pdb4cil-A-PHE-104
     RDKit          3D

 22 21  0  0  0  0  0  0  0  0999 V2000
    4.2597   -1.4418   -0.5251 C   0  0  0  0  0  0  0  0  0  0  0  0
    4.6175   -0.5600   -0.3110 H   0  0  0  0  0  0  0  0  0  0  0  0
    3.4137   -1.4112   -1.0107 H   0  0  0  0  0  0  0  0  0  0  0  0
    4.9946   -2.0092   -1.0962 H   0  0  0  0  0  0  0  0  0  0  0  0
    3.9854   -2.1401    0.7961 C   0  0  0  0  0  0  0  0  0  0  0  0
    3.1029   -3.0462    0.7993 O   0  0  0  0  0  1  0  0  0  0  0  0
    4.6529   -1.7384    1.7890 O   0  0  0  0  0  0  0  0  0  0  0  0
   -0.0261    2.9113    0.0309 C   0  0  0  0  0  0  0  0  0  0  0  0
    0.8820    3.2229    0.2395 H   0  0  0  0  0  0  0  0  0  0  0  0
   -0.6844    3.2016    0.7009 H   0  0  0  0  0  0  0  0  0  0  0  0
   -0.3147    3.3429   -0.9276 H   0  0  0  0  0  0  0  0  0  0  0  0
   -0.0087    1.3928    0.0206 C   0  0  0  0  0  0  0  0  0  0  0  0
   -1.1708    0.7017    0.0043 C   0  0  0  0  0  0  0  0  0  0  0  0
   -2.0531    1.1786   -0.0062 H   0  0  0  0  0  0  0  0  0  0  0  0
   -1.1764   -0.6911    0.0000 C   0  0  0  0  0  0  0  0  0  0  0  0
   -2.0638   -1.1763    0.0309 H   0  0  0  0  0  0  0  0  0  0  0  0
    0.0045   -1.3892   -0.0430 C   0  0  0  0  0  0  0  0  0  0  0  0
   -0.0069   -2.3872   -0.1055 H   0  0  0  0  0  0  0  0  0  0  0  0
    1.1764   -0.7007    0.0000 C   0  0  0  0  0  0  0  0  0  0  0  0
    2.0709   -1.1907    0.0212 H   0  0  0  0  0  0  0  0  0  0  0  0
    1.1750    0.6864    0.0180 C   0  0  0  0  0  0  0  0  0  0  0  0
    2.0491    1.1780    0.0282 H   0  0  0  0  0  0  0  0  0  0  0  0
  1  5  1  0
  5  6  1  0
  5  7  2  0
  1  2  1  0
  1  3  1  0
  1  4  1  0
  8 12  1  0
 12 13  2  0
 13 15  1  0
 15 17  2  0
 17 19  1  0
 19 21  2  0
 21 12  1  0
  8  9  1  0
  8 10  1  0
  8 11  1  0
 13 14  1  0
 15 16  1  0
 17 18  1  0
 19 20  1  0
 21 22  1  0
M  CHG  1   6  -1
M  END
>  <PDB_ID>  (1383) 
pdb4cil

>  <RESIDUE_NAME>  (1383) 
GLU   PHE

>  <FRAG_NAME>  (1383) 
ACET   MBZ

>  <FRAG_ATOM_NUM>  (1383) 
fragi: 7  fragj: 15

>  <atom.prop.CHAIN_ID>  (1383) 
A A A A A A A Z Z Z Z Z Z Z Z Z Z Z Z Z Z Z

>  <atom.prop.IS_HEAVY_ATOM>  (1383) 
1 0 0 0 1 1 1 1 0 0 0 1 1 0 1 0 1 0 1 0 1 0

>  <DIFUSE_FUNC_ATOM>  (1383) 
atom 6   atom 7   

>  <FINAL_SINGLE_POINT_ENERGY>  (1383) 
0

>  <NONCOV_INTER_ENERGY_QM>  (1383) 
0

>  <FF_Energy>  (1383) 
14.79

>  <QM_Energy>  (1383) 
-1.27

>  <source>  (1383) 
ACET_MBZ_01

>  <Index>  (1383) 
16679

$$$$
ACET-pdb3geb-C-ASP-276:MBZ-pdb3geb-C-PHE-282
     RDKit          3D

 22 21  0  0  0  0  0  0  0  0999 V2000
    4.4505    5.8316   -0.4512 C   0  0  0  0  0  0  0  0  0  0  0  0
    5.3482    5.7049   -0.8576 H   0  0  0  0  0  0  0  0  0  0  0  0
    4.5330    6.1001    0.5010 H   0  0  0  0  0  0  0  0  0  0  0  0
    3.9537    6.6416   -0.9853 H   0  0  0  0  0  0  0  0  0  0  0  0
    3.6849    4.5401   -0.5346 C   0  0  0  0  0  0  0  0  0  0  0  0
    3.9353    3.7554   -1.4809 O   0  0  0  0  0  1  0  0  0  0  0  0
    2.8117    4.3260    0.3414 O   0  0  0  0  0  0  0  0  0  0  0  0
   -0.0068    2.8948    0.1280 C   0  0  0  0  0  0  0  0  0  0  0  0
   -0.5266    3.2665   -0.6242 H   0  0  0  0  0  0  0  0  0  0  0  0
    0.9276    3.2108    0.1174 H   0  0  0  0  0  0  0  0  0  0  0  0
   -0.4645    3.2464    1.0527 H   0  0  0  0  0  0  0  0  0  0  0  0
    0.0002    1.4037    0.0022 C   0  0  0  0  0  0  0  0  0  0  0  0
   -1.2019    0.6925   -0.0032 C   0  0  0  0  0  0  0  0  0  0  0  0
   -2.0668    1.1835   -0.0107 H   0  0  0  0  0  0  0  0  0  0  0  0
   -1.2097   -0.7028    0.0000 C   0  0  0  0  0  0  0  0  0  0  0  0
   -2.0807   -1.1971    0.0008 H   0  0  0  0  0  0  0  0  0  0  0  0
    0.0026   -1.4004    0.0048 C   0  0  0  0  0  0  0  0  0  0  0  0
    0.0037   -2.3947    0.0111 H   0  0  0  0  0  0  0  0  0  0  0  0
    1.2097   -0.6924   -0.0000 C   0  0  0  0  0  0  0  0  0  0  0  0
    2.0894   -1.1893    0.0014 H   0  0  0  0  0  0  0  0  0  0  0  0
    1.1992    0.6994   -0.0038 C   0  0  0  0  0  0  0  0  0  0  0  0
    2.0657    1.1987   -0.0121 H   0  0  0  0  0  0  0  0  0  0  0  0
  1  5  1  0
  5  6  1  0
  5  7  2  0
  1  2  1  0
  1  3  1  0
  1  4  1  0
  8 12  1  0
 12 13  2  0
 13 15  1  0
 15 17  2  0
 17 19  1  0
 19 21  2  0
 21 12  1  0
  8  9  1  0
  8 10  1  0
  8 11  1  0
 13 14  1  0
 15 16  1  0
 17 18  1  0
 19 20  1  0
 21 22  1  0
M  CHG  1   6  -1
M  END
>  <PDB_ID>  (1384) 
pdb3geb

>  <RESIDUE_NAME>  (1384) 
ASP   PHE

>  <FRAG_NAME>  (1384) 
ACET   MBZ

>  <FRAG_ATOM_NUM>  (1384) 
fragi: 7  fragj: 15

>  <atom.prop.CHAIN_ID>  (1384) 
A A A A A A A Z Z Z Z Z Z Z Z Z Z Z Z Z Z Z

>  <atom.prop.IS_HEAVY_ATOM>  (1384) 
1 0 0 0 1 1 1 1 0 0 0 1 1 0 1 0 1 0 1 0 1 0

>  <DIFUSE_FUNC_ATOM>  (1384) 
atom 6   atom 7   

>  <FINAL_SINGLE_POINT_ENERGY>  (1384) 
0

>  <NONCOV_INTER_ENERGY_QM>  (1384) 
0

>  <FF_Energy>  (1384) 
-0.43

>  <QM_Energy>  (1384) 
-7.58

>  <source>  (1384) 
ACET_MBZ_01

>  <Index>  (1384) 
16764

$$$$
ACET-pdb3geb-D-ASP-276:MBZ-pdb3geb-D-PHE-282
     RDKit          3D

 22 21  0  0  0  0  0  0  0  0999 V2000
    4.7596    5.5361    0.7813 C   0  0  0  0  0  0  0  0  0  0  0  0
    5.7243    5.3441    0.6529 H   0  0  0  0  0  0  0  0  0  0  0  0
    4.5650    5.7422    1.7314 H   0  0  0  0  0  0  0  0  0  0  0  0
    4.5081    6.4141    0.1863 H   0  0  0  0  0  0  0  0  0  0  0  0
    3.9590    4.3109    0.3731 C   0  0  0  0  0  0  0  0  0  0  0  0
    4.4243    3.5286   -0.4906 O   0  0  0  0  0  1  0  0  0  0  0  0
    2.8449    4.1423    0.9160 O   0  0  0  0  0  0  0  0  0  0  0  0
   -0.0086    2.8952    0.0797 C   0  0  0  0  0  0  0  0  0  0  0  0
   -0.4366    3.2430   -0.7386 H   0  0  0  0  0  0  0  0  0  0  0  0
    0.9240    3.2074    0.1645 H   0  0  0  0  0  0  0  0  0  0  0  0
   -0.5653    3.2808    0.9337 H   0  0  0  0  0  0  0  0  0  0  0  0
    0.0033    1.3960    0.0018 C   0  0  0  0  0  0  0  0  0  0  0  0
   -1.1933    0.6769   -0.0020 C   0  0  0  0  0  0  0  0  0  0  0  0
   -2.0611    1.1716   -0.0074 H   0  0  0  0  0  0  0  0  0  0  0  0
   -1.1952   -0.7028   -0.0000 C   0  0  0  0  0  0  0  0  0  0  0  0
   -2.0745   -1.1983    0.0013 H   0  0  0  0  0  0  0  0  0  0  0  0
   -0.0059   -1.3836    0.0019 C   0  0  0  0  0  0  0  0  0  0  0  0
    0.0012   -2.3872    0.0043 H   0  0  0  0  0  0  0  0  0  0  0  0
    1.1952   -0.6869   -0.0000 C   0  0  0  0  0  0  0  0  0  0  0  0
    2.0767   -1.1889    0.0016 H   0  0  0  0  0  0  0  0  0  0  0  0
    1.1959    0.7004   -0.0018 C   0  0  0  0  0  0  0  0  0  0  0  0
    2.0629    1.1948   -0.0063 H   0  0  0  0  0  0  0  0  0  0  0  0
  1  5  1  0
  5  6  1  0
  5  7  2  0
  1  2  1  0
  1  3  1  0
  1  4  1  0
  8 12  1  0
 12 13  2  0
 13 15  1  0
 15 17  2  0
 17 19  1  0
 19 21  2  0
 21 12  1  0
  8  9  1  0
  8 10  1  0
  8 11  1  0
 13 14  1  0
 15 16  1  0
 17 18  1  0
 19 20  1  0
 21 22  1  0
M  CHG  1   6  -1
M  END
>  <PDB_ID>  (1385) 
pdb3geb

>  <RESIDUE_NAME>  (1385) 
ASP   PHE

>  <FRAG_NAME>  (1385) 
ACET   MBZ

>  <FRAG_ATOM_NUM>  (1385) 
fragi: 7  fragj: 15

>  <atom.prop.CHAIN_ID>  (1385) 
A A A A A A A Z Z Z Z Z Z Z Z Z Z Z Z Z Z Z

>  <atom.prop.IS_HEAVY_ATOM>  (1385) 
1 0 0 0 1 1 1 1 0 0 0 1 1 0 1 0 1 0 1 0 1 0

>  <DIFUSE_FUNC_ATOM>  (1385) 
atom 6   atom 7   

>  <FINAL_SINGLE_POINT_ENERGY>  (1385) 
0

>  <NONCOV_INTER_ENERGY_QM>  (1385) 
0

>  <FF_Energy>  (1385) 
-1.26

>  <QM_Energy>  (1385) 
-7.94

>  <source>  (1385) 
ACET_MBZ_01

>  <Index>  (1385) 
16768

$$$$
ACET-pdb3geb-D-ASP-340:MBZ-pdb3geb-D-PHE-382
     RDKit          3D

 22 21  0  0  0  0  0  0  0  0999 V2000
    5.3856   -0.9402    1.9023 C   0  0  0  0  0  0  0  0  0  0  0  0
    5.6695   -0.1297    2.4007 H   0  0  0  0  0  0  0  0  0  0  0  0
    6.1698   -1.5118    1.6915 H   0  0  0  0  0  0  0  0  0  0  0  0
    4.7130   -1.5118    2.5418 H   0  0  0  0  0  0  0  0  0  0  0  0
    4.7324   -0.5076    0.6008 C   0  0  0  0  0  0  0  0  0  0  0  0
    3.8133    0.3328    0.6527 O   0  0  0  0  0  1  0  0  0  0  0  0
    5.1316   -1.0059   -0.4728 O   0  0  0  0  0  0  0  0  0  0  0  0
   -0.0062    2.9274   -0.0118 C   0  0  0  0  0  0  0  0  0  0  0  0
   -0.5684    3.2333    0.7410 H   0  0  0  0  0  0  0  0  0  0  0  0
   -0.3734    3.2220   -0.8807 H   0  0  0  0  0  0  0  0  0  0  0  0
    0.9785    3.3806    0.1031 H   0  0  0  0  0  0  0  0  0  0  0  0
    0.0007    1.4119   -0.0003 C   0  0  0  0  0  0  0  0  0  0  0  0
   -1.1999    0.6992    0.0001 C   0  0  0  0  0  0  0  0  0  0  0  0
   -2.0669    1.1862   -0.0005 H   0  0  0  0  0  0  0  0  0  0  0  0
   -1.2068   -0.7029   -0.0000 C   0  0  0  0  0  0  0  0  0  0  0  0
   -2.0820   -1.1923    0.0011 H   0  0  0  0  0  0  0  0  0  0  0  0
   -0.0001   -1.4032    0.0007 C   0  0  0  0  0  0  0  0  0  0  0  0
   -0.0025   -2.3981    0.0009 H   0  0  0  0  0  0  0  0  0  0  0  0
    1.2068   -0.7010    0.0000 C   0  0  0  0  0  0  0  0  0  0  0  0
    2.0867   -1.1964    0.0014 H   0  0  0  0  0  0  0  0  0  0  0  0
    1.1993    0.6960   -0.0005 C   0  0  0  0  0  0  0  0  0  0  0  0
    2.0682    1.1913   -0.0015 H   0  0  0  0  0  0  0  0  0  0  0  0
  1  5  1  0
  5  6  1  0
  5  7  2  0
  1  2  1  0
  1  3  1  0
  1  4  1  0
  8 12  1  0
 12 13  2  0
 13 15  1  0
 15 17  2  0
 17 19  1  0
 19 21  2  0
 21 12  1  0
  8  9  1  0
  8 10  1  0
  8 11  1  0
 13 14  1  0
 15 16  1  0
 17 18  1  0
 19 20  1  0
 21 22  1  0
M  CHG  1   6  -1
M  END
>  <PDB_ID>  (1386) 
pdb3geb

>  <RESIDUE_NAME>  (1386) 
ASP   PHE

>  <FRAG_NAME>  (1386) 
ACET   MBZ

>  <FRAG_ATOM_NUM>  (1386) 
fragi: 7  fragj: 15

>  <atom.prop.CHAIN_ID>  (1386) 
A A A A A A A Z Z Z Z Z Z Z Z Z Z Z Z Z Z Z

>  <atom.prop.IS_HEAVY_ATOM>  (1386) 
1 0 0 0 1 1 1 1 0 0 0 1 1 0 1 0 1 0 1 0 1 0

>  <DIFUSE_FUNC_ATOM>  (1386) 
atom 6   atom 7   

>  <FINAL_SINGLE_POINT_ENERGY>  (1386) 
0

>  <NONCOV_INTER_ENERGY_QM>  (1386) 
0

>  <FF_Energy>  (1386) 
6.4

>  <QM_Energy>  (1386) 
-4.98

>  <source>  (1386) 
ACET_MBZ_01

>  <Index>  (1386) 
16795

$$$$
ACET-pdb3geb-B-ASP-317:MBZ-pdb3geb-B-PHE-322
     RDKit          3D

 22 21  0  0  0  0  0  0  0  0999 V2000
    4.2375    4.6942   -0.1251 C   0  0  0  0  0  0  0  0  0  0  0  0
    4.8702    4.7075   -0.8919 H   0  0  0  0  0  0  0  0  0  0  0  0
    4.5589    5.2899    0.6019 H   0  0  0  0  0  0  0  0  0  0  0  0
    3.2780    5.0763   -0.4740 H   0  0  0  0  0  0  0  0  0  0  0  0
    4.1514    3.2728    0.4104 C   0  0  0  0  0  0  0  0  0  0  0  0
    3.0937    2.9156    0.9757 O   0  0  0  0  0  1  0  0  0  0  0  0
    5.1518    2.5184    0.2869 O   0  0  0  0  0  0  0  0  0  0  0  0
   -0.0032    2.9143   -0.0137 C   0  0  0  0  0  0  0  0  0  0  0  0
   -0.2278    3.2079   -0.9291 H   0  0  0  0  0  0  0  0  0  0  0  0
    0.8949    3.2224    0.2569 H   0  0  0  0  0  0  0  0  0  0  0  0
   -0.7290    3.3563    0.6688 H   0  0  0  0  0  0  0  0  0  0  0  0
    0.0008    1.4036    0.0002 C   0  0  0  0  0  0  0  0  0  0  0  0
   -1.1985    0.6902   -0.0009 C   0  0  0  0  0  0  0  0  0  0  0  0
   -2.0650    1.1809   -0.0035 H   0  0  0  0  0  0  0  0  0  0  0  0
   -1.2028   -0.7011   -0.0000 C   0  0  0  0  0  0  0  0  0  0  0  0
   -2.0788   -1.1953    0.0019 H   0  0  0  0  0  0  0  0  0  0  0  0
   -0.0009   -1.3942    0.0000 C   0  0  0  0  0  0  0  0  0  0  0  0
   -0.0009   -2.3926   -0.0003 H   0  0  0  0  0  0  0  0  0  0  0  0
    1.2028   -0.6940    0.0000 C   0  0  0  0  0  0  0  0  0  0  0  0
    2.0829   -1.1933    0.0013 H   0  0  0  0  0  0  0  0  0  0  0  0
    1.1986    0.6954    0.0006 C   0  0  0  0  0  0  0  0  0  0  0  0
    2.0661    1.1922    0.0005 H   0  0  0  0  0  0  0  0  0  0  0  0
  1  5  1  0
  5  6  1  0
  5  7  2  0
  1  2  1  0
  1  3  1  0
  1  4  1  0
  8 12  1  0
 12 13  2  0
 13 15  1  0
 15 17  2  0
 17 19  1  0
 19 21  2  0
 21 12  1  0
  8  9  1  0
  8 10  1  0
  8 11  1  0
 13 14  1  0
 15 16  1  0
 17 18  1  0
 19 20  1  0
 21 22  1  0
M  CHG  1   6  -1
M  END
>  <PDB_ID>  (1387) 
pdb3geb

>  <RESIDUE_NAME>  (1387) 
ASP   PHE

>  <FRAG_NAME>  (1387) 
ACET   MBZ

>  <FRAG_ATOM_NUM>  (1387) 
fragi: 7  fragj: 15

>  <atom.prop.CHAIN_ID>  (1387) 
A A A A A A A Z Z Z Z Z Z Z Z Z Z Z Z Z Z Z

>  <atom.prop.IS_HEAVY_ATOM>  (1387) 
1 0 0 0 1 1 1 1 0 0 0 1 1 0 1 0 1 0 1 0 1 0

>  <DIFUSE_FUNC_ATOM>  (1387) 
atom 6   atom 7   

>  <FINAL_SINGLE_POINT_ENERGY>  (1387) 
0

>  <NONCOV_INTER_ENERGY_QM>  (1387) 
0

>  <FF_Energy>  (1387) 
-0.11

>  <QM_Energy>  (1387) 
-8.25

>  <source>  (1387) 
ACET_MBZ_01

>  <Index>  (1387) 
16903

$$$$
ACET-pdb3gff-B-GLU-123:MBZ-pdb3gff-B-PHE-119
     RDKit          3D

 22 21  0  0  0  0  0  0  0  0999 V2000
   -5.0488    2.7835    1.9430 C   0  0  0  0  0  0  0  0  0  0  0  0
   -6.0045    2.5649    2.0260 H   0  0  0  0  0  0  0  0  0  0  0  0
   -4.8097    3.5931    2.4498 H   0  0  0  0  0  0  0  0  0  0  0  0
   -4.4727    1.9482    2.3411 H   0  0  0  0  0  0  0  0  0  0  0  0
   -4.7646    3.0551    0.4827 C   0  0  0  0  0  0  0  0  0  0  0  0
   -3.6783    2.7197   -0.0303 O   0  0  0  0  0  1  0  0  0  0  0  0
   -5.6189    3.6437   -0.1471 O   0  0  0  0  0  0  0  0  0  0  0  0
    0.0196    2.8915   -0.0009 C   0  0  0  0  0  0  0  0  0  0  0  0
   -0.6444    3.2091   -0.6617 H   0  0  0  0  0  0  0  0  0  0  0  0
    0.9318    3.1921   -0.2374 H   0  0  0  0  0  0  0  0  0  0  0  0
   -0.2332    3.3461    0.9570 H   0  0  0  0  0  0  0  0  0  0  0  0
    0.0022    1.3927    0.0044 C   0  0  0  0  0  0  0  0  0  0  0  0
   -1.1733    0.6901   -0.0145 C   0  0  0  0  0  0  0  0  0  0  0  0
   -2.0475    1.1746   -0.0406 H   0  0  0  0  0  0  0  0  0  0  0  0
   -1.1642   -0.6819    0.0000 C   0  0  0  0  0  0  0  0  0  0  0  0
   -2.0647   -1.1718    0.0013 H   0  0  0  0  0  0  0  0  0  0  0  0
   -0.0131   -1.3650    0.0139 C   0  0  0  0  0  0  0  0  0  0  0  0
   -0.0267   -2.3808    0.0343 H   0  0  0  0  0  0  0  0  0  0  0  0
    1.1642   -0.7098   -0.0000 C   0  0  0  0  0  0  0  0  0  0  0  0
    2.0509   -1.2131   -0.0063 H   0  0  0  0  0  0  0  0  0  0  0  0
    1.1843    0.6739   -0.0039 C   0  0  0  0  0  0  0  0  0  0  0  0
    2.0595    1.1573   -0.0137 H   0  0  0  0  0  0  0  0  0  0  0  0
  1  5  1  0
  5  6  1  0
  5  7  2  0
  1  2  1  0
  1  3  1  0
  1  4  1  0
  8 12  1  0
 12 13  2  0
 13 15  1  0
 15 17  2  0
 17 19  1  0
 19 21  2  0
 21 12  1  0
  8  9  1  0
  8 10  1  0
  8 11  1  0
 13 14  1  0
 15 16  1  0
 17 18  1  0
 19 20  1  0
 21 22  1  0
M  CHG  1   6  -1
M  END
>  <PDB_ID>  (1388) 
pdb3gff

>  <RESIDUE_NAME>  (1388) 
GLU   PHE

>  <FRAG_NAME>  (1388) 
ACET   MBZ

>  <FRAG_ATOM_NUM>  (1388) 
fragi: 7  fragj: 15

>  <atom.prop.CHAIN_ID>  (1388) 
A A A A A A A Z Z Z Z Z Z Z Z Z Z Z Z Z Z Z

>  <atom.prop.IS_HEAVY_ATOM>  (1388) 
1 0 0 0 1 1 1 1 0 0 0 1 1 0 1 0 1 0 1 0 1 0

>  <DIFUSE_FUNC_ATOM>  (1388) 
atom 6   atom 7   

>  <FINAL_SINGLE_POINT_ENERGY>  (1388) 
0

>  <NONCOV_INTER_ENERGY_QM>  (1388) 
0

>  <FF_Energy>  (1388) 
-1.15

>  <QM_Energy>  (1388) 
-7.53

>  <source>  (1388) 
ACET_MBZ_01

>  <Index>  (1388) 
16908

$$$$
ACET-pdb4cq1-A-GLU-468:MBZ-pdb4cq1-A-PHE-485
     RDKit          3D

 22 21  0  0  0  0  0  0  0  0999 V2000
   -1.7511    0.4673    2.9803 C   0  0  0  0  0  0  0  0  0  0  0  0
   -1.0756    0.9109    3.5397 H   0  0  0  0  0  0  0  0  0  0  0  0
   -1.3862    0.1789    2.1138 H   0  0  0  0  0  0  0  0  0  0  0  0
   -2.1148   -0.4119    3.5122 H   0  0  0  0  0  0  0  0  0  0  0  0
   -2.8478    1.4719    2.7030 C   0  0  0  0  0  0  0  0  0  0  0  0
   -4.0323    1.0814    2.6142 O   0  0  0  0  0  1  0  0  0  0  0  0
   -2.5189    2.6672    2.5994 O   0  0  0  0  0  0  0  0  0  0  0  0
    0.0030    2.8938   -0.1152 C   0  0  0  0  0  0  0  0  0  0  0  0
    0.8426    3.2247    0.2843 H   0  0  0  0  0  0  0  0  0  0  0  0
   -0.7886    3.2377    0.3631 H   0  0  0  0  0  0  0  0  0  0  0  0
   -0.0438    3.2597   -1.1409 H   0  0  0  0  0  0  0  0  0  0  0  0
   -0.0041    1.3951   -0.0153 C   0  0  0  0  0  0  0  0  0  0  0  0
   -1.1874    0.6881   -0.0129 C   0  0  0  0  0  0  0  0  0  0  0  0
   -2.0599    1.1764   -0.0216 H   0  0  0  0  0  0  0  0  0  0  0  0
   -1.1915   -0.6954    0.0000 C   0  0  0  0  0  0  0  0  0  0  0  0
   -2.0696   -1.1903   -0.0123 H   0  0  0  0  0  0  0  0  0  0  0  0
    0.0024   -1.3845    0.0316 C   0  0  0  0  0  0  0  0  0  0  0  0
    0.0001   -2.3847    0.0768 H   0  0  0  0  0  0  0  0  0  0  0  0
    1.1915   -0.6911   -0.0000 C   0  0  0  0  0  0  0  0  0  0  0  0
    2.0777   -1.1913   -0.0194 H   0  0  0  0  0  0  0  0  0  0  0  0
    1.1891    0.6877   -0.0034 C   0  0  0  0  0  0  0  0  0  0  0  0
    2.0576    1.1875    0.0025 H   0  0  0  0  0  0  0  0  0  0  0  0
  1  5  1  0
  5  6  1  0
  5  7  2  0
  1  2  1  0
  1  3  1  0
  1  4  1  0
  8 12  1  0
 12 13  2  0
 13 15  1  0
 15 17  2  0
 17 19  1  0
 19 21  2  0
 21 12  1  0
  8  9  1  0
  8 10  1  0
  8 11  1  0
 13 14  1  0
 15 16  1  0
 17 18  1  0
 19 20  1  0
 21 22  1  0
M  CHG  1   6  -1
M  END
>  <PDB_ID>  (1389) 
pdb4cq1

>  <RESIDUE_NAME>  (1389) 
GLU   PHE

>  <FRAG_NAME>  (1389) 
ACET   MBZ

>  <FRAG_ATOM_NUM>  (1389) 
fragi: 7  fragj: 15

>  <atom.prop.CHAIN_ID>  (1389) 
A A A A A A A Z Z Z Z Z Z Z Z Z Z Z Z Z Z Z

>  <atom.prop.IS_HEAVY_ATOM>  (1389) 
1 0 0 0 1 1 1 1 0 0 0 1 1 0 1 0 1 0 1 0 1 0

>  <DIFUSE_FUNC_ATOM>  (1389) 
atom 6   atom 7   

>  <FINAL_SINGLE_POINT_ENERGY>  (1389) 
0

>  <NONCOV_INTER_ENERGY_QM>  (1389) 
0

>  <FF_Energy>  (1389) 
34.99

>  <QM_Energy>  (1389) 
-1.91

>  <source>  (1389) 
ACET_MBZ_01

>  <Index>  (1389) 
16964

$$$$
ACET-pdb4cq1-H-ASP-424:MBZ-pdb4cq1-C-PHE-488
     RDKit          3D

 22 21  0  0  0  0  0  0  0  0999 V2000
   -5.2613    0.7929    2.3018 C   0  0  0  0  0  0  0  0  0  0  0  0
   -6.1849    0.8544    1.9417 H   0  0  0  0  0  0  0  0  0  0  0  0
   -5.0794    1.5421    2.9264 H   0  0  0  0  0  0  0  0  0  0  0  0
   -5.1771   -0.1402    2.8589 H   0  0  0  0  0  0  0  0  0  0  0  0
   -4.2827    0.8698    1.1482 C   0  0  0  0  0  0  0  0  0  0  0  0
   -4.2144   -0.0997    0.3621 O   0  0  0  0  0  1  0  0  0  0  0  0
   -3.5903    1.9028    1.0237 O   0  0  0  0  0  0  0  0  0  0  0  0
   -0.0021    2.8969    0.0256 C   0  0  0  0  0  0  0  0  0  0  0  0
    0.9364    3.2037    0.0794 H   0  0  0  0  0  0  0  0  0  0  0  0
   -0.5222    3.1916    0.8133 H   0  0  0  0  0  0  0  0  0  0  0  0
   -0.4510    3.3485   -0.8590 H   0  0  0  0  0  0  0  0  0  0  0  0
   -0.0005    1.3964    0.0041 C   0  0  0  0  0  0  0  0  0  0  0  0
   -1.1904    0.6893   -0.0019 C   0  0  0  0  0  0  0  0  0  0  0  0
   -2.0600    1.1811   -0.0096 H   0  0  0  0  0  0  0  0  0  0  0  0
   -1.1951   -0.6931    0.0000 C   0  0  0  0  0  0  0  0  0  0  0  0
   -2.0738   -1.1879    0.0055 H   0  0  0  0  0  0  0  0  0  0  0  0
   -0.0007   -1.3856   -0.0041 C   0  0  0  0  0  0  0  0  0  0  0  0
   -0.0050   -2.3874   -0.0101 H   0  0  0  0  0  0  0  0  0  0  0  0
    1.1951   -0.6947   -0.0000 C   0  0  0  0  0  0  0  0  0  0  0  0
    2.0775   -1.1948    0.0032 H   0  0  0  0  0  0  0  0  0  0  0  0
    1.1916    0.6877    0.0020 C   0  0  0  0  0  0  0  0  0  0  0  0
    2.0621    1.1863    0.0010 H   0  0  0  0  0  0  0  0  0  0  0  0
  1  5  1  0
  5  6  1  0
  5  7  2  0
  1  2  1  0
  1  3  1  0
  1  4  1  0
  8 12  1  0
 12 13  2  0
 13 15  1  0
 15 17  2  0
 17 19  1  0
 19 21  2  0
 21 12  1  0
  8  9  1  0
  8 10  1  0
  8 11  1  0
 13 14  1  0
 15 16  1  0
 17 18  1  0
 19 20  1  0
 21 22  1  0
M  CHG  1   6  -1
M  END
>  <PDB_ID>  (1390) 
pdb4cq1

>  <RESIDUE_NAME>  (1390) 
ASP   PHE

>  <FRAG_NAME>  (1390) 
ACET   MBZ

>  <FRAG_ATOM_NUM>  (1390) 
fragi: 7  fragj: 15

>  <atom.prop.CHAIN_ID>  (1390) 
A A A A A A A Z Z Z Z Z Z Z Z Z Z Z Z Z Z Z

>  <atom.prop.IS_HEAVY_ATOM>  (1390) 
1 0 0 0 1 1 1 1 0 0 0 1 1 0 1 0 1 0 1 0 1 0

>  <DIFUSE_FUNC_ATOM>  (1390) 
atom 6   atom 7   

>  <FINAL_SINGLE_POINT_ENERGY>  (1390) 
0

>  <NONCOV_INTER_ENERGY_QM>  (1390) 
0

>  <FF_Energy>  (1390) 
8.0

>  <QM_Energy>  (1390) 
-7.78

>  <source>  (1390) 
ACET_MBZ_01

>  <Index>  (1390) 
16968

$$$$
ACET-pdb4cqm-G-GLU-69:MBZ-pdb4cqm-G-PHE-53
     RDKit          3D

 22 21  0  0  0  0  0  0  0  0999 V2000
    4.6553   -1.1428    0.3946 C   0  0  0  0  0  0  0  0  0  0  0  0
    3.7539   -1.5272    0.4270 H   0  0  0  0  0  0  0  0  0  0  0  0
    5.3317   -1.7311    0.7913 H   0  0  0  0  0  0  0  0  0  0  0  0
    4.9177   -0.9711   -0.6494 H   0  0  0  0  0  0  0  0  0  0  0  0
    4.6354    0.1429    1.2008 C   0  0  0  0  0  0  0  0  0  0  0  0
    5.5852    0.9447    1.0657 O   0  0  0  0  0  1  0  0  0  0  0  0
    3.6719    0.3550    1.9674 O   0  0  0  0  0  0  0  0  0  0  0  0
    0.0014    2.9012    0.0030 C   0  0  0  0  0  0  0  0  0  0  0  0
   -0.7381    3.2078   -0.5763 H   0  0  0  0  0  0  0  0  0  0  0  0
    0.8775    3.2064   -0.3386 H   0  0  0  0  0  0  0  0  0  0  0  0
   -0.1437    3.3413    0.9896 H   0  0  0  0  0  0  0  0  0  0  0  0
    0.0001    1.3959    0.0013 C   0  0  0  0  0  0  0  0  0  0  0  0
   -1.1915    0.6868   -0.0016 C   0  0  0  0  0  0  0  0  0  0  0  0
   -2.0601    1.1789   -0.0064 H   0  0  0  0  0  0  0  0  0  0  0  0
   -1.1940   -0.6951   -0.0000 C   0  0  0  0  0  0  0  0  0  0  0  0
   -2.0725   -1.1917    0.0020 H   0  0  0  0  0  0  0  0  0  0  0  0
    0.0005   -1.3852    0.0003 C   0  0  0  0  0  0  0  0  0  0  0  0
   -0.0021   -2.3872    0.0005 H   0  0  0  0  0  0  0  0  0  0  0  0
    1.1940   -0.6923   -0.0000 C   0  0  0  0  0  0  0  0  0  0  0  0
    2.0781   -1.1919    0.0011 H   0  0  0  0  0  0  0  0  0  0  0  0
    1.1909    0.6900   -0.0001 C   0  0  0  0  0  0  0  0  0  0  0  0
    2.0607    1.1876   -0.0025 H   0  0  0  0  0  0  0  0  0  0  0  0
  1  5  1  0
  5  6  1  0
  5  7  2  0
  1  2  1  0
  1  3  1  0
  1  4  1  0
  8 12  1  0
 12 13  2  0
 13 15  1  0
 15 17  2  0
 17 19  1  0
 19 21  2  0
 21 12  1  0
  8  9  1  0
  8 10  1  0
  8 11  1  0
 13 14  1  0
 15 16  1  0
 17 18  1  0
 19 20  1  0
 21 22  1  0
M  CHG  1   6  -1
M  END
>  <PDB_ID>  (1391) 
pdb4cqm

>  <RESIDUE_NAME>  (1391) 
GLU   PHE

>  <FRAG_NAME>  (1391) 
ACET   MBZ

>  <FRAG_ATOM_NUM>  (1391) 
fragi: 7  fragj: 15

>  <atom.prop.CHAIN_ID>  (1391) 
A A A A A A A Z Z Z Z Z Z Z Z Z Z Z Z Z Z Z

>  <atom.prop.IS_HEAVY_ATOM>  (1391) 
1 0 0 0 1 1 1 1 0 0 0 1 1 0 1 0 1 0 1 0 1 0

>  <DIFUSE_FUNC_ATOM>  (1391) 
atom 6   atom 7   

>  <FINAL_SINGLE_POINT_ENERGY>  (1391) 
0

>  <NONCOV_INTER_ENERGY_QM>  (1391) 
0

>  <FF_Energy>  (1391) 
3.53

>  <QM_Energy>  (1391) 
-2.66

>  <source>  (1391) 
ACET_MBZ_01

>  <Index>  (1391) 
16997

$$$$
ACET-pdb3giu-A-GLU-212:MBZ-pdb3giu-B-PHE-139
     RDKit          3D

 22 21  0  0  0  0  0  0  0  0999 V2000
    3.5412    2.8960   -2.4154 C   0  0  0  0  0  0  0  0  0  0  0  0
    2.5862    2.8255   -2.6645 H   0  0  0  0  0  0  0  0  0  0  0  0
    3.9086    2.0144   -2.1561 H   0  0  0  0  0  0  0  0  0  0  0  0
    4.0935    3.2537   -3.2844 H   0  0  0  0  0  0  0  0  0  0  0  0
    3.6261    3.8013   -1.1903 C   0  0  0  0  0  0  0  0  0  0  0  0
    3.2013    3.3701   -0.1110 O   0  0  0  0  0  1  0  0  0  0  0  0
    4.1232    4.9264   -1.2945 O   0  0  0  0  0  0  0  0  0  0  0  0
    0.0216    2.9297   -0.0659 C   0  0  0  0  0  0  0  0  0  0  0  0
   -0.4319    3.1974   -0.9096 H   0  0  0  0  0  0  0  0  0  0  0  0
    0.9769    3.2062   -0.0834 H   0  0  0  0  0  0  0  0  0  0  0  0
   -0.4648    3.4524    0.7578 H   0  0  0  0  0  0  0  0  0  0  0  0
   -0.0053    1.3977   -0.0024 C   0  0  0  0  0  0  0  0  0  0  0  0
   -1.1880    0.6937   -0.0004 C   0  0  0  0  0  0  0  0  0  0  0  0
   -2.0603    1.1761   -0.0007 H   0  0  0  0  0  0  0  0  0  0  0  0
   -1.1835   -0.6947   -0.0000 C   0  0  0  0  0  0  0  0  0  0  0  0
   -2.0589   -1.1942   -0.0077 H   0  0  0  0  0  0  0  0  0  0  0  0
    0.0188   -1.3858    0.0123 C   0  0  0  0  0  0  0  0  0  0  0  0
    0.0075   -2.3866    0.0295 H   0  0  0  0  0  0  0  0  0  0  0  0
    1.1835   -0.6920    0.0000 C   0  0  0  0  0  0  0  0  0  0  0  0
    2.0816   -1.1828   -0.0007 H   0  0  0  0  0  0  0  0  0  0  0  0
    1.1745    0.6810   -0.0095 C   0  0  0  0  0  0  0  0  0  0  0  0
    2.0519    1.1818   -0.0229 H   0  0  0  0  0  0  0  0  0  0  0  0
  1  5  1  0
  5  6  1  0
  5  7  2  0
  1  2  1  0
  1  3  1  0
  1  4  1  0
  8 12  1  0
 12 13  2  0
 13 15  1  0
 15 17  2  0
 17 19  1  0
 19 21  2  0
 21 12  1  0
  8  9  1  0
  8 10  1  0
  8 11  1  0
 13 14  1  0
 15 16  1  0
 17 18  1  0
 19 20  1  0
 21 22  1  0
M  CHG  1   6  -1
M  END
>  <PDB_ID>  (1392) 
pdb3giu

>  <RESIDUE_NAME>  (1392) 
GLU   PHE

>  <FRAG_NAME>  (1392) 
ACET   MBZ

>  <FRAG_ATOM_NUM>  (1392) 
fragi: 7  fragj: 15

>  <atom.prop.CHAIN_ID>  (1392) 
A A A A A A A Z Z Z Z Z Z Z Z Z Z Z Z Z Z Z

>  <atom.prop.IS_HEAVY_ATOM>  (1392) 
1 0 0 0 1 1 1 1 0 0 0 1 1 0 1 0 1 0 1 0 1 0

>  <DIFUSE_FUNC_ATOM>  (1392) 
atom 6   atom 7   

>  <FINAL_SINGLE_POINT_ENERGY>  (1392) 
0

>  <NONCOV_INTER_ENERGY_QM>  (1392) 
0

>  <FF_Energy>  (1392) 
-1.4

>  <QM_Energy>  (1392) 
-8.17

>  <source>  (1392) 
ACET_MBZ_01

>  <Index>  (1392) 
17133

$$$$
ACET-pdb4cq1-C-ASP-364:MBZ-pdb4cq1-C-PHE-439
     RDKit          3D

 22 21  0  0  0  0  0  0  0  0999 V2000
    4.4554    4.5096    0.6335 C   0  0  0  0  0  0  0  0  0  0  0  0
    4.1281    4.9239    1.4733 H   0  0  0  0  0  0  0  0  0  0  0  0
    5.0940    5.1104    0.1707 H   0  0  0  0  0  0  0  0  0  0  0  0
    4.9843    3.5931    0.8951 H   0  0  0  0  0  0  0  0  0  0  0  0
    3.2661    4.2600   -0.2841 C   0  0  0  0  0  0  0  0  0  0  0  0
    3.2450    3.2193   -0.9938 O   0  0  0  0  0  1  0  0  0  0  0  0
    2.3736    5.1404   -0.3390 O   0  0  0  0  0  0  0  0  0  0  0  0
   -0.0056    2.9046   -0.0172 C   0  0  0  0  0  0  0  0  0  0  0  0
    0.8857    3.2219    0.2633 H   0  0  0  0  0  0  0  0  0  0  0  0
   -0.7145    3.2267    0.5900 H   0  0  0  0  0  0  0  0  0  0  0  0
   -0.2077    3.3044   -1.0109 H   0  0  0  0  0  0  0  0  0  0  0  0
    0.0008    1.3989    0.0330 C   0  0  0  0  0  0  0  0  0  0  0  0
   -1.1897    0.6896   -0.0042 C   0  0  0  0  0  0  0  0  0  0  0  0
   -2.0583    1.1812   -0.0359 H   0  0  0  0  0  0  0  0  0  0  0  0
   -1.1942   -0.6947   -0.0000 C   0  0  0  0  0  0  0  0  0  0  0  0
   -2.0747   -1.1888    0.0146 H   0  0  0  0  0  0  0  0  0  0  0  0
   -0.0017   -1.3886   -0.0140 C   0  0  0  0  0  0  0  0  0  0  0  0
   -0.0051   -2.3894   -0.0347 H   0  0  0  0  0  0  0  0  0  0  0  0
    1.1942   -0.6952    0.0000 C   0  0  0  0  0  0  0  0  0  0  0  0
    2.0774   -1.1941    0.0227 H   0  0  0  0  0  0  0  0  0  0  0  0
    1.1906    0.6900   -0.0148 C   0  0  0  0  0  0  0  0  0  0  0  0
    2.0597    1.1857   -0.0614 H   0  0  0  0  0  0  0  0  0  0  0  0
  1  5  1  0
  5  6  1  0
  5  7  2  0
  1  2  1  0
  1  3  1  0
  1  4  1  0
  8 12  1  0
 12 13  2  0
 13 15  1  0
 15 17  2  0
 17 19  1  0
 19 21  2  0
 21 12  1  0
  8  9  1  0
  8 10  1  0
  8 11  1  0
 13 14  1  0
 15 16  1  0
 17 18  1  0
 19 20  1  0
 21 22  1  0
M  CHG  1   6  -1
M  END
>  <PDB_ID>  (1393) 
pdb4cq1

>  <RESIDUE_NAME>  (1393) 
ASP   PHE

>  <FRAG_NAME>  (1393) 
ACET   MBZ

>  <FRAG_ATOM_NUM>  (1393) 
fragi: 7  fragj: 15

>  <atom.prop.CHAIN_ID>  (1393) 
A A A A A A A Z Z Z Z Z Z Z Z Z Z Z Z Z Z Z

>  <atom.prop.IS_HEAVY_ATOM>  (1393) 
1 0 0 0 1 1 1 1 0 0 0 1 1 0 1 0 1 0 1 0 1 0

>  <DIFUSE_FUNC_ATOM>  (1393) 
atom 6   atom 7   

>  <FINAL_SINGLE_POINT_ENERGY>  (1393) 
0

>  <NONCOV_INTER_ENERGY_QM>  (1393) 
0

>  <FF_Energy>  (1393) 
-1.72

>  <QM_Energy>  (1393) 
-8.17

>  <source>  (1393) 
ACET_MBZ_01

>  <Index>  (1393) 
17169

$$$$
ACET-pdb4cw4-A-ASP-581:MBZ-pdb4cw4-A-PHE-21
     RDKit          3D

 22 21  0  0  0  0  0  0  0  0999 V2000
   -0.0111    0.0942   -3.5008 C   0  0  0  0  0  0  0  0  0  0  0  0
    0.0797   -0.1807   -2.5747 H   0  0  0  0  0  0  0  0  0  0  0  0
    0.7926   -0.1338   -3.9921 H   0  0  0  0  0  0  0  0  0  0  0  0
   -0.8549   -0.4358   -3.9429 H   0  0  0  0  0  0  0  0  0  0  0  0
   -0.1578    1.6031   -3.5248 C   0  0  0  0  0  0  0  0  0  0  0  0
   -1.2798    2.1290   -3.3214 O   0  0  0  0  0  1  0  0  0  0  0  0
    0.8812    2.2746   -3.7180 O   0  0  0  0  0  0  0  0  0  0  0  0
   -0.0154    2.9153    0.0509 C   0  0  0  0  0  0  0  0  0  0  0  0
   -0.7792    3.2303   -0.4580 H   0  0  0  0  0  0  0  0  0  0  0  0
    0.8080    3.2453   -0.3435 H   0  0  0  0  0  0  0  0  0  0  0  0
   -0.0923    3.2808    1.0749 H   0  0  0  0  0  0  0  0  0  0  0  0
    0.0032    1.4057   -0.0135 C   0  0  0  0  0  0  0  0  0  0  0  0
   -1.1949    0.6895   -0.0117 C   0  0  0  0  0  0  0  0  0  0  0  0
   -2.0031    1.1496   -0.0012 H   0  0  0  0  0  0  0  0  0  0  0  0
   -1.1986   -0.6969    0.0000 C   0  0  0  0  0  0  0  0  0  0  0  0
   -2.0054   -1.1589   -0.0125 H   0  0  0  0  0  0  0  0  0  0  0  0
    0.0023   -1.3972    0.0122 C   0  0  0  0  0  0  0  0  0  0  0  0
    0.0023   -2.3268   -0.0075 H   0  0  0  0  0  0  0  0  0  0  0  0
    1.1986   -0.7004    0.0000 C   0  0  0  0  0  0  0  0  0  0  0  0
    2.0072   -1.1613    0.0092 H   0  0  0  0  0  0  0  0  0  0  0  0
    1.1894    0.6993    0.0130 C   0  0  0  0  0  0  0  0  0  0  0  0
    1.9969    1.1618    0.0223 H   0  0  0  0  0  0  0  0  0  0  0  0
  1  5  1  0
  5  6  1  0
  5  7  2  0
  1  2  1  0
  1  3  1  0
  1  4  1  0
  8 12  1  0
 12 13  2  0
 13 15  1  0
 15 17  2  0
 17 19  1  0
 19 21  2  0
 21 12  1  0
  8  9  1  0
  8 10  1  0
  8 11  1  0
 13 14  1  0
 15 16  1  0
 17 18  1  0
 19 20  1  0
 21 22  1  0
M  CHG  1   6  -1
M  END
>  <PDB_ID>  (1394) 
pdb4cw4

>  <RESIDUE_NAME>  (1394) 
ASP   PHE

>  <FRAG_NAME>  (1394) 
ACET   MBZ

>  <FRAG_ATOM_NUM>  (1394) 
fragi: 7  fragj: 15

>  <atom.prop.CHAIN_ID>  (1394) 
A A A A A A A Z Z Z Z Z Z Z Z Z Z Z Z Z Z Z

>  <atom.prop.IS_HEAVY_ATOM>  (1394) 
1 0 0 0 1 1 1 1 0 0 0 1 1 0 1 0 1 0 1 0 1 0

>  <DIFUSE_FUNC_ATOM>  (1394) 
atom 6   atom 7   

>  <FINAL_SINGLE_POINT_ENERGY>  (1394) 
0

>  <NONCOV_INTER_ENERGY_QM>  (1394) 
0

>  <FF_Energy>  (1394) 
0.21

>  <QM_Energy>  (1394) 
-5.08

>  <source>  (1394) 
ACET_MBZ_01

>  <Index>  (1394) 
17175

$$$$
ACET-pdb3gk3-A-GLU-49:MBZ-pdb3gk3-A-PHE-56
     RDKit          3D

 22 21  0  0  0  0  0  0  0  0999 V2000
    4.4659   -0.7876    0.4632 C   0  0  0  0  0  0  0  0  0  0  0  0
    5.2856   -0.5301    0.9363 H   0  0  0  0  0  0  0  0  0  0  0  0
    3.6598   -0.3970    0.8635 H   0  0  0  0  0  0  0  0  0  0  0  0
    4.5398   -0.4634   -0.5749 H   0  0  0  0  0  0  0  0  0  0  0  0
    4.3389   -2.2845    0.5577 C   0  0  0  0  0  0  0  0  0  0  0  0
    4.8916   -2.8711    1.5168 O   0  0  0  0  0  1  0  0  0  0  0  0
    3.7044   -2.8713   -0.3500 O   0  0  0  0  0  0  0  0  0  0  0  0
    0.0049    2.9056   -0.0170 C   0  0  0  0  0  0  0  0  0  0  0  0
    0.9195    3.2142    0.2039 H   0  0  0  0  0  0  0  0  0  0  0  0
   -0.6491    3.2184    0.6581 H   0  0  0  0  0  0  0  0  0  0  0  0
   -0.2697    3.3574   -0.9701 H   0  0  0  0  0  0  0  0  0  0  0  0
    0.0020    1.4006   -0.0125 C   0  0  0  0  0  0  0  0  0  0  0  0
   -1.2010    0.6874   -0.0061 C   0  0  0  0  0  0  0  0  0  0  0  0
   -2.0637    1.1838   -0.0071 H   0  0  0  0  0  0  0  0  0  0  0  0
   -1.2037   -0.6944   -0.0000 C   0  0  0  0  0  0  0  0  0  0  0  0
   -2.0792   -1.1930    0.0030 H   0  0  0  0  0  0  0  0  0  0  0  0
   -0.0021   -1.3895    0.0031 C   0  0  0  0  0  0  0  0  0  0  0  0
   -0.0075   -2.3907    0.0067 H   0  0  0  0  0  0  0  0  0  0  0  0
    1.2037   -0.6991    0.0000 C   0  0  0  0  0  0  0  0  0  0  0  0
    2.0819   -1.1977   -0.0121 H   0  0  0  0  0  0  0  0  0  0  0  0
    1.2010    0.6950    0.0155 C   0  0  0  0  0  0  0  0  0  0  0  0
    2.0664    1.1896    0.0464 H   0  0  0  0  0  0  0  0  0  0  0  0
  1  5  1  0
  5  6  1  0
  5  7  2  0
  1  2  1  0
  1  3  1  0
  1  4  1  0
  8 12  1  0
 12 13  2  0
 13 15  1  0
 15 17  2  0
 17 19  1  0
 19 21  2  0
 21 12  1  0
  8  9  1  0
  8 10  1  0
  8 11  1  0
 13 14  1  0
 15 16  1  0
 17 18  1  0
 19 20  1  0
 21 22  1  0
M  CHG  1   6  -1
M  END
>  <PDB_ID>  (1395) 
pdb3gk3

>  <RESIDUE_NAME>  (1395) 
GLU   PHE

>  <FRAG_NAME>  (1395) 
ACET   MBZ

>  <FRAG_ATOM_NUM>  (1395) 
fragi: 7  fragj: 15

>  <atom.prop.CHAIN_ID>  (1395) 
A A A A A A A Z Z Z Z Z Z Z Z Z Z Z Z Z Z Z

>  <atom.prop.IS_HEAVY_ATOM>  (1395) 
1 0 0 0 1 1 1 1 0 0 0 1 1 0 1 0 1 0 1 0 1 0

>  <DIFUSE_FUNC_ATOM>  (1395) 
atom 6   atom 7   

>  <FINAL_SINGLE_POINT_ENERGY>  (1395) 
0

>  <NONCOV_INTER_ENERGY_QM>  (1395) 
0

>  <FF_Energy>  (1395) 
1.64

>  <QM_Energy>  (1395) 
-4.41

>  <source>  (1395) 
ACET_MBZ_01

>  <Index>  (1395) 
17180

$$$$
ACET-pdb3gjx-D-GLU-1037:MBZ-pdb3gjx-D-PHE-1034
     RDKit          3D

 22 21  0  0  0  0  0  0  0  0999 V2000
    3.4190    4.3661   -2.9604 C   0  0  0  0  0  0  0  0  0  0  0  0
    2.9413    4.9476   -3.5886 H   0  0  0  0  0  0  0  0  0  0  0  0
    4.3871    4.3548   -3.1143 H   0  0  0  0  0  0  0  0  0  0  0  0
    3.2305    4.7201   -1.9468 H   0  0  0  0  0  0  0  0  0  0  0  0
    2.9087    2.9564   -3.1641 C   0  0  0  0  0  0  0  0  0  0  0  0
    1.8221    2.6444   -2.6350 O   0  0  0  0  0  1  0  0  0  0  0  0
    3.5885    2.1612   -3.8475 O   0  0  0  0  0  0  0  0  0  0  0  0
   -0.0067    2.8949    0.0084 C   0  0  0  0  0  0  0  0  0  0  0  0
   -0.6956    3.2028   -0.6281 H   0  0  0  0  0  0  0  0  0  0  0  0
    0.8932    3.2064   -0.2509 H   0  0  0  0  0  0  0  0  0  0  0  0
   -0.2391    3.3201    0.9847 H   0  0  0  0  0  0  0  0  0  0  0  0
   -0.0003    1.3929   -0.0020 C   0  0  0  0  0  0  0  0  0  0  0  0
   -1.1917    0.6832    0.0006 C   0  0  0  0  0  0  0  0  0  0  0  0
   -2.0597    1.1764    0.0018 H   0  0  0  0  0  0  0  0  0  0  0  0
   -1.1948   -0.6959    0.0000 C   0  0  0  0  0  0  0  0  0  0  0  0
   -2.0725   -1.1936    0.0004 H   0  0  0  0  0  0  0  0  0  0  0  0
   -0.0007   -1.3834    0.0004 C   0  0  0  0  0  0  0  0  0  0  0  0
   -0.0003   -2.3850    0.0005 H   0  0  0  0  0  0  0  0  0  0  0  0
    1.1948   -0.6880    0.0000 C   0  0  0  0  0  0  0  0  0  0  0  0
    2.0776   -1.1907    0.0010 H   0  0  0  0  0  0  0  0  0  0  0  0
    1.1927    0.6912    0.0010 C   0  0  0  0  0  0  0  0  0  0  0  0
    2.0605    1.1902    0.0028 H   0  0  0  0  0  0  0  0  0  0  0  0
  1  5  1  0
  5  6  1  0
  5  7  2  0
  1  2  1  0
  1  3  1  0
  1  4  1  0
  8 12  1  0
 12 13  2  0
 13 15  1  0
 15 17  2  0
 17 19  1  0
 19 21  2  0
 21 12  1  0
  8  9  1  0
  8 10  1  0
  8 11  1  0
 13 14  1  0
 15 16  1  0
 17 18  1  0
 19 20  1  0
 21 22  1  0
M  CHG  1   6  -1
M  END
>  <PDB_ID>  (1396) 
pdb3gjx

>  <RESIDUE_NAME>  (1396) 
GLU   PHE

>  <FRAG_NAME>  (1396) 
ACET   MBZ

>  <FRAG_ATOM_NUM>  (1396) 
fragi: 7  fragj: 15

>  <atom.prop.CHAIN_ID>  (1396) 
A A A A A A A Z Z Z Z Z Z Z Z Z Z Z Z Z Z Z

>  <atom.prop.IS_HEAVY_ATOM>  (1396) 
1 0 0 0 1 1 1 1 0 0 0 1 1 0 1 0 1 0 1 0 1 0

>  <DIFUSE_FUNC_ATOM>  (1396) 
atom 6   atom 7   

>  <FINAL_SINGLE_POINT_ENERGY>  (1396) 
0

>  <NONCOV_INTER_ENERGY_QM>  (1396) 
0

>  <FF_Energy>  (1396) 
1.05

>  <QM_Energy>  (1396) 
-4.14

>  <source>  (1396) 
ACET_MBZ_01

>  <Index>  (1396) 
17191

$$$$
ACET-pdb3gk3-D-GLU-49:MBZ-pdb3gk3-D-PHE-56
     RDKit          3D

 22 21  0  0  0  0  0  0  0  0999 V2000
    3.8964   -0.1970   -0.0203 C   0  0  0  0  0  0  0  0  0  0  0  0
    3.3508   -0.0100    0.7782 H   0  0  0  0  0  0  0  0  0  0  0  0
    3.3768   -0.0973   -0.8511 H   0  0  0  0  0  0  0  0  0  0  0  0
    4.7402    0.4927   -0.0426 H   0  0  0  0  0  0  0  0  0  0  0  0
    4.3236   -1.6594    0.0640 C   0  0  0  0  0  0  0  0  0  0  0  0
    4.8145   -2.0687    1.1557 O   0  0  0  0  0  1  0  0  0  0  0  0
    4.1712   -2.3737   -0.9730 O   0  0  0  0  0  0  0  0  0  0  0  0
   -0.0068    2.9221    0.0059 C   0  0  0  0  0  0  0  0  0  0  0  0
    0.9214    3.2213    0.1514 H   0  0  0  0  0  0  0  0  0  0  0  0
   -0.6046    3.2201    0.7323 H   0  0  0  0  0  0  0  0  0  0  0  0
   -0.3610    3.3656   -0.9247 H   0  0  0  0  0  0  0  0  0  0  0  0
   -0.0059    1.3987    0.0054 C   0  0  0  0  0  0  0  0  0  0  0  0
   -1.1957    0.6895   -0.0045 C   0  0  0  0  0  0  0  0  0  0  0  0
   -2.0637    1.1794   -0.0163 H   0  0  0  0  0  0  0  0  0  0  0  0
   -1.1884   -0.6866   -0.0000 C   0  0  0  0  0  0  0  0  0  0  0  0
   -2.0631   -1.1940    0.0043 H   0  0  0  0  0  0  0  0  0  0  0  0
    0.0152   -1.3834   -0.0001 C   0  0  0  0  0  0  0  0  0  0  0  0
   -0.0071   -2.3889   -0.0009 H   0  0  0  0  0  0  0  0  0  0  0  0
    1.1884   -0.7079   -0.0000 C   0  0  0  0  0  0  0  0  0  0  0  0
    2.0817   -1.1927    0.0020 H   0  0  0  0  0  0  0  0  0  0  0  0
    1.1865    0.6896   -0.0008 C   0  0  0  0  0  0  0  0  0  0  0  0
    2.0575    1.1799   -0.0065 H   0  0  0  0  0  0  0  0  0  0  0  0
  1  5  1  0
  5  6  1  0
  5  7  2  0
  1  2  1  0
  1  3  1  0
  1  4  1  0
  8 12  1  0
 12 13  2  0
 13 15  1  0
 15 17  2  0
 17 19  1  0
 19 21  2  0
 21 12  1  0
  8  9  1  0
  8 10  1  0
  8 11  1  0
 13 14  1  0
 15 16  1  0
 17 18  1  0
 19 20  1  0
 21 22  1  0
M  CHG  1   6  -1
M  END
>  <PDB_ID>  (1397) 
pdb3gk3

>  <RESIDUE_NAME>  (1397) 
GLU   PHE

>  <FRAG_NAME>  (1397) 
ACET   MBZ

>  <FRAG_ATOM_NUM>  (1397) 
fragi: 7  fragj: 15

>  <atom.prop.CHAIN_ID>  (1397) 
A A A A A A A Z Z Z Z Z Z Z Z Z Z Z Z Z Z Z

>  <atom.prop.IS_HEAVY_ATOM>  (1397) 
1 0 0 0 1 1 1 1 0 0 0 1 1 0 1 0 1 0 1 0 1 0

>  <DIFUSE_FUNC_ATOM>  (1397) 
atom 6   atom 7   

>  <FINAL_SINGLE_POINT_ENERGY>  (1397) 
0

>  <NONCOV_INTER_ENERGY_QM>  (1397) 
0

>  <FF_Energy>  (1397) 
40.85

>  <QM_Energy>  (1397) 
6.38

>  <source>  (1397) 
ACET_MBZ_01

>  <Index>  (1397) 
17210

$$$$
ACET-pdb4b2y-C-ASP-400:MBZ-pdb4b2y-B-PHE-337
     RDKit          3D

 22 21  0  0  0  0  0  0  0  0999 V2000
   -0.0559    0.3034    3.5238 C   0  0  0  0  0  0  0  0  0  0  0  0
    0.2965   -0.0432    4.3803 H   0  0  0  0  0  0  0  0  0  0  0  0
    0.3397   -0.1725    2.7538 H   0  0  0  0  0  0  0  0  0  0  0  0
   -1.1330    0.1372    3.5088 H   0  0  0  0  0  0  0  0  0  0  0  0
    0.3460    1.8146    3.4146 C   0  0  0  0  0  0  0  0  0  0  0  0
   -0.5251    2.6813    3.1332 O   0  0  0  0  0  1  0  0  0  0  0  0
    1.5621    2.1088    3.5812 O   0  0  0  0  0  0  0  0  0  0  0  0
   -0.0175    2.9148   -0.0407 C   0  0  0  0  0  0  0  0  0  0  0  0
    0.8094    3.2383    0.3831 H   0  0  0  0  0  0  0  0  0  0  0  0
   -0.8230    3.2320    0.4249 H   0  0  0  0  0  0  0  0  0  0  0  0
   -0.0453    3.3028   -1.0589 H   0  0  0  0  0  0  0  0  0  0  0  0
   -0.0111    1.4083    0.0099 C   0  0  0  0  0  0  0  0  0  0  0  0
   -1.2107    0.6893   -0.0007 C   0  0  0  0  0  0  0  0  0  0  0  0
   -2.0767    1.1776   -0.0100 H   0  0  0  0  0  0  0  0  0  0  0  0
   -1.2086   -0.7020    0.0000 C   0  0  0  0  0  0  0  0  0  0  0  0
   -2.0747   -1.2069    0.0021 H   0  0  0  0  0  0  0  0  0  0  0  0
    0.0151   -1.4026   -0.0005 C   0  0  0  0  0  0  0  0  0  0  0  0
    0.0073   -2.3968   -0.0016 H   0  0  0  0  0  0  0  0  0  0  0  0
    1.2086   -0.6972   -0.0000 C   0  0  0  0  0  0  0  0  0  0  0  0
    2.0961   -1.1881    0.0080 H   0  0  0  0  0  0  0  0  0  0  0  0
    1.2067    0.7042   -0.0087 C   0  0  0  0  0  0  0  0  0  0  0  0
    2.0633    1.2020   -0.0284 H   0  0  0  0  0  0  0  0  0  0  0  0
  1  5  1  0
  5  6  1  0
  5  7  2  0
  1  2  1  0
  1  3  1  0
  1  4  1  0
  8 12  1  0
 12 13  2  0
 13 15  1  0
 15 17  2  0
 17 19  1  0
 19 21  2  0
 21 12  1  0
  8  9  1  0
  8 10  1  0
  8 11  1  0
 13 14  1  0
 15 16  1  0
 17 18  1  0
 19 20  1  0
 21 22  1  0
M  CHG  1   6  -1
M  END
>  <PDB_ID>  (1398) 
pdb4b2y

>  <RESIDUE_NAME>  (1398) 
ASP   PHE

>  <FRAG_NAME>  (1398) 
ACET   MBZ

>  <FRAG_ATOM_NUM>  (1398) 
fragi: 7  fragj: 15

>  <atom.prop.CHAIN_ID>  (1398) 
A A A A A A A Z Z Z Z Z Z Z Z Z Z Z Z Z Z Z

>  <atom.prop.IS_HEAVY_ATOM>  (1398) 
1 0 0 0 1 1 1 1 0 0 0 1 1 0 1 0 1 0 1 0 1 0

>  <DIFUSE_FUNC_ATOM>  (1398) 
atom 6   atom 7   

>  <FINAL_SINGLE_POINT_ENERGY>  (1398) 
0

>  <NONCOV_INTER_ENERGY_QM>  (1398) 
0

>  <FF_Energy>  (1398) 
0.5

>  <QM_Energy>  (1398) 
-5.66

>  <source>  (1398) 
ACET_MBZ_01

>  <Index>  (1398) 
17237

$$$$
ACET-pdb3gkq-A-ASP-360:MBZ-pdb3gkq-A-PHE-357
     RDKit          3D

 22 21  0  0  0  0  0  0  0  0999 V2000
   -5.4188    1.7121   -1.8707 C   0  0  0  0  0  0  0  0  0  0  0  0
   -4.8474    2.5222   -1.8595 H   0  0  0  0  0  0  0  0  0  0  0  0
   -6.3678    1.9494   -1.7153 H   0  0  0  0  0  0  0  0  0  0  0  0
   -5.3413    1.2580   -2.8586 H   0  0  0  0  0  0  0  0  0  0  0  0
   -4.9612    0.7751   -0.7723 C   0  0  0  0  0  0  0  0  0  0  0  0
   -5.3898   -0.4034   -0.7902 O   0  0  0  0  0  1  0  0  0  0  0  0
   -4.1858    1.2081    0.1019 O   0  0  0  0  0  0  0  0  0  0  0  0
    0.0364    2.9179    0.0906 C   0  0  0  0  0  0  0  0  0  0  0  0
    0.8496    3.2349   -0.3843 H   0  0  0  0  0  0  0  0  0  0  0  0
    0.0729    3.1695    1.0505 H   0  0  0  0  0  0  0  0  0  0  0  0
   -0.8154    3.4386   -0.3470 H   0  0  0  0  0  0  0  0  0  0  0  0
   -0.0013    1.4104    0.0022 C   0  0  0  0  0  0  0  0  0  0  0  0
   -1.1988    0.7052   -0.0007 C   0  0  0  0  0  0  0  0  0  0  0  0
   -2.0655    1.1909   -0.0047 H   0  0  0  0  0  0  0  0  0  0  0  0
   -1.2043   -0.6957   -0.0000 C   0  0  0  0  0  0  0  0  0  0  0  0
   -2.0800   -1.1869    0.0013 H   0  0  0  0  0  0  0  0  0  0  0  0
    0.0038   -1.4045    0.0008 C   0  0  0  0  0  0  0  0  0  0  0  0
   -0.0079   -2.3982    0.0012 H   0  0  0  0  0  0  0  0  0  0  0  0
    1.2043   -0.7068    0.0000 C   0  0  0  0  0  0  0  0  0  0  0  0
    2.0867   -1.1993    0.0022 H   0  0  0  0  0  0  0  0  0  0  0  0
    1.1963    0.6914   -0.0023 C   0  0  0  0  0  0  0  0  0  0  0  0
    2.0663    1.1862   -0.0080 H   0  0  0  0  0  0  0  0  0  0  0  0
  1  5  1  0
  5  6  1  0
  5  7  2  0
  1  2  1  0
  1  3  1  0
  1  4  1  0
  8 12  1  0
 12 13  2  0
 13 15  1  0
 15 17  2  0
 17 19  1  0
 19 21  2  0
 21 12  1  0
  8  9  1  0
  8 10  1  0
  8 11  1  0
 13 14  1  0
 15 16  1  0
 17 18  1  0
 19 20  1  0
 21 22  1  0
M  CHG  1   6  -1
M  END
>  <PDB_ID>  (1399) 
pdb3gkq

>  <RESIDUE_NAME>  (1399) 
ASP   PHE

>  <FRAG_NAME>  (1399) 
ACET   MBZ

>  <FRAG_ATOM_NUM>  (1399) 
fragi: 7  fragj: 15

>  <atom.prop.CHAIN_ID>  (1399) 
A A A A A A A Z Z Z Z Z Z Z Z Z Z Z Z Z Z Z

>  <atom.prop.IS_HEAVY_ATOM>  (1399) 
1 0 0 0 1 1 1 1 0 0 0 1 1 0 1 0 1 0 1 0 1 0

>  <DIFUSE_FUNC_ATOM>  (1399) 
atom 6   atom 7   

>  <FINAL_SINGLE_POINT_ENERGY>  (1399) 
0

>  <NONCOV_INTER_ENERGY_QM>  (1399) 
0

>  <FF_Energy>  (1399) 
0.38

>  <QM_Energy>  (1399) 
-6.97

>  <source>  (1399) 
ACET_MBZ_01

>  <Index>  (1399) 
17308

$$$$
ACET-pdb4czv-B-ASP-21:MBZ-pdb4czv-B-PHE-47
     RDKit          3D

 22 21  0  0  0  0  0  0  0  0999 V2000
    4.5195    3.7142    2.5732 C   0  0  0  0  0  0  0  0  0  0  0  0
    3.6774    3.6498    3.0964 H   0  0  0  0  0  0  0  0  0  0  0  0
    4.7095    4.6584    2.3334 H   0  0  0  0  0  0  0  0  0  0  0  0
    5.3349    3.3547    3.2008 H   0  0  0  0  0  0  0  0  0  0  0  0
    4.3637    2.9076    1.2980 C   0  0  0  0  0  0  0  0  0  0  0  0
    5.1731    1.9862    1.0714 O   0  0  0  0  0  1  0  0  0  0  0  0
    3.4340    3.2070    0.5180 O   0  0  0  0  0  0  0  0  0  0  0  0
    0.0030    2.9052   -0.0010 C   0  0  0  0  0  0  0  0  0  0  0  0
    0.9228    3.2079    0.1940 H   0  0  0  0  0  0  0  0  0  0  0  0
   -0.6320    3.2106    0.6924 H   0  0  0  0  0  0  0  0  0  0  0  0
   -0.3008    3.3443   -0.9513 H   0  0  0  0  0  0  0  0  0  0  0  0
    0.0004    1.3992   -0.0002 C   0  0  0  0  0  0  0  0  0  0  0  0
   -1.1933    0.6946   -0.0004 C   0  0  0  0  0  0  0  0  0  0  0  0
   -2.0605    1.1836   -0.0024 H   0  0  0  0  0  0  0  0  0  0  0  0
   -1.1988   -0.6968    0.0000 C   0  0  0  0  0  0  0  0  0  0  0  0
   -2.0773   -1.1886    0.0012 H   0  0  0  0  0  0  0  0  0  0  0  0
   -0.0008   -1.3919    0.0010 C   0  0  0  0  0  0  0  0  0  0  0  0
   -0.0044   -2.3918    0.0020 H   0  0  0  0  0  0  0  0  0  0  0  0
    1.1988   -0.6969   -0.0000 C   0  0  0  0  0  0  0  0  0  0  0  0
    2.0807   -1.1949    0.0008 H   0  0  0  0  0  0  0  0  0  0  0  0
    1.1937    0.6917   -0.0005 C   0  0  0  0  0  0  0  0  0  0  0  0
    2.0632    1.1886   -0.0024 H   0  0  0  0  0  0  0  0  0  0  0  0
  1  5  1  0
  5  6  1  0
  5  7  2  0
  1  2  1  0
  1  3  1  0
  1  4  1  0
  8 12  1  0
 12 13  2  0
 13 15  1  0
 15 17  2  0
 17 19  1  0
 19 21  2  0
 21 12  1  0
  8  9  1  0
  8 10  1  0
  8 11  1  0
 13 14  1  0
 15 16  1  0
 17 18  1  0
 19 20  1  0
 21 22  1  0
M  CHG  1   6  -1
M  END
>  <PDB_ID>  (1400) 
pdb4czv

>  <RESIDUE_NAME>  (1400) 
ASP   PHE

>  <FRAG_NAME>  (1400) 
ACET   MBZ

>  <FRAG_ATOM_NUM>  (1400) 
fragi: 7  fragj: 15

>  <atom.prop.CHAIN_ID>  (1400) 
A A A A A A A Z Z Z Z Z Z Z Z Z Z Z Z Z Z Z

>  <atom.prop.IS_HEAVY_ATOM>  (1400) 
1 0 0 0 1 1 1 1 0 0 0 1 1 0 1 0 1 0 1 0 1 0

>  <DIFUSE_FUNC_ATOM>  (1400) 
atom 6   atom 7   

>  <FINAL_SINGLE_POINT_ENERGY>  (1400) 
0

>  <NONCOV_INTER_ENERGY_QM>  (1400) 
0

>  <FF_Energy>  (1400) 
-2.63

>  <QM_Energy>  (1400) 
-8.56

>  <source>  (1400) 
ACET_MBZ_01

>  <Index>  (1400) 
17370

$$$$
ACET-pdb3gl1-A-ASP-98:MBZ-pdb3gl1-A-PHE-80
     RDKit          3D

 22 21  0  0  0  0  0  0  0  0999 V2000
    0.4422    0.5551   -3.3067 C   0  0  0  0  0  0  0  0  0  0  0  0
    0.4601    0.1637   -2.3906 H   0  0  0  0  0  0  0  0  0  0  0  0
    0.7841   -0.1053   -3.9681 H   0  0  0  0  0  0  0  0  0  0  0  0
   -0.5943    0.7802   -3.5579 H   0  0  0  0  0  0  0  0  0  0  0  0
    1.3366    1.7758   -3.3315 C   0  0  0  0  0  0  0  0  0  0  0  0
    1.1134    2.7059   -4.1474 O   0  0  0  0  0  1  0  0  0  0  0  0
    2.2957    1.7676   -2.5401 O   0  0  0  0  0  0  0  0  0  0  0  0
   -0.0104    2.9254   -0.0011 C   0  0  0  0  0  0  0  0  0  0  0  0
   -0.7070    3.2259   -0.6315 H   0  0  0  0  0  0  0  0  0  0  0  0
    0.8870    3.2278   -0.2759 H   0  0  0  0  0  0  0  0  0  0  0  0
   -0.2287    3.3567    0.9758 H   0  0  0  0  0  0  0  0  0  0  0  0
   -0.0084    1.4129   -0.0028 C   0  0  0  0  0  0  0  0  0  0  0  0
   -1.2092    0.7033   -0.0033 C   0  0  0  0  0  0  0  0  0  0  0  0
   -2.0745    1.1945   -0.0078 H   0  0  0  0  0  0  0  0  0  0  0  0
   -1.2167   -0.6921   -0.0000 C   0  0  0  0  0  0  0  0  0  0  0  0
   -2.0844   -1.1908   -0.0007 H   0  0  0  0  0  0  0  0  0  0  0  0
    0.0068   -1.4076    0.0063 C   0  0  0  0  0  0  0  0  0  0  0  0
   -0.0095   -2.3990    0.0151 H   0  0  0  0  0  0  0  0  0  0  0  0
    1.2167   -0.7090   -0.0000 C   0  0  0  0  0  0  0  0  0  0  0  0
    2.0940   -1.2037   -0.0033 H   0  0  0  0  0  0  0  0  0  0  0  0
    1.2109    0.6925   -0.0001 C   0  0  0  0  0  0  0  0  0  0  0  0
    2.0700    1.1925    0.0006 H   0  0  0  0  0  0  0  0  0  0  0  0
  1  5  1  0
  5  6  1  0
  5  7  2  0
  1  2  1  0
  1  3  1  0
  1  4  1  0
  8 12  1  0
 12 13  2  0
 13 15  1  0
 15 17  2  0
 17 19  1  0
 19 21  2  0
 21 12  1  0
  8  9  1  0
  8 10  1  0
  8 11  1  0
 13 14  1  0
 15 16  1  0
 17 18  1  0
 19 20  1  0
 21 22  1  0
M  CHG  1   6  -1
M  END
>  <PDB_ID>  (1401) 
pdb3gl1

>  <RESIDUE_NAME>  (1401) 
ASP   PHE

>  <FRAG_NAME>  (1401) 
ACET   MBZ

>  <FRAG_ATOM_NUM>  (1401) 
fragi: 7  fragj: 15

>  <atom.prop.CHAIN_ID>  (1401) 
A A A A A A A Z Z Z Z Z Z Z Z Z Z Z Z Z Z Z

>  <atom.prop.IS_HEAVY_ATOM>  (1401) 
1 0 0 0 1 1 1 1 0 0 0 1 1 0 1 0 1 0 1 0 1 0

>  <DIFUSE_FUNC_ATOM>  (1401) 
atom 6   atom 7   

>  <FINAL_SINGLE_POINT_ENERGY>  (1401) 
0

>  <NONCOV_INTER_ENERGY_QM>  (1401) 
0

>  <FF_Energy>  (1401) 
1.61

>  <QM_Energy>  (1401) 
-4.48

>  <source>  (1401) 
ACET_MBZ_01

>  <Index>  (1401) 
17380

$$$$
ACET-pdb3gmw-A-GLU-212:MBZ-pdb3gmw-A-PHE-230
     RDKit          3D

 22 21  0  0  0  0  0  0  0  0999 V2000
    0.6098   -3.2705   -2.7621 C   0  0  0  0  0  0  0  0  0  0  0  0
    0.0965   -2.4618   -2.6487 H   0  0  0  0  0  0  0  0  0  0  0  0
    0.2000   -4.0747   -2.4222 H   0  0  0  0  0  0  0  0  0  0  0  0
    0.8129   -3.4059   -3.8243 H   0  0  0  0  0  0  0  0  0  0  0  0
    1.9379   -3.0833   -2.0320 C   0  0  0  0  0  0  0  0  0  0  0  0
    2.0939   -3.6246   -0.8800 O   0  0  0  0  0  1  0  0  0  0  0  0
    2.8226   -2.4158   -2.6564 O   0  0  0  0  0  0  0  0  0  0  0  0
    0.0292    2.8871    0.0228 C   0  0  0  0  0  0  0  0  0  0  0  0
    0.9414    3.1731    0.2810 H   0  0  0  0  0  0  0  0  0  0  0  0
   -0.6407    3.1935    0.6843 H   0  0  0  0  0  0  0  0  0  0  0  0
   -0.2095    3.3485   -0.9355 H   0  0  0  0  0  0  0  0  0  0  0  0
    0.0049    1.3828    0.0045 C   0  0  0  0  0  0  0  0  0  0  0  0
   -1.1930    0.7096   -0.0102 C   0  0  0  0  0  0  0  0  0  0  0  0
   -2.0512    1.2116   -0.0295 H   0  0  0  0  0  0  0  0  0  0  0  0
   -1.2078   -0.6657   -0.0000 C   0  0  0  0  0  0  0  0  0  0  0  0
   -2.0870   -1.1612    0.0128 H   0  0  0  0  0  0  0  0  0  0  0  0
   -0.0099   -1.3812   -0.0059 C   0  0  0  0  0  0  0  0  0  0  0  0
   -0.0314   -2.3806   -0.0150 H   0  0  0  0  0  0  0  0  0  0  0  0
    1.2078   -0.7059    0.0000 C   0  0  0  0  0  0  0  0  0  0  0  0
    2.0730   -1.2192   -0.0026 H   0  0  0  0  0  0  0  0  0  0  0  0
    1.1980    0.6604    0.0116 C   0  0  0  0  0  0  0  0  0  0  0  0
    2.0690    1.1701    0.0247 H   0  0  0  0  0  0  0  0  0  0  0  0
  1  5  1  0
  5  6  1  0
  5  7  2  0
  1  2  1  0
  1  3  1  0
  1  4  1  0
  8 12  1  0
 12 13  2  0
 13 15  1  0
 15 17  2  0
 17 19  1  0
 19 21  2  0
 21 12  1  0
  8  9  1  0
  8 10  1  0
  8 11  1  0
 13 14  1  0
 15 16  1  0
 17 18  1  0
 19 20  1  0
 21 22  1  0
M  CHG  1   6  -1
M  END
>  <PDB_ID>  (1402) 
pdb3gmw

>  <RESIDUE_NAME>  (1402) 
GLU   PHE

>  <FRAG_NAME>  (1402) 
ACET   MBZ

>  <FRAG_ATOM_NUM>  (1402) 
fragi: 7  fragj: 15

>  <atom.prop.CHAIN_ID>  (1402) 
A A A A A A A Z Z Z Z Z Z Z Z Z Z Z Z Z Z Z

>  <atom.prop.IS_HEAVY_ATOM>  (1402) 
1 0 0 0 1 1 1 1 0 0 0 1 1 0 1 0 1 0 1 0 1 0

>  <DIFUSE_FUNC_ATOM>  (1402) 
atom 6   atom 7   

>  <FINAL_SINGLE_POINT_ENERGY>  (1402) 
0

>  <NONCOV_INTER_ENERGY_QM>  (1402) 
0

>  <FF_Energy>  (1402) 
-1.2

>  <QM_Energy>  (1402) 
-6.24

>  <source>  (1402) 
ACET_MBZ_01

>  <Index>  (1402) 
17463

$$$$
ACET-pdb3gmw-C-GLU-212:MBZ-pdb3gmw-C-PHE-230
     RDKit          3D

 22 21  0  0  0  0  0  0  0  0999 V2000
    1.0764   -3.3052   -2.5344 C   0  0  0  0  0  0  0  0  0  0  0  0
    0.4406   -2.5707   -2.4915 H   0  0  0  0  0  0  0  0  0  0  0  0
    0.7339   -4.1483   -2.1919 H   0  0  0  0  0  0  0  0  0  0  0  0
    1.3827   -3.4446   -3.5711 H   0  0  0  0  0  0  0  0  0  0  0  0
    2.2787   -2.9178   -1.6670 C   0  0  0  0  0  0  0  0  0  0  0  0
    2.3974   -3.4921   -0.5412 O   0  0  0  0  0  1  0  0  0  0  0  0
    3.0816   -2.0583   -2.1472 O   0  0  0  0  0  0  0  0  0  0  0  0
    0.0248    2.8950    0.0040 C   0  0  0  0  0  0  0  0  0  0  0  0
    0.9197    3.1891    0.3052 H   0  0  0  0  0  0  0  0  0  0  0  0
   -0.6830    3.2059    0.6203 H   0  0  0  0  0  0  0  0  0  0  0  0
   -0.1629    3.3361   -0.9749 H   0  0  0  0  0  0  0  0  0  0  0  0
    0.0084    1.3874    0.0058 C   0  0  0  0  0  0  0  0  0  0  0  0
   -1.1924    0.6962   -0.0005 C   0  0  0  0  0  0  0  0  0  0  0  0
   -2.0524    1.2016   -0.0070 H   0  0  0  0  0  0  0  0  0  0  0  0
   -1.2050   -0.6727    0.0000 C   0  0  0  0  0  0  0  0  0  0  0  0
   -2.0889   -1.1678    0.0061 H   0  0  0  0  0  0  0  0  0  0  0  0
   -0.0187   -1.3775   -0.0063 C   0  0  0  0  0  0  0  0  0  0  0  0
   -0.0317   -2.3811   -0.0156 H   0  0  0  0  0  0  0  0  0  0  0  0
    1.2050   -0.7050   -0.0000 C   0  0  0  0  0  0  0  0  0  0  0  0
    2.0684   -1.2191    0.0053 H   0  0  0  0  0  0  0  0  0  0  0  0
    1.2027    0.6716    0.0010 C   0  0  0  0  0  0  0  0  0  0  0  0
    2.0718    1.1730   -0.0022 H   0  0  0  0  0  0  0  0  0  0  0  0
  1  5  1  0
  5  6  1  0
  5  7  2  0
  1  2  1  0
  1  3  1  0
  1  4  1  0
  8 12  1  0
 12 13  2  0
 13 15  1  0
 15 17  2  0
 17 19  1  0
 19 21  2  0
 21 12  1  0
  8  9  1  0
  8 10  1  0
  8 11  1  0
 13 14  1  0
 15 16  1  0
 17 18  1  0
 19 20  1  0
 21 22  1  0
M  CHG  1   6  -1
M  END
>  <PDB_ID>  (1403) 
pdb3gmw

>  <RESIDUE_NAME>  (1403) 
GLU   PHE

>  <FRAG_NAME>  (1403) 
ACET   MBZ

>  <FRAG_ATOM_NUM>  (1403) 
fragi: 7  fragj: 15

>  <atom.prop.CHAIN_ID>  (1403) 
A A A A A A A Z Z Z Z Z Z Z Z Z Z Z Z Z Z Z

>  <atom.prop.IS_HEAVY_ATOM>  (1403) 
1 0 0 0 1 1 1 1 0 0 0 1 1 0 1 0 1 0 1 0 1 0

>  <DIFUSE_FUNC_ATOM>  (1403) 
atom 6   atom 7   

>  <FINAL_SINGLE_POINT_ENERGY>  (1403) 
0

>  <NONCOV_INTER_ENERGY_QM>  (1403) 
0

>  <FF_Energy>  (1403) 
2.64

>  <QM_Energy>  (1403) 
-5.75

>  <source>  (1403) 
ACET_MBZ_01

>  <Index>  (1403) 
17468

$$$$
ACET-pdb3gmw-C-GLU-37:MBZ-pdb3gmw-C-PHE-60
     RDKit          3D

 22 21  0  0  0  0  0  0  0  0999 V2000
    3.5828   -3.0737   -2.1115 C   0  0  0  0  0  0  0  0  0  0  0  0
    4.4560   -2.6381   -2.0418 H   0  0  0  0  0  0  0  0  0  0  0  0
    2.8958   -2.4969   -2.5011 H   0  0  0  0  0  0  0  0  0  0  0  0
    3.6884   -3.9584   -2.7394 H   0  0  0  0  0  0  0  0  0  0  0  0
    3.1369   -3.4382   -0.7095 C   0  0  0  0  0  0  0  0  0  0  0  0
    2.6851   -4.5821   -0.5239 O   0  0  0  0  0  1  0  0  0  0  0  0
    3.2613   -2.6109    0.2189 O   0  0  0  0  0  0  0  0  0  0  0  0
   -0.0041    2.8724    0.0212 C   0  0  0  0  0  0  0  0  0  0  0  0
   -0.7467    3.2009   -0.5401 H   0  0  0  0  0  0  0  0  0  0  0  0
    0.8685    3.2030   -0.3008 H   0  0  0  0  0  0  0  0  0  0  0  0
   -0.1527    3.2750    1.0232 H   0  0  0  0  0  0  0  0  0  0  0  0
    0.0030    1.3928   -0.0132 C   0  0  0  0  0  0  0  0  0  0  0  0
   -1.1903    0.6883   -0.0010 C   0  0  0  0  0  0  0  0  0  0  0  0
   -2.0567    1.1835    0.0062 H   0  0  0  0  0  0  0  0  0  0  0  0
   -1.1933   -0.6885   -0.0000 C   0  0  0  0  0  0  0  0  0  0  0  0
   -2.0770   -1.1842   -0.0076 H   0  0  0  0  0  0  0  0  0  0  0  0
   -0.0066   -1.3847    0.0134 C   0  0  0  0  0  0  0  0  0  0  0  0
   -0.0168   -2.3884    0.0322 H   0  0  0  0  0  0  0  0  0  0  0  0
    1.1933   -0.7053   -0.0000 C   0  0  0  0  0  0  0  0  0  0  0  0
    2.0736   -1.1992   -0.0088 H   0  0  0  0  0  0  0  0  0  0  0  0
    1.1938    0.6973    0.0008 C   0  0  0  0  0  0  0  0  0  0  0  0
    2.0639    1.1829    0.0108 H   0  0  0  0  0  0  0  0  0  0  0  0
  1  5  1  0
  5  6  1  0
  5  7  2  0
  1  2  1  0
  1  3  1  0
  1  4  1  0
  8 12  1  0
 12 13  2  0
 13 15  1  0
 15 17  2  0
 17 19  1  0
 19 21  2  0
 21 12  1  0
  8  9  1  0
  8 10  1  0
  8 11  1  0
 13 14  1  0
 15 16  1  0
 17 18  1  0
 19 20  1  0
 21 22  1  0
M  CHG  1   6  -1
M  END
>  <PDB_ID>  (1404) 
pdb3gmw

>  <RESIDUE_NAME>  (1404) 
GLU   PHE

>  <FRAG_NAME>  (1404) 
ACET   MBZ

>  <FRAG_ATOM_NUM>  (1404) 
fragi: 7  fragj: 15

>  <atom.prop.CHAIN_ID>  (1404) 
A A A A A A A Z Z Z Z Z Z Z Z Z Z Z Z Z Z Z

>  <atom.prop.IS_HEAVY_ATOM>  (1404) 
1 0 0 0 1 1 1 1 0 0 0 1 1 0 1 0 1 0 1 0 1 0

>  <DIFUSE_FUNC_ATOM>  (1404) 
atom 6   atom 7   

>  <FINAL_SINGLE_POINT_ENERGY>  (1404) 
0

>  <NONCOV_INTER_ENERGY_QM>  (1404) 
0

>  <FF_Energy>  (1404) 
18.53

>  <QM_Energy>  (1404) 
-4.62

>  <source>  (1404) 
ACET_MBZ_01

>  <Index>  (1404) 
17482

$$$$
ACET-pdb3gnq-A-GLU-97:MBZ-pdb3gnq-A-PHE-102
     RDKit          3D

 22 21  0  0  0  0  0  0  0  0999 V2000
    2.0681    4.8322    2.4407 C   0  0  0  0  0  0  0  0  0  0  0  0
    1.1135    4.8305    2.1873 H   0  0  0  0  0  0  0  0  0  0  0  0
    2.6242    5.2749    1.7545 H   0  0  0  0  0  0  0  0  0  0  0  0
    2.1811    5.3647    3.3851 H   0  0  0  0  0  0  0  0  0  0  0  0
    2.5150    3.3667    2.4966 C   0  0  0  0  0  0  0  0  0  0  0  0
    1.9571    2.5953    3.3102 O   0  0  0  0  0  1  0  0  0  0  0  0
    3.4030    2.9840    1.6993 O   0  0  0  0  0  0  0  0  0  0  0  0
    0.0002    2.8949   -0.0285 C   0  0  0  0  0  0  0  0  0  0  0  0
    0.8121    3.2158    0.4317 H   0  0  0  0  0  0  0  0  0  0  0  0
   -0.8207    3.2147    0.4181 H   0  0  0  0  0  0  0  0  0  0  0  0
    0.0083    3.3089   -1.0367 H   0  0  0  0  0  0  0  0  0  0  0  0
    0.0012    1.3980    0.0035 C   0  0  0  0  0  0  0  0  0  0  0  0
   -1.1906    0.6881    0.0028 C   0  0  0  0  0  0  0  0  0  0  0  0
   -2.0595    1.1772    0.0029 H   0  0  0  0  0  0  0  0  0  0  0  0
   -1.1942   -0.6996   -0.0000 C   0  0  0  0  0  0  0  0  0  0  0  0
   -2.0728   -1.1922    0.0013 H   0  0  0  0  0  0  0  0  0  0  0  0
   -0.0001   -1.3892   -0.0028 C   0  0  0  0  0  0  0  0  0  0  0  0
   -0.0008   -2.3910   -0.0074 H   0  0  0  0  0  0  0  0  0  0  0  0
    1.1942   -0.6942    0.0000 C   0  0  0  0  0  0  0  0  0  0  0  0
    2.0786   -1.1894    0.0057 H   0  0  0  0  0  0  0  0  0  0  0  0
    1.1895    0.6970   -0.0034 C   0  0  0  0  0  0  0  0  0  0  0  0
    2.0607    1.1899   -0.0114 H   0  0  0  0  0  0  0  0  0  0  0  0
  1  5  1  0
  5  6  1  0
  5  7  2  0
  1  2  1  0
  1  3  1  0
  1  4  1  0
  8 12  1  0
 12 13  2  0
 13 15  1  0
 15 17  2  0
 17 19  1  0
 19 21  2  0
 21 12  1  0
  8  9  1  0
  8 10  1  0
  8 11  1  0
 13 14  1  0
 15 16  1  0
 17 18  1  0
 19 20  1  0
 21 22  1  0
M  CHG  1   6  -1
M  END
>  <PDB_ID>  (1405) 
pdb3gnq

>  <RESIDUE_NAME>  (1405) 
GLU   PHE

>  <FRAG_NAME>  (1405) 
ACET   MBZ

>  <FRAG_ATOM_NUM>  (1405) 
fragi: 7  fragj: 15

>  <atom.prop.CHAIN_ID>  (1405) 
A A A A A A A Z Z Z Z Z Z Z Z Z Z Z Z Z Z Z

>  <atom.prop.IS_HEAVY_ATOM>  (1405) 
1 0 0 0 1 1 1 1 0 0 0 1 1 0 1 0 1 0 1 0 1 0

>  <DIFUSE_FUNC_ATOM>  (1405) 
atom 6   atom 7   

>  <FINAL_SINGLE_POINT_ENERGY>  (1405) 
0

>  <NONCOV_INTER_ENERGY_QM>  (1405) 
0

>  <FF_Energy>  (1405) 
-0.66

>  <QM_Energy>  (1405) 
-5.72

>  <source>  (1405) 
ACET_MBZ_01

>  <Index>  (1405) 
17538

$$$$
ACET-pdb3gnq-C-GLU-97:MBZ-pdb3gnq-C-PHE-102
     RDKit          3D

 22 21  0  0  0  0  0  0  0  0999 V2000
    3.2023    4.3689    1.3794 C   0  0  0  0  0  0  0  0  0  0  0  0
    2.2659    4.4196    1.6801 H   0  0  0  0  0  0  0  0  0  0  0  0
    3.3460    4.8611    0.5379 H   0  0  0  0  0  0  0  0  0  0  0  0
    3.8385    4.8028    2.1509 H   0  0  0  0  0  0  0  0  0  0  0  0
    3.5173    2.9193    1.1162 C   0  0  0  0  0  0  0  0  0  0  0  0
    3.5955    2.1390    2.1009 O   0  0  0  0  0  1  0  0  0  0  0  0
    3.6702    2.5668   -0.0758 O   0  0  0  0  0  0  0  0  0  0  0  0
    0.0014    2.9235   -0.0154 C   0  0  0  0  0  0  0  0  0  0  0  0
    0.9126    3.2276    0.2073 H   0  0  0  0  0  0  0  0  0  0  0  0
   -0.6600    3.2309    0.6480 H   0  0  0  0  0  0  0  0  0  0  0  0
   -0.2675    3.3559   -0.9791 H   0  0  0  0  0  0  0  0  0  0  0  0
    0.0015    1.4038   -0.0013 C   0  0  0  0  0  0  0  0  0  0  0  0
   -1.1897    0.6972   -0.0024 C   0  0  0  0  0  0  0  0  0  0  0  0
   -2.0594    1.1846   -0.0065 H   0  0  0  0  0  0  0  0  0  0  0  0
   -1.1942   -0.6957   -0.0000 C   0  0  0  0  0  0  0  0  0  0  0  0
   -2.0758   -1.1855    0.0022 H   0  0  0  0  0  0  0  0  0  0  0  0
   -0.0017   -1.3907    0.0009 C   0  0  0  0  0  0  0  0  0  0  0  0
   -0.0090   -2.3923    0.0017 H   0  0  0  0  0  0  0  0  0  0  0  0
    1.1942   -0.7026    0.0000 C   0  0  0  0  0  0  0  0  0  0  0  0
    2.0774   -1.1984   -0.0016 H   0  0  0  0  0  0  0  0  0  0  0  0
    1.1899    0.6881    0.0028 C   0  0  0  0  0  0  0  0  0  0  0  0
    2.0638    1.1821    0.0073 H   0  0  0  0  0  0  0  0  0  0  0  0
  1  5  1  0
  5  6  1  0
  5  7  2  0
  1  2  1  0
  1  3  1  0
  1  4  1  0
  8 12  1  0
 12 13  2  0
 13 15  1  0
 15 17  2  0
 17 19  1  0
 19 21  2  0
 21 12  1  0
  8  9  1  0
  8 10  1  0
  8 11  1  0
 13 14  1  0
 15 16  1  0
 17 18  1  0
 19 20  1  0
 21 22  1  0
M  CHG  1   6  -1
M  END
>  <PDB_ID>  (1406) 
pdb3gnq

>  <RESIDUE_NAME>  (1406) 
GLU   PHE

>  <FRAG_NAME>  (1406) 
ACET   MBZ

>  <FRAG_ATOM_NUM>  (1406) 
fragi: 7  fragj: 15

>  <atom.prop.CHAIN_ID>  (1406) 
A A A A A A A Z Z Z Z Z Z Z Z Z Z Z Z Z Z Z

>  <atom.prop.IS_HEAVY_ATOM>  (1406) 
1 0 0 0 1 1 1 1 0 0 0 1 1 0 1 0 1 0 1 0 1 0

>  <DIFUSE_FUNC_ATOM>  (1406) 
atom 6   atom 7   

>  <FINAL_SINGLE_POINT_ENERGY>  (1406) 
0

>  <NONCOV_INTER_ENERGY_QM>  (1406) 
0

>  <FF_Energy>  (1406) 
1.88

>  <QM_Energy>  (1406) 
-7.62

>  <source>  (1406) 
ACET_MBZ_01

>  <Index>  (1406) 
17540

$$$$
ACET-pdb3gnq-H-GLU-97:MBZ-pdb3gnq-H-PHE-102
     RDKit          3D

 22 21  0  0  0  0  0  0  0  0999 V2000
    3.1603    4.5832    1.3531 C   0  0  0  0  0  0  0  0  0  0  0  0
    2.2010    4.6196    1.5898 H   0  0  0  0  0  0  0  0  0  0  0  0
    3.3381    5.0578    0.5036 H   0  0  0  0  0  0  0  0  0  0  0  0
    3.7258    5.0741    2.1451 H   0  0  0  0  0  0  0  0  0  0  0  0
    3.5280    3.1382    1.1548 C   0  0  0  0  0  0  0  0  0  0  0  0
    3.5094    2.3718    2.1432 O   0  0  0  0  0  1  0  0  0  0  0  0
    3.8387    2.7718    0.0023 O   0  0  0  0  0  0  0  0  0  0  0  0
   -0.0087    2.8936   -0.0152 C   0  0  0  0  0  0  0  0  0  0  0  0
    0.8913    3.2075    0.2431 H   0  0  0  0  0  0  0  0  0  0  0  0
   -0.6972    3.2052    0.6212 H   0  0  0  0  0  0  0  0  0  0  0  0
   -0.2408    3.3219   -0.9903 H   0  0  0  0  0  0  0  0  0  0  0  0
   -0.0035    1.3912    0.0002 C   0  0  0  0  0  0  0  0  0  0  0  0
   -1.1929    0.6862   -0.0066 C   0  0  0  0  0  0  0  0  0  0  0  0
   -2.0607    1.1846   -0.0182 H   0  0  0  0  0  0  0  0  0  0  0  0
   -1.1981   -0.6832   -0.0000 C   0  0  0  0  0  0  0  0  0  0  0  0
   -2.0731   -1.1879   -0.0003 H   0  0  0  0  0  0  0  0  0  0  0  0
    0.0055   -1.3866    0.0085 C   0  0  0  0  0  0  0  0  0  0  0  0
   -0.0081   -2.3843    0.0201 H   0  0  0  0  0  0  0  0  0  0  0  0
    1.1981   -0.6958    0.0000 C   0  0  0  0  0  0  0  0  0  0  0  0
    2.0822   -1.1919   -0.0031 H   0  0  0  0  0  0  0  0  0  0  0  0
    1.1908    0.6882   -0.0021 C   0  0  0  0  0  0  0  0  0  0  0  0
    2.0585    1.1884   -0.0068 H   0  0  0  0  0  0  0  0  0  0  0  0
  1  5  1  0
  5  6  1  0
  5  7  2  0
  1  2  1  0
  1  3  1  0
  1  4  1  0
  8 12  1  0
 12 13  2  0
 13 15  1  0
 15 17  2  0
 17 19  1  0
 19 21  2  0
 21 12  1  0
  8  9  1  0
  8 10  1  0
  8 11  1  0
 13 14  1  0
 15 16  1  0
 17 18  1  0
 19 20  1  0
 21 22  1  0
M  CHG  1   6  -1
M  END
>  <PDB_ID>  (1407) 
pdb3gnq

>  <RESIDUE_NAME>  (1407) 
GLU   PHE

>  <FRAG_NAME>  (1407) 
ACET   MBZ

>  <FRAG_ATOM_NUM>  (1407) 
fragi: 7  fragj: 15

>  <atom.prop.CHAIN_ID>  (1407) 
A A A A A A A Z Z Z Z Z Z Z Z Z Z Z Z Z Z Z

>  <atom.prop.IS_HEAVY_ATOM>  (1407) 
1 0 0 0 1 1 1 1 0 0 0 1 1 0 1 0 1 0 1 0 1 0

>  <DIFUSE_FUNC_ATOM>  (1407) 
atom 6   atom 7   

>  <FINAL_SINGLE_POINT_ENERGY>  (1407) 
0

>  <NONCOV_INTER_ENERGY_QM>  (1407) 
0

>  <FF_Energy>  (1407) 
-1.75

>  <QM_Energy>  (1407) 
-7.76

>  <source>  (1407) 
ACET_MBZ_01

>  <Index>  (1407) 
17548

$$$$
ACET-pdb3gjx-A-GLU-1037:MBZ-pdb3gjx-A-PHE-1034
     RDKit          3D

 22 21  0  0  0  0  0  0  0  0999 V2000
    3.2453    4.1364   -2.2744 C   0  0  0  0  0  0  0  0  0  0  0  0
    4.0457    4.3944   -2.7860 H   0  0  0  0  0  0  0  0  0  0  0  0
    3.2823    4.4575   -1.3444 H   0  0  0  0  0  0  0  0  0  0  0  0
    2.3758    4.5845   -2.7554 H   0  0  0  0  0  0  0  0  0  0  0  0
    3.1925    2.6231   -2.2354 C   0  0  0  0  0  0  0  0  0  0  0  0
    2.1215    2.0549   -2.5400 O   0  0  0  0  0  1  0  0  0  0  0  0
    4.2231    2.0028   -1.8976 O   0  0  0  0  0  0  0  0  0  0  0  0
   -0.0018    2.8880    0.0062 C   0  0  0  0  0  0  0  0  0  0  0  0
   -0.8997    3.1989   -0.2702 H   0  0  0  0  0  0  0  0  0  0  0  0
    0.6948    3.2023   -0.6232 H   0  0  0  0  0  0  0  0  0  0  0  0
    0.2126    3.3275    0.9803 H   0  0  0  0  0  0  0  0  0  0  0  0
    0.0000    1.3935   -0.0005 C   0  0  0  0  0  0  0  0  0  0  0  0
   -1.1916    0.6894   -0.0005 C   0  0  0  0  0  0  0  0  0  0  0  0
   -2.0600    1.1817   -0.0021 H   0  0  0  0  0  0  0  0  0  0  0  0
   -1.1956   -0.6920   -0.0000 C   0  0  0  0  0  0  0  0  0  0  0  0
   -2.0743   -1.1877    0.0007 H   0  0  0  0  0  0  0  0  0  0  0  0
   -0.0009   -1.3852    0.0012 C   0  0  0  0  0  0  0  0  0  0  0  0
   -0.0058   -2.3872    0.0028 H   0  0  0  0  0  0  0  0  0  0  0  0
    1.1956   -0.6944    0.0000 C   0  0  0  0  0  0  0  0  0  0  0  0
    2.0779   -1.1953    0.0007 H   0  0  0  0  0  0  0  0  0  0  0  0
    1.1925    0.6888   -0.0002 C   0  0  0  0  0  0  0  0  0  0  0  0
    2.0612    1.1869   -0.0007 H   0  0  0  0  0  0  0  0  0  0  0  0
  1  5  1  0
  5  6  1  0
  5  7  2  0
  1  2  1  0
  1  3  1  0
  1  4  1  0
  8 12  1  0
 12 13  2  0
 13 15  1  0
 15 17  2  0
 17 19  1  0
 19 21  2  0
 21 12  1  0
  8  9  1  0
  8 10  1  0
  8 11  1  0
 13 14  1  0
 15 16  1  0
 17 18  1  0
 19 20  1  0
 21 22  1  0
M  CHG  1   6  -1
M  END
>  <PDB_ID>  (1408) 
pdb3gjx

>  <RESIDUE_NAME>  (1408) 
GLU   PHE

>  <FRAG_NAME>  (1408) 
ACET   MBZ

>  <FRAG_ATOM_NUM>  (1408) 
fragi: 7  fragj: 15

>  <atom.prop.CHAIN_ID>  (1408) 
A A A A A A A Z Z Z Z Z Z Z Z Z Z Z Z Z Z Z

>  <atom.prop.IS_HEAVY_ATOM>  (1408) 
1 0 0 0 1 1 1 1 0 0 0 1 1 0 1 0 1 0 1 0 1 0

>  <DIFUSE_FUNC_ATOM>  (1408) 
atom 6   atom 7   

>  <FINAL_SINGLE_POINT_ENERGY>  (1408) 
0

>  <NONCOV_INTER_ENERGY_QM>  (1408) 
0

>  <FF_Energy>  (1408) 
0.35

>  <QM_Energy>  (1408) 
-5.67

>  <source>  (1408) 
ACET_MBZ_01

>  <Index>  (1408) 
17614

$$$$
ACET-pdb4d7k-C-ASP-246:MBZ-pdb4d7k-C-PHE-179
     RDKit          3D

 22 21  0  0  0  0  0  0  0  0999 V2000
   -4.5306    2.6942    1.2642 C   0  0  0  0  0  0  0  0  0  0  0  0
   -4.2688    1.8698    0.7760 H   0  0  0  0  0  0  0  0  0  0  0  0
   -5.4507    2.9705    1.0130 H   0  0  0  0  0  0  0  0  0  0  0  0
   -4.5251    2.4700    2.3309 H   0  0  0  0  0  0  0  0  0  0  0  0
   -3.5669    3.8099    0.8898 C   0  0  0  0  0  0  0  0  0  0  0  0
   -2.5431    3.9840    1.5833 O   0  0  0  0  0  1  0  0  0  0  0  0
   -3.8333    4.5153   -0.1058 O   0  0  0  0  0  0  0  0  0  0  0  0
   -0.0014    2.8992   -0.0037 C   0  0  0  0  0  0  0  0  0  0  0  0
    0.8851    3.2070    0.3022 H   0  0  0  0  0  0  0  0  0  0  0  0
   -0.7198    3.2059    0.5994 H   0  0  0  0  0  0  0  0  0  0  0  0
   -0.1843    3.3293   -0.9884 H   0  0  0  0  0  0  0  0  0  0  0  0
    0.0005    1.3957    0.0019 C   0  0  0  0  0  0  0  0  0  0  0  0
   -1.1933    0.6887    0.0018 C   0  0  0  0  0  0  0  0  0  0  0  0
   -2.0607    1.1823    0.0018 H   0  0  0  0  0  0  0  0  0  0  0  0
   -1.1995   -0.6944    0.0000 C   0  0  0  0  0  0  0  0  0  0  0  0
   -2.0768   -1.1898   -0.0005 H   0  0  0  0  0  0  0  0  0  0  0  0
   -0.0014   -1.3881   -0.0003 C   0  0  0  0  0  0  0  0  0  0  0  0
   -0.0037   -2.3878   -0.0009 H   0  0  0  0  0  0  0  0  0  0  0  0
    1.1995   -0.6928    0.0000 C   0  0  0  0  0  0  0  0  0  0  0  0
    2.0801   -1.1938    0.0040 H   0  0  0  0  0  0  0  0  0  0  0  0
    1.1942    0.6909   -0.0035 C   0  0  0  0  0  0  0  0  0  0  0  0
    2.0627    1.1899   -0.0103 H   0  0  0  0  0  0  0  0  0  0  0  0
  1  5  1  0
  5  6  1  0
  5  7  2  0
  1  2  1  0
  1  3  1  0
  1  4  1  0
  8 12  1  0
 12 13  2  0
 13 15  1  0
 15 17  2  0
 17 19  1  0
 19 21  2  0
 21 12  1  0
  8  9  1  0
  8 10  1  0
  8 11  1  0
 13 14  1  0
 15 16  1  0
 17 18  1  0
 19 20  1  0
 21 22  1  0
M  CHG  1   6  -1
M  END
>  <PDB_ID>  (1409) 
pdb4d7k

>  <RESIDUE_NAME>  (1409) 
ASP   PHE

>  <FRAG_NAME>  (1409) 
ACET   MBZ

>  <FRAG_ATOM_NUM>  (1409) 
fragi: 7  fragj: 15

>  <atom.prop.CHAIN_ID>  (1409) 
A A A A A A A Z Z Z Z Z Z Z Z Z Z Z Z Z Z Z

>  <atom.prop.IS_HEAVY_ATOM>  (1409) 
1 0 0 0 1 1 1 1 0 0 0 1 1 0 1 0 1 0 1 0 1 0

>  <DIFUSE_FUNC_ATOM>  (1409) 
atom 6   atom 7   

>  <FINAL_SINGLE_POINT_ENERGY>  (1409) 
0

>  <NONCOV_INTER_ENERGY_QM>  (1409) 
0

>  <FF_Energy>  (1409) 
-0.54

>  <QM_Energy>  (1409) 
-6.95

>  <source>  (1409) 
ACET_MBZ_01

>  <Index>  (1409) 
17664

$$$$
ACET-pdb4d7k-F-ASP-246:MBZ-pdb4d7k-F-PHE-179
     RDKit          3D

 22 21  0  0  0  0  0  0  0  0999 V2000
   -4.7271    2.5982    1.0881 C   0  0  0  0  0  0  0  0  0  0  0  0
   -4.5429    1.7655    0.5782 H   0  0  0  0  0  0  0  0  0  0  0  0
   -5.6008    2.9858    0.8182 H   0  0  0  0  0  0  0  0  0  0  0  0
   -4.7861    2.3389    2.1452 H   0  0  0  0  0  0  0  0  0  0  0  0
   -3.6324    3.6052    0.7913 C   0  0  0  0  0  0  0  0  0  0  0  0
   -2.7457    3.8030    1.6457 O   0  0  0  0  0  1  0  0  0  0  0  0
   -3.6532    4.1973   -0.3068 O   0  0  0  0  0  0  0  0  0  0  0  0
    0.0015    2.8965    0.0098 C   0  0  0  0  0  0  0  0  0  0  0  0
    0.9169    3.2003    0.2268 H   0  0  0  0  0  0  0  0  0  0  0  0
   -0.6485    3.1987    0.6910 H   0  0  0  0  0  0  0  0  0  0  0  0
   -0.2811    3.3445   -0.9430 H   0  0  0  0  0  0  0  0  0  0  0  0
   -0.0002    1.3938   -0.0005 C   0  0  0  0  0  0  0  0  0  0  0  0
   -1.1931    0.6885    0.0010 C   0  0  0  0  0  0  0  0  0  0  0  0
   -2.0596    1.1834    0.0017 H   0  0  0  0  0  0  0  0  0  0  0  0
   -1.1967   -0.6896   -0.0000 C   0  0  0  0  0  0  0  0  0  0  0  0
   -2.0756   -1.1884    0.0021 H   0  0  0  0  0  0  0  0  0  0  0  0
   -0.0015   -1.3841   -0.0022 C   0  0  0  0  0  0  0  0  0  0  0  0
   -0.0070   -2.3859   -0.0061 H   0  0  0  0  0  0  0  0  0  0  0  0
    1.1967   -0.6947   -0.0000 C   0  0  0  0  0  0  0  0  0  0  0  0
    2.0772   -1.1976    0.0022 H   0  0  0  0  0  0  0  0  0  0  0  0
    1.1948    0.6860    0.0016 C   0  0  0  0  0  0  0  0  0  0  0  0
    2.0627    1.1861    0.0036 H   0  0  0  0  0  0  0  0  0  0  0  0
  1  5  1  0
  5  6  1  0
  5  7  2  0
  1  2  1  0
  1  3  1  0
  1  4  1  0
  8 12  1  0
 12 13  2  0
 13 15  1  0
 15 17  2  0
 17 19  1  0
 19 21  2  0
 21 12  1  0
  8  9  1  0
  8 10  1  0
  8 11  1  0
 13 14  1  0
 15 16  1  0
 17 18  1  0
 19 20  1  0
 21 22  1  0
M  CHG  1   6  -1
M  END
>  <PDB_ID>  (1410) 
pdb4d7k

>  <RESIDUE_NAME>  (1410) 
ASP   PHE

>  <FRAG_NAME>  (1410) 
ACET   MBZ

>  <FRAG_ATOM_NUM>  (1410) 
fragi: 7  fragj: 15

>  <atom.prop.CHAIN_ID>  (1410) 
A A A A A A A Z Z Z Z Z Z Z Z Z Z Z Z Z Z Z

>  <atom.prop.IS_HEAVY_ATOM>  (1410) 
1 0 0 0 1 1 1 1 0 0 0 1 1 0 1 0 1 0 1 0 1 0

>  <DIFUSE_FUNC_ATOM>  (1410) 
atom 6   atom 7   

>  <FINAL_SINGLE_POINT_ENERGY>  (1410) 
0

>  <NONCOV_INTER_ENERGY_QM>  (1410) 
0

>  <FF_Energy>  (1410) 
-1.85

>  <QM_Energy>  (1410) 
-7.56

>  <source>  (1410) 
ACET_MBZ_01

>  <Index>  (1410) 
17687

$$$$
ACET-pdb3gr0-A-GLU-304:MBZ-pdb3gr0-A-PHE-325
     RDKit          3D

 22 21  0  0  0  0  0  0  0  0999 V2000
    2.6127   -3.0835   -1.2536 C   0  0  0  0  0  0  0  0  0  0  0  0
    2.6086   -2.1001   -1.1092 H   0  0  0  0  0  0  0  0  0  0  0  0
    1.7477   -3.4793   -0.9632 H   0  0  0  0  0  0  0  0  0  0  0  0
    2.7583   -3.2856   -2.3147 H   0  0  0  0  0  0  0  0  0  0  0  0
    3.6821   -3.6567   -0.3633 C   0  0  0  0  0  0  0  0  0  0  0  0
    4.7886   -3.0795   -0.2835 O   0  0  0  0  0  1  0  0  0  0  0  0
    3.3758   -4.6542    0.3100 O   0  0  0  0  0  0  0  0  0  0  0  0
    0.0103    2.9144    0.0425 C   0  0  0  0  0  0  0  0  0  0  0  0
   -0.7677    3.2350   -0.4731 H   0  0  0  0  0  0  0  0  0  0  0  0
    0.8599    3.2271   -0.3501 H   0  0  0  0  0  0  0  0  0  0  0  0
   -0.0635    3.3344    1.0456 H   0  0  0  0  0  0  0  0  0  0  0  0
    0.0057    1.4048    0.0077 C   0  0  0  0  0  0  0  0  0  0  0  0
   -1.1912    0.6973   -0.0140 C   0  0  0  0  0  0  0  0  0  0  0  0
   -2.0582    1.1828   -0.0411 H   0  0  0  0  0  0  0  0  0  0  0  0
   -1.1981   -0.7061   -0.0000 C   0  0  0  0  0  0  0  0  0  0  0  0
   -2.0801   -1.1882    0.0211 H   0  0  0  0  0  0  0  0  0  0  0  0
   -0.0073   -1.3952   -0.0130 C   0  0  0  0  0  0  0  0  0  0  0  0
   -0.0003   -2.3936   -0.0325 H   0  0  0  0  0  0  0  0  0  0  0  0
    1.1981   -0.6929   -0.0000 C   0  0  0  0  0  0  0  0  0  0  0  0
    2.0776   -1.1941   -0.0028 H   0  0  0  0  0  0  0  0  0  0  0  0
    1.1928    0.6921    0.0193 C   0  0  0  0  0  0  0  0  0  0  0  0
    2.0661    1.1875    0.0409 H   0  0  0  0  0  0  0  0  0  0  0  0
  1  5  1  0
  5  6  1  0
  5  7  2  0
  1  2  1  0
  1  3  1  0
  1  4  1  0
  8 12  1  0
 12 13  2  0
 13 15  1  0
 15 17  2  0
 17 19  1  0
 19 21  2  0
 21 12  1  0
  8  9  1  0
  8 10  1  0
  8 11  1  0
 13 14  1  0
 15 16  1  0
 17 18  1  0
 19 20  1  0
 21 22  1  0
M  CHG  1   6  -1
M  END
>  <PDB_ID>  (1411) 
pdb3gr0

>  <RESIDUE_NAME>  (1411) 
GLU   PHE

>  <FRAG_NAME>  (1411) 
ACET   MBZ

>  <FRAG_ATOM_NUM>  (1411) 
fragi: 7  fragj: 15

>  <atom.prop.CHAIN_ID>  (1411) 
A A A A A A A Z Z Z Z Z Z Z Z Z Z Z Z Z Z Z

>  <atom.prop.IS_HEAVY_ATOM>  (1411) 
1 0 0 0 1 1 1 1 0 0 0 1 1 0 1 0 1 0 1 0 1 0

>  <DIFUSE_FUNC_ATOM>  (1411) 
atom 6   atom 7   

>  <FINAL_SINGLE_POINT_ENERGY>  (1411) 
0

>  <NONCOV_INTER_ENERGY_QM>  (1411) 
0

>  <FF_Energy>  (1411) 
29.75

>  <QM_Energy>  (1411) 
3.37

>  <source>  (1411) 
ACET_MBZ_01

>  <Index>  (1411) 
17694

$$$$
ACET-pdb3gr0-B-GLU-304:MBZ-pdb3gr0-B-PHE-325
     RDKit          3D

 22 21  0  0  0  0  0  0  0  0999 V2000
    2.5149   -3.1197   -1.4240 C   0  0  0  0  0  0  0  0  0  0  0  0
    2.4757   -2.1435   -1.2208 H   0  0  0  0  0  0  0  0  0  0  0  0
    1.6589   -3.5553   -1.1529 H   0  0  0  0  0  0  0  0  0  0  0  0
    2.6794   -3.2645   -2.4917 H   0  0  0  0  0  0  0  0  0  0  0  0
    3.5906   -3.7009   -0.5354 C   0  0  0  0  0  0  0  0  0  0  0  0
    4.7252   -3.1694   -0.5337 O   0  0  0  0  0  1  0  0  0  0  0  0
    3.2568   -4.6385    0.2238 O   0  0  0  0  0  0  0  0  0  0  0  0
   -0.0021    2.9270    0.0480 C   0  0  0  0  0  0  0  0  0  0  0  0
   -0.8272    3.2448   -0.3839 H   0  0  0  0  0  0  0  0  0  0  0  0
    0.8044    3.2483   -0.4161 H   0  0  0  0  0  0  0  0  0  0  0  0
    0.0170    3.3275    1.0616 H   0  0  0  0  0  0  0  0  0  0  0  0
   -0.0001    1.4120   -0.0048 C   0  0  0  0  0  0  0  0  0  0  0  0
   -1.1951    0.6999   -0.0133 C   0  0  0  0  0  0  0  0  0  0  0  0
   -2.0643    1.1796   -0.0297 H   0  0  0  0  0  0  0  0  0  0  0  0
   -1.1966   -0.7079   -0.0000 C   0  0  0  0  0  0  0  0  0  0  0  0
   -2.0753   -1.1938    0.0165 H   0  0  0  0  0  0  0  0  0  0  0  0
    0.0024   -1.3990   -0.0073 C   0  0  0  0  0  0  0  0  0  0  0  0
   -0.0002   -2.3999   -0.0185 H   0  0  0  0  0  0  0  0  0  0  0  0
    1.1966   -0.7035   -0.0000 C   0  0  0  0  0  0  0  0  0  0  0  0
    2.0820   -1.1930   -0.0114 H   0  0  0  0  0  0  0  0  0  0  0  0
    1.1928    0.6986    0.0254 C   0  0  0  0  0  0  0  0  0  0  0  0
    2.0643    1.1870    0.0653 H   0  0  0  0  0  0  0  0  0  0  0  0
  1  5  1  0
  5  6  1  0
  5  7  2  0
  1  2  1  0
  1  3  1  0
  1  4  1  0
  8 12  1  0
 12 13  2  0
 13 15  1  0
 15 17  2  0
 17 19  1  0
 19 21  2  0
 21 12  1  0
  8  9  1  0
  8 10  1  0
  8 11  1  0
 13 14  1  0
 15 16  1  0
 17 18  1  0
 19 20  1  0
 21 22  1  0
M  CHG  1   6  -1
M  END
>  <PDB_ID>  (1412) 
pdb3gr0

>  <RESIDUE_NAME>  (1412) 
GLU   PHE

>  <FRAG_NAME>  (1412) 
ACET   MBZ

>  <FRAG_ATOM_NUM>  (1412) 
fragi: 7  fragj: 15

>  <atom.prop.CHAIN_ID>  (1412) 
A A A A A A A Z Z Z Z Z Z Z Z Z Z Z Z Z Z Z

>  <atom.prop.IS_HEAVY_ATOM>  (1412) 
1 0 0 0 1 1 1 1 0 0 0 1 1 0 1 0 1 0 1 0 1 0

>  <DIFUSE_FUNC_ATOM>  (1412) 
atom 6   atom 7   

>  <FINAL_SINGLE_POINT_ENERGY>  (1412) 
0

>  <NONCOV_INTER_ENERGY_QM>  (1412) 
0

>  <FF_Energy>  (1412) 
18.4

>  <QM_Energy>  (1412) 
2.03

>  <source>  (1412) 
ACET_MBZ_01

>  <Index>  (1412) 
17696

$$$$
ACET-pdb3gqq-C-ASP-233:MBZ-pdb3gqq-C-PHE-128
     RDKit          3D

 22 21  0  0  0  0  0  0  0  0999 V2000
   -2.9982   -4.4490    0.9854 C   0  0  0  0  0  0  0  0  0  0  0  0
   -3.2985   -5.3977    0.8892 H   0  0  0  0  0  0  0  0  0  0  0  0
   -3.4585   -3.8814    0.3044 H   0  0  0  0  0  0  0  0  0  0  0  0
   -3.3210   -4.1044    1.9679 H   0  0  0  0  0  0  0  0  0  0  0  0
   -1.5105   -4.3770    0.7668 C   0  0  0  0  0  0  0  0  0  0  0  0
   -0.7287   -4.4061    1.7370 O   0  0  0  0  0  1  0  0  0  0  0  0
   -1.1219   -4.3237   -0.4188 O   0  0  0  0  0  0  0  0  0  0  0  0
    0.0082    2.9141    0.0475 C   0  0  0  0  0  0  0  0  0  0  0  0
   -0.7017    3.2407   -0.5543 H   0  0  0  0  0  0  0  0  0  0  0  0
    0.9008    3.2219   -0.2411 H   0  0  0  0  0  0  0  0  0  0  0  0
   -0.1815    3.3209    1.0408 H   0  0  0  0  0  0  0  0  0  0  0  0
   -0.0004    1.4049    0.0010 C   0  0  0  0  0  0  0  0  0  0  0  0
   -1.1984    0.6991    0.0001 C   0  0  0  0  0  0  0  0  0  0  0  0
   -2.0642    1.1867   -0.0021 H   0  0  0  0  0  0  0  0  0  0  0  0
   -1.2022   -0.6964   -0.0000 C   0  0  0  0  0  0  0  0  0  0  0  0
   -2.0775   -1.1895    0.0004 H   0  0  0  0  0  0  0  0  0  0  0  0
    0.0032   -1.3974    0.0006 C   0  0  0  0  0  0  0  0  0  0  0  0
   -0.0052   -2.3952    0.0013 H   0  0  0  0  0  0  0  0  0  0  0  0
    1.2022   -0.7023   -0.0000 C   0  0  0  0  0  0  0  0  0  0  0  0
    2.0849   -1.1963    0.0023 H   0  0  0  0  0  0  0  0  0  0  0  0
    1.1956    0.6921   -0.0017 C   0  0  0  0  0  0  0  0  0  0  0  0
    2.0651    1.1870   -0.0057 H   0  0  0  0  0  0  0  0  0  0  0  0
  1  5  1  0
  5  6  1  0
  5  7  2  0
  1  2  1  0
  1  3  1  0
  1  4  1  0
  8 12  1  0
 12 13  2  0
 13 15  1  0
 15 17  2  0
 17 19  1  0
 19 21  2  0
 21 12  1  0
  8  9  1  0
  8 10  1  0
  8 11  1  0
 13 14  1  0
 15 16  1  0
 17 18  1  0
 19 20  1  0
 21 22  1  0
M  CHG  1   6  -1
M  END
>  <PDB_ID>  (1413) 
pdb3gqq

>  <RESIDUE_NAME>  (1413) 
ASP   PHE

>  <FRAG_NAME>  (1413) 
ACET   MBZ

>  <FRAG_ATOM_NUM>  (1413) 
fragi: 7  fragj: 15

>  <atom.prop.CHAIN_ID>  (1413) 
A A A A A A A Z Z Z Z Z Z Z Z Z Z Z Z Z Z Z

>  <atom.prop.IS_HEAVY_ATOM>  (1413) 
1 0 0 0 1 1 1 1 0 0 0 1 1 0 1 0 1 0 1 0 1 0

>  <DIFUSE_FUNC_ATOM>  (1413) 
atom 6   atom 7   

>  <FINAL_SINGLE_POINT_ENERGY>  (1413) 
0

>  <NONCOV_INTER_ENERGY_QM>  (1413) 
0

>  <FF_Energy>  (1413) 
-1.26

>  <QM_Energy>  (1413) 
-6.37

>  <source>  (1413) 
ACET_MBZ_01

>  <Index>  (1413) 
17824

$$$$
ACET-pdb3guc-B-ASP-176:MBZ-pdb3guc-B-PHE-74
     RDKit          3D

 22 21  0  0  0  0  0  0  0  0999 V2000
    3.7752    2.9592   -2.3114 C   0  0  0  0  0  0  0  0  0  0  0  0
    2.9489    3.4610   -2.5111 H   0  0  0  0  0  0  0  0  0  0  0  0
    3.7671    2.0658   -2.7287 H   0  0  0  0  0  0  0  0  0  0  0  0
    4.6240    3.5186   -2.7047 H   0  0  0  0  0  0  0  0  0  0  0  0
    3.8691    2.7761   -0.7833 C   0  0  0  0  0  0  0  0  0  0  0  0
    4.3599    1.7227   -0.3171 O   0  0  0  0  0  1  0  0  0  0  0  0
    3.4976    3.7211   -0.0563 O   0  0  0  0  0  0  0  0  0  0  0  0
    0.0009    2.9038    0.0091 C   0  0  0  0  0  0  0  0  0  0  0  0
   -0.9181    3.2090   -0.1890 H   0  0  0  0  0  0  0  0  0  0  0  0
    0.6386    3.2089   -0.6829 H   0  0  0  0  0  0  0  0  0  0  0  0
    0.3024    3.3444    0.9595 H   0  0  0  0  0  0  0  0  0  0  0  0
   -0.0010    1.3951    0.0043 C   0  0  0  0  0  0  0  0  0  0  0  0
   -1.1953    0.6926   -0.0025 C   0  0  0  0  0  0  0  0  0  0  0  0
   -2.0613    1.1857   -0.0102 H   0  0  0  0  0  0  0  0  0  0  0  0
   -1.2010   -0.6920    0.0000 C   0  0  0  0  0  0  0  0  0  0  0  0
   -2.0783   -1.1866    0.0063 H   0  0  0  0  0  0  0  0  0  0  0  0
   -0.0029   -1.3874   -0.0047 C   0  0  0  0  0  0  0  0  0  0  0  0
   -0.0057   -2.3864   -0.0121 H   0  0  0  0  0  0  0  0  0  0  0  0
    1.2010   -0.6926    0.0000 C   0  0  0  0  0  0  0  0  0  0  0  0
    2.0791   -1.1992    0.0031 H   0  0  0  0  0  0  0  0  0  0  0  0
    1.1992    0.6843    0.0029 C   0  0  0  0  0  0  0  0  0  0  0  0
    2.0644    1.1876    0.0033 H   0  0  0  0  0  0  0  0  0  0  0  0
  1  5  1  0
  5  6  1  0
  5  7  2  0
  1  2  1  0
  1  3  1  0
  1  4  1  0
  8 12  1  0
 12 13  2  0
 13 15  1  0
 15 17  2  0
 17 19  1  0
 19 21  2  0
 21 12  1  0
  8  9  1  0
  8 10  1  0
  8 11  1  0
 13 14  1  0
 15 16  1  0
 17 18  1  0
 19 20  1  0
 21 22  1  0
M  CHG  1   6  -1
M  END
>  <PDB_ID>  (1414) 
pdb3guc

>  <RESIDUE_NAME>  (1414) 
ASP   PHE

>  <FRAG_NAME>  (1414) 
ACET   MBZ

>  <FRAG_ATOM_NUM>  (1414) 
fragi: 7  fragj: 15

>  <atom.prop.CHAIN_ID>  (1414) 
A A A A A A A Z Z Z Z Z Z Z Z Z Z Z Z Z Z Z

>  <atom.prop.IS_HEAVY_ATOM>  (1414) 
1 0 0 0 1 1 1 1 0 0 0 1 1 0 1 0 1 0 1 0 1 0

>  <DIFUSE_FUNC_ATOM>  (1414) 
atom 6   atom 7   

>  <FINAL_SINGLE_POINT_ENERGY>  (1414) 
0

>  <NONCOV_INTER_ENERGY_QM>  (1414) 
0

>  <FF_Energy>  (1414) 
-2.03

>  <QM_Energy>  (1414) 
-7.89

>  <source>  (1414) 
ACET_MBZ_01

>  <Index>  (1414) 
17914

$$$$
ACET-pdb4dk2-A-ASP-196:MBZ-pdb4dk2-A-PHE-159
     RDKit          3D

 22 21  0  0  0  0  0  0  0  0999 V2000
   -1.9897    0.7054    3.5514 C   0  0  0  0  0  0  0  0  0  0  0  0
   -1.1145    0.4532    3.1724 H   0  0  0  0  0  0  0  0  0  0  0  0
   -2.6881    0.0485    3.3202 H   0  0  0  0  0  0  0  0  0  0  0  0
   -1.8971    0.7419    4.6368 H   0  0  0  0  0  0  0  0  0  0  0  0
   -2.3936    2.0687    2.9700 C   0  0  0  0  0  0  0  0  0  0  0  0
   -3.5831    2.2559    2.5107 O   0  0  0  0  0  1  0  0  0  0  0  0
   -1.5040    2.9395    3.0682 O   0  0  0  0  0  0  0  0  0  0  0  0
   -0.0193    2.8964   -0.0334 C   0  0  0  0  0  0  0  0  0  0  0  0
    0.9197    3.1995   -0.1005 H   0  0  0  0  0  0  0  0  0  0  0  0
   -0.4440    3.2207    0.7987 H   0  0  0  0  0  0  0  0  0  0  0  0
   -0.5721    3.3009   -0.8813 H   0  0  0  0  0  0  0  0  0  0  0  0
   -0.0073    1.3831    0.0212 C   0  0  0  0  0  0  0  0  0  0  0  0
   -1.1839    0.6880   -0.0033 C   0  0  0  0  0  0  0  0  0  0  0  0
   -2.0592    1.1725   -0.0247 H   0  0  0  0  0  0  0  0  0  0  0  0
   -1.1921   -0.7018   -0.0000 C   0  0  0  0  0  0  0  0  0  0  0  0
   -2.0642   -1.1939    0.0014 H   0  0  0  0  0  0  0  0  0  0  0  0
    0.0091   -1.3737    0.0029 C   0  0  0  0  0  0  0  0  0  0  0  0
    0.0028   -2.3883    0.0068 H   0  0  0  0  0  0  0  0  0  0  0  0
    1.1921   -0.6994    0.0000 C   0  0  0  0  0  0  0  0  0  0  0  0
    2.0796   -1.1814    0.0138 H   0  0  0  0  0  0  0  0  0  0  0  0
    1.1821    0.7038   -0.0209 C   0  0  0  0  0  0  0  0  0  0  0  0
    2.0486    1.1928   -0.0672 H   0  0  0  0  0  0  0  0  0  0  0  0
  1  5  1  0
  5  6  1  0
  5  7  2  0
  1  2  1  0
  1  3  1  0
  1  4  1  0
  8 12  1  0
 12 13  2  0
 13 15  1  0
 15 17  2  0
 17 19  1  0
 19 21  2  0
 21 12  1  0
  8  9  1  0
  8 10  1  0
  8 11  1  0
 13 14  1  0
 15 16  1  0
 17 18  1  0
 19 20  1  0
 21 22  1  0
M  CHG  1   6  -1
M  END
>  <PDB_ID>  (1415) 
pdb4dk2

>  <RESIDUE_NAME>  (1415) 
ASP   PHE

>  <FRAG_NAME>  (1415) 
ACET   MBZ

>  <FRAG_ATOM_NUM>  (1415) 
fragi: 7  fragj: 15

>  <atom.prop.CHAIN_ID>  (1415) 
A A A A A A A Z Z Z Z Z Z Z Z Z Z Z Z Z Z Z

>  <atom.prop.IS_HEAVY_ATOM>  (1415) 
1 0 0 0 1 1 1 1 0 0 0 1 1 0 1 0 1 0 1 0 1 0

>  <DIFUSE_FUNC_ATOM>  (1415) 
atom 6   atom 7   

>  <FINAL_SINGLE_POINT_ENERGY>  (1415) 
0

>  <NONCOV_INTER_ENERGY_QM>  (1415) 
0

>  <FF_Energy>  (1415) 
-1.34

>  <QM_Energy>  (1415) 
-6.83

>  <source>  (1415) 
ACET_MBZ_01

>  <Index>  (1415) 
18224

$$$$
ACET-pdb3h43-F-GLU-78:MBZ-pdb3h43-G-PHE-123
     RDKit          3D

 22 21  0  0  0  0  0  0  0  0999 V2000
    3.5033   -3.0139   -0.4480 C   0  0  0  0  0  0  0  0  0  0  0  0
    2.6005   -2.6734   -0.2848 H   0  0  0  0  0  0  0  0  0  0  0  0
    3.5783   -3.9800   -0.3128 H   0  0  0  0  0  0  0  0  0  0  0  0
    3.7892   -2.7770   -1.4728 H   0  0  0  0  0  0  0  0  0  0  0  0
    4.4275   -2.3441    0.5450 C   0  0  0  0  0  0  0  0  0  0  0  0
    4.5355   -1.0947    0.5008 O   0  0  0  0  0  1  0  0  0  0  0  0
    5.0478   -3.0679    1.3578 O   0  0  0  0  0  0  0  0  0  0  0  0
    0.0063    2.9096    0.0554 C   0  0  0  0  0  0  0  0  0  0  0  0
   -0.8841    3.2319   -0.2244 H   0  0  0  0  0  0  0  0  0  0  0  0
    0.7169    3.2361   -0.5471 H   0  0  0  0  0  0  0  0  0  0  0  0
    0.2055    3.3103    1.0493 H   0  0  0  0  0  0  0  0  0  0  0  0
   -0.0006    1.4072    0.0009 C   0  0  0  0  0  0  0  0  0  0  0  0
   -1.1983    0.7015   -0.0012 C   0  0  0  0  0  0  0  0  0  0  0  0
   -2.0644    1.1877   -0.0048 H   0  0  0  0  0  0  0  0  0  0  0  0
   -1.2048   -0.6995   -0.0000 C   0  0  0  0  0  0  0  0  0  0  0  0
   -2.0809   -1.1884    0.0007 H   0  0  0  0  0  0  0  0  0  0  0  0
    0.0006   -1.4011    0.0018 C   0  0  0  0  0  0  0  0  0  0  0  0
   -0.0045   -2.3970    0.0038 H   0  0  0  0  0  0  0  0  0  0  0  0
    1.2048   -0.7014    0.0000 C   0  0  0  0  0  0  0  0  0  0  0  0
    2.0856   -1.1972    0.0016 H   0  0  0  0  0  0  0  0  0  0  0  0
    1.1983    0.6934   -0.0015 C   0  0  0  0  0  0  0  0  0  0  0  0
    2.0668    1.1902   -0.0056 H   0  0  0  0  0  0  0  0  0  0  0  0
  1  5  1  0
  5  6  1  0
  5  7  2  0
  1  2  1  0
  1  3  1  0
  1  4  1  0
  8 12  1  0
 12 13  2  0
 13 15  1  0
 15 17  2  0
 17 19  1  0
 19 21  2  0
 21 12  1  0
  8  9  1  0
  8 10  1  0
  8 11  1  0
 13 14  1  0
 15 16  1  0
 17 18  1  0
 19 20  1  0
 21 22  1  0
M  CHG  1   6  -1
M  END
>  <PDB_ID>  (1416) 
pdb3h43

>  <RESIDUE_NAME>  (1416) 
GLU   PHE

>  <FRAG_NAME>  (1416) 
ACET   MBZ

>  <FRAG_ATOM_NUM>  (1416) 
fragi: 7  fragj: 15

>  <atom.prop.CHAIN_ID>  (1416) 
A A A A A A A Z Z Z Z Z Z Z Z Z Z Z Z Z Z Z

>  <atom.prop.IS_HEAVY_ATOM>  (1416) 
1 0 0 0 1 1 1 1 0 0 0 1 1 0 1 0 1 0 1 0 1 0

>  <DIFUSE_FUNC_ATOM>  (1416) 
atom 6   atom 7   

>  <FINAL_SINGLE_POINT_ENERGY>  (1416) 
0

>  <NONCOV_INTER_ENERGY_QM>  (1416) 
0

>  <FF_Energy>  (1416) 
16.81

>  <QM_Energy>  (1416) 
-1.48

>  <source>  (1416) 
ACET_MBZ_01

>  <Index>  (1416) 
18804

$$$$
ACET-pdb4dvq-A-GLU-474:MBZ-pdb4dvq-E-PHE-280
     RDKit          3D

 22 21  0  0  0  0  0  0  0  0999 V2000
    0.8334    1.4577   -4.4017 C   0  0  0  0  0  0  0  0  0  0  0  0
    1.6959    0.9843   -4.3630 H   0  0  0  0  0  0  0  0  0  0  0  0
    0.6438    1.8051   -5.3035 H   0  0  0  0  0  0  0  0  0  0  0  0
    0.0473    0.7501   -4.1380 H   0  0  0  0  0  0  0  0  0  0  0  0
    0.9259    2.6581   -3.4590 C   0  0  0  0  0  0  0  0  0  0  0  0
   -0.0192    3.5131   -3.4502 O   0  0  0  0  0  1  0  0  0  0  0  0
    1.9663    2.7473   -2.7463 O   0  0  0  0  0  0  0  0  0  0  0  0
    0.0007    2.8816    0.0398 C   0  0  0  0  0  0  0  0  0  0  0  0
   -0.8377    3.2102   -0.3572 H   0  0  0  0  0  0  0  0  0  0  0  0
    0.7933    3.2101   -0.4424 H   0  0  0  0  0  0  0  0  0  0  0  0
    0.0534    3.2715    1.0564 H   0  0  0  0  0  0  0  0  0  0  0  0
   -0.0018    1.3879   -0.0086 C   0  0  0  0  0  0  0  0  0  0  0  0
   -1.1882    0.6860   -0.0005 C   0  0  0  0  0  0  0  0  0  0  0  0
   -2.0577    1.1822    0.0039 H   0  0  0  0  0  0  0  0  0  0  0  0
   -1.1948   -0.6855   -0.0000 C   0  0  0  0  0  0  0  0  0  0  0  0
   -2.0755   -1.1838    0.0061 H   0  0  0  0  0  0  0  0  0  0  0  0
   -0.0044   -1.3795   -0.0063 C   0  0  0  0  0  0  0  0  0  0  0  0
   -0.0109   -2.3830   -0.0160 H   0  0  0  0  0  0  0  0  0  0  0  0
    1.1948   -0.6941   -0.0000 C   0  0  0  0  0  0  0  0  0  0  0  0
    2.0744   -1.1984   -0.0057 H   0  0  0  0  0  0  0  0  0  0  0  0
    1.1943    0.6852    0.0154 C   0  0  0  0  0  0  0  0  0  0  0  0
    2.0596    1.1853    0.0430 H   0  0  0  0  0  0  0  0  0  0  0  0
  1  5  1  0
  5  6  1  0
  5  7  2  0
  1  2  1  0
  1  3  1  0
  1  4  1  0
  8 12  1  0
 12 13  2  0
 13 15  1  0
 15 17  2  0
 17 19  1  0
 19 21  2  0
 21 12  1  0
  8  9  1  0
  8 10  1  0
  8 11  1  0
 13 14  1  0
 15 16  1  0
 17 18  1  0
 19 20  1  0
 21 22  1  0
M  CHG  1   6  -1
M  END
>  <PDB_ID>  (1417) 
pdb4dvq

>  <RESIDUE_NAME>  (1417) 
GLU   PHE

>  <FRAG_NAME>  (1417) 
ACET   MBZ

>  <FRAG_ATOM_NUM>  (1417) 
fragi: 7  fragj: 15

>  <atom.prop.CHAIN_ID>  (1417) 
A A A A A A A Z Z Z Z Z Z Z Z Z Z Z Z Z Z Z

>  <atom.prop.IS_HEAVY_ATOM>  (1417) 
1 0 0 0 1 1 1 1 0 0 0 1 1 0 1 0 1 0 1 0 1 0

>  <DIFUSE_FUNC_ATOM>  (1417) 
atom 6   atom 7   

>  <FINAL_SINGLE_POINT_ENERGY>  (1417) 
0

>  <NONCOV_INTER_ENERGY_QM>  (1417) 
0

>  <FF_Energy>  (1417) 
-0.26

>  <QM_Energy>  (1417) 
-6.16

>  <source>  (1417) 
ACET_MBZ_01

>  <Index>  (1417) 
18817

$$$$
ACET-pdb4dyd-A-ASP-219:MBZ-pdb4dyd-A-PHE-233
     RDKit          3D

 22 21  0  0  0  0  0  0  0  0999 V2000
    5.1455    4.0719    0.2000 C   0  0  0  0  0  0  0  0  0  0  0  0
    5.1577    4.0524    1.1931 H   0  0  0  0  0  0  0  0  0  0  0  0
    5.4520    4.9536   -0.1352 H   0  0  0  0  0  0  0  0  0  0  0  0
    5.8373    3.3116   -0.1626 H   0  0  0  0  0  0  0  0  0  0  0  0
    3.7218    3.8377   -0.2736 C   0  0  0  0  0  0  0  0  0  0  0  0
    3.5121    2.9342   -1.1089 O   0  0  0  0  0  1  0  0  0  0  0  0
    2.8120    4.5672    0.1740 O   0  0  0  0  0  0  0  0  0  0  0  0
   -0.0050    2.9013   -0.0113 C   0  0  0  0  0  0  0  0  0  0  0  0
    0.8623    3.2138    0.3311 H   0  0  0  0  0  0  0  0  0  0  0  0
   -0.7570    3.2098    0.5416 H   0  0  0  0  0  0  0  0  0  0  0  0
   -0.1364    3.3067   -1.0145 H   0  0  0  0  0  0  0  0  0  0  0  0
   -0.0001    1.4029   -0.0002 C   0  0  0  0  0  0  0  0  0  0  0  0
   -1.2003    0.6944   -0.0002 C   0  0  0  0  0  0  0  0  0  0  0  0
   -2.0658    1.1841   -0.0015 H   0  0  0  0  0  0  0  0  0  0  0  0
   -1.2049   -0.7001    0.0000 C   0  0  0  0  0  0  0  0  0  0  0  0
   -2.0784   -1.1939    0.0006 H   0  0  0  0  0  0  0  0  0  0  0  0
    0.0019   -1.3953    0.0013 C   0  0  0  0  0  0  0  0  0  0  0  0
   -0.0018   -2.3940    0.0030 H   0  0  0  0  0  0  0  0  0  0  0  0
    1.2049   -0.6981    0.0000 C   0  0  0  0  0  0  0  0  0  0  0  0
    2.0854   -1.1935    0.0015 H   0  0  0  0  0  0  0  0  0  0  0  0
    1.1985    0.6963   -0.0009 C   0  0  0  0  0  0  0  0  0  0  0  0
    2.0655    1.1926   -0.0027 H   0  0  0  0  0  0  0  0  0  0  0  0
  1  5  1  0
  5  6  1  0
  5  7  2  0
  1  2  1  0
  1  3  1  0
  1  4  1  0
  8 12  1  0
 12 13  2  0
 13 15  1  0
 15 17  2  0
 17 19  1  0
 19 21  2  0
 21 12  1  0
  8  9  1  0
  8 10  1  0
  8 11  1  0
 13 14  1  0
 15 16  1  0
 17 18  1  0
 19 20  1  0
 21 22  1  0
M  CHG  1   6  -1
M  END
>  <PDB_ID>  (1418) 
pdb4dyd

>  <RESIDUE_NAME>  (1418) 
ASP   PHE

>  <FRAG_NAME>  (1418) 
ACET   MBZ

>  <FRAG_ATOM_NUM>  (1418) 
fragi: 7  fragj: 15

>  <atom.prop.CHAIN_ID>  (1418) 
A A A A A A A Z Z Z Z Z Z Z Z Z Z Z Z Z Z Z

>  <atom.prop.IS_HEAVY_ATOM>  (1418) 
1 0 0 0 1 1 1 1 0 0 0 1 1 0 1 0 1 0 1 0 1 0

>  <DIFUSE_FUNC_ATOM>  (1418) 
atom 6   atom 7   

>  <FINAL_SINGLE_POINT_ENERGY>  (1418) 
0

>  <NONCOV_INTER_ENERGY_QM>  (1418) 
0

>  <FF_Energy>  (1418) 
-1.98

>  <QM_Energy>  (1418) 
-8.64

>  <source>  (1418) 
ACET_MBZ_01

>  <Index>  (1418) 
18938

$$$$
ACET-pdb3h7l-C-GLU-442:MBZ-pdb3h7l-C-PHE-428
     RDKit          3D

 22 21  0  0  0  0  0  0  0  0999 V2000
   -5.3829    3.1492    1.1105 C   0  0  0  0  0  0  0  0  0  0  0  0
   -5.6682    4.0690    1.3277 H   0  0  0  0  0  0  0  0  0  0  0  0
   -5.0132    2.6880    1.9012 H   0  0  0  0  0  0  0  0  0  0  0  0
   -6.2569    2.5940    0.7699 H   0  0  0  0  0  0  0  0  0  0  0  0
   -4.2784    3.2434    0.0783 C   0  0  0  0  0  0  0  0  0  0  0  0
   -3.2196    3.7730    0.4467 O   0  0  0  0  0  1  0  0  0  0  0  0
   -4.4594    2.8072   -1.0860 O   0  0  0  0  0  0  0  0  0  0  0  0
    0.0113    2.9155    0.0047 C   0  0  0  0  0  0  0  0  0  0  0  0
    0.9401    3.2187    0.1408 H   0  0  0  0  0  0  0  0  0  0  0  0
   -0.5829    3.2256    0.7286 H   0  0  0  0  0  0  0  0  0  0  0  0
   -0.3471    3.3502   -0.9285 H   0  0  0  0  0  0  0  0  0  0  0  0
    0.0058    1.4100    0.0088 C   0  0  0  0  0  0  0  0  0  0  0  0
   -1.2085    0.6925   -0.0025 C   0  0  0  0  0  0  0  0  0  0  0  0
   -2.0683    1.1831   -0.0136 H   0  0  0  0  0  0  0  0  0  0  0  0
   -1.2120   -0.7090    0.0000 C   0  0  0  0  0  0  0  0  0  0  0  0
   -2.0840   -1.2014    0.0064 H   0  0  0  0  0  0  0  0  0  0  0  0
   -0.0009   -1.4027   -0.0040 C   0  0  0  0  0  0  0  0  0  0  0  0
    0.0048   -2.3975   -0.0100 H   0  0  0  0  0  0  0  0  0  0  0  0
    1.2120   -0.6928   -0.0000 C   0  0  0  0  0  0  0  0  0  0  0  0
    2.0895   -1.1914    0.0057 H   0  0  0  0  0  0  0  0  0  0  0  0
    1.2036    0.7020   -0.0024 C   0  0  0  0  0  0  0  0  0  0  0  0
    2.0710    1.1988   -0.0129 H   0  0  0  0  0  0  0  0  0  0  0  0
  1  5  1  0
  5  6  1  0
  5  7  2  0
  1  2  1  0
  1  3  1  0
  1  4  1  0
  8 12  1  0
 12 13  2  0
 13 15  1  0
 15 17  2  0
 17 19  1  0
 19 21  2  0
 21 12  1  0
  8  9  1  0
  8 10  1  0
  8 11  1  0
 13 14  1  0
 15 16  1  0
 17 18  1  0
 19 20  1  0
 21 22  1  0
M  CHG  1   6  -1
M  END
>  <PDB_ID>  (1419) 
pdb3h7l

>  <RESIDUE_NAME>  (1419) 
GLU   PHE

>  <FRAG_NAME>  (1419) 
ACET   MBZ

>  <FRAG_ATOM_NUM>  (1419) 
fragi: 7  fragj: 15

>  <atom.prop.CHAIN_ID>  (1419) 
A A A A A A A Z Z Z Z Z Z Z Z Z Z Z Z Z Z Z

>  <atom.prop.IS_HEAVY_ATOM>  (1419) 
1 0 0 0 1 1 1 1 0 0 0 1 1 0 1 0 1 0 1 0 1 0

>  <DIFUSE_FUNC_ATOM>  (1419) 
atom 6   atom 7   

>  <FINAL_SINGLE_POINT_ENERGY>  (1419) 
0

>  <NONCOV_INTER_ENERGY_QM>  (1419) 
0

>  <FF_Energy>  (1419) 
-2.43

>  <QM_Energy>  (1419) 
-7.59

>  <source>  (1419) 
ACET_MBZ_01

>  <Index>  (1419) 
19128

$$$$
ACET-pdb3h9u-B-GLU-70:MBZ-pdb3h9u-B-PHE-118
     RDKit          3D

 22 21  0  0  0  0  0  0  0  0999 V2000
   -5.4880    2.3952    0.5555 C   0  0  0  0  0  0  0  0  0  0  0  0
   -6.0596    2.6240   -0.2091 H   0  0  0  0  0  0  0  0  0  0  0  0
   -5.9880    2.3644    1.4004 H   0  0  0  0  0  0  0  0  0  0  0  0
   -5.0525    1.4122    0.3761 H   0  0  0  0  0  0  0  0  0  0  0  0
   -4.4385    3.4988    0.6875 C   0  0  0  0  0  0  0  0  0  0  0  0
   -4.7671    4.5358    1.3032 O   0  0  0  0  0  1  0  0  0  0  0  0
   -3.2966    3.3372    0.1861 O   0  0  0  0  0  0  0  0  0  0  0  0
   -0.0029    2.9236    0.0085 C   0  0  0  0  0  0  0  0  0  0  0  0
    0.8283    3.2248    0.4509 H   0  0  0  0  0  0  0  0  0  0  0  0
   -0.8048    3.2199    0.5044 H   0  0  0  0  0  0  0  0  0  0  0  0
   -0.0364    3.3782   -0.9816 H   0  0  0  0  0  0  0  0  0  0  0  0
    0.0006    1.4085   -0.0043 C   0  0  0  0  0  0  0  0  0  0  0  0
   -1.1926    0.6936    0.0010 C   0  0  0  0  0  0  0  0  0  0  0  0
   -2.0629    1.1776    0.0042 H   0  0  0  0  0  0  0  0  0  0  0  0
   -1.1952   -0.7052   -0.0000 C   0  0  0  0  0  0  0  0  0  0  0  0
   -2.0764   -1.1930    0.0001 H   0  0  0  0  0  0  0  0  0  0  0  0
   -0.0016   -1.3978    0.0008 C   0  0  0  0  0  0  0  0  0  0  0  0
   -0.0025   -2.3978    0.0019 H   0  0  0  0  0  0  0  0  0  0  0  0
    1.1952   -0.7016    0.0000 C   0  0  0  0  0  0  0  0  0  0  0  0
    2.0801   -1.1924   -0.0012 H   0  0  0  0  0  0  0  0  0  0  0  0
    1.1936    0.7024    0.0025 C   0  0  0  0  0  0  0  0  0  0  0  0
    2.0638    1.1895    0.0088 H   0  0  0  0  0  0  0  0  0  0  0  0
  1  5  1  0
  5  6  1  0
  5  7  2  0
  1  2  1  0
  1  3  1  0
  1  4  1  0
  8 12  1  0
 12 13  2  0
 13 15  1  0
 15 17  2  0
 17 19  1  0
 19 21  2  0
 21 12  1  0
  8  9  1  0
  8 10  1  0
  8 11  1  0
 13 14  1  0
 15 16  1  0
 17 18  1  0
 19 20  1  0
 21 22  1  0
M  CHG  1   6  -1
M  END
>  <PDB_ID>  (1420) 
pdb3h9u

>  <RESIDUE_NAME>  (1420) 
GLU   PHE

>  <FRAG_NAME>  (1420) 
ACET   MBZ

>  <FRAG_ATOM_NUM>  (1420) 
fragi: 7  fragj: 15

>  <atom.prop.CHAIN_ID>  (1420) 
A A A A A A A Z Z Z Z Z Z Z Z Z Z Z Z Z Z Z

>  <atom.prop.IS_HEAVY_ATOM>  (1420) 
1 0 0 0 1 1 1 1 0 0 0 1 1 0 1 0 1 0 1 0 1 0

>  <DIFUSE_FUNC_ATOM>  (1420) 
atom 6   atom 7   

>  <FINAL_SINGLE_POINT_ENERGY>  (1420) 
0

>  <NONCOV_INTER_ENERGY_QM>  (1420) 
0

>  <FF_Energy>  (1420) 
-1.96

>  <QM_Energy>  (1420) 
-8.07

>  <source>  (1420) 
ACET_MBZ_01

>  <Index>  (1420) 
19298

$$$$
ACET-pdb3hbf-A-GLU-299:MBZ-pdb3hbf-A-PHE-321
     RDKit          3D

 22 21  0  0  0  0  0  0  0  0999 V2000
   -5.0526   -0.8382    0.6687 C   0  0  0  0  0  0  0  0  0  0  0  0
   -4.4125   -1.2555    0.0527 H   0  0  0  0  0  0  0  0  0  0  0  0
   -5.9805   -0.9161    0.3565 H   0  0  0  0  0  0  0  0  0  0  0  0
   -4.9703   -1.3308    1.6375 H   0  0  0  0  0  0  0  0  0  0  0  0
   -4.7185    0.6375    0.7444 C   0  0  0  0  0  0  0  0  0  0  0  0
   -3.7093    0.9831    1.3948 O   0  0  0  0  0  1  0  0  0  0  0  0
   -5.4607    1.4480    0.1474 O   0  0  0  0  0  0  0  0  0  0  0  0
   -0.0039    2.9107   -0.0003 C   0  0  0  0  0  0  0  0  0  0  0  0
   -0.5961    3.2148   -0.7305 H   0  0  0  0  0  0  0  0  0  0  0  0
    0.9253    3.2175   -0.1371 H   0  0  0  0  0  0  0  0  0  0  0  0
   -0.3663    3.3524    0.9279 H   0  0  0  0  0  0  0  0  0  0  0  0
   -0.0015    1.4020    0.0004 C   0  0  0  0  0  0  0  0  0  0  0  0
   -1.1925    0.6930   -0.0016 C   0  0  0  0  0  0  0  0  0  0  0  0
   -2.0629    1.1813   -0.0052 H   0  0  0  0  0  0  0  0  0  0  0  0
   -1.2005   -0.7002    0.0000 C   0  0  0  0  0  0  0  0  0  0  0  0
   -2.0771   -1.1904    0.0030 H   0  0  0  0  0  0  0  0  0  0  0  0
   -0.0009   -1.3939   -0.0012 C   0  0  0  0  0  0  0  0  0  0  0  0
   -0.0033   -2.3934   -0.0037 H   0  0  0  0  0  0  0  0  0  0  0  0
    1.2005   -0.6980   -0.0000 C   0  0  0  0  0  0  0  0  0  0  0  0
    2.0818   -1.1930    0.0013 H   0  0  0  0  0  0  0  0  0  0  0  0
    1.1949    0.6970    0.0025 C   0  0  0  0  0  0  0  0  0  0  0  0
    2.0636    1.1916    0.0052 H   0  0  0  0  0  0  0  0  0  0  0  0
  1  5  1  0
  5  6  1  0
  5  7  2  0
  1  2  1  0
  1  3  1  0
  1  4  1  0
  8 12  1  0
 12 13  2  0
 13 15  1  0
 15 17  2  0
 17 19  1  0
 19 21  2  0
 21 12  1  0
  8  9  1  0
  8 10  1  0
  8 11  1  0
 13 14  1  0
 15 16  1  0
 17 18  1  0
 19 20  1  0
 21 22  1  0
M  CHG  1   6  -1
M  END
>  <PDB_ID>  (1421) 
pdb3hbf

>  <RESIDUE_NAME>  (1421) 
GLU   PHE

>  <FRAG_NAME>  (1421) 
ACET   MBZ

>  <FRAG_ATOM_NUM>  (1421) 
fragi: 7  fragj: 15

>  <atom.prop.CHAIN_ID>  (1421) 
A A A A A A A Z Z Z Z Z Z Z Z Z Z Z Z Z Z Z

>  <atom.prop.IS_HEAVY_ATOM>  (1421) 
1 0 0 0 1 1 1 1 0 0 0 1 1 0 1 0 1 0 1 0 1 0

>  <DIFUSE_FUNC_ATOM>  (1421) 
atom 6   atom 7   

>  <FINAL_SINGLE_POINT_ENERGY>  (1421) 
0

>  <NONCOV_INTER_ENERGY_QM>  (1421) 
0

>  <FF_Energy>  (1421) 
1.26

>  <QM_Energy>  (1421) 
-5.06

>  <source>  (1421) 
ACET_MBZ_01

>  <Index>  (1421) 
19479

$$$$
ACET-pdb4e5y-D-ASP-222:MBZ-pdb4e5y-D-PHE-298
     RDKit          3D

 22 21  0  0  0  0  0  0  0  0999 V2000
    4.5001    1.7422    1.6514 C   0  0  0  0  0  0  0  0  0  0  0  0
    4.8965    1.4792    0.7786 H   0  0  0  0  0  0  0  0  0  0  0  0
    3.7376    1.1473    1.8794 H   0  0  0  0  0  0  0  0  0  0  0  0
    5.2651    1.6094    2.4164 H   0  0  0  0  0  0  0  0  0  0  0  0
    4.0088    3.1631    1.5630 C   0  0  0  0  0  0  0  0  0  0  0  0
    4.4497    3.9909    2.3773 O   0  0  0  0  0  1  0  0  0  0  0  0
    3.1817    3.4641    0.6828 O   0  0  0  0  0  0  0  0  0  0  0  0
   -0.0030    2.8853    0.0108 C   0  0  0  0  0  0  0  0  0  0  0  0
   -0.8249    3.1959   -0.4426 H   0  0  0  0  0  0  0  0  0  0  0  0
    0.8080    3.2023   -0.4579 H   0  0  0  0  0  0  0  0  0  0  0  0
    0.0049    3.3202    1.0103 H   0  0  0  0  0  0  0  0  0  0  0  0
    0.0034    1.3880    0.0010 C   0  0  0  0  0  0  0  0  0  0  0  0
   -1.1857    0.6802   -0.0022 C   0  0  0  0  0  0  0  0  0  0  0  0
   -2.0548    1.1805   -0.0077 H   0  0  0  0  0  0  0  0  0  0  0  0
   -1.1950   -0.6897    0.0000 C   0  0  0  0  0  0  0  0  0  0  0  0
   -2.0787   -1.1848   -0.0003 H   0  0  0  0  0  0  0  0  0  0  0  0
   -0.0120   -1.3812    0.0044 C   0  0  0  0  0  0  0  0  0  0  0  0
   -0.0086   -2.3818    0.0107 H   0  0  0  0  0  0  0  0  0  0  0  0
    1.1950   -0.6860   -0.0000 C   0  0  0  0  0  0  0  0  0  0  0  0
    2.0714   -1.1960    0.0006 H   0  0  0  0  0  0  0  0  0  0  0  0
    1.1943    0.6886   -0.0033 C   0  0  0  0  0  0  0  0  0  0  0  0
    2.0625    1.1891   -0.0098 H   0  0  0  0  0  0  0  0  0  0  0  0
  1  5  1  0
  5  6  1  0
  5  7  2  0
  1  2  1  0
  1  3  1  0
  1  4  1  0
  8 12  1  0
 12 13  2  0
 13 15  1  0
 15 17  2  0
 17 19  1  0
 19 21  2  0
 21 12  1  0
  8  9  1  0
  8 10  1  0
  8 11  1  0
 13 14  1  0
 15 16  1  0
 17 18  1  0
 19 20  1  0
 21 22  1  0
M  CHG  1   6  -1
M  END
>  <PDB_ID>  (1422) 
pdb4e5y

>  <RESIDUE_NAME>  (1422) 
ASP   PHE

>  <FRAG_NAME>  (1422) 
ACET   MBZ

>  <FRAG_ATOM_NUM>  (1422) 
fragi: 7  fragj: 15

>  <atom.prop.CHAIN_ID>  (1422) 
A A A A A A A Z Z Z Z Z Z Z Z Z Z Z Z Z Z Z

>  <atom.prop.IS_HEAVY_ATOM>  (1422) 
1 0 0 0 1 1 1 1 0 0 0 1 1 0 1 0 1 0 1 0 1 0

>  <DIFUSE_FUNC_ATOM>  (1422) 
atom 6   atom 7   

>  <FINAL_SINGLE_POINT_ENERGY>  (1422) 
0

>  <NONCOV_INTER_ENERGY_QM>  (1422) 
0

>  <FF_Energy>  (1422) 
-2.27

>  <QM_Energy>  (1422) 
-7.38

>  <source>  (1422) 
ACET_MBZ_01

>  <Index>  (1422) 
19521

$$$$
ACET-pdb4e6f-A-GLU-102:MBZ-pdb4e6f-A-PHE-181
     RDKit          3D

 22 21  0  0  0  0  0  0  0  0999 V2000
   -3.6499   -4.3749   -1.4610 C   0  0  0  0  0  0  0  0  0  0  0  0
   -4.4619   -4.8767   -1.2369 H   0  0  0  0  0  0  0  0  0  0  0  0
   -2.8856   -4.9589   -1.6527 H   0  0  0  0  0  0  0  0  0  0  0  0
   -3.8520   -3.7663   -2.3424 H   0  0  0  0  0  0  0  0  0  0  0  0
   -3.2880   -3.5282   -0.2597 C   0  0  0  0  0  0  0  0  0  0  0  0
   -4.0793   -2.6280    0.1102 O   0  0  0  0  0  1  0  0  0  0  0  0
   -2.2151   -3.7782    0.3282 O   0  0  0  0  0  0  0  0  0  0  0  0
   -0.0040    2.9057    0.0115 C   0  0  0  0  0  0  0  0  0  0  0  0
   -0.8059    3.2162   -0.4731 H   0  0  0  0  0  0  0  0  0  0  0  0
    0.8267    3.2192   -0.4188 H   0  0  0  0  0  0  0  0  0  0  0  0
   -0.0381    3.3294    1.0152 H   0  0  0  0  0  0  0  0  0  0  0  0
   -0.0007    1.4046   -0.0023 C   0  0  0  0  0  0  0  0  0  0  0  0
   -1.1930    0.6958    0.0027 C   0  0  0  0  0  0  0  0  0  0  0  0
   -2.0619    1.1825    0.0075 H   0  0  0  0  0  0  0  0  0  0  0  0
   -1.1969   -0.6988    0.0000 C   0  0  0  0  0  0  0  0  0  0  0  0
   -2.0766   -1.1882   -0.0148 H   0  0  0  0  0  0  0  0  0  0  0  0
   -0.0029   -1.3894    0.0190 C   0  0  0  0  0  0  0  0  0  0  0  0
   -0.0109   -2.3941    0.0463 H   0  0  0  0  0  0  0  0  0  0  0  0
    1.1969   -0.7088    0.0000 C   0  0  0  0  0  0  0  0  0  0  0  0
    2.0776   -1.2003    0.0013 H   0  0  0  0  0  0  0  0  0  0  0  0
    1.1966    0.6967   -0.0194 C   0  0  0  0  0  0  0  0  0  0  0  0
    2.0653    1.1841   -0.0465 H   0  0  0  0  0  0  0  0  0  0  0  0
  1  5  1  0
  5  6  1  0
  5  7  2  0
  1  2  1  0
  1  3  1  0
  1  4  1  0
  8 12  1  0
 12 13  2  0
 13 15  1  0
 15 17  2  0
 17 19  1  0
 19 21  2  0
 21 12  1  0
  8  9  1  0
  8 10  1  0
  8 11  1  0
 13 14  1  0
 15 16  1  0
 17 18  1  0
 19 20  1  0
 21 22  1  0
M  CHG  1   6  -1
M  END
>  <PDB_ID>  (1423) 
pdb4e6f

>  <RESIDUE_NAME>  (1423) 
GLU   PHE

>  <FRAG_NAME>  (1423) 
ACET   MBZ

>  <FRAG_ATOM_NUM>  (1423) 
fragi: 7  fragj: 15

>  <atom.prop.CHAIN_ID>  (1423) 
A A A A A A A Z Z Z Z Z Z Z Z Z Z Z Z Z Z Z

>  <atom.prop.IS_HEAVY_ATOM>  (1423) 
1 0 0 0 1 1 1 1 0 0 0 1 1 0 1 0 1 0 1 0 1 0

>  <DIFUSE_FUNC_ATOM>  (1423) 
atom 6   atom 7   

>  <FINAL_SINGLE_POINT_ENERGY>  (1423) 
0

>  <NONCOV_INTER_ENERGY_QM>  (1423) 
0

>  <FF_Energy>  (1423) 
-2.88

>  <QM_Energy>  (1423) 
-8.03

>  <source>  (1423) 
ACET_MBZ_01

>  <Index>  (1423) 
19530

$$$$
ACET-pdb3he1-B-ASP-125:MBZ-pdb3he1-B-PHE-74
     RDKit          3D

 22 21  0  0  0  0  0  0  0  0999 V2000
   -1.6824   -4.1427    0.9466 C   0  0  0  0  0  0  0  0  0  0  0  0
   -1.3425   -5.0169    1.2731 H   0  0  0  0  0  0  0  0  0  0  0  0
   -1.0906   -3.7826    0.2355 H   0  0  0  0  0  0  0  0  0  0  0  0
   -2.6695   -4.3056    0.5138 H   0  0  0  0  0  0  0  0  0  0  0  0
   -1.7000   -3.1622    2.1094 C   0  0  0  0  0  0  0  0  0  0  0  0
   -2.6471   -2.3530    2.2110 O   0  0  0  0  0  1  0  0  0  0  0  0
   -0.7526   -3.1887    2.9179 O   0  0  0  0  0  0  0  0  0  0  0  0
    0.0208    2.9114   -0.0055 C   0  0  0  0  0  0  0  0  0  0  0  0
    0.0721    3.2049   -0.9495 H   0  0  0  0  0  0  0  0  0  0  0  0
    0.8159    3.2078    0.5044 H   0  0  0  0  0  0  0  0  0  0  0  0
   -0.8544    3.3827    0.4416 H   0  0  0  0  0  0  0  0  0  0  0  0
   -0.0006    1.3959    0.0085 C   0  0  0  0  0  0  0  0  0  0  0  0
   -1.1857    0.6922   -0.0070 C   0  0  0  0  0  0  0  0  0  0  0  0
   -2.0559    1.1829   -0.0251 H   0  0  0  0  0  0  0  0  0  0  0  0
   -1.1886   -0.6866    0.0000 C   0  0  0  0  0  0  0  0  0  0  0  0
   -2.0720   -1.1817    0.0052 H   0  0  0  0  0  0  0  0  0  0  0  0
   -0.0014   -1.3843    0.0013 C   0  0  0  0  0  0  0  0  0  0  0  0
   -0.0127   -2.3868    0.0033 H   0  0  0  0  0  0  0  0  0  0  0  0
    1.1886   -0.7008   -0.0000 C   0  0  0  0  0  0  0  0  0  0  0  0
    2.0730   -1.1992    0.0027 H   0  0  0  0  0  0  0  0  0  0  0  0
    1.1876    0.6836   -0.0028 C   0  0  0  0  0  0  0  0  0  0  0  0
    2.0605    1.1788   -0.0135 H   0  0  0  0  0  0  0  0  0  0  0  0
  1  5  1  0
  5  6  1  0
  5  7  2  0
  1  2  1  0
  1  3  1  0
  1  4  1  0
  8 12  1  0
 12 13  2  0
 13 15  1  0
 15 17  2  0
 17 19  1  0
 19 21  2  0
 21 12  1  0
  8  9  1  0
  8 10  1  0
  8 11  1  0
 13 14  1  0
 15 16  1  0
 17 18  1  0
 19 20  1  0
 21 22  1  0
M  CHG  1   6  -1
M  END
>  <PDB_ID>  (1424) 
pdb3he1

>  <RESIDUE_NAME>  (1424) 
ASP   PHE

>  <FRAG_NAME>  (1424) 
ACET   MBZ

>  <FRAG_ATOM_NUM>  (1424) 
fragi: 7  fragj: 15

>  <atom.prop.CHAIN_ID>  (1424) 
A A A A A A A Z Z Z Z Z Z Z Z Z Z Z Z Z Z Z

>  <atom.prop.IS_HEAVY_ATOM>  (1424) 
1 0 0 0 1 1 1 1 0 0 0 1 1 0 1 0 1 0 1 0 1 0

>  <DIFUSE_FUNC_ATOM>  (1424) 
atom 6   atom 7   

>  <FINAL_SINGLE_POINT_ENERGY>  (1424) 
0

>  <NONCOV_INTER_ENERGY_QM>  (1424) 
0

>  <FF_Energy>  (1424) 
5.13

>  <QM_Energy>  (1424) 
-1.47

>  <source>  (1424) 
ACET_MBZ_01

>  <Index>  (1424) 
19633

$$$$
ACET-pdb3he1-F-ASP-125:MBZ-pdb3he1-F-PHE-74
     RDKit          3D

 22 21  0  0  0  0  0  0  0  0999 V2000
   -1.6855   -4.2046    0.8476 C   0  0  0  0  0  0  0  0  0  0  0  0
   -1.3690   -5.0945    1.1580 H   0  0  0  0  0  0  0  0  0  0  0  0
   -1.0151   -3.7894    0.2438 H   0  0  0  0  0  0  0  0  0  0  0  0
   -2.6055   -4.3523    0.2820 H   0  0  0  0  0  0  0  0  0  0  0  0
   -1.8750   -3.3064    2.0573 C   0  0  0  0  0  0  0  0  0  0  0  0
   -2.8353   -2.5000    2.0806 O   0  0  0  0  0  1  0  0  0  0  0  0
   -1.0469   -3.3942    2.9850 O   0  0  0  0  0  0  0  0  0  0  0  0
    0.0227    2.9193   -0.0089 C   0  0  0  0  0  0  0  0  0  0  0  0
    0.2027    3.2078   -0.9377 H   0  0  0  0  0  0  0  0  0  0  0  0
    0.7414    3.2172    0.6035 H   0  0  0  0  0  0  0  0  0  0  0  0
   -0.9057    3.3912    0.3127 H   0  0  0  0  0  0  0  0  0  0  0  0
    0.0013    1.4004    0.0076 C   0  0  0  0  0  0  0  0  0  0  0  0
   -1.1922    0.6905   -0.0036 C   0  0  0  0  0  0  0  0  0  0  0  0
   -2.0596    1.1818   -0.0159 H   0  0  0  0  0  0  0  0  0  0  0  0
   -1.1939   -0.6924    0.0000 C   0  0  0  0  0  0  0  0  0  0  0  0
   -2.0743   -1.1883    0.0058 H   0  0  0  0  0  0  0  0  0  0  0  0
   -0.0005   -1.3901   -0.0018 C   0  0  0  0  0  0  0  0  0  0  0  0
   -0.0071   -2.3900   -0.0049 H   0  0  0  0  0  0  0  0  0  0  0  0
    1.1939   -0.6988   -0.0000 C   0  0  0  0  0  0  0  0  0  0  0  0
    2.0774   -1.1959    0.0047 H   0  0  0  0  0  0  0  0  0  0  0  0
    1.1915    0.6904   -0.0022 C   0  0  0  0  0  0  0  0  0  0  0  0
    2.0626    1.1845   -0.0121 H   0  0  0  0  0  0  0  0  0  0  0  0
  1  5  1  0
  5  6  1  0
  5  7  2  0
  1  2  1  0
  1  3  1  0
  1  4  1  0
  8 12  1  0
 12 13  2  0
 13 15  1  0
 15 17  2  0
 17 19  1  0
 19 21  2  0
 21 12  1  0
  8  9  1  0
  8 10  1  0
  8 11  1  0
 13 14  1  0
 15 16  1  0
 17 18  1  0
 19 20  1  0
 21 22  1  0
M  CHG  1   6  -1
M  END
>  <PDB_ID>  (1425) 
pdb3he1

>  <RESIDUE_NAME>  (1425) 
ASP   PHE

>  <FRAG_NAME>  (1425) 
ACET   MBZ

>  <FRAG_ATOM_NUM>  (1425) 
fragi: 7  fragj: 15

>  <atom.prop.CHAIN_ID>  (1425) 
A A A A A A A Z Z Z Z Z Z Z Z Z Z Z Z Z Z Z

>  <atom.prop.IS_HEAVY_ATOM>  (1425) 
1 0 0 0 1 1 1 1 0 0 0 1 1 0 1 0 1 0 1 0 1 0

>  <DIFUSE_FUNC_ATOM>  (1425) 
atom 6   atom 7   

>  <FINAL_SINGLE_POINT_ENERGY>  (1425) 
0

>  <NONCOV_INTER_ENERGY_QM>  (1425) 
0

>  <FF_Energy>  (1425) 
5.14

>  <QM_Energy>  (1425) 
-1.65

>  <source>  (1425) 
ACET_MBZ_01

>  <Index>  (1425) 
19634

$$$$
ACET-pdb3he2-A-ASP-224:MBZ-pdb3he2-A-PHE-240
     RDKit          3D

 22 21  0  0  0  0  0  0  0  0999 V2000
   -3.8102    1.2160    2.3948 C   0  0  0  0  0  0  0  0  0  0  0  0
   -4.1467    1.2752    3.3286 H   0  0  0  0  0  0  0  0  0  0  0  0
   -3.0764    0.5491    2.3335 H   0  0  0  0  0  0  0  0  0  0  0  0
   -4.6291    0.8818    1.7579 H   0  0  0  0  0  0  0  0  0  0  0  0
   -3.2654    2.5757    1.9900 C   0  0  0  0  0  0  0  0  0  0  0  0
   -3.6350    3.0580    0.9086 O   0  0  0  0  0  1  0  0  0  0  0  0
   -2.4206    3.1345    2.7446 O   0  0  0  0  0  0  0  0  0  0  0  0
    0.0039    2.8932   -0.0001 C   0  0  0  0  0  0  0  0  0  0  0  0
    0.9329    3.1978   -0.1511 H   0  0  0  0  0  0  0  0  0  0  0  0
   -0.3362    3.2022    0.8760 H   0  0  0  0  0  0  0  0  0  0  0  0
   -0.6207    3.3393   -0.7739 H   0  0  0  0  0  0  0  0  0  0  0  0
   -0.0015    1.3935    0.0001 C   0  0  0  0  0  0  0  0  0  0  0  0
   -1.2074    0.6862    0.0182 C   0  0  0  0  0  0  0  0  0  0  0  0
   -2.0675    1.1881    0.0427 H   0  0  0  0  0  0  0  0  0  0  0  0
   -1.2163   -0.6903    0.0000 C   0  0  0  0  0  0  0  0  0  0  0  0
   -2.0793   -1.1982    0.0037 H   0  0  0  0  0  0  0  0  0  0  0  0
    0.0097   -1.3948   -0.0232 C   0  0  0  0  0  0  0  0  0  0  0  0
    0.0052   -2.3844   -0.0558 H   0  0  0  0  0  0  0  0  0  0  0  0
    1.2163   -0.6833   -0.0000 C   0  0  0  0  0  0  0  0  0  0  0  0
    2.0948   -1.1865    0.0143 H   0  0  0  0  0  0  0  0  0  0  0  0
    1.1992    0.6887    0.0050 C   0  0  0  0  0  0  0  0  0  0  0  0
    2.0633    1.2015    0.0112 H   0  0  0  0  0  0  0  0  0  0  0  0
  1  5  1  0
  5  6  1  0
  5  7  2  0
  1  2  1  0
  1  3  1  0
  1  4  1  0
  8 12  1  0
 12 13  2  0
 13 15  1  0
 15 17  2  0
 17 19  1  0
 19 21  2  0
 21 12  1  0
  8  9  1  0
  8 10  1  0
  8 11  1  0
 13 14  1  0
 15 16  1  0
 17 18  1  0
 19 20  1  0
 21 22  1  0
M  CHG  1   6  -1
M  END
>  <PDB_ID>  (1426) 
pdb3he2

>  <RESIDUE_NAME>  (1426) 
ASP   PHE

>  <FRAG_NAME>  (1426) 
ACET   MBZ

>  <FRAG_ATOM_NUM>  (1426) 
fragi: 7  fragj: 15

>  <atom.prop.CHAIN_ID>  (1426) 
A A A A A A A Z Z Z Z Z Z Z Z Z Z Z Z Z Z Z

>  <atom.prop.IS_HEAVY_ATOM>  (1426) 
1 0 0 0 1 1 1 1 0 0 0 1 1 0 1 0 1 0 1 0 1 0

>  <DIFUSE_FUNC_ATOM>  (1426) 
atom 6   atom 7   

>  <FINAL_SINGLE_POINT_ENERGY>  (1426) 
0

>  <NONCOV_INTER_ENERGY_QM>  (1426) 
0

>  <FF_Energy>  (1426) 
-1.82

>  <QM_Energy>  (1426) 
-8.17

>  <source>  (1426) 
ACET_MBZ_01

>  <Index>  (1426) 
19653

$$$$
ACET-pdb3he2-B-ASP-224:MBZ-pdb3he2-B-PHE-240
     RDKit          3D

 22 21  0  0  0  0  0  0  0  0999 V2000
   -4.1878    1.4281    1.8282 C   0  0  0  0  0  0  0  0  0  0  0  0
   -4.7005    1.5677    2.6639 H   0  0  0  0  0  0  0  0  0  0  0  0
   -3.5043    0.7216    1.9437 H   0  0  0  0  0  0  0  0  0  0  0  0
   -4.8886    1.0857    1.0669 H   0  0  0  0  0  0  0  0  0  0  0  0
   -3.4887    2.7380    1.4517 C   0  0  0  0  0  0  0  0  0  0  0  0
   -3.6547    3.1853    0.3051 O   0  0  0  0  0  1  0  0  0  0  0  0
   -2.7505    3.3151    2.2848 O   0  0  0  0  0  0  0  0  0  0  0  0
    0.0020    2.8778    0.0497 C   0  0  0  0  0  0  0  0  0  0  0  0
    0.9420    3.1897    0.0926 H   0  0  0  0  0  0  0  0  0  0  0  0
   -0.5028    3.1646    0.8533 H   0  0  0  0  0  0  0  0  0  0  0  0
   -0.4637    3.3445   -0.8183 H   0  0  0  0  0  0  0  0  0  0  0  0
    0.0042    1.3915    0.0051 C   0  0  0  0  0  0  0  0  0  0  0  0
   -1.2003    0.6766   -0.0077 C   0  0  0  0  0  0  0  0  0  0  0  0
   -2.0627    1.1736   -0.0238 H   0  0  0  0  0  0  0  0  0  0  0  0
   -1.2062   -0.7074   -0.0000 C   0  0  0  0  0  0  0  0  0  0  0  0
   -2.0736   -1.2068    0.0038 H   0  0  0  0  0  0  0  0  0  0  0  0
    0.0050   -1.3871    0.0049 C   0  0  0  0  0  0  0  0  0  0  0  0
    0.0164   -2.3866    0.0114 H   0  0  0  0  0  0  0  0  0  0  0  0
    1.2062   -0.6759    0.0000 C   0  0  0  0  0  0  0  0  0  0  0  0
    2.0884   -1.1755   -0.0001 H   0  0  0  0  0  0  0  0  0  0  0  0
    1.1910    0.7022   -0.0023 C   0  0  0  0  0  0  0  0  0  0  0  0
    2.0609    1.2053   -0.0100 H   0  0  0  0  0  0  0  0  0  0  0  0
  1  5  1  0
  5  6  1  0
  5  7  2  0
  1  2  1  0
  1  3  1  0
  1  4  1  0
  8 12  1  0
 12 13  2  0
 13 15  1  0
 15 17  2  0
 17 19  1  0
 19 21  2  0
 21 12  1  0
  8  9  1  0
  8 10  1  0
  8 11  1  0
 13 14  1  0
 15 16  1  0
 17 18  1  0
 19 20  1  0
 21 22  1  0
M  CHG  1   6  -1
M  END
>  <PDB_ID>  (1427) 
pdb3he2

>  <RESIDUE_NAME>  (1427) 
ASP   PHE

>  <FRAG_NAME>  (1427) 
ACET   MBZ

>  <FRAG_ATOM_NUM>  (1427) 
fragi: 7  fragj: 15

>  <atom.prop.CHAIN_ID>  (1427) 
A A A A A A A Z Z Z Z Z Z Z Z Z Z Z Z Z Z Z

>  <atom.prop.IS_HEAVY_ATOM>  (1427) 
1 0 0 0 1 1 1 1 0 0 0 1 1 0 1 0 1 0 1 0 1 0

>  <DIFUSE_FUNC_ATOM>  (1427) 
atom 6   atom 7   

>  <FINAL_SINGLE_POINT_ENERGY>  (1427) 
0

>  <NONCOV_INTER_ENERGY_QM>  (1427) 
0

>  <FF_Energy>  (1427) 
-1.6

>  <QM_Energy>  (1427) 
-8.4

>  <source>  (1427) 
ACET_MBZ_01

>  <Index>  (1427) 
19655

$$$$
ACET-pdb4e8h-D-ASP-161:MBZ-pdb4e8h-D-PHE-151
     RDKit          3D

 22 21  0  0  0  0  0  0  0  0999 V2000
   -4.3777    2.9160    2.5443 C   0  0  0  0  0  0  0  0  0  0  0  0
   -4.1162    2.5743    3.4402 H   0  0  0  0  0  0  0  0  0  0  0  0
   -4.7386    2.1789    1.9841 H   0  0  0  0  0  0  0  0  0  0  0  0
   -5.1709    3.6504    2.6844 H   0  0  0  0  0  0  0  0  0  0  0  0
   -3.1588    3.4958    1.8654 C   0  0  0  0  0  0  0  0  0  0  0  0
   -3.1987    3.6993    0.6330 O   0  0  0  0  0  1  0  0  0  0  0  0
   -2.1559    3.7350    2.5659 O   0  0  0  0  0  0  0  0  0  0  0  0
   -0.0031    2.9112   -0.0183 C   0  0  0  0  0  0  0  0  0  0  0  0
    0.8783    3.2239    0.2912 H   0  0  0  0  0  0  0  0  0  0  0  0
   -0.7309    3.2245    0.5679 H   0  0  0  0  0  0  0  0  0  0  0  0
   -0.1740    3.3245   -1.0123 H   0  0  0  0  0  0  0  0  0  0  0  0
    0.0002    1.4060    0.0052 C   0  0  0  0  0  0  0  0  0  0  0  0
   -1.1973    0.6950   -0.0027 C   0  0  0  0  0  0  0  0  0  0  0  0
   -2.0648    1.1839   -0.0115 H   0  0  0  0  0  0  0  0  0  0  0  0
   -1.2032   -0.7002    0.0000 C   0  0  0  0  0  0  0  0  0  0  0  0
   -2.0799   -1.1911    0.0019 H   0  0  0  0  0  0  0  0  0  0  0  0
   -0.0010   -1.3979    0.0015 C   0  0  0  0  0  0  0  0  0  0  0  0
   -0.0047   -2.3957    0.0028 H   0  0  0  0  0  0  0  0  0  0  0  0
    1.2032   -0.6999    0.0000 C   0  0  0  0  0  0  0  0  0  0  0  0
    2.0837   -1.1951    0.0035 H   0  0  0  0  0  0  0  0  0  0  0  0
    1.1980    0.6969   -0.0041 C   0  0  0  0  0  0  0  0  0  0  0  0
    2.0656    1.1911   -0.0145 H   0  0  0  0  0  0  0  0  0  0  0  0
  1  5  1  0
  5  6  1  0
  5  7  2  0
  1  2  1  0
  1  3  1  0
  1  4  1  0
  8 12  1  0
 12 13  2  0
 13 15  1  0
 15 17  2  0
 17 19  1  0
 19 21  2  0
 21 12  1  0
  8  9  1  0
  8 10  1  0
  8 11  1  0
 13 14  1  0
 15 16  1  0
 17 18  1  0
 19 20  1  0
 21 22  1  0
M  CHG  1   6  -1
M  END
>  <PDB_ID>  (1428) 
pdb4e8h

>  <RESIDUE_NAME>  (1428) 
ASP   PHE

>  <FRAG_NAME>  (1428) 
ACET   MBZ

>  <FRAG_ATOM_NUM>  (1428) 
fragi: 7  fragj: 15

>  <atom.prop.CHAIN_ID>  (1428) 
A A A A A A A Z Z Z Z Z Z Z Z Z Z Z Z Z Z Z

>  <atom.prop.IS_HEAVY_ATOM>  (1428) 
1 0 0 0 1 1 1 1 0 0 0 1 1 0 1 0 1 0 1 0 1 0

>  <DIFUSE_FUNC_ATOM>  (1428) 
atom 6   atom 7   

>  <FINAL_SINGLE_POINT_ENERGY>  (1428) 
0

>  <NONCOV_INTER_ENERGY_QM>  (1428) 
0

>  <FF_Energy>  (1428) 
-1.56

>  <QM_Energy>  (1428) 
-8.46

>  <source>  (1428) 
ACET_MBZ_01

>  <Index>  (1428) 
19666

$$$$
ACET-pdb3hei-D-GLU-119:MBZ-pdb3hei-D-PHE-111
     RDKit          3D

 22 21  0  0  0  0  0  0  0  0999 V2000
   -4.6563    3.7446   -2.4352 C   0  0  0  0  0  0  0  0  0  0  0  0
   -3.9127    4.3851   -2.4987 H   0  0  0  0  0  0  0  0  0  0  0  0
   -5.5272    4.1945   -2.3507 H   0  0  0  0  0  0  0  0  0  0  0  0
   -4.6735    3.1761   -3.3650 H   0  0  0  0  0  0  0  0  0  0  0  0
   -4.4453    2.8841   -1.2472 C   0  0  0  0  0  0  0  0  0  0  0  0
   -5.0841    1.8243   -1.2479 O   0  0  0  0  0  1  0  0  0  0  0  0
   -3.6222    3.1881   -0.3343 O   0  0  0  0  0  0  0  0  0  0  0  0
    0.0044    2.9163   -0.0169 C   0  0  0  0  0  0  0  0  0  0  0  0
    0.9356    3.2311   -0.0407 H   0  0  0  0  0  0  0  0  0  0  0  0
   -0.4798    3.2471    0.7733 H   0  0  0  0  0  0  0  0  0  0  0  0
   -0.4965    3.3241   -0.8950 H   0  0  0  0  0  0  0  0  0  0  0  0
    0.0075    1.4175    0.0164 C   0  0  0  0  0  0  0  0  0  0  0  0
   -1.2087    0.7000    0.0035 C   0  0  0  0  0  0  0  0  0  0  0  0
   -2.0683    1.1780   -0.0046 H   0  0  0  0  0  0  0  0  0  0  0  0
   -1.2034   -0.7214    0.0000 C   0  0  0  0  0  0  0  0  0  0  0  0
   -2.0741   -1.2089   -0.0037 H   0  0  0  0  0  0  0  0  0  0  0  0
    0.0102   -1.4063    0.0036 C   0  0  0  0  0  0  0  0  0  0  0  0
    0.0077   -2.4090    0.0079 H   0  0  0  0  0  0  0  0  0  0  0  0
    1.2034   -0.7100   -0.0000 C   0  0  0  0  0  0  0  0  0  0  0  0
    2.0914   -1.1816    0.0154 H   0  0  0  0  0  0  0  0  0  0  0  0
    1.1911    0.7201   -0.0235 C   0  0  0  0  0  0  0  0  0  0  0  0
    2.0666    1.1954   -0.0709 H   0  0  0  0  0  0  0  0  0  0  0  0
  1  5  1  0
  5  6  1  0
  5  7  2  0
  1  2  1  0
  1  3  1  0
  1  4  1  0
  8 12  1  0
 12 13  2  0
 13 15  1  0
 15 17  2  0
 17 19  1  0
 19 21  2  0
 21 12  1  0
  8  9  1  0
  8 10  1  0
  8 11  1  0
 13 14  1  0
 15 16  1  0
 17 18  1  0
 19 20  1  0
 21 22  1  0
M  CHG  1   6  -1
M  END
>  <PDB_ID>  (1429) 
pdb3hei

>  <RESIDUE_NAME>  (1429) 
GLU   PHE

>  <FRAG_NAME>  (1429) 
ACET   MBZ

>  <FRAG_ATOM_NUM>  (1429) 
fragi: 7  fragj: 15

>  <atom.prop.CHAIN_ID>  (1429) 
A A A A A A A Z Z Z Z Z Z Z Z Z Z Z Z Z Z Z

>  <atom.prop.IS_HEAVY_ATOM>  (1429) 
1 0 0 0 1 1 1 1 0 0 0 1 1 0 1 0 1 0 1 0 1 0

>  <DIFUSE_FUNC_ATOM>  (1429) 
atom 6   atom 7   

>  <FINAL_SINGLE_POINT_ENERGY>  (1429) 
0

>  <NONCOV_INTER_ENERGY_QM>  (1429) 
0

>  <FF_Energy>  (1429) 
-2.62

>  <QM_Energy>  (1429) 
-7.69

>  <source>  (1429) 
ACET_MBZ_01

>  <Index>  (1429) 
19693

$$$$
ACET-pdb3hei-H-GLU-119:MBZ-pdb3hei-H-PHE-111
     RDKit          3D

 22 21  0  0  0  0  0  0  0  0999 V2000
   -4.5908    3.5576   -2.4014 C   0  0  0  0  0  0  0  0  0  0  0  0
   -3.7915    4.1187   -2.4562 H   0  0  0  0  0  0  0  0  0  0  0  0
   -5.4185    4.0756   -2.3379 H   0  0  0  0  0  0  0  0  0  0  0  0
   -4.6421    2.9879   -3.3293 H   0  0  0  0  0  0  0  0  0  0  0  0
   -4.4797    2.6729   -1.1985 C   0  0  0  0  0  0  0  0  0  0  0  0
   -5.1066    1.6288   -1.1732 O   0  0  0  0  0  1  0  0  0  0  0  0
   -3.7343    2.9732   -0.2534 O   0  0  0  0  0  0  0  0  0  0  0  0
   -0.0257    2.9292    0.0015 C   0  0  0  0  0  0  0  0  0  0  0  0
    0.9073    3.2554   -0.0167 H   0  0  0  0  0  0  0  0  0  0  0  0
   -0.4961    3.2230    0.8194 H   0  0  0  0  0  0  0  0  0  0  0  0
   -0.5433    3.3713   -0.8499 H   0  0  0  0  0  0  0  0  0  0  0  0
   -0.0010    1.4295   -0.0151 C   0  0  0  0  0  0  0  0  0  0  0  0
   -1.2257    0.6981    0.0028 C   0  0  0  0  0  0  0  0  0  0  0  0
   -2.0820    1.1789    0.0161 H   0  0  0  0  0  0  0  0  0  0  0  0
   -1.2104   -0.7166    0.0000 C   0  0  0  0  0  0  0  0  0  0  0  0
   -2.0729   -1.2181   -0.0131 H   0  0  0  0  0  0  0  0  0  0  0  0
    0.0204   -1.4041    0.0184 C   0  0  0  0  0  0  0  0  0  0  0  0
   -0.0030   -2.4138    0.0453 H   0  0  0  0  0  0  0  0  0  0  0  0
    1.2104   -0.7347   -0.0000 C   0  0  0  0  0  0  0  0  0  0  0  0
    2.0991   -1.1933   -0.0076 H   0  0  0  0  0  0  0  0  0  0  0  0
    1.2063    0.7278   -0.0061 C   0  0  0  0  0  0  0  0  0  0  0  0
    2.0736    1.1927   -0.0051 H   0  0  0  0  0  0  0  0  0  0  0  0
  1  5  1  0
  5  6  1  0
  5  7  2  0
  1  2  1  0
  1  3  1  0
  1  4  1  0
  8 12  1  0
 12 13  2  0
 13 15  1  0
 15 17  2  0
 17 19  1  0
 19 21  2  0
 21 12  1  0
  8  9  1  0
  8 10  1  0
  8 11  1  0
 13 14  1  0
 15 16  1  0
 17 18  1  0
 19 20  1  0
 21 22  1  0
M  CHG  1   6  -1
M  END
>  <PDB_ID>  (1430) 
pdb3hei

>  <RESIDUE_NAME>  (1430) 
GLU   PHE

>  <FRAG_NAME>  (1430) 
ACET   MBZ

>  <FRAG_ATOM_NUM>  (1430) 
fragi: 7  fragj: 15

>  <atom.prop.CHAIN_ID>  (1430) 
A A A A A A A Z Z Z Z Z Z Z Z Z Z Z Z Z Z Z

>  <atom.prop.IS_HEAVY_ATOM>  (1430) 
1 0 0 0 1 1 1 1 0 0 0 1 1 0 1 0 1 0 1 0 1 0

>  <DIFUSE_FUNC_ATOM>  (1430) 
atom 6   atom 7   

>  <FINAL_SINGLE_POINT_ENERGY>  (1430) 
0

>  <NONCOV_INTER_ENERGY_QM>  (1430) 
0

>  <FF_Energy>  (1430) 
-2.56

>  <QM_Energy>  (1430) 
-7.92

>  <source>  (1430) 
ACET_MBZ_01

>  <Index>  (1430) 
19700

$$$$
ACET-pdb4edb-E-ASP-1:MBZ-pdb4edb-F-PHE-140
     RDKit          3D

 22 21  0  0  0  0  0  0  0  0999 V2000
   -4.1968   -1.0369    1.2279 C   0  0  0  0  0  0  0  0  0  0  0  0
   -4.5780   -0.1205    1.1975 H   0  0  0  0  0  0  0  0  0  0  0  0
   -3.2921   -1.0516    0.8198 H   0  0  0  0  0  0  0  0  0  0  0  0
   -4.0988   -1.3250    2.2745 H   0  0  0  0  0  0  0  0  0  0  0  0
   -5.1054   -1.9695    0.4362 C   0  0  0  0  0  0  0  0  0  0  0  0
   -5.5232   -1.5754   -0.6751 O   0  0  0  0  0  1  0  0  0  0  0  0
   -5.3967   -3.0918    0.9085 O   0  0  0  0  0  0  0  0  0  0  0  0
    0.0186    2.9037   -0.0165 C   0  0  0  0  0  0  0  0  0  0  0  0
   -0.6109    3.2080   -0.7191 H   0  0  0  0  0  0  0  0  0  0  0  0
    0.9432    3.1983   -0.2182 H   0  0  0  0  0  0  0  0  0  0  0  0
   -0.2798    3.3787    0.9181 H   0  0  0  0  0  0  0  0  0  0  0  0
    0.0022    1.3996    0.0067 C   0  0  0  0  0  0  0  0  0  0  0  0
   -1.1967    0.6903   -0.0058 C   0  0  0  0  0  0  0  0  0  0  0  0
   -2.0610    1.1819   -0.0204 H   0  0  0  0  0  0  0  0  0  0  0  0
   -1.1977   -0.6952   -0.0000 C   0  0  0  0  0  0  0  0  0  0  0  0
   -2.0758   -1.1910    0.0027 H   0  0  0  0  0  0  0  0  0  0  0  0
   -0.0007   -1.3884    0.0035 C   0  0  0  0  0  0  0  0  0  0  0  0
   -0.0045   -2.3894    0.0076 H   0  0  0  0  0  0  0  0  0  0  0  0
    1.1977   -0.6953   -0.0000 C   0  0  0  0  0  0  0  0  0  0  0  0
    2.0789   -1.1961    0.0024 H   0  0  0  0  0  0  0  0  0  0  0  0
    1.1952    0.6891   -0.0044 C   0  0  0  0  0  0  0  0  0  0  0  0
    2.0645    1.1861   -0.0164 H   0  0  0  0  0  0  0  0  0  0  0  0
  1  5  1  0
  5  6  1  0
  5  7  2  0
  1  2  1  0
  1  3  1  0
  1  4  1  0
  8 12  1  0
 12 13  2  0
 13 15  1  0
 15 17  2  0
 17 19  1  0
 19 21  2  0
 21 12  1  0
  8  9  1  0
  8 10  1  0
  8 11  1  0
 13 14  1  0
 15 16  1  0
 17 18  1  0
 19 20  1  0
 21 22  1  0
M  CHG  1   6  -1
M  END
>  <PDB_ID>  (1431) 
pdb4edb

>  <RESIDUE_NAME>  (1431) 
ASP   PHE

>  <FRAG_NAME>  (1431) 
ACET   MBZ

>  <FRAG_ATOM_NUM>  (1431) 
fragi: 7  fragj: 15

>  <atom.prop.CHAIN_ID>  (1431) 
A A A A A A A Z Z Z Z Z Z Z Z Z Z Z Z Z Z Z

>  <atom.prop.IS_HEAVY_ATOM>  (1431) 
1 0 0 0 1 1 1 1 0 0 0 1 1 0 1 0 1 0 1 0 1 0

>  <DIFUSE_FUNC_ATOM>  (1431) 
atom 6   atom 7   

>  <FINAL_SINGLE_POINT_ENERGY>  (1431) 
0

>  <NONCOV_INTER_ENERGY_QM>  (1431) 
0

>  <FF_Energy>  (1431) 
40.14

>  <QM_Energy>  (1431) 
3.16

>  <source>  (1431) 
ACET_MBZ_01

>  <Index>  (1431) 
19843

$$$$
ACET-pdb3hiu-D-GLU-23:MBZ-pdb3hiu-D-PHE-106
     RDKit          3D

 22 21  0  0  0  0  0  0  0  0999 V2000
    1.3102   -3.8931    2.2815 C   0  0  0  0  0  0  0  0  0  0  0  0
    0.9060   -3.0370    2.5418 H   0  0  0  0  0  0  0  0  0  0  0  0
    1.9427   -4.2285    2.9545 H   0  0  0  0  0  0  0  0  0  0  0  0
    0.5131   -4.6268    2.1615 H   0  0  0  0  0  0  0  0  0  0  0  0
    2.1028   -3.6491    0.9939 C   0  0  0  0  0  0  0  0  0  0  0  0
    1.6072   -3.9935   -0.1052 O   0  0  0  0  0  1  0  0  0  0  0  0
    3.2251   -3.1025    1.0830 O   0  0  0  0  0  0  0  0  0  0  0  0
    0.0029    2.9041   -0.0009 C   0  0  0  0  0  0  0  0  0  0  0  0
    0.8328    3.2091    0.4408 H   0  0  0  0  0  0  0  0  0  0  0  0
   -0.7995    3.2120    0.4870 H   0  0  0  0  0  0  0  0  0  0  0  0
   -0.0248    3.3410   -0.9991 H   0  0  0  0  0  0  0  0  0  0  0  0
    0.0004    1.4006    0.0015 C   0  0  0  0  0  0  0  0  0  0  0  0
   -1.1951    0.6942   -0.0015 C   0  0  0  0  0  0  0  0  0  0  0  0
   -2.0621    1.1833   -0.0065 H   0  0  0  0  0  0  0  0  0  0  0  0
   -1.1993   -0.6980    0.0000 C   0  0  0  0  0  0  0  0  0  0  0  0
   -2.0767   -1.1902    0.0023 H   0  0  0  0  0  0  0  0  0  0  0  0
   -0.0004   -1.3913    0.0009 C   0  0  0  0  0  0  0  0  0  0  0  0
   -0.0046   -2.3919    0.0016 H   0  0  0  0  0  0  0  0  0  0  0  0
    1.1993   -0.6979   -0.0000 C   0  0  0  0  0  0  0  0  0  0  0  0
    2.0810   -1.1950    0.0014 H   0  0  0  0  0  0  0  0  0  0  0  0
    1.1951    0.6923   -0.0010 C   0  0  0  0  0  0  0  0  0  0  0  0
    2.0644    1.1879   -0.0044 H   0  0  0  0  0  0  0  0  0  0  0  0
  1  5  1  0
  5  6  1  0
  5  7  2  0
  1  2  1  0
  1  3  1  0
  1  4  1  0
  8 12  1  0
 12 13  2  0
 13 15  1  0
 15 17  2  0
 17 19  1  0
 19 21  2  0
 21 12  1  0
  8  9  1  0
  8 10  1  0
  8 11  1  0
 13 14  1  0
 15 16  1  0
 17 18  1  0
 19 20  1  0
 21 22  1  0
M  CHG  1   6  -1
M  END
>  <PDB_ID>  (1432) 
pdb3hiu

>  <RESIDUE_NAME>  (1432) 
GLU   PHE

>  <FRAG_NAME>  (1432) 
ACET   MBZ

>  <FRAG_ATOM_NUM>  (1432) 
fragi: 7  fragj: 15

>  <atom.prop.CHAIN_ID>  (1432) 
A A A A A A A Z Z Z Z Z Z Z Z Z Z Z Z Z Z Z

>  <atom.prop.IS_HEAVY_ATOM>  (1432) 
1 0 0 0 1 1 1 1 0 0 0 1 1 0 1 0 1 0 1 0 1 0

>  <DIFUSE_FUNC_ATOM>  (1432) 
atom 6   atom 7   

>  <FINAL_SINGLE_POINT_ENERGY>  (1432) 
0

>  <NONCOV_INTER_ENERGY_QM>  (1432) 
0

>  <FF_Energy>  (1432) 
-0.66

>  <QM_Energy>  (1432) 
-7.17

>  <source>  (1432) 
ACET_MBZ_01

>  <Index>  (1432) 
19985

$$$$
ACET-pdb3hja-A-GLU-92:MBZ-pdb3hja-A-PHE-97
     RDKit          3D

 22 21  0  0  0  0  0  0  0  0999 V2000
    3.6565    4.8266    1.2202 C   0  0  0  0  0  0  0  0  0  0  0  0
    2.9082    4.8225    1.8577 H   0  0  0  0  0  0  0  0  0  0  0  0
    3.4782    5.3978    0.4402 H   0  0  0  0  0  0  0  0  0  0  0  0
    4.5313    5.2244    1.7346 H   0  0  0  0  0  0  0  0  0  0  0  0
    3.8361    3.3924    0.7094 C   0  0  0  0  0  0  0  0  0  0  0  0
    3.9582    2.4634    1.5345 O   0  0  0  0  0  1  0  0  0  0  0  0
    3.8608    3.1993   -0.5288 O   0  0  0  0  0  0  0  0  0  0  0  0
   -0.0075    2.9282   -0.0100 C   0  0  0  0  0  0  0  0  0  0  0  0
    0.9293    3.2350   -0.0139 H   0  0  0  0  0  0  0  0  0  0  0  0
   -0.4899    3.2348    0.7937 H   0  0  0  0  0  0  0  0  0  0  0  0
   -0.5022    3.3609   -0.8795 H   0  0  0  0  0  0  0  0  0  0  0  0
   -0.0004    1.4105    0.0018 C   0  0  0  0  0  0  0  0  0  0  0  0
   -1.2042    0.6887    0.0046 C   0  0  0  0  0  0  0  0  0  0  0  0
   -2.0704    1.1804    0.0089 H   0  0  0  0  0  0  0  0  0  0  0  0
   -1.2117   -0.7071    0.0000 C   0  0  0  0  0  0  0  0  0  0  0  0
   -2.0840   -1.1996    0.0057 H   0  0  0  0  0  0  0  0  0  0  0  0
   -0.0040   -1.3995   -0.0099 C   0  0  0  0  0  0  0  0  0  0  0  0
    0.0021   -2.3952   -0.0245 H   0  0  0  0  0  0  0  0  0  0  0  0
    1.2117   -0.6921   -0.0000 C   0  0  0  0  0  0  0  0  0  0  0  0
    2.0870   -1.1959    0.0056 H   0  0  0  0  0  0  0  0  0  0  0  0
    1.2086    0.6996    0.0035 C   0  0  0  0  0  0  0  0  0  0  0  0
    2.0704    1.1999    0.0061 H   0  0  0  0  0  0  0  0  0  0  0  0
  1  5  1  0
  5  6  1  0
  5  7  2  0
  1  2  1  0
  1  3  1  0
  1  4  1  0
  8 12  1  0
 12 13  2  0
 13 15  1  0
 15 17  2  0
 17 19  1  0
 19 21  2  0
 21 12  1  0
  8  9  1  0
  8 10  1  0
  8 11  1  0
 13 14  1  0
 15 16  1  0
 17 18  1  0
 19 20  1  0
 21 22  1  0
M  CHG  1   6  -1
M  END
>  <PDB_ID>  (1433) 
pdb3hja

>  <RESIDUE_NAME>  (1433) 
GLU   PHE

>  <FRAG_NAME>  (1433) 
ACET   MBZ

>  <FRAG_ATOM_NUM>  (1433) 
fragi: 7  fragj: 15

>  <atom.prop.CHAIN_ID>  (1433) 
A A A A A A A Z Z Z Z Z Z Z Z Z Z Z Z Z Z Z

>  <atom.prop.IS_HEAVY_ATOM>  (1433) 
1 0 0 0 1 1 1 1 0 0 0 1 1 0 1 0 1 0 1 0 1 0

>  <DIFUSE_FUNC_ATOM>  (1433) 
atom 6   atom 7   

>  <FINAL_SINGLE_POINT_ENERGY>  (1433) 
0

>  <NONCOV_INTER_ENERGY_QM>  (1433) 
0

>  <FF_Energy>  (1433) 
-2.88

>  <QM_Energy>  (1433) 
-8.07

>  <source>  (1433) 
ACET_MBZ_01

>  <Index>  (1433) 
20013

$$$$
ACET-pdb3hl4-B-ASP-212:MBZ-pdb3hl4-A-PHE-124
     RDKit          3D

 22 21  0  0  0  0  0  0  0  0999 V2000
    3.2601   -1.2788   -3.3752 C   0  0  0  0  0  0  0  0  0  0  0  0
    4.2475   -1.2049   -3.3040 H   0  0  0  0  0  0  0  0  0  0  0  0
    2.8281   -0.4070   -3.1853 H   0  0  0  0  0  0  0  0  0  0  0  0
    3.0195   -1.5535   -4.4021 H   0  0  0  0  0  0  0  0  0  0  0  0
    2.7724   -2.3037   -2.3270 C   0  0  0  0  0  0  0  0  0  0  0  0
    3.1240   -2.1453   -1.1191 O   0  0  0  0  0  1  0  0  0  0  0  0
    2.0146   -3.2380   -2.6683 O   0  0  0  0  0  0  0  0  0  0  0  0
    0.0062    2.9316    0.0385 C   0  0  0  0  0  0  0  0  0  0  0  0
   -0.6622    3.2602   -0.6053 H   0  0  0  0  0  0  0  0  0  0  0  0
    0.9140    3.2433   -0.1792 H   0  0  0  0  0  0  0  0  0  0  0  0
   -0.2535    3.3394    1.0154 H   0  0  0  0  0  0  0  0  0  0  0  0
    0.0012    1.4251   -0.0014 C   0  0  0  0  0  0  0  0  0  0  0  0
   -1.2108    0.7171    0.0134 C   0  0  0  0  0  0  0  0  0  0  0  0
   -2.0732    1.1997    0.0320 H   0  0  0  0  0  0  0  0  0  0  0  0
   -1.2265   -0.7111   -0.0000 C   0  0  0  0  0  0  0  0  0  0  0  0
   -2.0979   -1.1896   -0.0042 H   0  0  0  0  0  0  0  0  0  0  0  0
   -0.0043   -1.4286   -0.0047 C   0  0  0  0  0  0  0  0  0  0  0  0
   -0.0044   -2.4120   -0.0115 H   0  0  0  0  0  0  0  0  0  0  0  0
    1.2265   -0.7083    0.0000 C   0  0  0  0  0  0  0  0  0  0  0  0
    2.0978   -1.2025    0.0102 H   0  0  0  0  0  0  0  0  0  0  0  0
    1.2138    0.7057   -0.0073 C   0  0  0  0  0  0  0  0  0  0  0  0
    2.0777    1.2007   -0.0180 H   0  0  0  0  0  0  0  0  0  0  0  0
  1  5  1  0
  5  6  1  0
  5  7  2  0
  1  2  1  0
  1  3  1  0
  1  4  1  0
  8 12  1  0
 12 13  2  0
 13 15  1  0
 15 17  2  0
 17 19  1  0
 19 21  2  0
 21 12  1  0
  8  9  1  0
  8 10  1  0
  8 11  1  0
 13 14  1  0
 15 16  1  0
 17 18  1  0
 19 20  1  0
 21 22  1  0
M  CHG  1   6  -1
M  END
>  <PDB_ID>  (1434) 
pdb3hl4

>  <RESIDUE_NAME>  (1434) 
ASP   PHE

>  <FRAG_NAME>  (1434) 
ACET   MBZ

>  <FRAG_ATOM_NUM>  (1434) 
fragi: 7  fragj: 15

>  <atom.prop.CHAIN_ID>  (1434) 
A A A A A A A Z Z Z Z Z Z Z Z Z Z Z Z Z Z Z

>  <atom.prop.IS_HEAVY_ATOM>  (1434) 
1 0 0 0 1 1 1 1 0 0 0 1 1 0 1 0 1 0 1 0 1 0

>  <DIFUSE_FUNC_ATOM>  (1434) 
atom 6   atom 7   

>  <FINAL_SINGLE_POINT_ENERGY>  (1434) 
0

>  <NONCOV_INTER_ENERGY_QM>  (1434) 
0

>  <FF_Energy>  (1434) 
33.84

>  <QM_Energy>  (1434) 
-1.99

>  <source>  (1434) 
ACET_MBZ_01

>  <Index>  (1434) 
20147

$$$$
ACET-pdb4ehs-A-GLU-446:MBZ-pdb4ehs-A-PHE-472
     RDKit          3D

 22 21  0  0  0  0  0  0  0  0999 V2000
   -4.4300    1.3111   -1.6571 C   0  0  0  0  0  0  0  0  0  0  0  0
   -3.7324    0.7096   -1.9980 H   0  0  0  0  0  0  0  0  0  0  0  0
   -5.1853    1.3980   -2.2788 H   0  0  0  0  0  0  0  0  0  0  0  0
   -4.8140    0.8748   -0.7350 H   0  0  0  0  0  0  0  0  0  0  0  0
   -3.8212    2.6772   -1.4597 C   0  0  0  0  0  0  0  0  0  0  0  0
   -3.6385    3.0924   -0.3020 O   0  0  0  0  0  1  0  0  0  0  0  0
   -3.4832    3.2837   -2.5338 O   0  0  0  0  0  0  0  0  0  0  0  0
   -0.0606    2.9204   -0.0754 C   0  0  0  0  0  0  0  0  0  0  0  0
    0.7492    3.2824    0.3495 H   0  0  0  0  0  0  0  0  0  0  0  0
   -0.8827    3.2166    0.3774 H   0  0  0  0  0  0  0  0  0  0  0  0
   -0.0936    3.2963   -1.0979 H   0  0  0  0  0  0  0  0  0  0  0  0
    0.0010    1.4236   -0.0100 C   0  0  0  0  0  0  0  0  0  0  0  0
   -1.2136    0.6901    0.0026 C   0  0  0  0  0  0  0  0  0  0  0  0
   -2.0741    1.1871    0.0123 H   0  0  0  0  0  0  0  0  0  0  0  0
   -1.2109   -0.6955   -0.0000 C   0  0  0  0  0  0  0  0  0  0  0  0
   -2.0895   -1.1972   -0.0099 H   0  0  0  0  0  0  0  0  0  0  0  0
   -0.0054   -1.4171    0.0123 C   0  0  0  0  0  0  0  0  0  0  0  0
   -0.0115   -2.4013    0.0289 H   0  0  0  0  0  0  0  0  0  0  0  0
    1.2109   -0.7038    0.0000 C   0  0  0  0  0  0  0  0  0  0  0  0
    2.0891   -1.2052   -0.0039 H   0  0  0  0  0  0  0  0  0  0  0  0
    1.2180    0.7028   -0.0049 C   0  0  0  0  0  0  0  0  0  0  0  0
    2.0782    1.1943   -0.0057 H   0  0  0  0  0  0  0  0  0  0  0  0
  1  5  1  0
  5  6  1  0
  5  7  2  0
  1  2  1  0
  1  3  1  0
  1  4  1  0
  8 12  1  0
 12 13  2  0
 13 15  1  0
 15 17  2  0
 17 19  1  0
 19 21  2  0
 21 12  1  0
  8  9  1  0
  8 10  1  0
  8 11  1  0
 13 14  1  0
 15 16  1  0
 17 18  1  0
 19 20  1  0
 21 22  1  0
M  CHG  1   6  -1
M  END
>  <PDB_ID>  (1435) 
pdb4ehs

>  <RESIDUE_NAME>  (1435) 
GLU   PHE

>  <FRAG_NAME>  (1435) 
ACET   MBZ

>  <FRAG_ATOM_NUM>  (1435) 
fragi: 7  fragj: 15

>  <atom.prop.CHAIN_ID>  (1435) 
A A A A A A A Z Z Z Z Z Z Z Z Z Z Z Z Z Z Z

>  <atom.prop.IS_HEAVY_ATOM>  (1435) 
1 0 0 0 1 1 1 1 0 0 0 1 1 0 1 0 1 0 1 0 1 0

>  <DIFUSE_FUNC_ATOM>  (1435) 
atom 6   atom 7   

>  <FINAL_SINGLE_POINT_ENERGY>  (1435) 
0

>  <NONCOV_INTER_ENERGY_QM>  (1435) 
0

>  <FF_Energy>  (1435) 
-2.28

>  <QM_Energy>  (1435) 
-7.93

>  <source>  (1435) 
ACET_MBZ_01

>  <Index>  (1435) 
20155

$$$$
ACET-pdb4ehs-B-GLU-446:MBZ-pdb4ehs-B-PHE-472
     RDKit          3D

 22 21  0  0  0  0  0  0  0  0999 V2000
   -4.4073    1.2680   -1.6750 C   0  0  0  0  0  0  0  0  0  0  0  0
   -3.6539    0.6914   -1.9677 H   0  0  0  0  0  0  0  0  0  0  0  0
   -5.1008    1.3240   -2.3834 H   0  0  0  0  0  0  0  0  0  0  0  0
   -4.8567    0.8204   -0.7886 H   0  0  0  0  0  0  0  0  0  0  0  0
   -3.8424    2.6825   -1.4897 C   0  0  0  0  0  0  0  0  0  0  0  0
   -3.6439    3.1268   -0.3478 O   0  0  0  0  0  1  0  0  0  0  0  0
   -3.4888    3.2820   -2.5543 O   0  0  0  0  0  0  0  0  0  0  0  0
   -0.0259    2.8670   -0.0074 C   0  0  0  0  0  0  0  0  0  0  0  0
    0.7863    3.2142    0.4320 H   0  0  0  0  0  0  0  0  0  0  0  0
   -0.8473    3.1796    0.4408 H   0  0  0  0  0  0  0  0  0  0  0  0
   -0.0400    3.2613   -1.0236 H   0  0  0  0  0  0  0  0  0  0  0  0
    0.0053    1.3997    0.0192 C   0  0  0  0  0  0  0  0  0  0  0  0
   -1.2297    0.6839   -0.0084 C   0  0  0  0  0  0  0  0  0  0  0  0
   -2.0749    1.1841   -0.0346 H   0  0  0  0  0  0  0  0  0  0  0  0
   -1.2217   -0.7043   -0.0000 C   0  0  0  0  0  0  0  0  0  0  0  0
   -2.0916   -1.2083    0.0186 H   0  0  0  0  0  0  0  0  0  0  0  0
   -0.0108   -1.3883   -0.0151 C   0  0  0  0  0  0  0  0  0  0  0  0
   -0.0074   -2.3933   -0.0381 H   0  0  0  0  0  0  0  0  0  0  0  0
    1.2217   -0.6996   -0.0000 C   0  0  0  0  0  0  0  0  0  0  0  0
    2.0867   -1.2084    0.0092 H   0  0  0  0  0  0  0  0  0  0  0  0
    1.2353    0.7087    0.0043 C   0  0  0  0  0  0  0  0  0  0  0  0
    2.0827    1.2003   -0.0039 H   0  0  0  0  0  0  0  0  0  0  0  0
  1  5  1  0
  5  6  1  0
  5  7  2  0
  1  2  1  0
  1  3  1  0
  1  4  1  0
  8 12  1  0
 12 13  2  0
 13 15  1  0
 15 17  2  0
 17 19  1  0
 19 21  2  0
 21 12  1  0
  8  9  1  0
  8 10  1  0
  8 11  1  0
 13 14  1  0
 15 16  1  0
 17 18  1  0
 19 20  1  0
 21 22  1  0
M  CHG  1   6  -1
M  END
>  <PDB_ID>  (1436) 
pdb4ehs

>  <RESIDUE_NAME>  (1436) 
GLU   PHE

>  <FRAG_NAME>  (1436) 
ACET   MBZ

>  <FRAG_ATOM_NUM>  (1436) 
fragi: 7  fragj: 15

>  <atom.prop.CHAIN_ID>  (1436) 
A A A A A A A Z Z Z Z Z Z Z Z Z Z Z Z Z Z Z

>  <atom.prop.IS_HEAVY_ATOM>  (1436) 
1 0 0 0 1 1 1 1 0 0 0 1 1 0 1 0 1 0 1 0 1 0

>  <DIFUSE_FUNC_ATOM>  (1436) 
atom 6   atom 7   

>  <FINAL_SINGLE_POINT_ENERGY>  (1436) 
0

>  <NONCOV_INTER_ENERGY_QM>  (1436) 
0

>  <FF_Energy>  (1436) 
-2.22

>  <QM_Energy>  (1436) 
-7.72

>  <source>  (1436) 
ACET_MBZ_01

>  <Index>  (1436) 
20157

$$$$
ACET-pdb3hlb-C-GLU-208:MBZ-pdb3hlb-C-PHE-226
     RDKit          3D

 22 21  0  0  0  0  0  0  0  0999 V2000
   -4.5516    3.8231   -1.3649 C   0  0  0  0  0  0  0  0  0  0  0  0
   -4.1449    4.6828   -1.6231 H   0  0  0  0  0  0  0  0  0  0  0  0
   -5.5225    3.8104   -1.5364 H   0  0  0  0  0  0  0  0  0  0  0  0
   -4.0903    3.0375   -1.9632 H   0  0  0  0  0  0  0  0  0  0  0  0
   -4.3507    3.6544    0.1380 C   0  0  0  0  0  0  0  0  0  0  0  0
   -3.3867    2.9767    0.5673 O   0  0  0  0  0  1  0  0  0  0  0  0
   -5.1653    4.2258    0.8968 O   0  0  0  0  0  0  0  0  0  0  0  0
    0.0019    2.8944   -0.0017 C   0  0  0  0  0  0  0  0  0  0  0  0
   -0.8334    3.2020   -0.4326 H   0  0  0  0  0  0  0  0  0  0  0  0
    0.7987    3.2013   -0.5017 H   0  0  0  0  0  0  0  0  0  0  0  0
    0.0442    3.3381    0.9930 H   0  0  0  0  0  0  0  0  0  0  0  0
    0.0014    1.3949    0.0008 C   0  0  0  0  0  0  0  0  0  0  0  0
   -1.1921    0.6839   -0.0005 C   0  0  0  0  0  0  0  0  0  0  0  0
   -2.0605    1.1802   -0.0032 H   0  0  0  0  0  0  0  0  0  0  0  0
   -1.1990   -0.6943   -0.0000 C   0  0  0  0  0  0  0  0  0  0  0  0
   -2.0768   -1.1913    0.0008 H   0  0  0  0  0  0  0  0  0  0  0  0
   -0.0039   -1.3853    0.0011 C   0  0  0  0  0  0  0  0  0  0  0  0
   -0.0047   -2.3866    0.0018 H   0  0  0  0  0  0  0  0  0  0  0  0
    1.1990   -0.6917    0.0000 C   0  0  0  0  0  0  0  0  0  0  0  0
    2.0777   -1.1931    0.0016 H   0  0  0  0  0  0  0  0  0  0  0  0
    1.1946    0.6924   -0.0015 C   0  0  0  0  0  0  0  0  0  0  0  0
    2.0624    1.1908   -0.0051 H   0  0  0  0  0  0  0  0  0  0  0  0
  1  5  1  0
  5  6  1  0
  5  7  2  0
  1  2  1  0
  1  3  1  0
  1  4  1  0
  8 12  1  0
 12 13  2  0
 13 15  1  0
 15 17  2  0
 17 19  1  0
 19 21  2  0
 21 12  1  0
  8  9  1  0
  8 10  1  0
  8 11  1  0
 13 14  1  0
 15 16  1  0
 17 18  1  0
 19 20  1  0
 21 22  1  0
M  CHG  1   6  -1
M  END
>  <PDB_ID>  (1437) 
pdb3hlb

>  <RESIDUE_NAME>  (1437) 
GLU   PHE

>  <FRAG_NAME>  (1437) 
ACET   MBZ

>  <FRAG_ATOM_NUM>  (1437) 
fragi: 7  fragj: 15

>  <atom.prop.CHAIN_ID>  (1437) 
A A A A A A A Z Z Z Z Z Z Z Z Z Z Z Z Z Z Z

>  <atom.prop.IS_HEAVY_ATOM>  (1437) 
1 0 0 0 1 1 1 1 0 0 0 1 1 0 1 0 1 0 1 0 1 0

>  <DIFUSE_FUNC_ATOM>  (1437) 
atom 6   atom 7   

>  <FINAL_SINGLE_POINT_ENERGY>  (1437) 
0

>  <NONCOV_INTER_ENERGY_QM>  (1437) 
0

>  <FF_Energy>  (1437) 
-1.43

>  <QM_Energy>  (1437) 
-7.58

>  <source>  (1437) 
ACET_MBZ_01

>  <Index>  (1437) 
20172

$$$$
ACET-pdb3hm2-F-GLU-128:MBZ-pdb3hm2-G-PHE-158
     RDKit          3D

 22 21  0  0  0  0  0  0  0  0999 V2000
   -5.9126    2.1349   -0.3776 C   0  0  0  0  0  0  0  0  0  0  0  0
   -5.7473    1.4554   -1.0679 H   0  0  0  0  0  0  0  0  0  0  0  0
   -6.4972    2.8571   -0.6981 H   0  0  0  0  0  0  0  0  0  0  0  0
   -6.3982    1.6499    0.4691 H   0  0  0  0  0  0  0  0  0  0  0  0
   -4.5689    2.7612   -0.0190 C   0  0  0  0  0  0  0  0  0  0  0  0
   -3.5348    2.0726   -0.1815 O   0  0  0  0  0  1  0  0  0  0  0  0
   -4.5421    3.9312    0.4273 O   0  0  0  0  0  0  0  0  0  0  0  0
   -0.0244    2.8670   -0.0206 C   0  0  0  0  0  0  0  0  0  0  0  0
    0.8738    3.1899   -0.2718 H   0  0  0  0  0  0  0  0  0  0  0  0
   -0.2891    3.1866    0.8756 H   0  0  0  0  0  0  0  0  0  0  0  0
   -0.7358    3.2716   -0.7407 H   0  0  0  0  0  0  0  0  0  0  0  0
    0.0003    1.3784   -0.0004 C   0  0  0  0  0  0  0  0  0  0  0  0
   -1.1902    0.6743    0.0032 C   0  0  0  0  0  0  0  0  0  0  0  0
   -2.0565    1.1814    0.0073 H   0  0  0  0  0  0  0  0  0  0  0  0
   -1.2011   -0.6835    0.0000 C   0  0  0  0  0  0  0  0  0  0  0  0
   -2.0768   -1.1874   -0.0016 H   0  0  0  0  0  0  0  0  0  0  0  0
   -0.0071   -1.3731    0.0003 C   0  0  0  0  0  0  0  0  0  0  0  0
   -0.0075   -2.3759    0.0005 H   0  0  0  0  0  0  0  0  0  0  0  0
    1.2011   -0.6823    0.0000 C   0  0  0  0  0  0  0  0  0  0  0  0
    2.0755   -1.1940    0.0037 H   0  0  0  0  0  0  0  0  0  0  0  0
    1.1970    0.6863   -0.0031 C   0  0  0  0  0  0  0  0  0  0  0  0
    2.0596    1.1931   -0.0083 H   0  0  0  0  0  0  0  0  0  0  0  0
  1  5  1  0
  5  6  1  0
  5  7  2  0
  1  2  1  0
  1  3  1  0
  1  4  1  0
  8 12  1  0
 12 13  2  0
 13 15  1  0
 15 17  2  0
 17 19  1  0
 19 21  2  0
 21 12  1  0
  8  9  1  0
  8 10  1  0
  8 11  1  0
 13 14  1  0
 15 16  1  0
 17 18  1  0
 19 20  1  0
 21 22  1  0
M  CHG  1   6  -1
M  END
>  <PDB_ID>  (1438) 
pdb3hm2

>  <RESIDUE_NAME>  (1438) 
GLU   PHE

>  <FRAG_NAME>  (1438) 
ACET   MBZ

>  <FRAG_ATOM_NUM>  (1438) 
fragi: 7  fragj: 15

>  <atom.prop.CHAIN_ID>  (1438) 
A A A A A A A Z Z Z Z Z Z Z Z Z Z Z Z Z Z Z

>  <atom.prop.IS_HEAVY_ATOM>  (1438) 
1 0 0 0 1 1 1 1 0 0 0 1 1 0 1 0 1 0 1 0 1 0

>  <DIFUSE_FUNC_ATOM>  (1438) 
atom 6   atom 7   

>  <FINAL_SINGLE_POINT_ENERGY>  (1438) 
0

>  <NONCOV_INTER_ENERGY_QM>  (1438) 
0

>  <FF_Energy>  (1438) 
47.43

>  <QM_Energy>  (1438) 
-4.84

>  <source>  (1438) 
ACET_MBZ_01

>  <Index>  (1438) 
20266

$$$$
ACET-pdb4em2-A-GLU-117:MBZ-pdb4em2-A-PHE-127
     RDKit          3D

 22 21  0  0  0  0  0  0  0  0999 V2000
    4.5447    4.2275   -0.7138 C   0  0  0  0  0  0  0  0  0  0  0  0
    5.1949    4.5995   -1.3559 H   0  0  0  0  0  0  0  0  0  0  0  0
    4.8688    4.3011    0.2151 H   0  0  0  0  0  0  0  0  0  0  0  0
    3.6092    4.7794   -0.8041 H   0  0  0  0  0  0  0  0  0  0  0  0
    4.4033    2.7477   -1.0238 C   0  0  0  0  0  0  0  0  0  0  0  0
    5.4059    2.0315   -0.8308 O   0  0  0  0  0  1  0  0  0  0  0  0
    3.3060    2.3050   -1.4645 O   0  0  0  0  0  0  0  0  0  0  0  0
   -0.0140    2.8830   -0.1233 C   0  0  0  0  0  0  0  0  0  0  0  0
    0.9006    3.2118    0.0507 H   0  0  0  0  0  0  0  0  0  0  0  0
   -0.6600    3.2416    0.5319 H   0  0  0  0  0  0  0  0  0  0  0  0
   -0.3140    3.2163   -1.1168 H   0  0  0  0  0  0  0  0  0  0  0  0
   -0.0052    1.4029   -0.0013 C   0  0  0  0  0  0  0  0  0  0  0  0
   -1.2061    0.6975    0.0023 C   0  0  0  0  0  0  0  0  0  0  0  0
   -2.0720    1.1803    0.0055 H   0  0  0  0  0  0  0  0  0  0  0  0
   -1.2133   -0.7131    0.0000 C   0  0  0  0  0  0  0  0  0  0  0  0
   -2.0810   -1.2020    0.0023 H   0  0  0  0  0  0  0  0  0  0  0  0
    0.0053   -1.4043   -0.0043 C   0  0  0  0  0  0  0  0  0  0  0  0
    0.0171   -2.3955   -0.0107 H   0  0  0  0  0  0  0  0  0  0  0  0
    1.2133   -0.6807   -0.0000 C   0  0  0  0  0  0  0  0  0  0  0  0
    2.0945   -1.1865    0.0019 H   0  0  0  0  0  0  0  0  0  0  0  0
    1.2060    0.6977    0.0032 C   0  0  0  0  0  0  0  0  0  0  0  0
    2.0646    1.2070    0.0082 H   0  0  0  0  0  0  0  0  0  0  0  0
  1  5  1  0
  5  6  1  0
  5  7  2  0
  1  2  1  0
  1  3  1  0
  1  4  1  0
  8 12  1  0
 12 13  2  0
 13 15  1  0
 15 17  2  0
 17 19  1  0
 19 21  2  0
 21 12  1  0
  8  9  1  0
  8 10  1  0
  8 11  1  0
 13 14  1  0
 15 16  1  0
 17 18  1  0
 19 20  1  0
 21 22  1  0
M  CHG  1   6  -1
M  END
>  <PDB_ID>  (1439) 
pdb4em2

>  <RESIDUE_NAME>  (1439) 
GLU   PHE

>  <FRAG_NAME>  (1439) 
ACET   MBZ

>  <FRAG_ATOM_NUM>  (1439) 
fragi: 7  fragj: 15

>  <atom.prop.CHAIN_ID>  (1439) 
A A A A A A A Z Z Z Z Z Z Z Z Z Z Z Z Z Z Z

>  <atom.prop.IS_HEAVY_ATOM>  (1439) 
1 0 0 0 1 1 1 1 0 0 0 1 1 0 1 0 1 0 1 0 1 0

>  <DIFUSE_FUNC_ATOM>  (1439) 
atom 6   atom 7   

>  <FINAL_SINGLE_POINT_ENERGY>  (1439) 
0

>  <NONCOV_INTER_ENERGY_QM>  (1439) 
0

>  <FF_Energy>  (1439) 
-0.05

>  <QM_Energy>  (1439) 
-6.54

>  <source>  (1439) 
ACET_MBZ_01

>  <Index>  (1439) 
20358

$$$$
ACET-pdb4em3-B-GLU-210:MBZ-pdb4em3-B-PHE-222
     RDKit          3D

 22 21  0  0  0  0  0  0  0  0999 V2000
   -2.8248    2.5572    3.3788 C   0  0  0  0  0  0  0  0  0  0  0  0
   -2.4216    1.7743    3.8108 H   0  0  0  0  0  0  0  0  0  0  0  0
   -3.3259    2.3247    2.5682 H   0  0  0  0  0  0  0  0  0  0  0  0
   -3.5149    3.0167    4.0865 H   0  0  0  0  0  0  0  0  0  0  0  0
   -1.6949    3.4920    2.9688 C   0  0  0  0  0  0  0  0  0  0  0  0
   -1.9744    4.5336    2.3300 O   0  0  0  0  0  1  0  0  0  0  0  0
   -0.5263    3.1810    3.3023 O   0  0  0  0  0  0  0  0  0  0  0  0
    0.0096    2.8906   -0.0180 C   0  0  0  0  0  0  0  0  0  0  0  0
    0.8264    3.1990    0.4468 H   0  0  0  0  0  0  0  0  0  0  0  0
   -0.8063    3.2044    0.4449 H   0  0  0  0  0  0  0  0  0  0  0  0
    0.0121    3.3236   -1.0183 H   0  0  0  0  0  0  0  0  0  0  0  0
    0.0043    1.3946   -0.0097 C   0  0  0  0  0  0  0  0  0  0  0  0
   -1.1931    0.6906   -0.0034 C   0  0  0  0  0  0  0  0  0  0  0  0
   -2.0583    1.1815   -0.0028 H   0  0  0  0  0  0  0  0  0  0  0  0
   -1.1967   -0.6984   -0.0000 C   0  0  0  0  0  0  0  0  0  0  0  0
   -2.0756   -1.1909   -0.0072 H   0  0  0  0  0  0  0  0  0  0  0  0
   -0.0032   -1.3859    0.0155 C   0  0  0  0  0  0  0  0  0  0  0  0
   -0.0009   -2.3875    0.0369 H   0  0  0  0  0  0  0  0  0  0  0  0
    1.1967   -0.6898   -0.0000 C   0  0  0  0  0  0  0  0  0  0  0  0
    2.0772   -1.1929   -0.0077 H   0  0  0  0  0  0  0  0  0  0  0  0
    1.1920    0.6889   -0.0025 C   0  0  0  0  0  0  0  0  0  0  0  0
    2.0639    1.1878    0.0005 H   0  0  0  0  0  0  0  0  0  0  0  0
  1  5  1  0
  5  6  1  0
  5  7  2  0
  1  2  1  0
  1  3  1  0
  1  4  1  0
  8 12  1  0
 12 13  2  0
 13 15  1  0
 15 17  2  0
 17 19  1  0
 19 21  2  0
 21 12  1  0
  8  9  1  0
  8 10  1  0
  8 11  1  0
 13 14  1  0
 15 16  1  0
 17 18  1  0
 19 20  1  0
 21 22  1  0
M  CHG  1   6  -1
M  END
>  <PDB_ID>  (1440) 
pdb4em3

>  <RESIDUE_NAME>  (1440) 
GLU   PHE

>  <FRAG_NAME>  (1440) 
ACET   MBZ

>  <FRAG_ATOM_NUM>  (1440) 
fragi: 7  fragj: 15

>  <atom.prop.CHAIN_ID>  (1440) 
A A A A A A A Z Z Z Z Z Z Z Z Z Z Z Z Z Z Z

>  <atom.prop.IS_HEAVY_ATOM>  (1440) 
1 0 0 0 1 1 1 1 0 0 0 1 1 0 1 0 1 0 1 0 1 0

>  <DIFUSE_FUNC_ATOM>  (1440) 
atom 6   atom 7   

>  <FINAL_SINGLE_POINT_ENERGY>  (1440) 
0

>  <NONCOV_INTER_ENERGY_QM>  (1440) 
0

>  <FF_Energy>  (1440) 
-0.11

>  <QM_Energy>  (1440) 
-5.49

>  <source>  (1440) 
ACET_MBZ_01

>  <Index>  (1440) 
20369

$$$$
ACET-pdb4em3-B-ASP-254:MBZ-pdb4em3-B-PHE-258
     RDKit          3D

 22 21  0  0  0  0  0  0  0  0999 V2000
   -4.0896    5.8820   -0.8294 C   0  0  0  0  0  0  0  0  0  0  0  0
   -4.9174    5.7524   -1.3672 H   0  0  0  0  0  0  0  0  0  0  0  0
   -3.4912    6.5407   -1.2733 H   0  0  0  0  0  0  0  0  0  0  0  0
   -4.3792    6.2902    0.1388 H   0  0  0  0  0  0  0  0  0  0  0  0
   -3.3575    4.5457   -0.7339 C   0  0  0  0  0  0  0  0  0  0  0  0
   -3.6149    3.7462    0.1969 O   0  0  0  0  0  1  0  0  0  0  0  0
   -2.5170    4.2883   -1.6228 O   0  0  0  0  0  0  0  0  0  0  0  0
   -0.0060    2.8875    0.0039 C   0  0  0  0  0  0  0  0  0  0  0  0
   -0.7907    3.1962   -0.5128 H   0  0  0  0  0  0  0  0  0  0  0  0
    0.8385    3.2023   -0.4035 H   0  0  0  0  0  0  0  0  0  0  0  0
   -0.0749    3.3172    1.0032 H   0  0  0  0  0  0  0  0  0  0  0  0
   -0.0000    1.3963   -0.0028 C   0  0  0  0  0  0  0  0  0  0  0  0
   -1.1916    0.6915   -0.0006 C   0  0  0  0  0  0  0  0  0  0  0  0
   -2.0602    1.1840   -0.0009 H   0  0  0  0  0  0  0  0  0  0  0  0
   -1.1990   -0.6928   -0.0000 C   0  0  0  0  0  0  0  0  0  0  0  0
   -2.0778   -1.1869   -0.0008 H   0  0  0  0  0  0  0  0  0  0  0  0
   -0.0029   -1.3908    0.0040 C   0  0  0  0  0  0  0  0  0  0  0  0
   -0.0074   -2.3891    0.0096 H   0  0  0  0  0  0  0  0  0  0  0  0
    1.1990   -0.6958    0.0000 C   0  0  0  0  0  0  0  0  0  0  0  0
    2.0791   -1.1954   -0.0009 H   0  0  0  0  0  0  0  0  0  0  0  0
    1.1945    0.6916   -0.0006 C   0  0  0  0  0  0  0  0  0  0  0  0
    2.0627    1.1883   -0.0003 H   0  0  0  0  0  0  0  0  0  0  0  0
  1  5  1  0
  5  6  1  0
  5  7  2  0
  1  2  1  0
  1  3  1  0
  1  4  1  0
  8 12  1  0
 12 13  2  0
 13 15  1  0
 15 17  2  0
 17 19  1  0
 19 21  2  0
 21 12  1  0
  8  9  1  0
  8 10  1  0
  8 11  1  0
 13 14  1  0
 15 16  1  0
 17 18  1  0
 19 20  1  0
 21 22  1  0
M  CHG  1   6  -1
M  END
>  <PDB_ID>  (1441) 
pdb4em3

>  <RESIDUE_NAME>  (1441) 
ASP   PHE

>  <FRAG_NAME>  (1441) 
ACET   MBZ

>  <FRAG_ATOM_NUM>  (1441) 
fragi: 7  fragj: 15

>  <atom.prop.CHAIN_ID>  (1441) 
A A A A A A A Z Z Z Z Z Z Z Z Z Z Z Z Z Z Z

>  <atom.prop.IS_HEAVY_ATOM>  (1441) 
1 0 0 0 1 1 1 1 0 0 0 1 1 0 1 0 1 0 1 0 1 0

>  <DIFUSE_FUNC_ATOM>  (1441) 
atom 6   atom 7   

>  <FINAL_SINGLE_POINT_ENERGY>  (1441) 
0

>  <NONCOV_INTER_ENERGY_QM>  (1441) 
0

>  <FF_Energy>  (1441) 
-1.64

>  <QM_Energy>  (1441) 
-8.57

>  <source>  (1441) 
ACET_MBZ_01

>  <Index>  (1441) 
20370

$$$$
ACET-pdb4egc-B-ASP-317:MBZ-pdb4egc-B-PHE-322
     RDKit          3D

 22 21  0  0  0  0  0  0  0  0999 V2000
    4.0773    5.3572    0.8405 C   0  0  0  0  0  0  0  0  0  0  0  0
    4.8230    5.2029    0.2054 H   0  0  0  0  0  0  0  0  0  0  0  0
    4.2780    6.1216    1.4387 H   0  0  0  0  0  0  0  0  0  0  0  0
    3.1926    5.6143    0.2580 H   0  0  0  0  0  0  0  0  0  0  0  0
    3.8857    4.1055    1.6874 C   0  0  0  0  0  0  0  0  0  0  0  0
    2.8730    3.3963    1.4903 O   0  0  0  0  0  1  0  0  0  0  0  0
    4.7532    3.8183    2.5458 O   0  0  0  0  0  0  0  0  0  0  0  0
   -0.0003    2.9017   -0.0061 C   0  0  0  0  0  0  0  0  0  0  0  0
   -0.1521    3.2031   -0.9354 H   0  0  0  0  0  0  0  0  0  0  0  0
    0.8752    3.2117    0.3343 H   0  0  0  0  0  0  0  0  0  0  0  0
   -0.7759    3.3445    0.6189 H   0  0  0  0  0  0  0  0  0  0  0  0
    0.0012    1.4000    0.0026 C   0  0  0  0  0  0  0  0  0  0  0  0
   -1.1943    0.6929   -0.0031 C   0  0  0  0  0  0  0  0  0  0  0  0
   -2.0608    1.1861   -0.0103 H   0  0  0  0  0  0  0  0  0  0  0  0
   -1.1994   -0.6918    0.0000 C   0  0  0  0  0  0  0  0  0  0  0  0
   -2.0786   -1.1863    0.0038 H   0  0  0  0  0  0  0  0  0  0  0  0
   -0.0032   -1.3923    0.0002 C   0  0  0  0  0  0  0  0  0  0  0  0
   -0.0097   -2.3913    0.0006 H   0  0  0  0  0  0  0  0  0  0  0  0
    1.1994   -0.6999   -0.0000 C   0  0  0  0  0  0  0  0  0  0  0  0
    2.0791   -1.1989    0.0010 H   0  0  0  0  0  0  0  0  0  0  0  0
    1.1962    0.6911    0.0002 C   0  0  0  0  0  0  0  0  0  0  0  0
    2.0657    1.1859   -0.0021 H   0  0  0  0  0  0  0  0  0  0  0  0
  1  5  1  0
  5  6  1  0
  5  7  2  0
  1  2  1  0
  1  3  1  0
  1  4  1  0
  8 12  1  0
 12 13  2  0
 13 15  1  0
 15 17  2  0
 17 19  1  0
 19 21  2  0
 21 12  1  0
  8  9  1  0
  8 10  1  0
  8 11  1  0
 13 14  1  0
 15 16  1  0
 17 18  1  0
 19 20  1  0
 21 22  1  0
M  CHG  1   6  -1
M  END
>  <PDB_ID>  (1442) 
pdb4egc

>  <RESIDUE_NAME>  (1442) 
ASP   PHE

>  <FRAG_NAME>  (1442) 
ACET   MBZ

>  <FRAG_ATOM_NUM>  (1442) 
fragi: 7  fragj: 15

>  <atom.prop.CHAIN_ID>  (1442) 
A A A A A A A Z Z Z Z Z Z Z Z Z Z Z Z Z Z Z

>  <atom.prop.IS_HEAVY_ATOM>  (1442) 
1 0 0 0 1 1 1 1 0 0 0 1 1 0 1 0 1 0 1 0 1 0

>  <DIFUSE_FUNC_ATOM>  (1442) 
atom 6   atom 7   

>  <FINAL_SINGLE_POINT_ENERGY>  (1442) 
0

>  <NONCOV_INTER_ENERGY_QM>  (1442) 
0

>  <FF_Energy>  (1442) 
-0.86

>  <QM_Energy>  (1442) 
-6.96

>  <source>  (1442) 
ACET_MBZ_01

>  <Index>  (1442) 
20407

$$$$
ACET-pdb3hnq-A-GLU-72:MBZ-pdb3hnq-C-PHE-52
     RDKit          3D

 22 21  0  0  0  0  0  0  0  0999 V2000
   -3.2089    5.2512   -2.3777 C   0  0  0  0  0  0  0  0  0  0  0  0
   -3.4423    6.1346   -2.7392 H   0  0  0  0  0  0  0  0  0  0  0  0
   -3.8646    4.5626   -2.6256 H   0  0  0  0  0  0  0  0  0  0  0  0
   -2.2418    4.9627   -2.7894 H   0  0  0  0  0  0  0  0  0  0  0  0
   -3.2088    5.3601   -0.8575 C   0  0  0  0  0  0  0  0  0  0  0  0
   -2.8111    4.3858   -0.1796 O   0  0  0  0  0  1  0  0  0  0  0  0
   -3.6195    6.4231   -0.3372 O   0  0  0  0  0  0  0  0  0  0  0  0
   -0.0079    2.8965    0.0169 C   0  0  0  0  0  0  0  0  0  0  0  0
   -0.9000    3.2054   -0.2784 H   0  0  0  0  0  0  0  0  0  0  0  0
    0.7034    3.2160   -0.5923 H   0  0  0  0  0  0  0  0  0  0  0  0
    0.1814    3.3257    1.0008 H   0  0  0  0  0  0  0  0  0  0  0  0
   -0.0010    1.4004    0.0003 C   0  0  0  0  0  0  0  0  0  0  0  0
   -1.1967    0.6925   -0.0000 C   0  0  0  0  0  0  0  0  0  0  0  0
   -2.0637    1.1839   -0.0012 H   0  0  0  0  0  0  0  0  0  0  0  0
   -1.2020   -0.6952   -0.0000 C   0  0  0  0  0  0  0  0  0  0  0  0
   -2.0794   -1.1893    0.0012 H   0  0  0  0  0  0  0  0  0  0  0  0
   -0.0020   -1.3935   -0.0000 C   0  0  0  0  0  0  0  0  0  0  0  0
   -0.0075   -2.3922   -0.0009 H   0  0  0  0  0  0  0  0  0  0  0  0
    1.2020   -0.7002    0.0000 C   0  0  0  0  0  0  0  0  0  0  0  0
    2.0812   -1.1975    0.0015 H   0  0  0  0  0  0  0  0  0  0  0  0
    1.1998    0.6960   -0.0003 C   0  0  0  0  0  0  0  0  0  0  0  0
    2.0655    1.1901   -0.0010 H   0  0  0  0  0  0  0  0  0  0  0  0
  1  5  1  0
  5  6  1  0
  5  7  2  0
  1  2  1  0
  1  3  1  0
  1  4  1  0
  8 12  1  0
 12 13  2  0
 13 15  1  0
 15 17  2  0
 17 19  1  0
 19 21  2  0
 21 12  1  0
  8  9  1  0
  8 10  1  0
  8 11  1  0
 13 14  1  0
 15 16  1  0
 17 18  1  0
 19 20  1  0
 21 22  1  0
M  CHG  1   6  -1
M  END
>  <PDB_ID>  (1443) 
pdb3hnq

>  <RESIDUE_NAME>  (1443) 
GLU   PHE

>  <FRAG_NAME>  (1443) 
ACET   MBZ

>  <FRAG_ATOM_NUM>  (1443) 
fragi: 7  fragj: 15

>  <atom.prop.CHAIN_ID>  (1443) 
A A A A A A A Z Z Z Z Z Z Z Z Z Z Z Z Z Z Z

>  <atom.prop.IS_HEAVY_ATOM>  (1443) 
1 0 0 0 1 1 1 1 0 0 0 1 1 0 1 0 1 0 1 0 1 0

>  <DIFUSE_FUNC_ATOM>  (1443) 
atom 6   atom 7   

>  <FINAL_SINGLE_POINT_ENERGY>  (1443) 
0

>  <NONCOV_INTER_ENERGY_QM>  (1443) 
0

>  <FF_Energy>  (1443) 
-0.68

>  <QM_Energy>  (1443) 
-6.38

>  <source>  (1443) 
ACET_MBZ_01

>  <Index>  (1443) 
20418

$$$$
ACET-pdb3hoa-A-GLU-377:MBZ-pdb3hoa-A-PHE-427
     RDKit          3D

 22 21  0  0  0  0  0  0  0  0999 V2000
   -6.2814    2.4695   -0.0151 C   0  0  0  0  0  0  0  0  0  0  0  0
   -6.9352    1.9459    0.5023 H   0  0  0  0  0  0  0  0  0  0  0  0
   -5.9785    1.9905   -0.8199 H   0  0  0  0  0  0  0  0  0  0  0  0
   -6.7624    3.3953   -0.3309 H   0  0  0  0  0  0  0  0  0  0  0  0
   -5.0734    2.6987    0.8659 C   0  0  0  0  0  0  0  0  0  0  0  0
   -5.0932    3.6531    1.6763 O   0  0  0  0  0  1  0  0  0  0  0  0
   -4.1087    1.9161    0.7563 O   0  0  0  0  0  0  0  0  0  0  0  0
   -0.0026    2.9063   -0.0529 C   0  0  0  0  0  0  0  0  0  0  0  0
   -0.9400    3.2140    0.0156 H   0  0  0  0  0  0  0  0  0  0  0  0
    0.4047    3.1842   -0.9109 H   0  0  0  0  0  0  0  0  0  0  0  0
    0.5624    3.3779    0.7512 H   0  0  0  0  0  0  0  0  0  0  0  0
   -0.0004    1.4061   -0.0008 C   0  0  0  0  0  0  0  0  0  0  0  0
   -1.1997    0.6958    0.0020 C   0  0  0  0  0  0  0  0  0  0  0  0
   -2.0660    1.1861    0.0041 H   0  0  0  0  0  0  0  0  0  0  0  0
   -1.2044   -0.6976   -0.0000 C   0  0  0  0  0  0  0  0  0  0  0  0
   -2.0790   -1.1918    0.0014 H   0  0  0  0  0  0  0  0  0  0  0  0
    0.0021   -1.3982   -0.0018 C   0  0  0  0  0  0  0  0  0  0  0  0
   -0.0061   -2.3961   -0.0046 H   0  0  0  0  0  0  0  0  0  0  0  0
    1.2044   -0.7040    0.0000 C   0  0  0  0  0  0  0  0  0  0  0  0
    2.0853   -1.1954    0.0022 H   0  0  0  0  0  0  0  0  0  0  0  0
    1.1980    0.6981    0.0007 C   0  0  0  0  0  0  0  0  0  0  0  0
    2.0661    1.1900    0.0017 H   0  0  0  0  0  0  0  0  0  0  0  0
  1  5  1  0
  5  6  1  0
  5  7  2  0
  1  2  1  0
  1  3  1  0
  1  4  1  0
  8 12  1  0
 12 13  2  0
 13 15  1  0
 15 17  2  0
 17 19  1  0
 19 21  2  0
 21 12  1  0
  8  9  1  0
  8 10  1  0
  8 11  1  0
 13 14  1  0
 15 16  1  0
 17 18  1  0
 19 20  1  0
 21 22  1  0
M  CHG  1   6  -1
M  END
>  <PDB_ID>  (1444) 
pdb3hoa

>  <RESIDUE_NAME>  (1444) 
GLU   PHE

>  <FRAG_NAME>  (1444) 
ACET   MBZ

>  <FRAG_ATOM_NUM>  (1444) 
fragi: 7  fragj: 15

>  <atom.prop.CHAIN_ID>  (1444) 
A A A A A A A Z Z Z Z Z Z Z Z Z Z Z Z Z Z Z

>  <atom.prop.IS_HEAVY_ATOM>  (1444) 
1 0 0 0 1 1 1 1 0 0 0 1 1 0 1 0 1 0 1 0 1 0

>  <DIFUSE_FUNC_ATOM>  (1444) 
atom 6   atom 7   

>  <FINAL_SINGLE_POINT_ENERGY>  (1444) 
0

>  <NONCOV_INTER_ENERGY_QM>  (1444) 
0

>  <FF_Energy>  (1444) 
-1.38

>  <QM_Energy>  (1444) 
-6.8

>  <source>  (1444) 
ACET_MBZ_01

>  <Index>  (1444) 
20509

$$$$
ACET-pdb3hm2-D-ASP-28:MBZ-pdb3hm2-D-PHE-96
     RDKit          3D

 22 21  0  0  0  0  0  0  0  0999 V2000
    4.2946    4.6146   -0.6491 C   0  0  0  0  0  0  0  0  0  0  0  0
    3.7740    4.7751   -1.4826 H   0  0  0  0  0  0  0  0  0  0  0  0
    5.2036    5.0111   -0.7305 H   0  0  0  0  0  0  0  0  0  0  0  0
    3.7807    5.1167    0.1706 H   0  0  0  0  0  0  0  0  0  0  0  0
    4.4436    3.0974   -0.4568 C   0  0  0  0  0  0  0  0  0  0  0  0
    3.6623    2.4700    0.2998 O   0  0  0  0  0  1  0  0  0  0  0  0
    5.3762    2.5316   -1.0858 O   0  0  0  0  0  0  0  0  0  0  0  0
    0.0037    2.9452   -0.0238 C   0  0  0  0  0  0  0  0  0  0  0  0
   -0.3617    3.2269   -0.8976 H   0  0  0  0  0  0  0  0  0  0  0  0
    0.9396    3.2411    0.0891 H   0  0  0  0  0  0  0  0  0  0  0  0
   -0.5957    3.4073    0.7607 H   0  0  0  0  0  0  0  0  0  0  0  0
   -0.0004    1.4207    0.0030 C   0  0  0  0  0  0  0  0  0  0  0  0
   -1.2024    0.6965    0.0029 C   0  0  0  0  0  0  0  0  0  0  0  0
   -2.0699    1.1820    0.0036 H   0  0  0  0  0  0  0  0  0  0  0  0
   -1.2070   -0.7089   -0.0000 C   0  0  0  0  0  0  0  0  0  0  0  0
   -2.0815   -1.1980   -0.0010 H   0  0  0  0  0  0  0  0  0  0  0  0
    0.0013   -1.4067    0.0008 C   0  0  0  0  0  0  0  0  0  0  0  0
    0.0001   -2.4031    0.0013 H   0  0  0  0  0  0  0  0  0  0  0  0
    1.2070   -0.7039    0.0000 C   0  0  0  0  0  0  0  0  0  0  0  0
    2.0881   -1.1953    0.0057 H   0  0  0  0  0  0  0  0  0  0  0  0
    1.2015    0.7022   -0.0067 C   0  0  0  0  0  0  0  0  0  0  0  0
    2.0695    1.1941   -0.0193 H   0  0  0  0  0  0  0  0  0  0  0  0
  1  5  1  0
  5  6  1  0
  5  7  2  0
  1  2  1  0
  1  3  1  0
  1  4  1  0
  8 12  1  0
 12 13  2  0
 13 15  1  0
 15 17  2  0
 17 19  1  0
 19 21  2  0
 21 12  1  0
  8  9  1  0
  8 10  1  0
  8 11  1  0
 13 14  1  0
 15 16  1  0
 17 18  1  0
 19 20  1  0
 21 22  1  0
M  CHG  1   6  -1
M  END
>  <PDB_ID>  (1445) 
pdb3hm2

>  <RESIDUE_NAME>  (1445) 
ASP   PHE

>  <FRAG_NAME>  (1445) 
ACET   MBZ

>  <FRAG_ATOM_NUM>  (1445) 
fragi: 7  fragj: 15

>  <atom.prop.CHAIN_ID>  (1445) 
A A A A A A A Z Z Z Z Z Z Z Z Z Z Z Z Z Z Z

>  <atom.prop.IS_HEAVY_ATOM>  (1445) 
1 0 0 0 1 1 1 1 0 0 0 1 1 0 1 0 1 0 1 0 1 0

>  <DIFUSE_FUNC_ATOM>  (1445) 
atom 6   atom 7   

>  <FINAL_SINGLE_POINT_ENERGY>  (1445) 
0

>  <NONCOV_INTER_ENERGY_QM>  (1445) 
0

>  <FF_Energy>  (1445) 
2.07

>  <QM_Energy>  (1445) 
-7.96

>  <source>  (1445) 
ACET_MBZ_01

>  <Index>  (1445) 
20521

$$$$
ACET-pdb4eqq-A-ASP-110:MBZ-pdb4eqq-B-PHE-78
     RDKit          3D

 22 21  0  0  0  0  0  0  0  0999 V2000
   -2.6794    5.2310   -1.8164 C   0  0  0  0  0  0  0  0  0  0  0  0
   -2.4492    4.7071   -2.6294 H   0  0  0  0  0  0  0  0  0  0  0  0
   -1.8530    5.5481   -1.3639 H   0  0  0  0  0  0  0  0  0  0  0  0
   -3.2510    6.1051   -2.1283 H   0  0  0  0  0  0  0  0  0  0  0  0
   -3.4426    4.3268   -0.8570 C   0  0  0  0  0  0  0  0  0  0  0  0
   -4.2473    4.8530   -0.0505 O   0  0  0  0  0  1  0  0  0  0  0  0
   -3.2443    3.1030   -0.9177 O   0  0  0  0  0  0  0  0  0  0  0  0
    0.0002    2.9207    0.0557 C   0  0  0  0  0  0  0  0  0  0  0  0
   -0.7663    3.2467   -0.4604 H   0  0  0  0  0  0  0  0  0  0  0  0
    0.8578    3.2397   -0.2963 H   0  0  0  0  0  0  0  0  0  0  0  0
   -0.1013    3.2973    1.0736 H   0  0  0  0  0  0  0  0  0  0  0  0
   -0.0006    1.4102   -0.0020 C   0  0  0  0  0  0  0  0  0  0  0  0
   -1.1958    0.6984    0.0088 C   0  0  0  0  0  0  0  0  0  0  0  0
   -2.0645    1.1793    0.0215 H   0  0  0  0  0  0  0  0  0  0  0  0
   -1.1950   -0.7046    0.0000 C   0  0  0  0  0  0  0  0  0  0  0  0
   -2.0753   -1.1923    0.0072 H   0  0  0  0  0  0  0  0  0  0  0  0
   -0.0003   -1.3939   -0.0167 C   0  0  0  0  0  0  0  0  0  0  0  0
   -0.0047   -2.3973   -0.0416 H   0  0  0  0  0  0  0  0  0  0  0  0
    1.1950   -0.7050   -0.0000 C   0  0  0  0  0  0  0  0  0  0  0  0
    2.0793   -1.1992    0.0064 H   0  0  0  0  0  0  0  0  0  0  0  0
    1.1967    0.6949    0.0099 C   0  0  0  0  0  0  0  0  0  0  0  0
    2.0657    1.1841    0.0253 H   0  0  0  0  0  0  0  0  0  0  0  0
  1  5  1  0
  5  6  1  0
  5  7  2  0
  1  2  1  0
  1  3  1  0
  1  4  1  0
  8 12  1  0
 12 13  2  0
 13 15  1  0
 15 17  2  0
 17 19  1  0
 19 21  2  0
 21 12  1  0
  8  9  1  0
  8 10  1  0
  8 11  1  0
 13 14  1  0
 15 16  1  0
 17 18  1  0
 19 20  1  0
 21 22  1  0
M  CHG  1   6  -1
M  END
>  <PDB_ID>  (1446) 
pdb4eqq

>  <RESIDUE_NAME>  (1446) 
ASP   PHE

>  <FRAG_NAME>  (1446) 
ACET   MBZ

>  <FRAG_ATOM_NUM>  (1446) 
fragi: 7  fragj: 15

>  <atom.prop.CHAIN_ID>  (1446) 
A A A A A A A Z Z Z Z Z Z Z Z Z Z Z Z Z Z Z

>  <atom.prop.IS_HEAVY_ATOM>  (1446) 
1 0 0 0 1 1 1 1 0 0 0 1 1 0 1 0 1 0 1 0 1 0

>  <DIFUSE_FUNC_ATOM>  (1446) 
atom 6   atom 7   

>  <FINAL_SINGLE_POINT_ENERGY>  (1446) 
0

>  <NONCOV_INTER_ENERGY_QM>  (1446) 
0

>  <FF_Energy>  (1446) 
-1.95

>  <QM_Energy>  (1446) 
-7.83

>  <source>  (1446) 
ACET_MBZ_01

>  <Index>  (1446) 
20677

$$$$
ACET-pdb3hrx-B-ASP-235:MBZ-pdb3hrx-B-PHE-251
     RDKit          3D

 22 21  0  0  0  0  0  0  0  0999 V2000
    3.8224    1.5626   -2.2633 C   0  0  0  0  0  0  0  0  0  0  0  0
    4.2558    1.6000   -3.1545 H   0  0  0  0  0  0  0  0  0  0  0  0
    3.0838    0.9020   -2.2578 H   0  0  0  0  0  0  0  0  0  0  0  0
    4.5701    1.2384   -1.5395 H   0  0  0  0  0  0  0  0  0  0  0  0
    3.2599    2.9309   -1.9336 C   0  0  0  0  0  0  0  0  0  0  0  0
    2.4669    3.4682   -2.7348 O   0  0  0  0  0  1  0  0  0  0  0  0
    3.6111    3.4686   -0.8598 O   0  0  0  0  0  0  0  0  0  0  0  0
    0.0042    2.9063   -0.0062 C   0  0  0  0  0  0  0  0  0  0  0  0
   -0.9245    3.2148    0.1248 H   0  0  0  0  0  0  0  0  0  0  0  0
    0.3672    3.2083   -0.8733 H   0  0  0  0  0  0  0  0  0  0  0  0
    0.6164    3.3433    0.7827 H   0  0  0  0  0  0  0  0  0  0  0  0
    0.0009    1.4033    0.0001 C   0  0  0  0  0  0  0  0  0  0  0  0
   -1.1969    0.6963   -0.0007 C   0  0  0  0  0  0  0  0  0  0  0  0
   -2.0635    1.1858   -0.0033 H   0  0  0  0  0  0  0  0  0  0  0  0
   -1.2028   -0.6979    0.0000 C   0  0  0  0  0  0  0  0  0  0  0  0
   -2.0804   -1.1893    0.0014 H   0  0  0  0  0  0  0  0  0  0  0  0
   -0.0021   -1.3968    0.0002 C   0  0  0  0  0  0  0  0  0  0  0  0
   -0.0060   -2.3944    0.0004 H   0  0  0  0  0  0  0  0  0  0  0  0
    1.2028   -0.6999   -0.0000 C   0  0  0  0  0  0  0  0  0  0  0  0
    2.0824   -1.1969    0.0007 H   0  0  0  0  0  0  0  0  0  0  0  0
    1.1981    0.6950    0.0004 C   0  0  0  0  0  0  0  0  0  0  0  0
    2.0663    1.1896   -0.0001 H   0  0  0  0  0  0  0  0  0  0  0  0
  1  5  1  0
  5  6  1  0
  5  7  2  0
  1  2  1  0
  1  3  1  0
  1  4  1  0
  8 12  1  0
 12 13  2  0
 13 15  1  0
 15 17  2  0
 17 19  1  0
 19 21  2  0
 21 12  1  0
  8  9  1  0
  8 10  1  0
  8 11  1  0
 13 14  1  0
 15 16  1  0
 17 18  1  0
 19 20  1  0
 21 22  1  0
M  CHG  1   6  -1
M  END
>  <PDB_ID>  (1447) 
pdb3hrx

>  <RESIDUE_NAME>  (1447) 
ASP   PHE

>  <FRAG_NAME>  (1447) 
ACET   MBZ

>  <FRAG_ATOM_NUM>  (1447) 
fragi: 7  fragj: 15

>  <atom.prop.CHAIN_ID>  (1447) 
A A A A A A A Z Z Z Z Z Z Z Z Z Z Z Z Z Z Z

>  <atom.prop.IS_HEAVY_ATOM>  (1447) 
1 0 0 0 1 1 1 1 0 0 0 1 1 0 1 0 1 0 1 0 1 0

>  <DIFUSE_FUNC_ATOM>  (1447) 
atom 6   atom 7   

>  <FINAL_SINGLE_POINT_ENERGY>  (1447) 
0

>  <NONCOV_INTER_ENERGY_QM>  (1447) 
0

>  <FF_Energy>  (1447) 
-2.2

>  <QM_Energy>  (1447) 
-7.62

>  <source>  (1447) 
ACET_MBZ_01

>  <Index>  (1447) 
20687

$$$$
ACET-pdb3hrx-C-ASP-235:MBZ-pdb3hrx-C-PHE-251
     RDKit          3D

 22 21  0  0  0  0  0  0  0  0999 V2000
    4.0830    1.6189   -2.1465 C   0  0  0  0  0  0  0  0  0  0  0  0
    4.5824    1.7128   -2.9988 H   0  0  0  0  0  0  0  0  0  0  0  0
    3.3673    0.9382   -2.2325 H   0  0  0  0  0  0  0  0  0  0  0  0
    4.7829    1.2769   -1.3841 H   0  0  0  0  0  0  0  0  0  0  0  0
    3.4486    2.9562   -1.8005 C   0  0  0  0  0  0  0  0  0  0  0  0
    2.6399    3.4604   -2.6104 O   0  0  0  0  0  1  0  0  0  0  0  0
    3.7540    3.5004   -0.7177 O   0  0  0  0  0  0  0  0  0  0  0  0
   -0.0016    2.9126   -0.0166 C   0  0  0  0  0  0  0  0  0  0  0  0
   -0.9372    3.2181    0.0629 H   0  0  0  0  0  0  0  0  0  0  0  0
    0.4046    3.2086   -0.8667 H   0  0  0  0  0  0  0  0  0  0  0  0
    0.5664    3.3610    0.7985 H   0  0  0  0  0  0  0  0  0  0  0  0
   -0.0005    1.4059   -0.0003 C   0  0  0  0  0  0  0  0  0  0  0  0
   -1.1983    0.6956    0.0005 C   0  0  0  0  0  0  0  0  0  0  0  0
   -2.0658    1.1847   -0.0001 H   0  0  0  0  0  0  0  0  0  0  0  0
   -1.2047   -0.6994   -0.0000 C   0  0  0  0  0  0  0  0  0  0  0  0
   -2.0802   -1.1908    0.0010 H   0  0  0  0  0  0  0  0  0  0  0  0
   -0.0002   -1.3979   -0.0001 C   0  0  0  0  0  0  0  0  0  0  0  0
   -0.0047   -2.3957   -0.0011 H   0  0  0  0  0  0  0  0  0  0  0  0
    1.2047   -0.7008   -0.0000 C   0  0  0  0  0  0  0  0  0  0  0  0
    2.0848   -1.1965    0.0012 H   0  0  0  0  0  0  0  0  0  0  0  0
    1.1990    0.6966   -0.0001 C   0  0  0  0  0  0  0  0  0  0  0  0
    2.0664    1.1910   -0.0004 H   0  0  0  0  0  0  0  0  0  0  0  0
  1  5  1  0
  5  6  1  0
  5  7  2  0
  1  2  1  0
  1  3  1  0
  1  4  1  0
  8 12  1  0
 12 13  2  0
 13 15  1  0
 15 17  2  0
 17 19  1  0
 19 21  2  0
 21 12  1  0
  8  9  1  0
  8 10  1  0
  8 11  1  0
 13 14  1  0
 15 16  1  0
 17 18  1  0
 19 20  1  0
 21 22  1  0
M  CHG  1   6  -1
M  END
>  <PDB_ID>  (1448) 
pdb3hrx

>  <RESIDUE_NAME>  (1448) 
ASP   PHE

>  <FRAG_NAME>  (1448) 
ACET   MBZ

>  <FRAG_ATOM_NUM>  (1448) 
fragi: 7  fragj: 15

>  <atom.prop.CHAIN_ID>  (1448) 
A A A A A A A Z Z Z Z Z Z Z Z Z Z Z Z Z Z Z

>  <atom.prop.IS_HEAVY_ATOM>  (1448) 
1 0 0 0 1 1 1 1 0 0 0 1 1 0 1 0 1 0 1 0 1 0

>  <DIFUSE_FUNC_ATOM>  (1448) 
atom 6   atom 7   

>  <FINAL_SINGLE_POINT_ENERGY>  (1448) 
0

>  <NONCOV_INTER_ENERGY_QM>  (1448) 
0

>  <FF_Energy>  (1448) 
-2.3

>  <QM_Energy>  (1448) 
-7.44

>  <source>  (1448) 
ACET_MBZ_01

>  <Index>  (1448) 
20689

$$$$
ACET-pdb3hrx-D-ASP-235:MBZ-pdb3hrx-D-PHE-251
     RDKit          3D

 22 21  0  0  0  0  0  0  0  0999 V2000
    3.9265    1.4196   -2.1040 C   0  0  0  0  0  0  0  0  0  0  0  0
    4.3689    1.4369   -2.9922 H   0  0  0  0  0  0  0  0  0  0  0  0
    3.1816    0.7649   -2.0945 H   0  0  0  0  0  0  0  0  0  0  0  0
    4.6639    1.1031   -1.3665 H   0  0  0  0  0  0  0  0  0  0  0  0
    3.3658    2.8014   -1.8110 C   0  0  0  0  0  0  0  0  0  0  0  0
    2.5716    3.3083   -2.6334 O   0  0  0  0  0  1  0  0  0  0  0  0
    3.7095    3.3780   -0.7534 O   0  0  0  0  0  0  0  0  0  0  0  0
    0.0014    2.9067   -0.0329 C   0  0  0  0  0  0  0  0  0  0  0  0
   -0.9313    3.2174    0.0663 H   0  0  0  0  0  0  0  0  0  0  0  0
    0.3880    3.1941   -0.8952 H   0  0  0  0  0  0  0  0  0  0  0  0
    0.5899    3.3618    0.7637 H   0  0  0  0  0  0  0  0  0  0  0  0
   -0.0003    1.4046   -0.0003 C   0  0  0  0  0  0  0  0  0  0  0  0
   -1.1970    0.6958    0.0013 C   0  0  0  0  0  0  0  0  0  0  0  0
   -2.0647    1.1854    0.0028 H   0  0  0  0  0  0  0  0  0  0  0  0
   -1.2048   -0.6995    0.0000 C   0  0  0  0  0  0  0  0  0  0  0  0
   -2.0809   -1.1905    0.0007 H   0  0  0  0  0  0  0  0  0  0  0  0
   -0.0008   -1.3988   -0.0012 C   0  0  0  0  0  0  0  0  0  0  0  0
   -0.0028   -2.3951   -0.0037 H   0  0  0  0  0  0  0  0  0  0  0  0
    1.2048   -0.6972    0.0000 C   0  0  0  0  0  0  0  0  0  0  0  0
    2.0848   -1.1951    0.0023 H   0  0  0  0  0  0  0  0  0  0  0  0
    1.1982    0.6951    0.0001 C   0  0  0  0  0  0  0  0  0  0  0  0
    2.0661    1.1924   -0.0006 H   0  0  0  0  0  0  0  0  0  0  0  0
  1  5  1  0
  5  6  1  0
  5  7  2  0
  1  2  1  0
  1  3  1  0
  1  4  1  0
  8 12  1  0
 12 13  2  0
 13 15  1  0
 15 17  2  0
 17 19  1  0
 19 21  2  0
 21 12  1  0
  8  9  1  0
  8 10  1  0
  8 11  1  0
 13 14  1  0
 15 16  1  0
 17 18  1  0
 19 20  1  0
 21 22  1  0
M  CHG  1   6  -1
M  END
>  <PDB_ID>  (1449) 
pdb3hrx

>  <RESIDUE_NAME>  (1449) 
ASP   PHE

>  <FRAG_NAME>  (1449) 
ACET   MBZ

>  <FRAG_ATOM_NUM>  (1449) 
fragi: 7  fragj: 15

>  <atom.prop.CHAIN_ID>  (1449) 
A A A A A A A Z Z Z Z Z Z Z Z Z Z Z Z Z Z Z

>  <atom.prop.IS_HEAVY_ATOM>  (1449) 
1 0 0 0 1 1 1 1 0 0 0 1 1 0 1 0 1 0 1 0 1 0

>  <DIFUSE_FUNC_ATOM>  (1449) 
atom 6   atom 7   

>  <FINAL_SINGLE_POINT_ENERGY>  (1449) 
0

>  <NONCOV_INTER_ENERGY_QM>  (1449) 
0

>  <FF_Energy>  (1449) 
-1.93

>  <QM_Energy>  (1449) 
-7.64

>  <source>  (1449) 
ACET_MBZ_01

>  <Index>  (1449) 
20690

$$$$
ACET-pdb3hrx-E-ASP-235:MBZ-pdb3hrx-E-PHE-251
     RDKit          3D

 22 21  0  0  0  0  0  0  0  0999 V2000
    4.0796    1.5041   -1.9393 C   0  0  0  0  0  0  0  0  0  0  0  0
    4.5605    1.5396   -2.8063 H   0  0  0  0  0  0  0  0  0  0  0  0
    3.3528    0.8308   -1.9682 H   0  0  0  0  0  0  0  0  0  0  0  0
    4.7909    1.2017   -1.1706 H   0  0  0  0  0  0  0  0  0  0  0  0
    3.4710    2.8677   -1.6626 C   0  0  0  0  0  0  0  0  0  0  0  0
    2.7099    3.3646   -2.5159 O   0  0  0  0  0  1  0  0  0  0  0  0
    3.7499    3.4393   -0.5857 O   0  0  0  0  0  0  0  0  0  0  0  0
    0.0051    2.9126   -0.0174 C   0  0  0  0  0  0  0  0  0  0  0  0
   -0.9319    3.2211    0.0321 H   0  0  0  0  0  0  0  0  0  0  0  0
    0.4402    3.2074   -0.8538 H   0  0  0  0  0  0  0  0  0  0  0  0
    0.5475    3.3600    0.8155 H   0  0  0  0  0  0  0  0  0  0  0  0
    0.0011    1.4069   -0.0004 C   0  0  0  0  0  0  0  0  0  0  0  0
   -1.1985    0.6997    0.0009 C   0  0  0  0  0  0  0  0  0  0  0  0
   -2.0645    1.1884    0.0015 H   0  0  0  0  0  0  0  0  0  0  0  0
   -1.2058   -0.6986    0.0000 C   0  0  0  0  0  0  0  0  0  0  0  0
   -2.0830   -1.1889    0.0006 H   0  0  0  0  0  0  0  0  0  0  0  0
   -0.0020   -1.4006    0.0000 C   0  0  0  0  0  0  0  0  0  0  0  0
   -0.0072   -2.3967   -0.0005 H   0  0  0  0  0  0  0  0  0  0  0  0
    1.2058   -0.7018   -0.0000 C   0  0  0  0  0  0  0  0  0  0  0  0
    2.0839   -1.1982    0.0021 H   0  0  0  0  0  0  0  0  0  0  0  0
    1.1994    0.6945   -0.0005 C   0  0  0  0  0  0  0  0  0  0  0  0
    2.0681    1.1901   -0.0020 H   0  0  0  0  0  0  0  0  0  0  0  0
  1  5  1  0
  5  6  1  0
  5  7  2  0
  1  2  1  0
  1  3  1  0
  1  4  1  0
  8 12  1  0
 12 13  2  0
 13 15  1  0
 15 17  2  0
 17 19  1  0
 19 21  2  0
 21 12  1  0
  8  9  1  0
  8 10  1  0
  8 11  1  0
 13 14  1  0
 15 16  1  0
 17 18  1  0
 19 20  1  0
 21 22  1  0
M  CHG  1   6  -1
M  END
>  <PDB_ID>  (1450) 
pdb3hrx

>  <RESIDUE_NAME>  (1450) 
ASP   PHE

>  <FRAG_NAME>  (1450) 
ACET   MBZ

>  <FRAG_ATOM_NUM>  (1450) 
fragi: 7  fragj: 15

>  <atom.prop.CHAIN_ID>  (1450) 
A A A A A A A Z Z Z Z Z Z Z Z Z Z Z Z Z Z Z

>  <atom.prop.IS_HEAVY_ATOM>  (1450) 
1 0 0 0 1 1 1 1 0 0 0 1 1 0 1 0 1 0 1 0 1 0

>  <DIFUSE_FUNC_ATOM>  (1450) 
atom 6   atom 7   

>  <FINAL_SINGLE_POINT_ENERGY>  (1450) 
0

>  <NONCOV_INTER_ENERGY_QM>  (1450) 
0

>  <FF_Energy>  (1450) 
-1.97

>  <QM_Energy>  (1450) 
-7.54

>  <source>  (1450) 
ACET_MBZ_01

>  <Index>  (1450) 
20691

$$$$
ACET-pdb3hrx-F-ASP-235:MBZ-pdb3hrx-F-PHE-251
     RDKit          3D

 22 21  0  0  0  0  0  0  0  0999 V2000
    4.1543    1.7129   -1.7853 C   0  0  0  0  0  0  0  0  0  0  0  0
    4.6720    1.7629   -2.6301 H   0  0  0  0  0  0  0  0  0  0  0  0
    3.4581    1.0098   -1.8419 H   0  0  0  0  0  0  0  0  0  0  0  0
    4.8421    1.4435   -0.9838 H   0  0  0  0  0  0  0  0  0  0  0  0
    3.4808    3.0506   -1.5443 C   0  0  0  0  0  0  0  0  0  0  0  0
    2.7937    3.5479   -2.4587 O   0  0  0  0  0  1  0  0  0  0  0  0
    3.6350    3.6043   -0.4320 O   0  0  0  0  0  0  0  0  0  0  0  0
   -0.0008    2.9075   -0.0048 C   0  0  0  0  0  0  0  0  0  0  0  0
   -0.9407    3.2140   -0.0109 H   0  0  0  0  0  0  0  0  0  0  0  0
    0.4833    3.2116   -0.8114 H   0  0  0  0  0  0  0  0  0  0  0  0
    0.4878    3.3507    0.8630 H   0  0  0  0  0  0  0  0  0  0  0  0
   -0.0008    1.4045   -0.0000 C   0  0  0  0  0  0  0  0  0  0  0  0
   -1.1979    0.6959    0.0008 C   0  0  0  0  0  0  0  0  0  0  0  0
   -2.0645    1.1853    0.0011 H   0  0  0  0  0  0  0  0  0  0  0  0
   -1.2047   -0.6991    0.0000 C   0  0  0  0  0  0  0  0  0  0  0  0
   -2.0797   -1.1907    0.0014 H   0  0  0  0  0  0  0  0  0  0  0  0
    0.0001   -1.3978   -0.0003 C   0  0  0  0  0  0  0  0  0  0  0  0
   -0.0031   -2.3949   -0.0012 H   0  0  0  0  0  0  0  0  0  0  0  0
    1.2047   -0.6990    0.0000 C   0  0  0  0  0  0  0  0  0  0  0  0
    2.0846   -1.1955    0.0020 H   0  0  0  0  0  0  0  0  0  0  0  0
    1.1987    0.6956   -0.0005 C   0  0  0  0  0  0  0  0  0  0  0  0
    2.0662    1.1918   -0.0017 H   0  0  0  0  0  0  0  0  0  0  0  0
  1  5  1  0
  5  6  1  0
  5  7  2  0
  1  2  1  0
  1  3  1  0
  1  4  1  0
  8 12  1  0
 12 13  2  0
 13 15  1  0
 15 17  2  0
 17 19  1  0
 19 21  2  0
 21 12  1  0
  8  9  1  0
  8 10  1  0
  8 11  1  0
 13 14  1  0
 15 16  1  0
 17 18  1  0
 19 20  1  0
 21 22  1  0
M  CHG  1   6  -1
M  END
>  <PDB_ID>  (1451) 
pdb3hrx

>  <RESIDUE_NAME>  (1451) 
ASP   PHE

>  <FRAG_NAME>  (1451) 
ACET   MBZ

>  <FRAG_ATOM_NUM>  (1451) 
fragi: 7  fragj: 15

>  <atom.prop.CHAIN_ID>  (1451) 
A A A A A A A Z Z Z Z Z Z Z Z Z Z Z Z Z Z Z

>  <atom.prop.IS_HEAVY_ATOM>  (1451) 
1 0 0 0 1 1 1 1 0 0 0 1 1 0 1 0 1 0 1 0 1 0

>  <DIFUSE_FUNC_ATOM>  (1451) 
atom 6   atom 7   

>  <FINAL_SINGLE_POINT_ENERGY>  (1451) 
0

>  <NONCOV_INTER_ENERGY_QM>  (1451) 
0

>  <FF_Energy>  (1451) 
-2.06

>  <QM_Energy>  (1451) 
-7.44

>  <source>  (1451) 
ACET_MBZ_01

>  <Index>  (1451) 
20692

$$$$
ACET-pdb3huf-C-GLU-7:MBZ-pdb3huf-C-PHE-107
     RDKit          3D

 22 21  0  0  0  0  0  0  0  0999 V2000
    3.8745    1.6687   -1.4707 C   0  0  0  0  0  0  0  0  0  0  0  0
    2.9188    1.6033   -1.2243 H   0  0  0  0  0  0  0  0  0  0  0  0
    4.4080    0.9620   -1.0301 H   0  0  0  0  0  0  0  0  0  0  0  0
    3.9526    1.5252   -2.5484 H   0  0  0  0  0  0  0  0  0  0  0  0
    4.3911    3.0345   -0.9217 C   0  0  0  0  0  0  0  0  0  0  0  0
    3.7568    3.5647    0.0323 O   0  0  0  0  0  1  0  0  0  0  0  0
    5.4102    3.5842   -1.4178 O   0  0  0  0  0  0  0  0  0  0  0  0
    0.0040    2.9265   -0.0272 C   0  0  0  0  0  0  0  0  0  0  0  0
   -0.8634    3.2230   -0.4018 H   0  0  0  0  0  0  0  0  0  0  0  0
    0.7579    3.2150   -0.6000 H   0  0  0  0  0  0  0  0  0  0  0  0
    0.1259    3.3994    0.9474 H   0  0  0  0  0  0  0  0  0  0  0  0
   -0.0001    1.4105    0.0029 C   0  0  0  0  0  0  0  0  0  0  0  0
   -1.1870    0.7032   -0.0082 C   0  0  0  0  0  0  0  0  0  0  0  0
   -2.0593    1.1831   -0.0235 H   0  0  0  0  0  0  0  0  0  0  0  0
   -1.1900   -0.7004    0.0000 C   0  0  0  0  0  0  0  0  0  0  0  0
   -2.0724   -1.1863    0.0031 H   0  0  0  0  0  0  0  0  0  0  0  0
    0.0054   -1.4016    0.0050 C   0  0  0  0  0  0  0  0  0  0  0  0
   -0.0054   -2.3996    0.0121 H   0  0  0  0  0  0  0  0  0  0  0  0
    1.1900   -0.7090    0.0000 C   0  0  0  0  0  0  0  0  0  0  0  0
    2.0801   -1.1914   -0.0026 H   0  0  0  0  0  0  0  0  0  0  0  0
    1.1817    0.6973    0.0003 C   0  0  0  0  0  0  0  0  0  0  0  0
    2.0605    1.1828   -0.0028 H   0  0  0  0  0  0  0  0  0  0  0  0
  1  5  1  0
  5  6  1  0
  5  7  2  0
  1  2  1  0
  1  3  1  0
  1  4  1  0
  8 12  1  0
 12 13  2  0
 13 15  1  0
 15 17  2  0
 17 19  1  0
 19 21  2  0
 21 12  1  0
  8  9  1  0
  8 10  1  0
  8 11  1  0
 13 14  1  0
 15 16  1  0
 17 18  1  0
 19 20  1  0
 21 22  1  0
M  CHG  1   6  -1
M  END
>  <PDB_ID>  (1452) 
pdb3huf

>  <RESIDUE_NAME>  (1452) 
GLU   PHE

>  <FRAG_NAME>  (1452) 
ACET   MBZ

>  <FRAG_ATOM_NUM>  (1452) 
fragi: 7  fragj: 15

>  <atom.prop.CHAIN_ID>  (1452) 
A A A A A A A Z Z Z Z Z Z Z Z Z Z Z Z Z Z Z

>  <atom.prop.IS_HEAVY_ATOM>  (1452) 
1 0 0 0 1 1 1 1 0 0 0 1 1 0 1 0 1 0 1 0 1 0

>  <DIFUSE_FUNC_ATOM>  (1452) 
atom 6   atom 7   

>  <FINAL_SINGLE_POINT_ENERGY>  (1452) 
0

>  <NONCOV_INTER_ENERGY_QM>  (1452) 
0

>  <FF_Energy>  (1452) 
22.37

>  <QM_Energy>  (1452) 
-0.41

>  <source>  (1452) 
ACET_MBZ_01

>  <Index>  (1452) 
20798

$$$$
ACET-pdb3hwc-A-GLU-3251:MBZ-pdb3hwc-A-PHE-3442
     RDKit          3D

 22 21  0  0  0  0  0  0  0  0999 V2000
    3.4866   -4.4139   -2.1119 C   0  0  0  0  0  0  0  0  0  0  0  0
    2.7087   -4.0833   -2.6065 H   0  0  0  0  0  0  0  0  0  0  0  0
    3.6931   -5.3507   -2.3107 H   0  0  0  0  0  0  0  0  0  0  0  0
    4.3492   -3.8054   -2.3832 H   0  0  0  0  0  0  0  0  0  0  0  0
    3.1658   -4.3182   -0.6320 C   0  0  0  0  0  0  0  0  0  0  0  0
    3.1258   -5.3715    0.0268 O   0  0  0  0  0  1  0  0  0  0  0  0
    2.9703   -3.1925   -0.1208 O   0  0  0  0  0  0  0  0  0  0  0  0
    0.0066    2.9027    0.0011 C   0  0  0  0  0  0  0  0  0  0  0  0
    0.9431    3.2050   -0.0891 H   0  0  0  0  0  0  0  0  0  0  0  0
   -0.3892    3.2077    0.8547 H   0  0  0  0  0  0  0  0  0  0  0  0
   -0.5674    3.3494   -0.8108 H   0  0  0  0  0  0  0  0  0  0  0  0
    0.0009    1.3978   -0.0026 C   0  0  0  0  0  0  0  0  0  0  0  0
   -1.1930    0.6898    0.0019 C   0  0  0  0  0  0  0  0  0  0  0  0
   -2.0602    1.1813    0.0050 H   0  0  0  0  0  0  0  0  0  0  0  0
   -1.1961   -0.6947   -0.0000 C   0  0  0  0  0  0  0  0  0  0  0  0
   -2.0748   -1.1901    0.0006 H   0  0  0  0  0  0  0  0  0  0  0  0
   -0.0006   -1.3871   -0.0005 C   0  0  0  0  0  0  0  0  0  0  0  0
   -0.0042   -2.3886   -0.0020 H   0  0  0  0  0  0  0  0  0  0  0  0
    1.1961   -0.6952    0.0000 C   0  0  0  0  0  0  0  0  0  0  0  0
    2.0784   -1.1946    0.0008 H   0  0  0  0  0  0  0  0  0  0  0  0
    1.1928    0.6895    0.0012 C   0  0  0  0  0  0  0  0  0  0  0  0
    2.0631    1.1871    0.0040 H   0  0  0  0  0  0  0  0  0  0  0  0
  1  5  1  0
  5  6  1  0
  5  7  2  0
  1  2  1  0
  1  3  1  0
  1  4  1  0
  8 12  1  0
 12 13  2  0
 13 15  1  0
 15 17  2  0
 17 19  1  0
 19 21  2  0
 21 12  1  0
  8  9  1  0
  8 10  1  0
  8 11  1  0
 13 14  1  0
 15 16  1  0
 17 18  1  0
 19 20  1  0
 21 22  1  0
M  CHG  1   6  -1
M  END
>  <PDB_ID>  (1453) 
pdb3hwc

>  <RESIDUE_NAME>  (1453) 
GLU   PHE

>  <FRAG_NAME>  (1453) 
ACET   MBZ

>  <FRAG_ATOM_NUM>  (1453) 
fragi: 7  fragj: 15

>  <atom.prop.CHAIN_ID>  (1453) 
A A A A A A A Z Z Z Z Z Z Z Z Z Z Z Z Z Z Z

>  <atom.prop.IS_HEAVY_ATOM>  (1453) 
1 0 0 0 1 1 1 1 0 0 0 1 1 0 1 0 1 0 1 0 1 0

>  <DIFUSE_FUNC_ATOM>  (1453) 
atom 6   atom 7   

>  <FINAL_SINGLE_POINT_ENERGY>  (1453) 
0

>  <NONCOV_INTER_ENERGY_QM>  (1453) 
0

>  <FF_Energy>  (1453) 
-0.82

>  <QM_Energy>  (1453) 
-6.23

>  <source>  (1453) 
ACET_MBZ_01

>  <Index>  (1453) 
20887

$$$$
ACET-pdb4ex5-B-GLU-294:MBZ-pdb4ex5-B-PHE-323
     RDKit          3D

 22 21  0  0  0  0  0  0  0  0999 V2000
    0.1157    0.3667   -3.5595 C   0  0  0  0  0  0  0  0  0  0  0  0
   -0.4250   -0.0822   -4.2563 H   0  0  0  0  0  0  0  0  0  0  0  0
   -0.0363   -0.0434   -2.6712 H   0  0  0  0  0  0  0  0  0  0  0  0
    1.1688    0.2515   -3.8160 H   0  0  0  0  0  0  0  0  0  0  0  0
   -0.3875    1.8241   -3.4718 C   0  0  0  0  0  0  0  0  0  0  0  0
   -1.5939    1.9816   -3.2067 O   0  0  0  0  0  1  0  0  0  0  0  0
    0.3702    2.8039   -3.6603 O   0  0  0  0  0  0  0  0  0  0  0  0
    0.0339    2.9204   -0.0262 C   0  0  0  0  0  0  0  0  0  0  0  0
    0.3176    3.2067   -0.9292 H   0  0  0  0  0  0  0  0  0  0  0  0
    0.6786    3.2165    0.6628 H   0  0  0  0  0  0  0  0  0  0  0  0
   -0.9215    3.3997    0.1876 H   0  0  0  0  0  0  0  0  0  0  0  0
   -0.0010    1.4040   -0.0091 C   0  0  0  0  0  0  0  0  0  0  0  0
   -1.1962    0.6931   -0.0009 C   0  0  0  0  0  0  0  0  0  0  0  0
   -2.0635    1.1819    0.0032 H   0  0  0  0  0  0  0  0  0  0  0  0
   -1.1970   -0.6957    0.0000 C   0  0  0  0  0  0  0  0  0  0  0  0
   -2.0720   -1.1922   -0.0092 H   0  0  0  0  0  0  0  0  0  0  0  0
    0.0049   -1.3859    0.0149 C   0  0  0  0  0  0  0  0  0  0  0  0
   -0.0007   -2.3881    0.0365 H   0  0  0  0  0  0  0  0  0  0  0  0
    1.1970   -0.6952   -0.0000 C   0  0  0  0  0  0  0  0  0  0  0  0
    2.0805   -1.1974   -0.0056 H   0  0  0  0  0  0  0  0  0  0  0  0
    1.1922    0.6797   -0.0049 C   0  0  0  0  0  0  0  0  0  0  0  0
    2.0635    1.1834   -0.0064 H   0  0  0  0  0  0  0  0  0  0  0  0
  1  5  1  0
  5  6  1  0
  5  7  2  0
  1  2  1  0
  1  3  1  0
  1  4  1  0
  8 12  1  0
 12 13  2  0
 13 15  1  0
 15 17  2  0
 17 19  1  0
 19 21  2  0
 21 12  1  0
  8  9  1  0
  8 10  1  0
  8 11  1  0
 13 14  1  0
 15 16  1  0
 17 18  1  0
 19 20  1  0
 21 22  1  0
M  CHG  1   6  -1
M  END
>  <PDB_ID>  (1454) 
pdb4ex5

>  <RESIDUE_NAME>  (1454) 
GLU   PHE

>  <FRAG_NAME>  (1454) 
ACET   MBZ

>  <FRAG_ATOM_NUM>  (1454) 
fragi: 7  fragj: 15

>  <atom.prop.CHAIN_ID>  (1454) 
A A A A A A A Z Z Z Z Z Z Z Z Z Z Z Z Z Z Z

>  <atom.prop.IS_HEAVY_ATOM>  (1454) 
1 0 0 0 1 1 1 1 0 0 0 1 1 0 1 0 1 0 1 0 1 0

>  <DIFUSE_FUNC_ATOM>  (1454) 
atom 6   atom 7   

>  <FINAL_SINGLE_POINT_ENERGY>  (1454) 
0

>  <NONCOV_INTER_ENERGY_QM>  (1454) 
0

>  <FF_Energy>  (1454) 
-0.16

>  <QM_Energy>  (1454) 
-5.98

>  <source>  (1454) 
ACET_MBZ_01

>  <Index>  (1454) 
21008

$$$$
ACET-pdb3hx6-B-GLU-662:MBZ-pdb3hx6-B-PHE-739
     RDKit          3D

 22 21  0  0  0  0  0  0  0  0999 V2000
   -0.3106    1.9267    3.2948 C   0  0  0  0  0  0  0  0  0  0  0  0
   -0.0876    2.6177    3.9599 H   0  0  0  0  0  0  0  0  0  0  0  0
    0.0639    2.1346    2.4080 H   0  0  0  0  0  0  0  0  0  0  0  0
    0.1064    0.9777    3.6317 H   0  0  0  0  0  0  0  0  0  0  0  0
   -1.8284    1.9047    3.1530 C   0  0  0  0  0  0  0  0  0  0  0  0
   -2.4538    0.8415    3.3557 O   0  0  0  0  0  1  0  0  0  0  0  0
   -2.3975    2.9639    2.8286 O   0  0  0  0  0  0  0  0  0  0  0  0
    0.0012    2.9191    0.0235 C   0  0  0  0  0  0  0  0  0  0  0  0
    0.8070    3.2140    0.5150 H   0  0  0  0  0  0  0  0  0  0  0  0
   -0.8251    3.2156    0.4787 H   0  0  0  0  0  0  0  0  0  0  0  0
    0.0235    3.3818   -0.9632 H   0  0  0  0  0  0  0  0  0  0  0  0
    0.0002    1.4075    0.0010 C   0  0  0  0  0  0  0  0  0  0  0  0
   -1.1979    0.6982   -0.0016 C   0  0  0  0  0  0  0  0  0  0  0  0
   -2.0653    1.1873   -0.0060 H   0  0  0  0  0  0  0  0  0  0  0  0
   -1.2072   -0.7014   -0.0000 C   0  0  0  0  0  0  0  0  0  0  0  0
   -2.0829   -1.1899    0.0020 H   0  0  0  0  0  0  0  0  0  0  0  0
   -0.0024   -1.4030    0.0008 C   0  0  0  0  0  0  0  0  0  0  0  0
   -0.0041   -2.3970    0.0012 H   0  0  0  0  0  0  0  0  0  0  0  0
    1.2072   -0.6994    0.0000 C   0  0  0  0  0  0  0  0  0  0  0  0
    2.0855   -1.1964    0.0010 H   0  0  0  0  0  0  0  0  0  0  0  0
    1.2001    0.6980   -0.0002 C   0  0  0  0  0  0  0  0  0  0  0  0
    2.0674    1.1937   -0.0025 H   0  0  0  0  0  0  0  0  0  0  0  0
  1  5  1  0
  5  6  1  0
  5  7  2  0
  1  2  1  0
  1  3  1  0
  1  4  1  0
  8 12  1  0
 12 13  2  0
 13 15  1  0
 15 17  2  0
 17 19  1  0
 19 21  2  0
 21 12  1  0
  8  9  1  0
  8 10  1  0
  8 11  1  0
 13 14  1  0
 15 16  1  0
 17 18  1  0
 19 20  1  0
 21 22  1  0
M  CHG  1   6  -1
M  END
>  <PDB_ID>  (1455) 
pdb3hx6

>  <RESIDUE_NAME>  (1455) 
GLU   PHE

>  <FRAG_NAME>  (1455) 
ACET   MBZ

>  <FRAG_ATOM_NUM>  (1455) 
fragi: 7  fragj: 15

>  <atom.prop.CHAIN_ID>  (1455) 
A A A A A A A Z Z Z Z Z Z Z Z Z Z Z Z Z Z Z

>  <atom.prop.IS_HEAVY_ATOM>  (1455) 
1 0 0 0 1 1 1 1 0 0 0 1 1 0 1 0 1 0 1 0 1 0

>  <DIFUSE_FUNC_ATOM>  (1455) 
atom 6   atom 7   

>  <FINAL_SINGLE_POINT_ENERGY>  (1455) 
0

>  <NONCOV_INTER_ENERGY_QM>  (1455) 
0

>  <FF_Energy>  (1455) 
1.35

>  <QM_Energy>  (1455) 
-4.27

>  <source>  (1455) 
ACET_MBZ_01

>  <Index>  (1455) 
21020

$$$$
ACET-pdb3hz6-A-GLU-108:MBZ-pdb3hz6-A-PHE-140
     RDKit          3D

 22 21  0  0  0  0  0  0  0  0999 V2000
   -4.0034    4.0858   -1.1754 C   0  0  0  0  0  0  0  0  0  0  0  0
   -3.1171    4.3633   -0.8258 H   0  0  0  0  0  0  0  0  0  0  0  0
   -4.7333    4.4780   -0.6283 H   0  0  0  0  0  0  0  0  0  0  0  0
   -4.1003    4.4582   -2.1953 H   0  0  0  0  0  0  0  0  0  0  0  0
   -4.0931    2.5704   -1.0222 C   0  0  0  0  0  0  0  0  0  0  0  0
   -4.0364    1.8000   -1.9835 O   0  0  0  0  0  1  0  0  0  0  0  0
   -4.2454    2.1093    0.1520 O   0  0  0  0  0  0  0  0  0  0  0  0
    0.0152    2.9165   -0.0922 C   0  0  0  0  0  0  0  0  0  0  0  0
   -0.6483    3.1667   -0.7997 H   0  0  0  0  0  0  0  0  0  0  0  0
    0.9333    3.1841   -0.3924 H   0  0  0  0  0  0  0  0  0  0  0  0
   -0.2202    3.5014    0.7970 H   0  0  0  0  0  0  0  0  0  0  0  0
   -0.0021    1.4080    0.0398 C   0  0  0  0  0  0  0  0  0  0  0  0
   -1.1926    0.7071   -0.0299 C   0  0  0  0  0  0  0  0  0  0  0  0
   -2.0594    1.1882   -0.1032 H   0  0  0  0  0  0  0  0  0  0  0  0
   -1.2041   -0.7022    0.0000 C   0  0  0  0  0  0  0  0  0  0  0  0
   -2.0812   -1.1839    0.0130 H   0  0  0  0  0  0  0  0  0  0  0  0
   -0.0019   -1.3998    0.0130 C   0  0  0  0  0  0  0  0  0  0  0  0
   -0.0086   -2.4001    0.0317 H   0  0  0  0  0  0  0  0  0  0  0  0
    1.2041   -0.7091   -0.0000 C   0  0  0  0  0  0  0  0  0  0  0  0
    2.0825   -1.2000    0.0081 H   0  0  0  0  0  0  0  0  0  0  0  0
    1.1966    0.6960   -0.0229 C   0  0  0  0  0  0  0  0  0  0  0  0
    2.0628    1.1876   -0.0855 H   0  0  0  0  0  0  0  0  0  0  0  0
  1  5  1  0
  5  6  1  0
  5  7  2  0
  1  2  1  0
  1  3  1  0
  1  4  1  0
  8 12  1  0
 12 13  2  0
 13 15  1  0
 15 17  2  0
 17 19  1  0
 19 21  2  0
 21 12  1  0
  8  9  1  0
  8 10  1  0
  8 11  1  0
 13 14  1  0
 15 16  1  0
 17 18  1  0
 19 20  1  0
 21 22  1  0
M  CHG  1   6  -1
M  END
>  <PDB_ID>  (1456) 
pdb3hz6

>  <RESIDUE_NAME>  (1456) 
GLU   PHE

>  <FRAG_NAME>  (1456) 
ACET   MBZ

>  <FRAG_ATOM_NUM>  (1456) 
fragi: 7  fragj: 15

>  <atom.prop.CHAIN_ID>  (1456) 
A A A A A A A Z Z Z Z Z Z Z Z Z Z Z Z Z Z Z

>  <atom.prop.IS_HEAVY_ATOM>  (1456) 
1 0 0 0 1 1 1 1 0 0 0 1 1 0 1 0 1 0 1 0 1 0

>  <DIFUSE_FUNC_ATOM>  (1456) 
atom 6   atom 7   

>  <FINAL_SINGLE_POINT_ENERGY>  (1456) 
0

>  <NONCOV_INTER_ENERGY_QM>  (1456) 
0

>  <FF_Energy>  (1456) 
-1.92

>  <QM_Energy>  (1456) 
-7.45

>  <source>  (1456) 
ACET_MBZ_01

>  <Index>  (1456) 
21216

$$$$
ACET-pdb4f0q-D-ASP-27:MBZ-pdb4f0q-D-PHE-24
     RDKit          3D

 22 21  0  0  0  0  0  0  0  0999 V2000
    4.4416    5.1920   -0.8621 C   0  0  0  0  0  0  0  0  0  0  0  0
    4.0143    5.4264   -1.7270 H   0  0  0  0  0  0  0  0  0  0  0  0
    5.3501    4.8207   -1.0104 H   0  0  0  0  0  0  0  0  0  0  0  0
    4.5423    6.1064   -0.2773 H   0  0  0  0  0  0  0  0  0  0  0  0
    3.5927    4.1464   -0.1663 C   0  0  0  0  0  0  0  0  0  0  0  0
    3.3215    4.3095    1.0423 O   0  0  0  0  0  1  0  0  0  0  0  0
    3.2039    3.1585   -0.8234 O   0  0  0  0  0  0  0  0  0  0  0  0
    0.0015    2.8982   -0.0046 C   0  0  0  0  0  0  0  0  0  0  0  0
    0.8348    3.2054    0.4290 H   0  0  0  0  0  0  0  0  0  0  0  0
   -0.7968    3.2062    0.4896 H   0  0  0  0  0  0  0  0  0  0  0  0
   -0.0353    3.3336   -1.0031 H   0  0  0  0  0  0  0  0  0  0  0  0
    0.0004    1.3953   -0.0002 C   0  0  0  0  0  0  0  0  0  0  0  0
   -1.1918    0.6894    0.0001 C   0  0  0  0  0  0  0  0  0  0  0  0
   -2.0598    1.1816   -0.0007 H   0  0  0  0  0  0  0  0  0  0  0  0
   -1.1956   -0.6930   -0.0000 C   0  0  0  0  0  0  0  0  0  0  0  0
   -2.0739   -1.1886    0.0011 H   0  0  0  0  0  0  0  0  0  0  0  0
   -0.0004   -1.3861    0.0003 C   0  0  0  0  0  0  0  0  0  0  0  0
   -0.0043   -2.3870    0.0003 H   0  0  0  0  0  0  0  0  0  0  0  0
    1.1956   -0.6940    0.0000 C   0  0  0  0  0  0  0  0  0  0  0  0
    2.0786   -1.1944    0.0014 H   0  0  0  0  0  0  0  0  0  0  0  0
    1.1918    0.6884   -0.0002 C   0  0  0  0  0  0  0  0  0  0  0  0
    2.0620    1.1869   -0.0010 H   0  0  0  0  0  0  0  0  0  0  0  0
  1  5  1  0
  5  6  1  0
  5  7  2  0
  1  2  1  0
  1  3  1  0
  1  4  1  0
  8 12  1  0
 12 13  2  0
 13 15  1  0
 15 17  2  0
 17 19  1  0
 19 21  2  0
 21 12  1  0
  8  9  1  0
  8 10  1  0
  8 11  1  0
 13 14  1  0
 15 16  1  0
 17 18  1  0
 19 20  1  0
 21 22  1  0
M  CHG  1   6  -1
M  END
>  <PDB_ID>  (1457) 
pdb4f0q

>  <RESIDUE_NAME>  (1457) 
ASP   PHE

>  <FRAG_NAME>  (1457) 
ACET   MBZ

>  <FRAG_ATOM_NUM>  (1457) 
fragi: 7  fragj: 15

>  <atom.prop.CHAIN_ID>  (1457) 
A A A A A A A Z Z Z Z Z Z Z Z Z Z Z Z Z Z Z

>  <atom.prop.IS_HEAVY_ATOM>  (1457) 
1 0 0 0 1 1 1 1 0 0 0 1 1 0 1 0 1 0 1 0 1 0

>  <DIFUSE_FUNC_ATOM>  (1457) 
atom 6   atom 7   

>  <FINAL_SINGLE_POINT_ENERGY>  (1457) 
0

>  <NONCOV_INTER_ENERGY_QM>  (1457) 
0

>  <FF_Energy>  (1457) 
-2.07

>  <QM_Energy>  (1457) 
-9.05

>  <source>  (1457) 
ACET_MBZ_01

>  <Index>  (1457) 
21259

$$$$
ACET-pdb4f0z-B-ASP-133:MBZ-pdb4f0z-A-PHE-23
     RDKit          3D

 22 21  0  0  0  0  0  0  0  0999 V2000
   -3.4466   -0.1945    2.9570 C   0  0  0  0  0  0  0  0  0  0  0  0
   -3.7593    0.1993    3.7861 H   0  0  0  0  0  0  0  0  0  0  0  0
   -2.4770   -0.2304    2.9538 H   0  0  0  0  0  0  0  0  0  0  0  0
   -3.8379   -1.2089    2.8791 H   0  0  0  0  0  0  0  0  0  0  0  0
   -3.8854    0.7140    1.8087 C   0  0  0  0  0  0  0  0  0  0  0  0
   -4.3273    0.2147    0.7485 O   0  0  0  0  0  1  0  0  0  0  0  0
   -3.7649    1.9485    1.9716 O   0  0  0  0  0  0  0  0  0  0  0  0
    0.0019    2.9017    0.0077 C   0  0  0  0  0  0  0  0  0  0  0  0
   -0.7727    3.2044   -0.4903 H   0  0  0  0  0  0  0  0  0  0  0  0
    0.8139    3.2033   -0.4288 H   0  0  0  0  0  0  0  0  0  0  0  0
   -0.0367    3.3262    1.0109 H   0  0  0  0  0  0  0  0  0  0  0  0
    0.0003    1.3967   -0.0031 C   0  0  0  0  0  0  0  0  0  0  0  0
   -1.1865    0.6923   -0.0008 C   0  0  0  0  0  0  0  0  0  0  0  0
   -1.9943    1.1531    0.0011 H   0  0  0  0  0  0  0  0  0  0  0  0
   -1.1913   -0.6953    0.0000 C   0  0  0  0  0  0  0  0  0  0  0  0
   -1.9979   -1.1576    0.0006 H   0  0  0  0  0  0  0  0  0  0  0  0
   -0.0040   -1.3853    0.0039 C   0  0  0  0  0  0  0  0  0  0  0  0
   -0.0057   -2.3152   -0.0009 H   0  0  0  0  0  0  0  0  0  0  0  0
    1.1913   -0.6957    0.0000 C   0  0  0  0  0  0  0  0  0  0  0  0
    1.9969   -1.1597   -0.0000 H   0  0  0  0  0  0  0  0  0  0  0  0
    1.1902    0.6873    0.0001 C   0  0  0  0  0  0  0  0  0  0  0  0
    1.9983    1.1467    0.0011 H   0  0  0  0  0  0  0  0  0  0  0  0
  1  5  1  0
  5  6  1  0
  5  7  2  0
  1  2  1  0
  1  3  1  0
  1  4  1  0
  8 12  1  0
 12 13  2  0
 13 15  1  0
 15 17  2  0
 17 19  1  0
 19 21  2  0
 21 12  1  0
  8  9  1  0
  8 10  1  0
  8 11  1  0
 13 14  1  0
 15 16  1  0
 17 18  1  0
 19 20  1  0
 21 22  1  0
M  CHG  1   6  -1
M  END
>  <PDB_ID>  (1458) 
pdb4f0z

>  <RESIDUE_NAME>  (1458) 
ASP   PHE

>  <FRAG_NAME>  (1458) 
ACET   MBZ

>  <FRAG_ATOM_NUM>  (1458) 
fragi: 7  fragj: 15

>  <atom.prop.CHAIN_ID>  (1458) 
A A A A A A A Z Z Z Z Z Z Z Z Z Z Z Z Z Z Z

>  <atom.prop.IS_HEAVY_ATOM>  (1458) 
1 0 0 0 1 1 1 1 0 0 0 1 1 0 1 0 1 0 1 0 1 0

>  <DIFUSE_FUNC_ATOM>  (1458) 
atom 6   atom 7   

>  <FINAL_SINGLE_POINT_ENERGY>  (1458) 
0

>  <NONCOV_INTER_ENERGY_QM>  (1458) 
0

>  <FF_Energy>  (1458) 
-2.2

>  <QM_Energy>  (1458) 
-7.59

>  <source>  (1458) 
ACET_MBZ_01

>  <Index>  (1458) 
21285

$$$$
ACET-pdb3i0y-B-GLU-84:MBZ-pdb3i0y-A-PHE-113
     RDKit          3D

 22 21  0  0  0  0  0  0  0  0999 V2000
    0.0906    1.1047    4.0501 C   0  0  0  0  0  0  0  0  0  0  0  0
    0.3311    1.2756    4.9985 H   0  0  0  0  0  0  0  0  0  0  0  0
    0.8149    0.6022    3.5920 H   0  0  0  0  0  0  0  0  0  0  0  0
   -0.8162    0.5003    4.0286 H   0  0  0  0  0  0  0  0  0  0  0  0
   -0.0387    2.4331    3.3696 C   0  0  0  0  0  0  0  0  0  0  0  0
   -1.1491    2.9504    3.1367 O   0  0  0  0  0  1  0  0  0  0  0  0
    1.0263    3.0137    3.1555 O   0  0  0  0  0  0  0  0  0  0  0  0
   -0.0357    2.8723   -0.0553 C   0  0  0  0  0  0  0  0  0  0  0  0
    0.8262    3.2226    0.2764 H   0  0  0  0  0  0  0  0  0  0  0  0
   -0.7933    3.2030    0.4865 H   0  0  0  0  0  0  0  0  0  0  0  0
   -0.1718    3.2512   -1.0682 H   0  0  0  0  0  0  0  0  0  0  0  0
   -0.0095    1.3995    0.0094 C   0  0  0  0  0  0  0  0  0  0  0  0
   -1.1804    0.6883    0.0159 C   0  0  0  0  0  0  0  0  0  0  0  0
   -2.0608    1.1684    0.0314 H   0  0  0  0  0  0  0  0  0  0  0  0
   -1.1817   -0.7010   -0.0000 C   0  0  0  0  0  0  0  0  0  0  0  0
   -2.0648   -1.1901   -0.0242 H   0  0  0  0  0  0  0  0  0  0  0  0
    0.0023   -1.3839    0.0195 C   0  0  0  0  0  0  0  0  0  0  0  0
   -0.0070   -2.3933    0.0481 H   0  0  0  0  0  0  0  0  0  0  0  0
    1.1817   -0.7080    0.0000 C   0  0  0  0  0  0  0  0  0  0  0  0
    2.0732   -1.1904    0.0181 H   0  0  0  0  0  0  0  0  0  0  0  0
    1.1876    0.7051   -0.0447 C   0  0  0  0  0  0  0  0  0  0  0  0
    2.0507    1.1844   -0.1155 H   0  0  0  0  0  0  0  0  0  0  0  0
  1  5  1  0
  5  6  1  0
  5  7  2  0
  1  2  1  0
  1  3  1  0
  1  4  1  0
  8 12  1  0
 12 13  2  0
 13 15  1  0
 15 17  2  0
 17 19  1  0
 19 21  2  0
 21 12  1  0
  8  9  1  0
  8 10  1  0
  8 11  1  0
 13 14  1  0
 15 16  1  0
 17 18  1  0
 19 20  1  0
 21 22  1  0
M  CHG  1   6  -1
M  END
>  <PDB_ID>  (1459) 
pdb3i0y

>  <RESIDUE_NAME>  (1459) 
GLU   PHE

>  <FRAG_NAME>  (1459) 
ACET   MBZ

>  <FRAG_ATOM_NUM>  (1459) 
fragi: 7  fragj: 15

>  <atom.prop.CHAIN_ID>  (1459) 
A A A A A A A Z Z Z Z Z Z Z Z Z Z Z Z Z Z Z

>  <atom.prop.IS_HEAVY_ATOM>  (1459) 
1 0 0 0 1 1 1 1 0 0 0 1 1 0 1 0 1 0 1 0 1 0

>  <DIFUSE_FUNC_ATOM>  (1459) 
atom 6   atom 7   

>  <FINAL_SINGLE_POINT_ENERGY>  (1459) 
0

>  <NONCOV_INTER_ENERGY_QM>  (1459) 
0

>  <FF_Energy>  (1459) 
0.05

>  <QM_Energy>  (1459) 
-6.28

>  <source>  (1459) 
ACET_MBZ_01

>  <Index>  (1459) 
21320

$$$$
ACET-pdb3i0y-A-GLU-84:MBZ-pdb3i0y-B-PHE-113
     RDKit          3D

 22 21  0  0  0  0  0  0  0  0999 V2000
   -0.3064    0.8576    3.3260 C   0  0  0  0  0  0  0  0  0  0  0  0
    0.5620    0.4498    3.1527 H   0  0  0  0  0  0  0  0  0  0  0  0
   -0.9909    0.6084    2.6776 H   0  0  0  0  0  0  0  0  0  0  0  0
   -0.6396    0.5750    4.3246 H   0  0  0  0  0  0  0  0  0  0  0  0
   -0.1285    2.3566    3.2427 C   0  0  0  0  0  0  0  0  0  0  0  0
   -1.1772    3.0321    3.2034 O   0  0  0  0  0  1  0  0  0  0  0  0
    1.0192    2.8642    3.1875 O   0  0  0  0  0  0  0  0  0  0  0  0
   -0.0375    2.8667   -0.0065 C   0  0  0  0  0  0  0  0  0  0  0  0
    0.8035    3.2147    0.3746 H   0  0  0  0  0  0  0  0  0  0  0  0
   -0.8232    3.1698    0.5087 H   0  0  0  0  0  0  0  0  0  0  0  0
   -0.1320    3.2754   -1.0126 H   0  0  0  0  0  0  0  0  0  0  0  0
    0.0042    1.3958    0.0065 C   0  0  0  0  0  0  0  0  0  0  0  0
   -1.1698    0.6914    0.0028 C   0  0  0  0  0  0  0  0  0  0  0  0
   -2.0502    1.1735    0.0005 H   0  0  0  0  0  0  0  0  0  0  0  0
   -1.1883   -0.7108    0.0000 C   0  0  0  0  0  0  0  0  0  0  0  0
   -2.0851   -1.1767    0.0067 H   0  0  0  0  0  0  0  0  0  0  0  0
   -0.0271   -1.3987   -0.0093 C   0  0  0  0  0  0  0  0  0  0  0  0
   -0.0131   -2.4000   -0.0234 H   0  0  0  0  0  0  0  0  0  0  0  0
    1.1883   -0.7010    0.0000 C   0  0  0  0  0  0  0  0  0  0  0  0
    2.0653   -1.1919    0.0081 H   0  0  0  0  0  0  0  0  0  0  0  0
    1.1927    0.7233    0.0001 C   0  0  0  0  0  0  0  0  0  0  0  0
    2.0611    1.1954   -0.0055 H   0  0  0  0  0  0  0  0  0  0  0  0
  1  5  1  0
  5  6  1  0
  5  7  2  0
  1  2  1  0
  1  3  1  0
  1  4  1  0
  8 12  1  0
 12 13  2  0
 13 15  1  0
 15 17  2  0
 17 19  1  0
 19 21  2  0
 21 12  1  0
  8  9  1  0
  8 10  1  0
  8 11  1  0
 13 14  1  0
 15 16  1  0
 17 18  1  0
 19 20  1  0
 21 22  1  0
M  CHG  1   6  -1
M  END
>  <PDB_ID>  (1460) 
pdb3i0y

>  <RESIDUE_NAME>  (1460) 
GLU   PHE

>  <FRAG_NAME>  (1460) 
ACET   MBZ

>  <FRAG_ATOM_NUM>  (1460) 
fragi: 7  fragj: 15

>  <atom.prop.CHAIN_ID>  (1460) 
A A A A A A A Z Z Z Z Z Z Z Z Z Z Z Z Z Z Z

>  <atom.prop.IS_HEAVY_ATOM>  (1460) 
1 0 0 0 1 1 1 1 0 0 0 1 1 0 1 0 1 0 1 0 1 0

>  <DIFUSE_FUNC_ATOM>  (1460) 
atom 6   atom 7   

>  <FINAL_SINGLE_POINT_ENERGY>  (1460) 
0

>  <NONCOV_INTER_ENERGY_QM>  (1460) 
0

>  <FF_Energy>  (1460) 
0.58

>  <QM_Energy>  (1460) 
-6.22

>  <source>  (1460) 
ACET_MBZ_01

>  <Index>  (1460) 
21321

$$$$
ACET-pdb3i0y-C-GLU-84:MBZ-pdb3i0y-D-PHE-113
     RDKit          3D

 22 21  0  0  0  0  0  0  0  0999 V2000
    0.0171    1.3421    3.9714 C   0  0  0  0  0  0  0  0  0  0  0  0
    0.3399    1.4850    4.9153 H   0  0  0  0  0  0  0  0  0  0  0  0
    0.7408    0.8588    3.4622 H   0  0  0  0  0  0  0  0  0  0  0  0
   -0.8974    0.7490    3.9763 H   0  0  0  0  0  0  0  0  0  0  0  0
   -0.0609    2.7372    3.3472 C   0  0  0  0  0  0  0  0  0  0  0  0
   -1.1840    3.2717    3.1341 O   0  0  0  0  0  1  0  0  0  0  0  0
    1.0485    3.2483    3.1295 O   0  0  0  0  0  0  0  0  0  0  0  0
   -0.0207    2.9272   -0.0441 C   0  0  0  0  0  0  0  0  0  0  0  0
    0.8236    3.2585    0.3356 H   0  0  0  0  0  0  0  0  0  0  0  0
   -0.8038    3.2356    0.4652 H   0  0  0  0  0  0  0  0  0  0  0  0
   -0.1073    3.3065   -1.0624 H   0  0  0  0  0  0  0  0  0  0  0  0
    0.0045    1.4264    0.0071 C   0  0  0  0  0  0  0  0  0  0  0  0
   -1.1923    0.6866    0.0270 C   0  0  0  0  0  0  0  0  0  0  0  0
   -2.0648    1.1523    0.0585 H   0  0  0  0  0  0  0  0  0  0  0  0
   -1.1754   -0.7355   -0.0000 C   0  0  0  0  0  0  0  0  0  0  0  0
   -2.0662   -1.2121   -0.0041 H   0  0  0  0  0  0  0  0  0  0  0  0
   -0.0031   -1.4025   -0.0174 C   0  0  0  0  0  0  0  0  0  0  0  0
    0.0139   -2.4087   -0.0440 H   0  0  0  0  0  0  0  0  0  0  0  0
    1.1754   -0.7008    0.0000 C   0  0  0  0  0  0  0  0  0  0  0  0
    2.0736   -1.1820    0.0268 H   0  0  0  0  0  0  0  0  0  0  0  0
    1.1909    0.7259   -0.0167 C   0  0  0  0  0  0  0  0  0  0  0  0
    2.0638    1.1914   -0.0464 H   0  0  0  0  0  0  0  0  0  0  0  0
  1  5  1  0
  5  6  1  0
  5  7  2  0
  1  2  1  0
  1  3  1  0
  1  4  1  0
  8 12  1  0
 12 13  2  0
 13 15  1  0
 15 17  2  0
 17 19  1  0
 19 21  2  0
 21 12  1  0
  8  9  1  0
  8 10  1  0
  8 11  1  0
 13 14  1  0
 15 16  1  0
 17 18  1  0
 19 20  1  0
 21 22  1  0
M  CHG  1   6  -1
M  END
>  <PDB_ID>  (1461) 
pdb3i0y

>  <RESIDUE_NAME>  (1461) 
GLU   PHE

>  <FRAG_NAME>  (1461) 
ACET   MBZ

>  <FRAG_ATOM_NUM>  (1461) 
fragi: 7  fragj: 15

>  <atom.prop.CHAIN_ID>  (1461) 
A A A A A A A Z Z Z Z Z Z Z Z Z Z Z Z Z Z Z

>  <atom.prop.IS_HEAVY_ATOM>  (1461) 
1 0 0 0 1 1 1 1 0 0 0 1 1 0 1 0 1 0 1 0 1 0

>  <DIFUSE_FUNC_ATOM>  (1461) 
atom 6   atom 7   

>  <FINAL_SINGLE_POINT_ENERGY>  (1461) 
0

>  <NONCOV_INTER_ENERGY_QM>  (1461) 
0

>  <FF_Energy>  (1461) 
-0.36

>  <QM_Energy>  (1461) 
-6.34

>  <source>  (1461) 
ACET_MBZ_01

>  <Index>  (1461) 
21324

$$$$
ACET-pdb4f21-C-ASP-25:MBZ-pdb4f21-C-PHE-115
     RDKit          3D

 22 21  0  0  0  0  0  0  0  0999 V2000
    3.6992   -2.7213    1.2679 C   0  0  0  0  0  0  0  0  0  0  0  0
    3.1585   -2.0753    0.7398 H   0  0  0  0  0  0  0  0  0  0  0  0
    3.2834   -3.6233    1.2424 H   0  0  0  0  0  0  0  0  0  0  0  0
    4.6837   -2.7919    0.8054 H   0  0  0  0  0  0  0  0  0  0  0  0
    3.7491   -2.2473    2.7143 C   0  0  0  0  0  0  0  0  0  0  0  0
    2.9740   -2.7863    3.5314 O   0  0  0  0  0  1  0  0  0  0  0  0
    4.5374   -1.3324    3.0389 O   0  0  0  0  0  0  0  0  0  0  0  0
    0.0017    2.8951   -0.0192 C   0  0  0  0  0  0  0  0  0  0  0  0
   -0.7472    3.1927   -0.5959 H   0  0  0  0  0  0  0  0  0  0  0  0
    0.8722    3.1938   -0.3878 H   0  0  0  0  0  0  0  0  0  0  0  0
   -0.1237    3.3625    0.9575 H   0  0  0  0  0  0  0  0  0  0  0  0
   -0.0010    1.3910    0.0045 C   0  0  0  0  0  0  0  0  0  0  0  0
   -1.1890    0.6867   -0.0030 C   0  0  0  0  0  0  0  0  0  0  0  0
   -2.0575    1.1794   -0.0118 H   0  0  0  0  0  0  0  0  0  0  0  0
   -1.1907   -0.6889    0.0000 C   0  0  0  0  0  0  0  0  0  0  0  0
   -2.0706   -1.1872    0.0007 H   0  0  0  0  0  0  0  0  0  0  0  0
   -0.0004   -1.3796    0.0036 C   0  0  0  0  0  0  0  0  0  0  0  0
   -0.0062   -2.3831    0.0086 H   0  0  0  0  0  0  0  0  0  0  0  0
    1.1907   -0.6921    0.0000 C   0  0  0  0  0  0  0  0  0  0  0  0
    2.0746   -1.1956    0.0023 H   0  0  0  0  0  0  0  0  0  0  0  0
    1.1904    0.6828   -0.0051 C   0  0  0  0  0  0  0  0  0  0  0  0
    2.0598    1.1834   -0.0163 H   0  0  0  0  0  0  0  0  0  0  0  0
  1  5  1  0
  5  6  1  0
  5  7  2  0
  1  2  1  0
  1  3  1  0
  1  4  1  0
  8 12  1  0
 12 13  2  0
 13 15  1  0
 15 17  2  0
 17 19  1  0
 19 21  2  0
 21 12  1  0
  8  9  1  0
  8 10  1  0
  8 11  1  0
 13 14  1  0
 15 16  1  0
 17 18  1  0
 19 20  1  0
 21 22  1  0
M  CHG  1   6  -1
M  END
>  <PDB_ID>  (1462) 
pdb4f21

>  <RESIDUE_NAME>  (1462) 
ASP   PHE

>  <FRAG_NAME>  (1462) 
ACET   MBZ

>  <FRAG_ATOM_NUM>  (1462) 
fragi: 7  fragj: 15

>  <atom.prop.CHAIN_ID>  (1462) 
A A A A A A A Z Z Z Z Z Z Z Z Z Z Z Z Z Z Z

>  <atom.prop.IS_HEAVY_ATOM>  (1462) 
1 0 0 0 1 1 1 1 0 0 0 1 1 0 1 0 1 0 1 0 1 0

>  <DIFUSE_FUNC_ATOM>  (1462) 
atom 6   atom 7   

>  <FINAL_SINGLE_POINT_ENERGY>  (1462) 
0

>  <NONCOV_INTER_ENERGY_QM>  (1462) 
0

>  <FF_Energy>  (1462) 
16.45

>  <QM_Energy>  (1462) 
1.84

>  <source>  (1462) 
ACET_MBZ_01

>  <Index>  (1462) 
21345

$$$$
ACET-pdb3i41-B-ASP-155:MBZ-pdb3i41-B-PHE-124
     RDKit          3D

 22 21  0  0  0  0  0  0  0  0999 V2000
    5.0973    3.1484    3.3015 C   0  0  0  0  0  0  0  0  0  0  0  0
    4.5589    3.8982    3.6683 H   0  0  0  0  0  0  0  0  0  0  0  0
    5.8140    3.4921    2.7058 H   0  0  0  0  0  0  0  0  0  0  0  0
    5.5746    2.6398    4.1391 H   0  0  0  0  0  0  0  0  0  0  0  0
    4.1729    2.2402    2.4799 C   0  0  0  0  0  0  0  0  0  0  0  0
    4.4112    1.0177    2.3764 O   0  0  0  0  0  1  0  0  0  0  0  0
    3.1946    2.7639    1.9198 O   0  0  0  0  0  0  0  0  0  0  0  0
   -0.0107    2.9205    0.0105 C   0  0  0  0  0  0  0  0  0  0  0  0
    0.4221    3.2202    0.8455 H   0  0  0  0  0  0  0  0  0  0  0  0
   -0.9508    3.2187   -0.0380 H   0  0  0  0  0  0  0  0  0  0  0  0
    0.5265    3.3688   -0.8252 H   0  0  0  0  0  0  0  0  0  0  0  0
   -0.0033    1.4086    0.0016 C   0  0  0  0  0  0  0  0  0  0  0  0
   -1.2039    0.7020   -0.0098 C   0  0  0  0  0  0  0  0  0  0  0  0
   -2.0689    1.1924   -0.0266 H   0  0  0  0  0  0  0  0  0  0  0  0
   -1.2121   -0.6951   -0.0000 C   0  0  0  0  0  0  0  0  0  0  0  0
   -2.0834   -1.1893    0.0089 H   0  0  0  0  0  0  0  0  0  0  0  0
    0.0032   -1.4019   -0.0009 C   0  0  0  0  0  0  0  0  0  0  0  0
   -0.0080   -2.3970   -0.0025 H   0  0  0  0  0  0  0  0  0  0  0  0
    1.2121   -0.7064    0.0000 C   0  0  0  0  0  0  0  0  0  0  0  0
    2.0890   -1.2009   -0.0047 H   0  0  0  0  0  0  0  0  0  0  0  0
    1.2040    0.6928    0.0091 C   0  0  0  0  0  0  0  0  0  0  0  0
    2.0687    1.1908    0.0208 H   0  0  0  0  0  0  0  0  0  0  0  0
  1  5  1  0
  5  6  1  0
  5  7  2  0
  1  2  1  0
  1  3  1  0
  1  4  1  0
  8 12  1  0
 12 13  2  0
 13 15  1  0
 15 17  2  0
 17 19  1  0
 19 21  2  0
 21 12  1  0
  8  9  1  0
  8 10  1  0
  8 11  1  0
 13 14  1  0
 15 16  1  0
 17 18  1  0
 19 20  1  0
 21 22  1  0
M  CHG  1   6  -1
M  END
>  <PDB_ID>  (1463) 
pdb3i41

>  <RESIDUE_NAME>  (1463) 
ASP   PHE

>  <FRAG_NAME>  (1463) 
ACET   MBZ

>  <FRAG_ATOM_NUM>  (1463) 
fragi: 7  fragj: 15

>  <atom.prop.CHAIN_ID>  (1463) 
A A A A A A A Z Z Z Z Z Z Z Z Z Z Z Z Z Z Z

>  <atom.prop.IS_HEAVY_ATOM>  (1463) 
1 0 0 0 1 1 1 1 0 0 0 1 1 0 1 0 1 0 1 0 1 0

>  <DIFUSE_FUNC_ATOM>  (1463) 
atom 6   atom 7   

>  <FINAL_SINGLE_POINT_ENERGY>  (1463) 
0

>  <NONCOV_INTER_ENERGY_QM>  (1463) 
0

>  <FF_Energy>  (1463) 
-1.57

>  <QM_Energy>  (1463) 
-6.58

>  <source>  (1463) 
ACET_MBZ_01

>  <Index>  (1463) 
21512

$$$$
ACET-pdb4f3p-A-ASP-51:MBZ-pdb4f3p-A-PHE-39
     RDKit          3D

 22 21  0  0  0  0  0  0  0  0999 V2000
   -4.0544    4.5898    0.2024 C   0  0  0  0  0  0  0  0  0  0  0  0
   -3.2577    5.0600   -0.1816 H   0  0  0  0  0  0  0  0  0  0  0  0
   -4.6180    5.2493    0.7016 H   0  0  0  0  0  0  0  0  0  0  0  0
   -4.6438    4.1840   -0.6198 H   0  0  0  0  0  0  0  0  0  0  0  0
   -3.5572    3.5440    1.1925 C   0  0  0  0  0  0  0  0  0  0  0  0
   -3.9749    2.3746    1.0996 O   0  0  0  0  0  1  0  0  0  0  0  0
   -2.7869    3.9144    2.1103 O   0  0  0  0  0  0  0  0  0  0  0  0
   -0.0120    2.8997   -0.0767 C   0  0  0  0  0  0  0  0  0  0  0  0
    0.8071    3.2272    0.3522 H   0  0  0  0  0  0  0  0  0  0  0  0
   -0.8262    3.2133    0.3712 H   0  0  0  0  0  0  0  0  0  0  0  0
   -0.0269    3.2561   -1.1066 H   0  0  0  0  0  0  0  0  0  0  0  0
    0.0016    1.3824    0.0035 C   0  0  0  0  0  0  0  0  0  0  0  0
   -1.1913    0.6742   -0.0119 C   0  0  0  0  0  0  0  0  0  0  0  0
   -2.0572    1.1762   -0.0334 H   0  0  0  0  0  0  0  0  0  0  0  0
   -1.1937   -0.6871    0.0000 C   0  0  0  0  0  0  0  0  0  0  0  0
   -2.0715   -1.1935    0.0143 H   0  0  0  0  0  0  0  0  0  0  0  0
    0.0003   -1.3832   -0.0053 C   0  0  0  0  0  0  0  0  0  0  0  0
    0.0016   -2.3793   -0.0132 H   0  0  0  0  0  0  0  0  0  0  0  0
    1.1937   -0.6782   -0.0000 C   0  0  0  0  0  0  0  0  0  0  0  0
    2.0787   -1.1832   -0.0051 H   0  0  0  0  0  0  0  0  0  0  0  0
    1.1894    0.6919    0.0137 C   0  0  0  0  0  0  0  0  0  0  0  0
    2.0573    1.1947    0.0304 H   0  0  0  0  0  0  0  0  0  0  0  0
  1  5  1  0
  5  6  1  0
  5  7  2  0
  1  2  1  0
  1  3  1  0
  1  4  1  0
  8 12  1  0
 12 13  2  0
 13 15  1  0
 15 17  2  0
 17 19  1  0
 19 21  2  0
 21 12  1  0
  8  9  1  0
  8 10  1  0
  8 11  1  0
 13 14  1  0
 15 16  1  0
 17 18  1  0
 19 20  1  0
 21 22  1  0
M  CHG  1   6  -1
M  END
>  <PDB_ID>  (1464) 
pdb4f3p

>  <RESIDUE_NAME>  (1464) 
ASP   PHE

>  <FRAG_NAME>  (1464) 
ACET   MBZ

>  <FRAG_ATOM_NUM>  (1464) 
fragi: 7  fragj: 15

>  <atom.prop.CHAIN_ID>  (1464) 
A A A A A A A Z Z Z Z Z Z Z Z Z Z Z Z Z Z Z

>  <atom.prop.IS_HEAVY_ATOM>  (1464) 
1 0 0 0 1 1 1 1 0 0 0 1 1 0 1 0 1 0 1 0 1 0

>  <DIFUSE_FUNC_ATOM>  (1464) 
atom 6   atom 7   

>  <FINAL_SINGLE_POINT_ENERGY>  (1464) 
0

>  <NONCOV_INTER_ENERGY_QM>  (1464) 
0

>  <FF_Energy>  (1464) 
-2.17

>  <QM_Energy>  (1464) 
-7.33

>  <source>  (1464) 
ACET_MBZ_01

>  <Index>  (1464) 
21563

$$$$
ACET-pdb4f1h-B-ASP-271:MBZ-pdb4f1h-B-PHE-324
     RDKit          3D

 22 21  0  0  0  0  0  0  0  0999 V2000
    2.0363    5.8504    4.0895 C   0  0  0  0  0  0  0  0  0  0  0  0
    2.7286    6.3801    3.6182 H   0  0  0  0  0  0  0  0  0  0  0  0
    2.2031    5.8396    5.0659 H   0  0  0  0  0  0  0  0  0  0  0  0
    1.0692    6.3217    3.9139 H   0  0  0  0  0  0  0  0  0  0  0  0
    2.0782    4.4247    3.5722 C   0  0  0  0  0  0  0  0  0  0  0  0
    1.0366    3.9214    3.0856 O   0  0  0  0  0  1  0  0  0  0  0  0
    3.1474    3.7833    3.6716 O   0  0  0  0  0  0  0  0  0  0  0  0
    0.0778    2.9112    0.0107 C   0  0  0  0  0  0  0  0  0  0  0  0
    0.8299    3.1850   -0.5757 H   0  0  0  0  0  0  0  0  0  0  0  0
    0.2369    3.2021    0.9459 H   0  0  0  0  0  0  0  0  0  0  0  0
   -0.8203    3.4162   -0.3452 H   0  0  0  0  0  0  0  0  0  0  0  0
    0.0045    1.4069   -0.0001 C   0  0  0  0  0  0  0  0  0  0  0  0
   -1.2052    0.7179   -0.0073 C   0  0  0  0  0  0  0  0  0  0  0  0
   -2.0629    1.2033   -0.0188 H   0  0  0  0  0  0  0  0  0  0  0  0
   -1.2122   -0.6936   -0.0000 C   0  0  0  0  0  0  0  0  0  0  0  0
   -2.0875   -1.1799   -0.0035 H   0  0  0  0  0  0  0  0  0  0  0  0
   -0.0015   -1.4000    0.0134 C   0  0  0  0  0  0  0  0  0  0  0  0
   -0.0211   -2.4015    0.0322 H   0  0  0  0  0  0  0  0  0  0  0  0
    1.2122   -0.7247    0.0000 C   0  0  0  0  0  0  0  0  0  0  0  0
    2.0851   -1.2112   -0.0041 H   0  0  0  0  0  0  0  0  0  0  0  0
    1.2022    0.6936   -0.0060 C   0  0  0  0  0  0  0  0  0  0  0  0
    2.0729    1.1791   -0.0152 H   0  0  0  0  0  0  0  0  0  0  0  0
  1  5  1  0
  5  6  1  0
  5  7  2  0
  1  2  1  0
  1  3  1  0
  1  4  1  0
  8 12  1  0
 12 13  2  0
 13 15  1  0
 15 17  2  0
 17 19  1  0
 19 21  2  0
 21 12  1  0
  8  9  1  0
  8 10  1  0
  8 11  1  0
 13 14  1  0
 15 16  1  0
 17 18  1  0
 19 20  1  0
 21 22  1  0
M  CHG  1   6  -1
M  END
>  <PDB_ID>  (1465) 
pdb4f1h

>  <RESIDUE_NAME>  (1465) 
ASP   PHE

>  <FRAG_NAME>  (1465) 
ACET   MBZ

>  <FRAG_ATOM_NUM>  (1465) 
fragi: 7  fragj: 15

>  <atom.prop.CHAIN_ID>  (1465) 
A A A A A A A Z Z Z Z Z Z Z Z Z Z Z Z Z Z Z

>  <atom.prop.IS_HEAVY_ATOM>  (1465) 
1 0 0 0 1 1 1 1 0 0 0 1 1 0 1 0 1 0 1 0 1 0

>  <DIFUSE_FUNC_ATOM>  (1465) 
atom 6   atom 7   

>  <FINAL_SINGLE_POINT_ENERGY>  (1465) 
0

>  <NONCOV_INTER_ENERGY_QM>  (1465) 
0

>  <FF_Energy>  (1465) 
0.13

>  <QM_Energy>  (1465) 
-5.03

>  <source>  (1465) 
ACET_MBZ_01

>  <Index>  (1465) 
21564

$$$$
ACET-pdb4f3p-A-ASP-33:MBZ-pdb4f3p-A-PHE-73
     RDKit          3D

 22 21  0  0  0  0  0  0  0  0999 V2000
   -5.1454    4.3704    0.0079 C   0  0  0  0  0  0  0  0  0  0  0  0
   -5.1851    3.4117    0.2649 H   0  0  0  0  0  0  0  0  0  0  0  0
   -5.9155    4.6084   -0.5712 H   0  0  0  0  0  0  0  0  0  0  0  0
   -5.2014    4.9705    0.9161 H   0  0  0  0  0  0  0  0  0  0  0  0
   -3.8619    4.6100   -0.7698 C   0  0  0  0  0  0  0  0  0  0  0  0
   -3.6440    5.7221   -1.2119 O   0  0  0  0  0  1  0  0  0  0  0  0
   -3.0749    3.6646   -0.9172 O   0  0  0  0  0  0  0  0  0  0  0  0
   -0.0143    2.8865    0.0123 C   0  0  0  0  0  0  0  0  0  0  0  0
   -0.8167    3.2010   -0.4654 H   0  0  0  0  0  0  0  0  0  0  0  0
    0.8152    3.2065   -0.4119 H   0  0  0  0  0  0  0  0  0  0  0  0
   -0.0484    3.2923    1.0233 H   0  0  0  0  0  0  0  0  0  0  0  0
   -0.0087    1.3865   -0.0179 C   0  0  0  0  0  0  0  0  0  0  0  0
   -1.1826    0.6936    0.0144 C   0  0  0  0  0  0  0  0  0  0  0  0
   -2.0578    1.1768    0.0473 H   0  0  0  0  0  0  0  0  0  0  0  0
   -1.1889   -0.6946    0.0000 C   0  0  0  0  0  0  0  0  0  0  0  0
   -2.0647   -1.1867   -0.0362 H   0  0  0  0  0  0  0  0  0  0  0  0
    0.0066   -1.3762    0.0377 C   0  0  0  0  0  0  0  0  0  0  0  0
    0.0013   -2.3818    0.0922 H   0  0  0  0  0  0  0  0  0  0  0  0
    1.1889   -0.6914    0.0000 C   0  0  0  0  0  0  0  0  0  0  0  0
    2.0760   -1.1902   -0.0016 H   0  0  0  0  0  0  0  0  0  0  0  0
    1.1847    0.6822   -0.0342 C   0  0  0  0  0  0  0  0  0  0  0  0
    2.0516    1.1851   -0.0722 H   0  0  0  0  0  0  0  0  0  0  0  0
  1  5  1  0
  5  6  1  0
  5  7  2  0
  1  2  1  0
  1  3  1  0
  1  4  1  0
  8 12  1  0
 12 13  2  0
 13 15  1  0
 15 17  2  0
 17 19  1  0
 19 21  2  0
 21 12  1  0
  8  9  1  0
  8 10  1  0
  8 11  1  0
 13 14  1  0
 15 16  1  0
 17 18  1  0
 19 20  1  0
 21 22  1  0
M  CHG  1   6  -1
M  END
>  <PDB_ID>  (1466) 
pdb4f3p

>  <RESIDUE_NAME>  (1466) 
ASP   PHE

>  <FRAG_NAME>  (1466) 
ACET   MBZ

>  <FRAG_ATOM_NUM>  (1466) 
fragi: 7  fragj: 15

>  <atom.prop.CHAIN_ID>  (1466) 
A A A A A A A Z Z Z Z Z Z Z Z Z Z Z Z Z Z Z

>  <atom.prop.IS_HEAVY_ATOM>  (1466) 
1 0 0 0 1 1 1 1 0 0 0 1 1 0 1 0 1 0 1 0 1 0

>  <DIFUSE_FUNC_ATOM>  (1466) 
atom 6   atom 7   

>  <FINAL_SINGLE_POINT_ENERGY>  (1466) 
0

>  <NONCOV_INTER_ENERGY_QM>  (1466) 
0

>  <FF_Energy>  (1466) 
-1.38

>  <QM_Energy>  (1466) 
-7.4

>  <source>  (1466) 
ACET_MBZ_01

>  <Index>  (1466) 
21579

$$$$
ACET-pdb3i3l-A-ASP-428:MBZ-pdb3i3l-A-PHE-198
     RDKit          3D

 22 21  0  0  0  0  0  0  0  0999 V2000
   -4.6155    1.5486    0.7866 C   0  0  0  0  0  0  0  0  0  0  0  0
   -4.2559    0.9111    0.1135 H   0  0  0  0  0  0  0  0  0  0  0  0
   -5.5978    1.6486    0.6801 H   0  0  0  0  0  0  0  0  0  0  0  0
   -4.4177    1.1453    1.7797 H   0  0  0  0  0  0  0  0  0  0  0  0
   -3.9640    2.9004    0.5687 C   0  0  0  0  0  0  0  0  0  0  0  0
   -3.5469    3.5219    1.5699 O   0  0  0  0  0  1  0  0  0  0  0  0
   -3.8965    3.3697   -0.6065 O   0  0  0  0  0  0  0  0  0  0  0  0
   -0.0217    2.9376   -0.0330 C   0  0  0  0  0  0  0  0  0  0  0  0
    0.9047    3.2466    0.0586 H   0  0  0  0  0  0  0  0  0  0  0  0
   -0.5984    3.2478    0.6977 H   0  0  0  0  0  0  0  0  0  0  0  0
   -0.4163    3.3485   -0.9623 H   0  0  0  0  0  0  0  0  0  0  0  0
   -0.0085    1.4016    0.0012 C   0  0  0  0  0  0  0  0  0  0  0  0
   -1.1971    0.6757   -0.0108 C   0  0  0  0  0  0  0  0  0  0  0  0
   -2.0685    1.1653   -0.0283 H   0  0  0  0  0  0  0  0  0  0  0  0
   -1.1881   -0.6989    0.0000 C   0  0  0  0  0  0  0  0  0  0  0  0
   -2.0602   -1.2077   -0.0041 H   0  0  0  0  0  0  0  0  0  0  0  0
    0.0163   -1.3825    0.0190 C   0  0  0  0  0  0  0  0  0  0  0  0
    0.0107   -2.3855    0.0459 H   0  0  0  0  0  0  0  0  0  0  0  0
    1.1881   -0.6888    0.0000 C   0  0  0  0  0  0  0  0  0  0  0  0
    2.0841   -1.1830   -0.0056 H   0  0  0  0  0  0  0  0  0  0  0  0
    1.1892    0.6928   -0.0095 C   0  0  0  0  0  0  0  0  0  0  0  0
    2.0552    1.1917   -0.0253 H   0  0  0  0  0  0  0  0  0  0  0  0
  1  5  1  0
  5  6  1  0
  5  7  2  0
  1  2  1  0
  1  3  1  0
  1  4  1  0
  8 12  1  0
 12 13  2  0
 13 15  1  0
 15 17  2  0
 17 19  1  0
 19 21  2  0
 21 12  1  0
  8  9  1  0
  8 10  1  0
  8 11  1  0
 13 14  1  0
 15 16  1  0
 17 18  1  0
 19 20  1  0
 21 22  1  0
M  CHG  1   6  -1
M  END
>  <PDB_ID>  (1467) 
pdb3i3l

>  <RESIDUE_NAME>  (1467) 
ASP   PHE

>  <FRAG_NAME>  (1467) 
ACET   MBZ

>  <FRAG_ATOM_NUM>  (1467) 
fragi: 7  fragj: 15

>  <atom.prop.CHAIN_ID>  (1467) 
A A A A A A A Z Z Z Z Z Z Z Z Z Z Z Z Z Z Z

>  <atom.prop.IS_HEAVY_ATOM>  (1467) 
1 0 0 0 1 1 1 1 0 0 0 1 1 0 1 0 1 0 1 0 1 0

>  <DIFUSE_FUNC_ATOM>  (1467) 
atom 6   atom 7   

>  <FINAL_SINGLE_POINT_ENERGY>  (1467) 
0

>  <NONCOV_INTER_ENERGY_QM>  (1467) 
0

>  <FF_Energy>  (1467) 
-1.58

>  <QM_Energy>  (1467) 
-6.69

>  <source>  (1467) 
ACET_MBZ_01

>  <Index>  (1467) 
21600

$$$$
ACET-pdb3i6e-A-GLU-264:MBZ-pdb3i6e-A-PHE-232
     RDKit          3D

 22 21  0  0  0  0  0  0  0  0999 V2000
    5.0636    2.7815   -1.0844 C   0  0  0  0  0  0  0  0  0  0  0  0
    5.5748    3.5691   -1.3766 H   0  0  0  0  0  0  0  0  0  0  0  0
    5.5163    1.9387   -1.3111 H   0  0  0  0  0  0  0  0  0  0  0  0
    4.9683    2.8295    0.0003 H   0  0  0  0  0  0  0  0  0  0  0  0
    3.7278    2.7999   -1.8105 C   0  0  0  0  0  0  0  0  0  0  0  0
    2.8662    3.6305   -1.4472 O   0  0  0  0  0  1  0  0  0  0  0  0
    3.5410    1.9955   -2.7570 O   0  0  0  0  0  0  0  0  0  0  0  0
    0.0098    2.9195   -0.0013 C   0  0  0  0  0  0  0  0  0  0  0  0
   -0.3135    3.2257   -0.8828 H   0  0  0  0  0  0  0  0  0  0  0  0
    0.9350    3.2207    0.1704 H   0  0  0  0  0  0  0  0  0  0  0  0
   -0.6308    3.3655    0.7595 H   0  0  0  0  0  0  0  0  0  0  0  0
    0.0026    1.4101    0.0000 C   0  0  0  0  0  0  0  0  0  0  0  0
   -1.1955    0.7053    0.0005 C   0  0  0  0  0  0  0  0  0  0  0  0
   -2.0623    1.1911    0.0003 H   0  0  0  0  0  0  0  0  0  0  0  0
   -1.2044   -0.6990   -0.0000 C   0  0  0  0  0  0  0  0  0  0  0  0
   -2.0852   -1.1825    0.0018 H   0  0  0  0  0  0  0  0  0  0  0  0
   -0.0074   -1.4005   -0.0006 C   0  0  0  0  0  0  0  0  0  0  0  0
   -0.0128   -2.3984   -0.0019 H   0  0  0  0  0  0  0  0  0  0  0  0
    1.2044   -0.7081    0.0000 C   0  0  0  0  0  0  0  0  0  0  0  0
    2.0798   -1.2051    0.0014 H   0  0  0  0  0  0  0  0  0  0  0  0
    1.2003    0.6923    0.0001 C   0  0  0  0  0  0  0  0  0  0  0  0
    2.0705    1.1842   -0.0006 H   0  0  0  0  0  0  0  0  0  0  0  0
  1  5  1  0
  5  6  1  0
  5  7  2  0
  1  2  1  0
  1  3  1  0
  1  4  1  0
  8 12  1  0
 12 13  2  0
 13 15  1  0
 15 17  2  0
 17 19  1  0
 19 21  2  0
 21 12  1  0
  8  9  1  0
  8 10  1  0
  8 11  1  0
 13 14  1  0
 15 16  1  0
 17 18  1  0
 19 20  1  0
 21 22  1  0
M  CHG  1   6  -1
M  END
>  <PDB_ID>  (1468) 
pdb3i6e

>  <RESIDUE_NAME>  (1468) 
GLU   PHE

>  <FRAG_NAME>  (1468) 
ACET   MBZ

>  <FRAG_ATOM_NUM>  (1468) 
fragi: 7  fragj: 15

>  <atom.prop.CHAIN_ID>  (1468) 
A A A A A A A Z Z Z Z Z Z Z Z Z Z Z Z Z Z Z

>  <atom.prop.IS_HEAVY_ATOM>  (1468) 
1 0 0 0 1 1 1 1 0 0 0 1 1 0 1 0 1 0 1 0 1 0

>  <DIFUSE_FUNC_ATOM>  (1468) 
atom 6   atom 7   

>  <FINAL_SINGLE_POINT_ENERGY>  (1468) 
0

>  <NONCOV_INTER_ENERGY_QM>  (1468) 
0

>  <FF_Energy>  (1468) 
-1.05

>  <QM_Energy>  (1468) 
-6.11

>  <source>  (1468) 
ACET_MBZ_01

>  <Index>  (1468) 
21721

$$$$
ACET-pdb3i6e-B-GLU-264:MBZ-pdb3i6e-B-PHE-232
     RDKit          3D

 22 21  0  0  0  0  0  0  0  0999 V2000
    5.0328    2.9141   -1.1879 C   0  0  0  0  0  0  0  0  0  0  0  0
    5.4576    3.7525   -1.4793 H   0  0  0  0  0  0  0  0  0  0  0  0
    5.5582    2.1232   -1.4481 H   0  0  0  0  0  0  0  0  0  0  0  0
    4.9591    2.9317   -0.1006 H   0  0  0  0  0  0  0  0  0  0  0  0
    3.6812    2.8163   -1.8900 C   0  0  0  0  0  0  0  0  0  0  0  0
    2.7678    3.6004   -1.5471 O   0  0  0  0  0  1  0  0  0  0  0  0
    3.5407    1.9628   -2.7957 O   0  0  0  0  0  0  0  0  0  0  0  0
    0.0036    2.9074    0.0229 C   0  0  0  0  0  0  0  0  0  0  0  0
   -0.3335    3.2268   -0.8482 H   0  0  0  0  0  0  0  0  0  0  0  0
    0.9289    3.2111    0.1868 H   0  0  0  0  0  0  0  0  0  0  0  0
   -0.6296    3.3330    0.8015 H   0  0  0  0  0  0  0  0  0  0  0  0
    0.0029    1.4048    0.0010 C   0  0  0  0  0  0  0  0  0  0  0  0
   -1.1978    0.6984   -0.0017 C   0  0  0  0  0  0  0  0  0  0  0  0
   -2.0629    1.1896   -0.0065 H   0  0  0  0  0  0  0  0  0  0  0  0
   -1.2080   -0.6987    0.0000 C   0  0  0  0  0  0  0  0  0  0  0  0
   -2.0865   -1.1856    0.0016 H   0  0  0  0  0  0  0  0  0  0  0  0
   -0.0097   -1.3984    0.0014 C   0  0  0  0  0  0  0  0  0  0  0  0
   -0.0099   -2.3953    0.0033 H   0  0  0  0  0  0  0  0  0  0  0  0
    1.2080   -0.6998    0.0000 C   0  0  0  0  0  0  0  0  0  0  0  0
    2.0811   -1.2027    0.0005 H   0  0  0  0  0  0  0  0  0  0  0  0
    1.2046    0.6936   -0.0006 C   0  0  0  0  0  0  0  0  0  0  0  0
    2.0708    1.1898   -0.0033 H   0  0  0  0  0  0  0  0  0  0  0  0
  1  5  1  0
  5  6  1  0
  5  7  2  0
  1  2  1  0
  1  3  1  0
  1  4  1  0
  8 12  1  0
 12 13  2  0
 13 15  1  0
 15 17  2  0
 17 19  1  0
 19 21  2  0
 21 12  1  0
  8  9  1  0
  8 10  1  0
  8 11  1  0
 13 14  1  0
 15 16  1  0
 17 18  1  0
 19 20  1  0
 21 22  1  0
M  CHG  1   6  -1
M  END
>  <PDB_ID>  (1469) 
pdb3i6e

>  <RESIDUE_NAME>  (1469) 
GLU   PHE

>  <FRAG_NAME>  (1469) 
ACET   MBZ

>  <FRAG_ATOM_NUM>  (1469) 
fragi: 7  fragj: 15

>  <atom.prop.CHAIN_ID>  (1469) 
A A A A A A A Z Z Z Z Z Z Z Z Z Z Z Z Z Z Z

>  <atom.prop.IS_HEAVY_ATOM>  (1469) 
1 0 0 0 1 1 1 1 0 0 0 1 1 0 1 0 1 0 1 0 1 0

>  <DIFUSE_FUNC_ATOM>  (1469) 
atom 6   atom 7   

>  <FINAL_SINGLE_POINT_ENERGY>  (1469) 
0

>  <NONCOV_INTER_ENERGY_QM>  (1469) 
0

>  <FF_Energy>  (1469) 
-0.9

>  <QM_Energy>  (1469) 
-6.06

>  <source>  (1469) 
ACET_MBZ_01

>  <Index>  (1469) 
21727

$$$$
ACET-pdb3i6e-E-GLU-264:MBZ-pdb3i6e-E-PHE-232
     RDKit          3D

 22 21  0  0  0  0  0  0  0  0999 V2000
    5.0121    2.6855   -1.0145 C   0  0  0  0  0  0  0  0  0  0  0  0
    5.5836    3.4206   -1.3310 H   0  0  0  0  0  0  0  0  0  0  0  0
    5.4008    1.8036   -1.2116 H   0  0  0  0  0  0  0  0  0  0  0  0
    4.9133    2.7775    0.0671 H   0  0  0  0  0  0  0  0  0  0  0  0
    3.6863    2.7805   -1.7527 C   0  0  0  0  0  0  0  0  0  0  0  0
    2.8830    3.6759   -1.4183 O   0  0  0  0  0  1  0  0  0  0  0  0
    3.4597    1.9717   -2.6794 O   0  0  0  0  0  0  0  0  0  0  0  0
    0.0072    2.9169    0.0217 C   0  0  0  0  0  0  0  0  0  0  0  0
   -0.3292    3.2368   -0.8495 H   0  0  0  0  0  0  0  0  0  0  0  0
    0.9332    3.2176    0.1870 H   0  0  0  0  0  0  0  0  0  0  0  0
   -0.6246    3.3464    0.7992 H   0  0  0  0  0  0  0  0  0  0  0  0
    0.0008    1.4114    0.0007 C   0  0  0  0  0  0  0  0  0  0  0  0
   -1.2029    0.7014   -0.0005 C   0  0  0  0  0  0  0  0  0  0  0  0
   -2.0673    1.1888   -0.0030 H   0  0  0  0  0  0  0  0  0  0  0  0
   -1.2100   -0.7033    0.0000 C   0  0  0  0  0  0  0  0  0  0  0  0
   -2.0840   -1.1917    0.0012 H   0  0  0  0  0  0  0  0  0  0  0  0
   -0.0003   -1.4052    0.0010 C   0  0  0  0  0  0  0  0  0  0  0  0
   -0.0025   -2.4000    0.0020 H   0  0  0  0  0  0  0  0  0  0  0  0
    1.2100   -0.7010   -0.0000 C   0  0  0  0  0  0  0  0  0  0  0  0
    2.0882   -1.1970    0.0022 H   0  0  0  0  0  0  0  0  0  0  0  0
    1.2024    0.6967   -0.0012 C   0  0  0  0  0  0  0  0  0  0  0  0
    2.0703    1.1932   -0.0049 H   0  0  0  0  0  0  0  0  0  0  0  0
  1  5  1  0
  5  6  1  0
  5  7  2  0
  1  2  1  0
  1  3  1  0
  1  4  1  0
  8 12  1  0
 12 13  2  0
 13 15  1  0
 15 17  2  0
 17 19  1  0
 19 21  2  0
 21 12  1  0
  8  9  1  0
  8 10  1  0
  8 11  1  0
 13 14  1  0
 15 16  1  0
 17 18  1  0
 19 20  1  0
 21 22  1  0
M  CHG  1   6  -1
M  END
>  <PDB_ID>  (1470) 
pdb3i6e

>  <RESIDUE_NAME>  (1470) 
GLU   PHE

>  <FRAG_NAME>  (1470) 
ACET   MBZ

>  <FRAG_ATOM_NUM>  (1470) 
fragi: 7  fragj: 15

>  <atom.prop.CHAIN_ID>  (1470) 
A A A A A A A Z Z Z Z Z Z Z Z Z Z Z Z Z Z Z

>  <atom.prop.IS_HEAVY_ATOM>  (1470) 
1 0 0 0 1 1 1 1 0 0 0 1 1 0 1 0 1 0 1 0 1 0

>  <DIFUSE_FUNC_ATOM>  (1470) 
atom 6   atom 7   

>  <FINAL_SINGLE_POINT_ENERGY>  (1470) 
0

>  <NONCOV_INTER_ENERGY_QM>  (1470) 
0

>  <FF_Energy>  (1470) 
-1.08

>  <QM_Energy>  (1470) 
-6.16

>  <source>  (1470) 
ACET_MBZ_01

>  <Index>  (1470) 
21748

$$$$
ACET-pdb3i6e-F-GLU-264:MBZ-pdb3i6e-F-PHE-232
     RDKit          3D

 22 21  0  0  0  0  0  0  0  0999 V2000
    5.0699    2.7254   -1.0862 C   0  0  0  0  0  0  0  0  0  0  0  0
    5.6114    3.4836   -1.4029 H   0  0  0  0  0  0  0  0  0  0  0  0
    5.4949    1.8593   -1.2798 H   0  0  0  0  0  0  0  0  0  0  0  0
    4.9687    2.8159   -0.0047 H   0  0  0  0  0  0  0  0  0  0  0  0
    3.7418    2.7638   -1.8226 C   0  0  0  0  0  0  0  0  0  0  0  0
    2.8586    3.5686   -1.4404 O   0  0  0  0  0  1  0  0  0  0  0  0
    3.5911    1.9993   -2.8018 O   0  0  0  0  0  0  0  0  0  0  0  0
    0.0102    2.9069    0.0087 C   0  0  0  0  0  0  0  0  0  0  0  0
   -0.2985    3.2205   -0.8763 H   0  0  0  0  0  0  0  0  0  0  0  0
    0.9329    3.2068    0.1965 H   0  0  0  0  0  0  0  0  0  0  0  0
   -0.6423    3.3457    0.7635 H   0  0  0  0  0  0  0  0  0  0  0  0
    0.0006    1.4054    0.0009 C   0  0  0  0  0  0  0  0  0  0  0  0
   -1.2019    0.7022   -0.0002 C   0  0  0  0  0  0  0  0  0  0  0  0
   -2.0654    1.1871   -0.0024 H   0  0  0  0  0  0  0  0  0  0  0  0
   -1.2044   -0.7004    0.0000 C   0  0  0  0  0  0  0  0  0  0  0  0
   -2.0801   -1.1906    0.0013 H   0  0  0  0  0  0  0  0  0  0  0  0
    0.0011   -1.3956    0.0005 C   0  0  0  0  0  0  0  0  0  0  0  0
   -0.0035   -2.3954    0.0012 H   0  0  0  0  0  0  0  0  0  0  0  0
    1.2044   -0.7017   -0.0000 C   0  0  0  0  0  0  0  0  0  0  0  0
    2.0837   -1.1996    0.0018 H   0  0  0  0  0  0  0  0  0  0  0  0
    1.2002    0.6901   -0.0012 C   0  0  0  0  0  0  0  0  0  0  0  0
    2.0684    1.1873   -0.0045 H   0  0  0  0  0  0  0  0  0  0  0  0
  1  5  1  0
  5  6  1  0
  5  7  2  0
  1  2  1  0
  1  3  1  0
  1  4  1  0
  8 12  1  0
 12 13  2  0
 13 15  1  0
 15 17  2  0
 17 19  1  0
 19 21  2  0
 21 12  1  0
  8  9  1  0
  8 10  1  0
  8 11  1  0
 13 14  1  0
 15 16  1  0
 17 18  1  0
 19 20  1  0
 21 22  1  0
M  CHG  1   6  -1
M  END
>  <PDB_ID>  (1471) 
pdb3i6e

>  <RESIDUE_NAME>  (1471) 
GLU   PHE

>  <FRAG_NAME>  (1471) 
ACET   MBZ

>  <FRAG_ATOM_NUM>  (1471) 
fragi: 7  fragj: 15

>  <atom.prop.CHAIN_ID>  (1471) 
A A A A A A A Z Z Z Z Z Z Z Z Z Z Z Z Z Z Z

>  <atom.prop.IS_HEAVY_ATOM>  (1471) 
1 0 0 0 1 1 1 1 0 0 0 1 1 0 1 0 1 0 1 0 1 0

>  <DIFUSE_FUNC_ATOM>  (1471) 
atom 6   atom 7   

>  <FINAL_SINGLE_POINT_ENERGY>  (1471) 
0

>  <NONCOV_INTER_ENERGY_QM>  (1471) 
0

>  <FF_Energy>  (1471) 
-1.05

>  <QM_Energy>  (1471) 
-6.18

>  <source>  (1471) 
ACET_MBZ_01

>  <Index>  (1471) 
21752

$$$$
ACET-pdb3i5q-A-ASP-1459:MBZ-pdb3i5q-A-PHE-1499
     RDKit          3D

 22 21  0  0  0  0  0  0  0  0999 V2000
    0.3394   -0.6322   -3.4036 C   0  0  0  0  0  0  0  0  0  0  0  0
    0.6600   -0.6966   -2.4636 H   0  0  0  0  0  0  0  0  0  0  0  0
    1.1039   -0.4691   -4.0186 H   0  0  0  0  0  0  0  0  0  0  0  0
   -0.1133   -1.5867   -3.6721 H   0  0  0  0  0  0  0  0  0  0  0  0
   -0.6257    0.5452   -3.5065 C   0  0  0  0  0  0  0  0  0  0  0  0
   -1.8414    0.3498   -3.7643 O   0  0  0  0  0  1  0  0  0  0  0  0
   -0.1516    1.6837   -3.3172 O   0  0  0  0  0  0  0  0  0  0  0  0
   -0.0019    2.9109   -0.0059 C   0  0  0  0  0  0  0  0  0  0  0  0
   -0.6354    3.2116   -0.7025 H   0  0  0  0  0  0  0  0  0  0  0  0
    0.9181    3.2160   -0.1975 H   0  0  0  0  0  0  0  0  0  0  0  0
   -0.3109    3.3520    0.9418 H   0  0  0  0  0  0  0  0  0  0  0  0
    0.0004    1.4037   -0.0005 C   0  0  0  0  0  0  0  0  0  0  0  0
   -1.1934    0.6975   -0.0022 C   0  0  0  0  0  0  0  0  0  0  0  0
   -2.0624    1.1863   -0.0060 H   0  0  0  0  0  0  0  0  0  0  0  0
   -1.2020   -0.6967    0.0000 C   0  0  0  0  0  0  0  0  0  0  0  0
   -2.0817   -1.1848    0.0015 H   0  0  0  0  0  0  0  0  0  0  0  0
   -0.0050   -1.3977    0.0017 C   0  0  0  0  0  0  0  0  0  0  0  0
   -0.0081   -2.3946    0.0033 H   0  0  0  0  0  0  0  0  0  0  0  0
    1.2020   -0.7004   -0.0000 C   0  0  0  0  0  0  0  0  0  0  0  0
    2.0801   -1.1991   -0.0003 H   0  0  0  0  0  0  0  0  0  0  0  0
    1.1980    0.6936    0.0010 C   0  0  0  0  0  0  0  0  0  0  0  0
    2.0666    1.1888    0.0019 H   0  0  0  0  0  0  0  0  0  0  0  0
  1  5  1  0
  5  6  1  0
  5  7  2  0
  1  2  1  0
  1  3  1  0
  1  4  1  0
  8 12  1  0
 12 13  2  0
 13 15  1  0
 15 17  2  0
 17 19  1  0
 19 21  2  0
 21 12  1  0
  8  9  1  0
  8 10  1  0
  8 11  1  0
 13 14  1  0
 15 16  1  0
 17 18  1  0
 19 20  1  0
 21 22  1  0
M  CHG  1   6  -1
M  END
>  <PDB_ID>  (1472) 
pdb3i5q

>  <RESIDUE_NAME>  (1472) 
ASP   PHE

>  <FRAG_NAME>  (1472) 
ACET   MBZ

>  <FRAG_ATOM_NUM>  (1472) 
fragi: 7  fragj: 15

>  <atom.prop.CHAIN_ID>  (1472) 
A A A A A A A Z Z Z Z Z Z Z Z Z Z Z Z Z Z Z

>  <atom.prop.IS_HEAVY_ATOM>  (1472) 
1 0 0 0 1 1 1 1 0 0 0 1 1 0 1 0 1 0 1 0 1 0

>  <DIFUSE_FUNC_ATOM>  (1472) 
atom 6   atom 7   

>  <FINAL_SINGLE_POINT_ENERGY>  (1472) 
0

>  <NONCOV_INTER_ENERGY_QM>  (1472) 
0

>  <FF_Energy>  (1472) 
2.64

>  <QM_Energy>  (1472) 
-2.7

>  <source>  (1472) 
ACET_MBZ_01

>  <Index>  (1472) 
21830

$$$$
ACET-pdb3i3r-B-GLU-71:MBZ-pdb3i3r-B-PHE-65
     RDKit          3D

 22 21  0  0  0  0  0  0  0  0999 V2000
   -2.5466   -1.5216    4.4563 C   0  0  0  0  0  0  0  0  0  0  0  0
   -3.5235   -1.3001    4.4803 H   0  0  0  0  0  0  0  0  0  0  0  0
   -2.0171   -0.6709    4.4401 H   0  0  0  0  0  0  0  0  0  0  0  0
   -2.3055   -2.0434    5.3823 H   0  0  0  0  0  0  0  0  0  0  0  0
   -2.2744   -2.2533    3.1828 C   0  0  0  0  0  0  0  0  0  0  0  0
   -1.8056   -3.3834    3.1335 O   0  0  0  0  0  1  0  0  0  0  0  0
   -2.5656   -1.5805    2.1741 O   0  0  0  0  0  0  0  0  0  0  0  0
   -0.0265    2.9027    0.0084 C   0  0  0  0  0  0  0  0  0  0  0  0
    0.3531    3.2115    0.8708 H   0  0  0  0  0  0  0  0  0  0  0  0
   -0.9686    3.1977   -0.0874 H   0  0  0  0  0  0  0  0  0  0  0  0
    0.5455    3.3789   -0.7880 H   0  0  0  0  0  0  0  0  0  0  0  0
   -0.0005    1.4007   -0.0048 C   0  0  0  0  0  0  0  0  0  0  0  0
   -1.1892    0.6841   -0.0005 C   0  0  0  0  0  0  0  0  0  0  0  0
   -2.0617    1.1724    0.0012 H   0  0  0  0  0  0  0  0  0  0  0  0
   -1.1937   -0.7053   -0.0000 C   0  0  0  0  0  0  0  0  0  0  0  0
   -2.0735   -1.1963    0.0043 H   0  0  0  0  0  0  0  0  0  0  0  0
   -0.0011   -1.3924   -0.0032 C   0  0  0  0  0  0  0  0  0  0  0  0
    0.0036   -2.3927   -0.0083 H   0  0  0  0  0  0  0  0  0  0  0  0
    1.1937   -0.6903    0.0000 C   0  0  0  0  0  0  0  0  0  0  0  0
    2.0800   -1.1851   -0.0020 H   0  0  0  0  0  0  0  0  0  0  0  0
    1.1908    0.7032    0.0085 C   0  0  0  0  0  0  0  0  0  0  0  0
    2.0599    1.1953    0.0236 H   0  0  0  0  0  0  0  0  0  0  0  0
  1  5  1  0
  5  6  1  0
  5  7  2  0
  1  2  1  0
  1  3  1  0
  1  4  1  0
  8 12  1  0
 12 13  2  0
 13 15  1  0
 15 17  2  0
 17 19  1  0
 19 21  2  0
 21 12  1  0
  8  9  1  0
  8 10  1  0
  8 11  1  0
 13 14  1  0
 15 16  1  0
 17 18  1  0
 19 20  1  0
 21 22  1  0
M  CHG  1   6  -1
M  END
>  <PDB_ID>  (1473) 
pdb3i3r

>  <RESIDUE_NAME>  (1473) 
GLU   PHE

>  <FRAG_NAME>  (1473) 
ACET   MBZ

>  <FRAG_ATOM_NUM>  (1473) 
fragi: 7  fragj: 15

>  <atom.prop.CHAIN_ID>  (1473) 
A A A A A A A Z Z Z Z Z Z Z Z Z Z Z Z Z Z Z

>  <atom.prop.IS_HEAVY_ATOM>  (1473) 
1 0 0 0 1 1 1 1 0 0 0 1 1 0 1 0 1 0 1 0 1 0

>  <DIFUSE_FUNC_ATOM>  (1473) 
atom 6   atom 7   

>  <FINAL_SINGLE_POINT_ENERGY>  (1473) 
0

>  <NONCOV_INTER_ENERGY_QM>  (1473) 
0

>  <FF_Energy>  (1473) 
3.35

>  <QM_Energy>  (1473) 
-2.71

>  <source>  (1473) 
ACET_MBZ_01

>  <Index>  (1473) 
21867

$$$$
ACET-pdb4fai-B-GLU-255:MBZ-pdb4fai-B-PHE-281
     RDKit          3D

 22 21  0  0  0  0  0  0  0  0999 V2000
   -5.2393    2.6471   -0.9463 C   0  0  0  0  0  0  0  0  0  0  0  0
   -5.7196    3.4993   -1.1046 H   0  0  0  0  0  0  0  0  0  0  0  0
   -5.8781    1.9068   -0.7823 H   0  0  0  0  0  0  0  0  0  0  0  0
   -4.6813    2.4097   -1.8521 H   0  0  0  0  0  0  0  0  0  0  0  0
   -4.4004    2.8173    0.3112 C   0  0  0  0  0  0  0  0  0  0  0  0
   -3.2197    3.1942    0.2179 O   0  0  0  0  0  1  0  0  0  0  0  0
   -4.9440    2.6143    1.4281 O   0  0  0  0  0  0  0  0  0  0  0  0
   -0.0066    2.9111    0.0502 C   0  0  0  0  0  0  0  0  0  0  0  0
   -0.8371    3.2289   -0.3661 H   0  0  0  0  0  0  0  0  0  0  0  0
    0.7947    3.2313   -0.4179 H   0  0  0  0  0  0  0  0  0  0  0  0
    0.0256    3.2877    1.0726 H   0  0  0  0  0  0  0  0  0  0  0  0
   -0.0066    1.3998   -0.0086 C   0  0  0  0  0  0  0  0  0  0  0  0
   -1.1899    0.6845    0.0035 C   0  0  0  0  0  0  0  0  0  0  0  0
   -2.0638    1.1663    0.0136 H   0  0  0  0  0  0  0  0  0  0  0  0
   -1.1864   -0.7059   -0.0000 C   0  0  0  0  0  0  0  0  0  0  0  0
   -2.0648   -1.2008    0.0096 H   0  0  0  0  0  0  0  0  0  0  0  0
    0.0064   -1.3862   -0.0144 C   0  0  0  0  0  0  0  0  0  0  0  0
    0.0073   -2.3910   -0.0358 H   0  0  0  0  0  0  0  0  0  0  0  0
    1.1864   -0.6919    0.0000 C   0  0  0  0  0  0  0  0  0  0  0  0
    2.0792   -1.1849   -0.0021 H   0  0  0  0  0  0  0  0  0  0  0  0
    1.1901    0.6996    0.0195 C   0  0  0  0  0  0  0  0  0  0  0  0
    2.0553    1.1920    0.0524 H   0  0  0  0  0  0  0  0  0  0  0  0
  1  5  1  0
  5  6  1  0
  5  7  2  0
  1  2  1  0
  1  3  1  0
  1  4  1  0
  8 12  1  0
 12 13  2  0
 13 15  1  0
 15 17  2  0
 17 19  1  0
 19 21  2  0
 21 12  1  0
  8  9  1  0
  8 10  1  0
  8 11  1  0
 13 14  1  0
 15 16  1  0
 17 18  1  0
 19 20  1  0
 21 22  1  0
M  CHG  1   6  -1
M  END
>  <PDB_ID>  (1474) 
pdb4fai

>  <RESIDUE_NAME>  (1474) 
GLU   PHE

>  <FRAG_NAME>  (1474) 
ACET   MBZ

>  <FRAG_ATOM_NUM>  (1474) 
fragi: 7  fragj: 15

>  <atom.prop.CHAIN_ID>  (1474) 
A A A A A A A Z Z Z Z Z Z Z Z Z Z Z Z Z Z Z

>  <atom.prop.IS_HEAVY_ATOM>  (1474) 
1 0 0 0 1 1 1 1 0 0 0 1 1 0 1 0 1 0 1 0 1 0

>  <DIFUSE_FUNC_ATOM>  (1474) 
atom 6   atom 7   

>  <FINAL_SINGLE_POINT_ENERGY>  (1474) 
0

>  <NONCOV_INTER_ENERGY_QM>  (1474) 
0

>  <FF_Energy>  (1474) 
-1.26

>  <QM_Energy>  (1474) 
-7.79

>  <source>  (1474) 
ACET_MBZ_01

>  <Index>  (1474) 
21958

$$$$
ACET-pdb3iba-A-GLU-225:MBZ-pdb3iba-A-PHE-148
     RDKit          3D

 22 21  0  0  0  0  0  0  0  0999 V2000
    5.8696    2.4560   -1.8204 C   0  0  0  0  0  0  0  0  0  0  0  0
    5.6157    1.5996   -2.2329 H   0  0  0  0  0  0  0  0  0  0  0  0
    6.6505    2.3637   -1.2285 H   0  0  0  0  0  0  0  0  0  0  0  0
    6.1276    3.1528   -2.6179 H   0  0  0  0  0  0  0  0  0  0  0  0
    4.7005    2.9202   -0.9684 C   0  0  0  0  0  0  0  0  0  0  0  0
    4.5598    4.1416   -0.7376 O   0  0  0  0  0  1  0  0  0  0  0  0
    3.9235    2.0541   -0.5193 O   0  0  0  0  0  0  0  0  0  0  0  0
    0.0079    2.9140   -0.0102 C   0  0  0  0  0  0  0  0  0  0  0  0
   -0.7229    3.2179   -0.6040 H   0  0  0  0  0  0  0  0  0  0  0  0
    0.8897    3.2128   -0.3443 H   0  0  0  0  0  0  0  0  0  0  0  0
   -0.1477    3.3723    0.9664 H   0  0  0  0  0  0  0  0  0  0  0  0
    0.0013    1.4062    0.0040 C   0  0  0  0  0  0  0  0  0  0  0  0
   -1.1973    0.6951   -0.0054 C   0  0  0  0  0  0  0  0  0  0  0  0
   -2.0640    1.1839   -0.0170 H   0  0  0  0  0  0  0  0  0  0  0  0
   -1.2020   -0.7002    0.0000 C   0  0  0  0  0  0  0  0  0  0  0  0
   -2.0792   -1.1914    0.0044 H   0  0  0  0  0  0  0  0  0  0  0  0
   -0.0010   -1.3972    0.0005 C   0  0  0  0  0  0  0  0  0  0  0  0
   -0.0040   -2.3952    0.0010 H   0  0  0  0  0  0  0  0  0  0  0  0
    1.2020   -0.6991    0.0000 C   0  0  0  0  0  0  0  0  0  0  0  0
    2.0826   -1.1962    0.0005 H   0  0  0  0  0  0  0  0  0  0  0  0
    1.1971    0.6951    0.0008 C   0  0  0  0  0  0  0  0  0  0  0  0
    2.0663    1.1900   -0.0010 H   0  0  0  0  0  0  0  0  0  0  0  0
  1  5  1  0
  5  6  1  0
  5  7  2  0
  1  2  1  0
  1  3  1  0
  1  4  1  0
  8 12  1  0
 12 13  2  0
 13 15  1  0
 15 17  2  0
 17 19  1  0
 19 21  2  0
 21 12  1  0
  8  9  1  0
  8 10  1  0
  8 11  1  0
 13 14  1  0
 15 16  1  0
 17 18  1  0
 19 20  1  0
 21 22  1  0
M  CHG  1   6  -1
M  END
>  <PDB_ID>  (1475) 
pdb3iba

>  <RESIDUE_NAME>  (1475) 
GLU   PHE

>  <FRAG_NAME>  (1475) 
ACET   MBZ

>  <FRAG_ATOM_NUM>  (1475) 
fragi: 7  fragj: 15

>  <atom.prop.CHAIN_ID>  (1475) 
A A A A A A A Z Z Z Z Z Z Z Z Z Z Z Z Z Z Z

>  <atom.prop.IS_HEAVY_ATOM>  (1475) 
1 0 0 0 1 1 1 1 0 0 0 1 1 0 1 0 1 0 1 0 1 0

>  <DIFUSE_FUNC_ATOM>  (1475) 
atom 6   atom 7   

>  <FINAL_SINGLE_POINT_ENERGY>  (1475) 
0

>  <NONCOV_INTER_ENERGY_QM>  (1475) 
0

>  <FF_Energy>  (1475) 
0.76

>  <QM_Energy>  (1475) 
-7.88

>  <source>  (1475) 
ACET_MBZ_01

>  <Index>  (1475) 
22073

$$$$
ACET-pdb3ibd-A-GLU-301:MBZ-pdb3ibd-A-PHE-206
     RDKit          3D

 22 21  0  0  0  0  0  0  0  0999 V2000
    2.0171   -0.0162    2.9912 C   0  0  0  0  0  0  0  0  0  0  0  0
    2.5672   -0.7928    3.2363 H   0  0  0  0  0  0  0  0  0  0  0  0
    1.8599    0.0375    2.0225 H   0  0  0  0  0  0  0  0  0  0  0  0
    1.0522   -0.1122    3.4891 H   0  0  0  0  0  0  0  0  0  0  0  0
    2.7792    1.2352    3.4026 C   0  0  0  0  0  0  0  0  0  0  0  0
    2.0640    2.2277    3.7112 O   0  0  0  0  0  1  0  0  0  0  0  0
    4.0473    1.2161    3.4068 O   0  0  0  0  0  0  0  0  0  0  0  0
   -0.0065    2.8726   -0.0246 C   0  0  0  0  0  0  0  0  0  0  0  0
    0.8388    3.2048    0.3578 H   0  0  0  0  0  0  0  0  0  0  0  0
   -0.7894    3.1942    0.4801 H   0  0  0  0  0  0  0  0  0  0  0  0
   -0.0855    3.2589   -1.0408 H   0  0  0  0  0  0  0  0  0  0  0  0
    0.0057    1.3963    0.0120 C   0  0  0  0  0  0  0  0  0  0  0  0
   -1.1927    0.6830   -0.0134 C   0  0  0  0  0  0  0  0  0  0  0  0
   -2.0587    1.1718   -0.0425 H   0  0  0  0  0  0  0  0  0  0  0  0
   -1.1930   -0.7069   -0.0000 C   0  0  0  0  0  0  0  0  0  0  0  0
   -2.0727   -1.1984    0.0109 H   0  0  0  0  0  0  0  0  0  0  0  0
   -0.0027   -1.3840   -0.0004 C   0  0  0  0  0  0  0  0  0  0  0  0
    0.0039   -2.3904   -0.0011 H   0  0  0  0  0  0  0  0  0  0  0  0
    1.1930   -0.6902    0.0000 C   0  0  0  0  0  0  0  0  0  0  0  0
    2.0766   -1.1858   -0.0001 H   0  0  0  0  0  0  0  0  0  0  0  0
    1.1897    0.7018    0.0019 C   0  0  0  0  0  0  0  0  0  0  0  0
    2.0621    1.1923   -0.0052 H   0  0  0  0  0  0  0  0  0  0  0  0
  1  5  1  0
  5  6  1  0
  5  7  2  0
  1  2  1  0
  1  3  1  0
  1  4  1  0
  8 12  1  0
 12 13  2  0
 13 15  1  0
 15 17  2  0
 17 19  1  0
 19 21  2  0
 21 12  1  0
  8  9  1  0
  8 10  1  0
  8 11  1  0
 13 14  1  0
 15 16  1  0
 17 18  1  0
 19 20  1  0
 21 22  1  0
M  CHG  1   6  -1
M  END
>  <PDB_ID>  (1476) 
pdb3ibd

>  <RESIDUE_NAME>  (1476) 
GLU   PHE

>  <FRAG_NAME>  (1476) 
ACET   MBZ

>  <FRAG_ATOM_NUM>  (1476) 
fragi: 7  fragj: 15

>  <atom.prop.CHAIN_ID>  (1476) 
A A A A A A A Z Z Z Z Z Z Z Z Z Z Z Z Z Z Z

>  <atom.prop.IS_HEAVY_ATOM>  (1476) 
1 0 0 0 1 1 1 1 0 0 0 1 1 0 1 0 1 0 1 0 1 0

>  <DIFUSE_FUNC_ATOM>  (1476) 
atom 6   atom 7   

>  <FINAL_SINGLE_POINT_ENERGY>  (1476) 
0

>  <NONCOV_INTER_ENERGY_QM>  (1476) 
0

>  <FF_Energy>  (1476) 
8.46

>  <QM_Energy>  (1476) 
1.36

>  <source>  (1476) 
ACET_MBZ_01

>  <Index>  (1476) 
22080

$$$$
ACET-pdb3ibs-A-GLU-7:MBZ-pdb3ibs-A-PHE-99
     RDKit          3D

 22 21  0  0  0  0  0  0  0  0999 V2000
   -5.6182    2.1464    0.6854 C   0  0  0  0  0  0  0  0  0  0  0  0
   -6.2473    2.2177   -0.0724 H   0  0  0  0  0  0  0  0  0  0  0  0
   -6.0946    2.1169    1.5495 H   0  0  0  0  0  0  0  0  0  0  0  0
   -5.0743    1.2082    0.5752 H   0  0  0  0  0  0  0  0  0  0  0  0
   -4.7446    3.4059    0.6820 C   0  0  0  0  0  0  0  0  0  0  0  0
   -3.4979    3.3333    0.5565 O   0  0  0  0  0  1  0  0  0  0  0  0
   -5.3409    4.5035    0.8201 O   0  0  0  0  0  0  0  0  0  0  0  0
   -0.0142    2.9161    0.0137 C   0  0  0  0  0  0  0  0  0  0  0  0
    0.8718    3.2229    0.3247 H   0  0  0  0  0  0  0  0  0  0  0  0
   -0.7342    3.2077    0.6246 H   0  0  0  0  0  0  0  0  0  0  0  0
   -0.2000    3.3724   -0.9587 H   0  0  0  0  0  0  0  0  0  0  0  0
   -0.0045    1.4078   -0.0099 C   0  0  0  0  0  0  0  0  0  0  0  0
   -1.1936    0.6958   -0.0056 C   0  0  0  0  0  0  0  0  0  0  0  0
   -2.0658    1.1834   -0.0079 H   0  0  0  0  0  0  0  0  0  0  0  0
   -1.2063   -0.7016    0.0000 C   0  0  0  0  0  0  0  0  0  0  0  0
   -2.0786   -1.1924    0.0070 H   0  0  0  0  0  0  0  0  0  0  0  0
    0.0057   -1.4073   -0.0019 C   0  0  0  0  0  0  0  0  0  0  0  0
    0.0019   -2.3981   -0.0054 H   0  0  0  0  0  0  0  0  0  0  0  0
    1.2063   -0.6974   -0.0000 C   0  0  0  0  0  0  0  0  0  0  0  0
    2.0901   -1.1860   -0.0093 H   0  0  0  0  0  0  0  0  0  0  0  0
    1.1923    0.7028    0.0174 C   0  0  0  0  0  0  0  0  0  0  0  0
    2.0612    1.1988    0.0490 H   0  0  0  0  0  0  0  0  0  0  0  0
  1  5  1  0
  5  6  1  0
  5  7  2  0
  1  2  1  0
  1  3  1  0
  1  4  1  0
  8 12  1  0
 12 13  2  0
 13 15  1  0
 15 17  2  0
 17 19  1  0
 19 21  2  0
 21 12  1  0
  8  9  1  0
  8 10  1  0
  8 11  1  0
 13 14  1  0
 15 16  1  0
 17 18  1  0
 19 20  1  0
 21 22  1  0
M  CHG  1   6  -1
M  END
>  <PDB_ID>  (1477) 
pdb3ibs

>  <RESIDUE_NAME>  (1477) 
GLU   PHE

>  <FRAG_NAME>  (1477) 
ACET   MBZ

>  <FRAG_ATOM_NUM>  (1477) 
fragi: 7  fragj: 15

>  <atom.prop.CHAIN_ID>  (1477) 
A A A A A A A Z Z Z Z Z Z Z Z Z Z Z Z Z Z Z

>  <atom.prop.IS_HEAVY_ATOM>  (1477) 
1 0 0 0 1 1 1 1 0 0 0 1 1 0 1 0 1 0 1 0 1 0

>  <DIFUSE_FUNC_ATOM>  (1477) 
atom 6   atom 7   

>  <FINAL_SINGLE_POINT_ENERGY>  (1477) 
0

>  <NONCOV_INTER_ENERGY_QM>  (1477) 
0

>  <FF_Energy>  (1477) 
-2.22

>  <QM_Energy>  (1477) 
-7.26

>  <source>  (1477) 
ACET_MBZ_01

>  <Index>  (1477) 
22106

$$$$
ACET-pdb4fcw-C-ASP-800:MBZ-pdb4fcw-C-PHE-803
     RDKit          3D

 22 21  0  0  0  0  0  0  0  0999 V2000
   -5.1348    4.7880    0.1005 C   0  0  0  0  0  0  0  0  0  0  0  0
   -5.7101    4.2155    0.6727 H   0  0  0  0  0  0  0  0  0  0  0  0
   -5.5736    4.9597   -0.7730 H   0  0  0  0  0  0  0  0  0  0  0  0
   -5.0094    5.7457    0.6057 H   0  0  0  0  0  0  0  0  0  0  0  0
   -3.8177    4.0691   -0.1443 C   0  0  0  0  0  0  0  0  0  0  0  0
   -3.2762    3.4743    0.8087 O   0  0  0  0  0  1  0  0  0  0  0  0
   -3.3317    4.0841   -1.2955 O   0  0  0  0  0  0  0  0  0  0  0  0
   -0.0013    2.9136   -0.0059 C   0  0  0  0  0  0  0  0  0  0  0  0
   -0.8760    3.2171   -0.3550 H   0  0  0  0  0  0  0  0  0  0  0  0
    0.7411    3.2172   -0.5860 H   0  0  0  0  0  0  0  0  0  0  0  0
    0.1393    3.3644    0.9765 H   0  0  0  0  0  0  0  0  0  0  0  0
    0.0000    1.4094    0.0016 C   0  0  0  0  0  0  0  0  0  0  0  0
   -1.2023    0.6988   -0.0001 C   0  0  0  0  0  0  0  0  0  0  0  0
   -2.0675    1.1878   -0.0027 H   0  0  0  0  0  0  0  0  0  0  0  0
   -1.2091   -0.7008   -0.0000 C   0  0  0  0  0  0  0  0  0  0  0  0
   -2.0829   -1.1923    0.0015 H   0  0  0  0  0  0  0  0  0  0  0  0
    0.0003   -1.4027    0.0005 C   0  0  0  0  0  0  0  0  0  0  0  0
   -0.0047   -2.3980    0.0010 H   0  0  0  0  0  0  0  0  0  0  0  0
    1.2091   -0.7025    0.0000 C   0  0  0  0  0  0  0  0  0  0  0  0
    2.0873   -1.1969    0.0020 H   0  0  0  0  0  0  0  0  0  0  0  0
    1.2020    0.6979   -0.0020 C   0  0  0  0  0  0  0  0  0  0  0  0
    2.0688    1.1923   -0.0069 H   0  0  0  0  0  0  0  0  0  0  0  0
  1  5  1  0
  5  6  1  0
  5  7  2  0
  1  2  1  0
  1  3  1  0
  1  4  1  0
  8 12  1  0
 12 13  2  0
 13 15  1  0
 15 17  2  0
 17 19  1  0
 19 21  2  0
 21 12  1  0
  8  9  1  0
  8 10  1  0
  8 11  1  0
 13 14  1  0
 15 16  1  0
 17 18  1  0
 19 20  1  0
 21 22  1  0
M  CHG  1   6  -1
M  END
>  <PDB_ID>  (1478) 
pdb4fcw

>  <RESIDUE_NAME>  (1478) 
ASP   PHE

>  <FRAG_NAME>  (1478) 
ACET   MBZ

>  <FRAG_ATOM_NUM>  (1478) 
fragi: 7  fragj: 15

>  <atom.prop.CHAIN_ID>  (1478) 
A A A A A A A Z Z Z Z Z Z Z Z Z Z Z Z Z Z Z

>  <atom.prop.IS_HEAVY_ATOM>  (1478) 
1 0 0 0 1 1 1 1 0 0 0 1 1 0 1 0 1 0 1 0 1 0

>  <DIFUSE_FUNC_ATOM>  (1478) 
atom 6   atom 7   

>  <FINAL_SINGLE_POINT_ENERGY>  (1478) 
0

>  <NONCOV_INTER_ENERGY_QM>  (1478) 
0

>  <FF_Energy>  (1478) 
-2.44

>  <QM_Energy>  (1478) 
-8.82

>  <source>  (1478) 
ACET_MBZ_01

>  <Index>  (1478) 
22131

$$$$
ACET-pdb4fd7-A-ASP-73:MBZ-pdb4fd7-A-PHE-117
     RDKit          3D

 22 21  0  0  0  0  0  0  0  0999 V2000
   -3.3210    2.2929    2.3726 C   0  0  0  0  0  0  0  0  0  0  0  0
   -3.3640    2.5197    3.3399 H   0  0  0  0  0  0  0  0  0  0  0  0
   -2.6399    1.5872    2.2126 H   0  0  0  0  0  0  0  0  0  0  0  0
   -4.2917    1.8923    2.0805 H   0  0  0  0  0  0  0  0  0  0  0  0
   -2.9327    3.5358    1.5955 C   0  0  0  0  0  0  0  0  0  0  0  0
   -3.3173    3.6594    0.4115 O   0  0  0  0  0  1  0  0  0  0  0  0
   -2.2294    4.3823    2.1776 O   0  0  0  0  0  0  0  0  0  0  0  0
   -0.0031    2.9108   -0.0147 C   0  0  0  0  0  0  0  0  0  0  0  0
    0.8562    3.2182    0.3557 H   0  0  0  0  0  0  0  0  0  0  0  0
   -0.7680    3.2188    0.5248 H   0  0  0  0  0  0  0  0  0  0  0  0
   -0.1075    3.3294   -1.0157 H   0  0  0  0  0  0  0  0  0  0  0  0
   -0.0019    1.4019    0.0003 C   0  0  0  0  0  0  0  0  0  0  0  0
   -1.1940    0.6984   -0.0007 C   0  0  0  0  0  0  0  0  0  0  0  0
   -2.0632    1.1851   -0.0038 H   0  0  0  0  0  0  0  0  0  0  0  0
   -1.2026   -0.6999    0.0000 C   0  0  0  0  0  0  0  0  0  0  0  0
   -2.0764   -1.1903   -0.0027 H   0  0  0  0  0  0  0  0  0  0  0  0
    0.0048   -1.3969    0.0072 C   0  0  0  0  0  0  0  0  0  0  0  0
   -0.0021   -2.3954    0.0167 H   0  0  0  0  0  0  0  0  0  0  0  0
    1.2026   -0.7013   -0.0000 C   0  0  0  0  0  0  0  0  0  0  0  0
    2.0858   -1.1901    0.0009 H   0  0  0  0  0  0  0  0  0  0  0  0
    1.1911    0.6979   -0.0068 C   0  0  0  0  0  0  0  0  0  0  0  0
    2.0618    1.1914   -0.0173 H   0  0  0  0  0  0  0  0  0  0  0  0
  1  5  1  0
  5  6  1  0
  5  7  2  0
  1  2  1  0
  1  3  1  0
  1  4  1  0
  8 12  1  0
 12 13  2  0
 13 15  1  0
 15 17  2  0
 17 19  1  0
 19 21  2  0
 21 12  1  0
  8  9  1  0
  8 10  1  0
  8 11  1  0
 13 14  1  0
 15 16  1  0
 17 18  1  0
 19 20  1  0
 21 22  1  0
M  CHG  1   6  -1
M  END
>  <PDB_ID>  (1479) 
pdb4fd7

>  <RESIDUE_NAME>  (1479) 
ASP   PHE

>  <FRAG_NAME>  (1479) 
ACET   MBZ

>  <FRAG_ATOM_NUM>  (1479) 
fragi: 7  fragj: 15

>  <atom.prop.CHAIN_ID>  (1479) 
A A A A A A A Z Z Z Z Z Z Z Z Z Z Z Z Z Z Z

>  <atom.prop.IS_HEAVY_ATOM>  (1479) 
1 0 0 0 1 1 1 1 0 0 0 1 1 0 1 0 1 0 1 0 1 0

>  <DIFUSE_FUNC_ATOM>  (1479) 
atom 6   atom 7   

>  <FINAL_SINGLE_POINT_ENERGY>  (1479) 
0

>  <NONCOV_INTER_ENERGY_QM>  (1479) 
0

>  <FF_Energy>  (1479) 
-0.77

>  <QM_Energy>  (1479) 
-7.58

>  <source>  (1479) 
ACET_MBZ_01

>  <Index>  (1479) 
22148

$$$$
ACET-pdb4fd7-C-ASP-73:MBZ-pdb4fd7-C-PHE-117
     RDKit          3D

 22 21  0  0  0  0  0  0  0  0999 V2000
    3.2550    2.5565   -2.3439 C   0  0  0  0  0  0  0  0  0  0  0  0
    3.2293    2.7812   -3.3113 H   0  0  0  0  0  0  0  0  0  0  0  0
    2.5547    1.8889   -2.1216 H   0  0  0  0  0  0  0  0  0  0  0  0
    4.2267    2.1139   -2.1246 H   0  0  0  0  0  0  0  0  0  0  0  0
    2.9843    3.8302   -1.5433 C   0  0  0  0  0  0  0  0  0  0  0  0
    3.3002    3.8539   -0.3495 O   0  0  0  0  0  1  0  0  0  0  0  0
    2.4267    4.8011   -2.1118 O   0  0  0  0  0  0  0  0  0  0  0  0
    0.0091    2.8796    0.0337 C   0  0  0  0  0  0  0  0  0  0  0  0
   -0.8265    3.2086   -0.3720 H   0  0  0  0  0  0  0  0  0  0  0  0
    0.8053    3.2030   -0.4506 H   0  0  0  0  0  0  0  0  0  0  0  0
    0.0597    3.2713    1.0496 H   0  0  0  0  0  0  0  0  0  0  0  0
    0.0012    1.3931   -0.0082 C   0  0  0  0  0  0  0  0  0  0  0  0
   -1.1990    0.6911    0.0058 C   0  0  0  0  0  0  0  0  0  0  0  0
   -2.0622    1.1835    0.0190 H   0  0  0  0  0  0  0  0  0  0  0  0
   -1.2005   -0.6953    0.0000 C   0  0  0  0  0  0  0  0  0  0  0  0
   -2.0739   -1.1934   -0.0034 H   0  0  0  0  0  0  0  0  0  0  0  0
    0.0039   -1.3860    0.0007 C   0  0  0  0  0  0  0  0  0  0  0  0
    0.0004   -2.3871    0.0011 H   0  0  0  0  0  0  0  0  0  0  0  0
    1.2005   -0.6913    0.0000 C   0  0  0  0  0  0  0  0  0  0  0  0
    2.0829   -1.1922   -0.0008 H   0  0  0  0  0  0  0  0  0  0  0  0
    1.1940    0.6884    0.0017 C   0  0  0  0  0  0  0  0  0  0  0  0
    2.0627    1.1890    0.0096 H   0  0  0  0  0  0  0  0  0  0  0  0
  1  5  1  0
  5  6  1  0
  5  7  2  0
  1  2  1  0
  1  3  1  0
  1  4  1  0
  8 12  1  0
 12 13  2  0
 13 15  1  0
 15 17  2  0
 17 19  1  0
 19 21  2  0
 21 12  1  0
  8  9  1  0
  8 10  1  0
  8 11  1  0
 13 14  1  0
 15 16  1  0
 17 18  1  0
 19 20  1  0
 21 22  1  0
M  CHG  1   6  -1
M  END
>  <PDB_ID>  (1480) 
pdb4fd7

>  <RESIDUE_NAME>  (1480) 
ASP   PHE

>  <FRAG_NAME>  (1480) 
ACET   MBZ

>  <FRAG_ATOM_NUM>  (1480) 
fragi: 7  fragj: 15

>  <atom.prop.CHAIN_ID>  (1480) 
A A A A A A A Z Z Z Z Z Z Z Z Z Z Z Z Z Z Z

>  <atom.prop.IS_HEAVY_ATOM>  (1480) 
1 0 0 0 1 1 1 1 0 0 0 1 1 0 1 0 1 0 1 0 1 0

>  <DIFUSE_FUNC_ATOM>  (1480) 
atom 6   atom 7   

>  <FINAL_SINGLE_POINT_ENERGY>  (1480) 
0

>  <NONCOV_INTER_ENERGY_QM>  (1480) 
0

>  <FF_Energy>  (1480) 
-1.64

>  <QM_Energy>  (1480) 
-6.97

>  <source>  (1480) 
ACET_MBZ_01

>  <Index>  (1480) 
22158

$$$$
ACET-pdb3ic8-B-ASP-182:MBZ-pdb3ic8-B-PHE-173
     RDKit          3D

 22 21  0  0  0  0  0  0  0  0999 V2000
    4.4930    2.1400   -2.7917 C   0  0  0  0  0  0  0  0  0  0  0  0
    4.2234    1.6529   -3.6219 H   0  0  0  0  0  0  0  0  0  0  0  0
    4.8289    1.4844   -2.1160 H   0  0  0  0  0  0  0  0  0  0  0  0
    5.3143    2.8096   -3.0471 H   0  0  0  0  0  0  0  0  0  0  0  0
    3.3131    2.8524   -2.2383 C   0  0  0  0  0  0  0  0  0  0  0  0
    3.3557    3.2848   -1.1070 O   0  0  0  0  0  1  0  0  0  0  0  0
    2.3212    2.9692   -2.9268 O   0  0  0  0  0  0  0  0  0  0  0  0
    0.0037    2.8397    0.0001 C   0  0  0  0  0  0  0  0  0  0  0  0
   -0.9202    3.1537   -0.1696 H   0  0  0  0  0  0  0  0  0  0  0  0
    0.6213    3.1534   -0.7076 H   0  0  0  0  0  0  0  0  0  0  0  0
    0.3346    3.2659    0.9472 H   0  0  0  0  0  0  0  0  0  0  0  0
    0.0015    1.3578   -0.0069 C   0  0  0  0  0  0  0  0  0  0  0  0
   -1.1675    0.6634    0.0001 C   0  0  0  0  0  0  0  0  0  0  0  0
   -2.0409    1.1688    0.0039 H   0  0  0  0  0  0  0  0  0  0  0  0
   -1.1653   -0.6694    0.0000 C   0  0  0  0  0  0  0  0  0  0  0  0
   -2.0542   -1.1794   -0.0047 H   0  0  0  0  0  0  0  0  0  0  0  0
   -0.0042   -1.3393    0.0077 C   0  0  0  0  0  0  0  0  0  0  0  0
   -0.0071   -2.3561    0.0186 H   0  0  0  0  0  0  0  0  0  0  0  0
    1.1653   -0.6716   -0.0000 C   0  0  0  0  0  0  0  0  0  0  0  0
    2.0539   -1.1910   -0.0040 H   0  0  0  0  0  0  0  0  0  0  0  0
    1.1701    0.6591   -0.0009 C   0  0  0  0  0  0  0  0  0  0  0  0
    2.0461    1.1701    0.0019 H   0  0  0  0  0  0  0  0  0  0  0  0
  1  5  1  0
  5  6  1  0
  5  7  2  0
  1  2  1  0
  1  3  1  0
  1  4  1  0
  8 12  1  0
 12 13  2  0
 13 15  1  0
 15 17  2  0
 17 19  1  0
 19 21  2  0
 21 12  1  0
  8  9  1  0
  8 10  1  0
  8 11  1  0
 13 14  1  0
 15 16  1  0
 17 18  1  0
 19 20  1  0
 21 22  1  0
M  CHG  1   6  -1
M  END
>  <PDB_ID>  (1481) 
pdb3ic8

>  <RESIDUE_NAME>  (1481) 
ASP   PHE

>  <FRAG_NAME>  (1481) 
ACET   MBZ

>  <FRAG_ATOM_NUM>  (1481) 
fragi: 7  fragj: 15

>  <atom.prop.CHAIN_ID>  (1481) 
A A A A A A A Z Z Z Z Z Z Z Z Z Z Z Z Z Z Z

>  <atom.prop.IS_HEAVY_ATOM>  (1481) 
1 0 0 0 1 1 1 1 0 0 0 1 1 0 1 0 1 0 1 0 1 0

>  <DIFUSE_FUNC_ATOM>  (1481) 
atom 6   atom 7   

>  <FINAL_SINGLE_POINT_ENERGY>  (1481) 
0

>  <NONCOV_INTER_ENERGY_QM>  (1481) 
0

>  <FF_Energy>  (1481) 
-1.79

>  <QM_Energy>  (1481) 
-7.95

>  <source>  (1481) 
ACET_MBZ_01

>  <Index>  (1481) 
22163

$$$$
ACET-pdb3ic8-D-ASP-250:MBZ-pdb3ic8-D-PHE-254
     RDKit          3D

 22 21  0  0  0  0  0  0  0  0999 V2000
   -2.9994    5.4510    0.4951 C   0  0  0  0  0  0  0  0  0  0  0  0
   -2.4404    6.2298    0.2095 H   0  0  0  0  0  0  0  0  0  0  0  0
   -2.6089    5.0469    1.3212 H   0  0  0  0  0  0  0  0  0  0  0  0
   -3.9959    5.8204    0.7372 H   0  0  0  0  0  0  0  0  0  0  0  0
   -3.0035    4.4310   -0.5913 C   0  0  0  0  0  0  0  0  0  0  0  0
   -2.6387    4.7416   -1.7282 O   0  0  0  0  0  1  0  0  0  0  0  0
   -3.3425    3.2960   -0.3031 O   0  0  0  0  0  0  0  0  0  0  0  0
   -0.0098    2.8650    0.0098 C   0  0  0  0  0  0  0  0  0  0  0  0
   -0.9404    3.1664   -0.1480 H   0  0  0  0  0  0  0  0  0  0  0  0
    0.5934    3.1807   -0.7100 H   0  0  0  0  0  0  0  0  0  0  0  0
    0.3297    3.3065    0.9467 H   0  0  0  0  0  0  0  0  0  0  0  0
    0.0015    1.3660    0.0005 C   0  0  0  0  0  0  0  0  0  0  0  0
   -1.1613    0.6554   -0.0069 C   0  0  0  0  0  0  0  0  0  0  0  0
   -2.0412    1.1485   -0.0189 H   0  0  0  0  0  0  0  0  0  0  0  0
   -1.1514   -0.6897   -0.0000 C   0  0  0  0  0  0  0  0  0  0  0  0
   -2.0467   -1.1915    0.0039 H   0  0  0  0  0  0  0  0  0  0  0  0
   -0.0057   -1.3408    0.0032 C   0  0  0  0  0  0  0  0  0  0  0  0
    0.0066   -2.3618    0.0077 H   0  0  0  0  0  0  0  0  0  0  0  0
    1.1514   -0.6665   -0.0000 C   0  0  0  0  0  0  0  0  0  0  0  0
    2.0491   -1.1804   -0.0030 H   0  0  0  0  0  0  0  0  0  0  0  0
    1.1654    0.6756    0.0032 C   0  0  0  0  0  0  0  0  0  0  0  0
    2.0428    1.1753    0.0066 H   0  0  0  0  0  0  0  0  0  0  0  0
  1  5  1  0
  5  6  1  0
  5  7  2  0
  1  2  1  0
  1  3  1  0
  1  4  1  0
  8 12  1  0
 12 13  2  0
 13 15  1  0
 15 17  2  0
 17 19  1  0
 19 21  2  0
 21 12  1  0
  8  9  1  0
  8 10  1  0
  8 11  1  0
 13 14  1  0
 15 16  1  0
 17 18  1  0
 19 20  1  0
 21 22  1  0
M  CHG  1   6  -1
M  END
>  <PDB_ID>  (1482) 
pdb3ic8

>  <RESIDUE_NAME>  (1482) 
ASP   PHE

>  <FRAG_NAME>  (1482) 
ACET   MBZ

>  <FRAG_ATOM_NUM>  (1482) 
fragi: 7  fragj: 15

>  <atom.prop.CHAIN_ID>  (1482) 
A A A A A A A Z Z Z Z Z Z Z Z Z Z Z Z Z Z Z

>  <atom.prop.IS_HEAVY_ATOM>  (1482) 
1 0 0 0 1 1 1 1 0 0 0 1 1 0 1 0 1 0 1 0 1 0

>  <DIFUSE_FUNC_ATOM>  (1482) 
atom 6   atom 7   

>  <FINAL_SINGLE_POINT_ENERGY>  (1482) 
0

>  <NONCOV_INTER_ENERGY_QM>  (1482) 
0

>  <FF_Energy>  (1482) 
-0.94

>  <QM_Energy>  (1482) 
-7.68

>  <source>  (1482) 
ACET_MBZ_01

>  <Index>  (1482) 
22175

$$$$
ACET-pdb3ic9-B-GLU-185:MBZ-pdb3ic9-B-PHE-351
     RDKit          3D

 22 21  0  0  0  0  0  0  0  0999 V2000
    3.6985    5.2558   -0.8723 C   0  0  0  0  0  0  0  0  0  0  0  0
    2.7313    5.4160   -0.9374 H   0  0  0  0  0  0  0  0  0  0  0  0
    4.1453    5.3032   -1.7462 H   0  0  0  0  0  0  0  0  0  0  0  0
    4.1264    6.0242   -0.2285 H   0  0  0  0  0  0  0  0  0  0  0  0
    3.8923    3.8311   -0.3358 C   0  0  0  0  0  0  0  0  0  0  0  0
    3.4415    2.8685   -0.9875 O   0  0  0  0  0  1  0  0  0  0  0  0
    4.4788    3.6535    0.7460 O   0  0  0  0  0  0  0  0  0  0  0  0
    0.0105    2.9184    0.0056 C   0  0  0  0  0  0  0  0  0  0  0  0
    0.8671    3.2171    0.3950 H   0  0  0  0  0  0  0  0  0  0  0  0
   -0.7601    3.2275    0.5399 H   0  0  0  0  0  0  0  0  0  0  0  0
   -0.0760    3.3537   -0.9900 H   0  0  0  0  0  0  0  0  0  0  0  0
    0.0013    1.4086    0.0092 C   0  0  0  0  0  0  0  0  0  0  0  0
   -1.1955    0.7086   -0.0095 C   0  0  0  0  0  0  0  0  0  0  0  0
   -2.0623    1.1952   -0.0315 H   0  0  0  0  0  0  0  0  0  0  0  0
   -1.2093   -0.6984    0.0000 C   0  0  0  0  0  0  0  0  0  0  0  0
   -2.0908   -1.1781    0.0090 H   0  0  0  0  0  0  0  0  0  0  0  0
   -0.0137   -1.4017   -0.0013 C   0  0  0  0  0  0  0  0  0  0  0  0
   -0.0149   -2.3982   -0.0037 H   0  0  0  0  0  0  0  0  0  0  0  0
    1.2093   -0.7047    0.0000 C   0  0  0  0  0  0  0  0  0  0  0  0
    2.0788   -1.2111    0.0008 H   0  0  0  0  0  0  0  0  0  0  0  0
    1.2080    0.6877    0.0016 C   0  0  0  0  0  0  0  0  0  0  0  0
    2.0733    1.1856   -0.0037 H   0  0  0  0  0  0  0  0  0  0  0  0
  1  5  1  0
  5  6  1  0
  5  7  2  0
  1  2  1  0
  1  3  1  0
  1  4  1  0
  8 12  1  0
 12 13  2  0
 13 15  1  0
 15 17  2  0
 17 19  1  0
 19 21  2  0
 21 12  1  0
  8  9  1  0
  8 10  1  0
  8 11  1  0
 13 14  1  0
 15 16  1  0
 17 18  1  0
 19 20  1  0
 21 22  1  0
M  CHG  1   6  -1
M  END
>  <PDB_ID>  (1483) 
pdb3ic9

>  <RESIDUE_NAME>  (1483) 
GLU   PHE

>  <FRAG_NAME>  (1483) 
ACET   MBZ

>  <FRAG_ATOM_NUM>  (1483) 
fragi: 7  fragj: 15

>  <atom.prop.CHAIN_ID>  (1483) 
A A A A A A A Z Z Z Z Z Z Z Z Z Z Z Z Z Z Z

>  <atom.prop.IS_HEAVY_ATOM>  (1483) 
1 0 0 0 1 1 1 1 0 0 0 1 1 0 1 0 1 0 1 0 1 0

>  <DIFUSE_FUNC_ATOM>  (1483) 
atom 6   atom 7   

>  <FINAL_SINGLE_POINT_ENERGY>  (1483) 
0

>  <NONCOV_INTER_ENERGY_QM>  (1483) 
0

>  <FF_Energy>  (1483) 
-2.1

>  <QM_Energy>  (1483) 
-7.81

>  <source>  (1483) 
ACET_MBZ_01

>  <Index>  (1483) 
22222

$$$$
ACET-pdb3ic9-C-GLU-185:MBZ-pdb3ic9-C-PHE-351
     RDKit          3D

 22 21  0  0  0  0  0  0  0  0999 V2000
    3.4374    5.3674   -1.1823 C   0  0  0  0  0  0  0  0  0  0  0  0
    2.4575    5.4336   -1.2361 H   0  0  0  0  0  0  0  0  0  0  0  0
    3.8631    5.4312   -2.0667 H   0  0  0  0  0  0  0  0  0  0  0  0
    3.8123    6.1706   -0.5481 H   0  0  0  0  0  0  0  0  0  0  0  0
    3.7582    3.9604   -0.6369 C   0  0  0  0  0  0  0  0  0  0  0  0
    3.3014    2.9713   -1.2384 O   0  0  0  0  0  1  0  0  0  0  0  0
    4.4684    3.8376    0.3838 O   0  0  0  0  0  0  0  0  0  0  0  0
    0.0061    2.9059   -0.0009 C   0  0  0  0  0  0  0  0  0  0  0  0
    0.8896    3.2125    0.3163 H   0  0  0  0  0  0  0  0  0  0  0  0
   -0.7203    3.2203    0.5902 H   0  0  0  0  0  0  0  0  0  0  0  0
   -0.1599    3.3406   -0.9866 H   0  0  0  0  0  0  0  0  0  0  0  0
   -0.0000    1.4081    0.0027 C   0  0  0  0  0  0  0  0  0  0  0  0
   -1.1995    0.7046    0.0077 C   0  0  0  0  0  0  0  0  0  0  0  0
   -2.0653    1.1948    0.0153 H   0  0  0  0  0  0  0  0  0  0  0  0
   -1.2127   -0.6969    0.0000 C   0  0  0  0  0  0  0  0  0  0  0  0
   -2.0865   -1.1845   -0.0091 H   0  0  0  0  0  0  0  0  0  0  0  0
   -0.0024   -1.4030    0.0073 C   0  0  0  0  0  0  0  0  0  0  0  0
   -0.0114   -2.3990    0.0177 H   0  0  0  0  0  0  0  0  0  0  0  0
    1.2127   -0.7082   -0.0000 C   0  0  0  0  0  0  0  0  0  0  0  0
    2.0865   -1.2015    0.0092 H   0  0  0  0  0  0  0  0  0  0  0  0
    1.2020    0.6954   -0.0177 C   0  0  0  0  0  0  0  0  0  0  0  0
    2.0691    1.1898   -0.0461 H   0  0  0  0  0  0  0  0  0  0  0  0
  1  5  1  0
  5  6  1  0
  5  7  2  0
  1  2  1  0
  1  3  1  0
  1  4  1  0
  8 12  1  0
 12 13  2  0
 13 15  1  0
 15 17  2  0
 17 19  1  0
 19 21  2  0
 21 12  1  0
  8  9  1  0
  8 10  1  0
  8 11  1  0
 13 14  1  0
 15 16  1  0
 17 18  1  0
 19 20  1  0
 21 22  1  0
M  CHG  1   6  -1
M  END
>  <PDB_ID>  (1484) 
pdb3ic9

>  <RESIDUE_NAME>  (1484) 
GLU   PHE

>  <FRAG_NAME>  (1484) 
ACET   MBZ

>  <FRAG_ATOM_NUM>  (1484) 
fragi: 7  fragj: 15

>  <atom.prop.CHAIN_ID>  (1484) 
A A A A A A A Z Z Z Z Z Z Z Z Z Z Z Z Z Z Z

>  <atom.prop.IS_HEAVY_ATOM>  (1484) 
1 0 0 0 1 1 1 1 0 0 0 1 1 0 1 0 1 0 1 0 1 0

>  <DIFUSE_FUNC_ATOM>  (1484) 
atom 6   atom 7   

>  <FINAL_SINGLE_POINT_ENERGY>  (1484) 
0

>  <NONCOV_INTER_ENERGY_QM>  (1484) 
0

>  <FF_Energy>  (1484) 
-2.24

>  <QM_Energy>  (1484) 
-7.54

>  <source>  (1484) 
ACET_MBZ_01

>  <Index>  (1484) 
22232

$$$$
ACET-pdb4ffe-Y-ASP-47:MBZ-pdb4ffe-Y-PHE-50
     RDKit          3D

 22 21  0  0  0  0  0  0  0  0999 V2000
   -5.0541    3.9935   -1.3711 C   0  0  0  0  0  0  0  0  0  0  0  0
   -5.2854    3.2257   -1.9555 H   0  0  0  0  0  0  0  0  0  0  0  0
   -4.7636    4.7720   -1.9115 H   0  0  0  0  0  0  0  0  0  0  0  0
   -5.9490    4.2801   -0.8188 H   0  0  0  0  0  0  0  0  0  0  0  0
   -3.9168    3.5830   -0.4540 C   0  0  0  0  0  0  0  0  0  0  0  0
   -4.0056    2.4996    0.1581 O   0  0  0  0  0  1  0  0  0  0  0  0
   -2.9366    4.3473   -0.3419 O   0  0  0  0  0  0  0  0  0  0  0  0
    0.0010    2.8953   -0.0011 C   0  0  0  0  0  0  0  0  0  0  0  0
   -0.7712    3.2039   -0.5361 H   0  0  0  0  0  0  0  0  0  0  0  0
    0.8559    3.2028   -0.3909 H   0  0  0  0  0  0  0  0  0  0  0  0
   -0.0874    3.3338    0.9929 H   0  0  0  0  0  0  0  0  0  0  0  0
   -0.0000    1.3949   -0.0011 C   0  0  0  0  0  0  0  0  0  0  0  0
   -1.1924    0.6878   -0.0014 C   0  0  0  0  0  0  0  0  0  0  0  0
   -2.0603    1.1807   -0.0040 H   0  0  0  0  0  0  0  0  0  0  0  0
   -1.1961   -0.6943   -0.0000 C   0  0  0  0  0  0  0  0  0  0  0  0
   -2.0739   -1.1908    0.0006 H   0  0  0  0  0  0  0  0  0  0  0  0
    0.0005   -1.3856    0.0022 C   0  0  0  0  0  0  0  0  0  0  0  0
   -0.0028   -2.3872    0.0044 H   0  0  0  0  0  0  0  0  0  0  0  0
    1.1961   -0.6925    0.0000 C   0  0  0  0  0  0  0  0  0  0  0  0
    2.0785   -1.1928   -0.0000 H   0  0  0  0  0  0  0  0  0  0  0  0
    1.1919    0.6898    0.0004 C   0  0  0  0  0  0  0  0  0  0  0  0
    2.0608    1.1885    0.0008 H   0  0  0  0  0  0  0  0  0  0  0  0
  1  5  1  0
  5  6  1  0
  5  7  2  0
  1  2  1  0
  1  3  1  0
  1  4  1  0
  8 12  1  0
 12 13  2  0
 13 15  1  0
 15 17  2  0
 17 19  1  0
 19 21  2  0
 21 12  1  0
  8  9  1  0
  8 10  1  0
  8 11  1  0
 13 14  1  0
 15 16  1  0
 17 18  1  0
 19 20  1  0
 21 22  1  0
M  CHG  1   6  -1
M  END
>  <PDB_ID>  (1485) 
pdb4ffe

>  <RESIDUE_NAME>  (1485) 
ASP   PHE

>  <FRAG_NAME>  (1485) 
ACET   MBZ

>  <FRAG_ATOM_NUM>  (1485) 
fragi: 7  fragj: 15

>  <atom.prop.CHAIN_ID>  (1485) 
A A A A A A A Z Z Z Z Z Z Z Z Z Z Z Z Z Z Z

>  <atom.prop.IS_HEAVY_ATOM>  (1485) 
1 0 0 0 1 1 1 1 0 0 0 1 1 0 1 0 1 0 1 0 1 0

>  <DIFUSE_FUNC_ATOM>  (1485) 
atom 6   atom 7   

>  <FINAL_SINGLE_POINT_ENERGY>  (1485) 
0

>  <NONCOV_INTER_ENERGY_QM>  (1485) 
0

>  <FF_Energy>  (1485) 
-2.28

>  <QM_Energy>  (1485) 
-9.12

>  <source>  (1485) 
ACET_MBZ_01

>  <Index>  (1485) 
22359

$$$$
ACET-pdb3iei-G-GLU-179:MBZ-pdb3iei-A-PHE-301
     RDKit          3D

 22 21  0  0  0  0  0  0  0  0999 V2000
    2.7712    4.6013    2.9586 C   0  0  0  0  0  0  0  0  0  0  0  0
    2.4243    5.5062    2.7811 H   0  0  0  0  0  0  0  0  0  0  0  0
    3.5790    4.6211    3.5226 H   0  0  0  0  0  0  0  0  0  0  0  0
    2.0006    4.0487    3.4961 H   0  0  0  0  0  0  0  0  0  0  0  0
    3.1426    3.9773    1.6369 C   0  0  0  0  0  0  0  0  0  0  0  0
    3.3413    2.7434    1.5798 O   0  0  0  0  0  1  0  0  0  0  0  0
    3.2540    4.7311    0.6502 O   0  0  0  0  0  0  0  0  0  0  0  0
   -0.0022    2.9096   -0.0053 C   0  0  0  0  0  0  0  0  0  0  0  0
    0.6737    3.2185    0.6465 H   0  0  0  0  0  0  0  0  0  0  0  0
   -0.9093    3.2138    0.2427 H   0  0  0  0  0  0  0  0  0  0  0  0
    0.2425    3.3514   -0.9712 H   0  0  0  0  0  0  0  0  0  0  0  0
    0.0017    1.4029   -0.0025 C   0  0  0  0  0  0  0  0  0  0  0  0
   -1.1998    0.6937   -0.0025 C   0  0  0  0  0  0  0  0  0  0  0  0
   -2.0633    1.1849   -0.0061 H   0  0  0  0  0  0  0  0  0  0  0  0
   -1.2015   -0.6964   -0.0000 C   0  0  0  0  0  0  0  0  0  0  0  0
   -2.0785   -1.1917   -0.0010 H   0  0  0  0  0  0  0  0  0  0  0  0
   -0.0000   -1.3916    0.0056 C   0  0  0  0  0  0  0  0  0  0  0  0
   -0.0083   -2.3934    0.0131 H   0  0  0  0  0  0  0  0  0  0  0  0
    1.2015   -0.7037    0.0000 C   0  0  0  0  0  0  0  0  0  0  0  0
    2.0817   -1.1982   -0.0021 H   0  0  0  0  0  0  0  0  0  0  0  0
    1.1981    0.6951   -0.0006 C   0  0  0  0  0  0  0  0  0  0  0  0
    2.0673    1.1869   -0.0007 H   0  0  0  0  0  0  0  0  0  0  0  0
  1  5  1  0
  5  6  1  0
  5  7  2  0
  1  2  1  0
  1  3  1  0
  1  4  1  0
  8 12  1  0
 12 13  2  0
 13 15  1  0
 15 17  2  0
 17 19  1  0
 19 21  2  0
 21 12  1  0
  8  9  1  0
  8 10  1  0
  8 11  1  0
 13 14  1  0
 15 16  1  0
 17 18  1  0
 19 20  1  0
 21 22  1  0
M  CHG  1   6  -1
M  END
>  <PDB_ID>  (1486) 
pdb3iei

>  <RESIDUE_NAME>  (1486) 
GLU   PHE

>  <FRAG_NAME>  (1486) 
ACET   MBZ

>  <FRAG_ATOM_NUM>  (1486) 
fragi: 7  fragj: 15

>  <atom.prop.CHAIN_ID>  (1486) 
A A A A A A A Z Z Z Z Z Z Z Z Z Z Z Z Z Z Z

>  <atom.prop.IS_HEAVY_ATOM>  (1486) 
1 0 0 0 1 1 1 1 0 0 0 1 1 0 1 0 1 0 1 0 1 0

>  <DIFUSE_FUNC_ATOM>  (1486) 
atom 6   atom 7   

>  <FINAL_SINGLE_POINT_ENERGY>  (1486) 
0

>  <NONCOV_INTER_ENERGY_QM>  (1486) 
0

>  <FF_Energy>  (1486) 
-2.23

>  <QM_Energy>  (1486) 
-7.64

>  <source>  (1486) 
ACET_MBZ_01

>  <Index>  (1486) 
22387

$$$$
ACET-pdb4fin-A-GLU-484:MBZ-pdb4fin-A-PHE-503
     RDKit          3D

 22 21  0  0  0  0  0  0  0  0999 V2000
   -3.1387    1.1760    2.7318 C   0  0  0  0  0  0  0  0  0  0  0  0
   -2.4000    1.4231    3.3364 H   0  0  0  0  0  0  0  0  0  0  0  0
   -2.8215    0.6410    1.9657 H   0  0  0  0  0  0  0  0  0  0  0  0
   -3.8591    0.5817    3.2938 H   0  0  0  0  0  0  0  0  0  0  0  0
   -3.7237    2.4569    2.1804 C   0  0  0  0  0  0  0  0  0  0  0  0
   -4.7153    2.9722    2.7524 O   0  0  0  0  0  1  0  0  0  0  0  0
   -3.1956    2.9424    1.1568 O   0  0  0  0  0  0  0  0  0  0  0  0
    0.0077    2.8903   -0.0244 C   0  0  0  0  0  0  0  0  0  0  0  0
   -0.8090    3.1908   -0.5026 H   0  0  0  0  0  0  0  0  0  0  0  0
    0.8243    3.1851   -0.5067 H   0  0  0  0  0  0  0  0  0  0  0  0
    0.0118    3.3658    0.9564 H   0  0  0  0  0  0  0  0  0  0  0  0
    0.0022    1.3901    0.0038 C   0  0  0  0  0  0  0  0  0  0  0  0
   -1.1910    0.6861   -0.0110 C   0  0  0  0  0  0  0  0  0  0  0  0
   -2.0580    1.1773   -0.0308 H   0  0  0  0  0  0  0  0  0  0  0  0
   -1.1952   -0.6986   -0.0000 C   0  0  0  0  0  0  0  0  0  0  0  0
   -2.0727   -1.1928    0.0031 H   0  0  0  0  0  0  0  0  0  0  0  0
   -0.0011   -1.3805    0.0085 C   0  0  0  0  0  0  0  0  0  0  0  0
    0.0044   -2.3831    0.0200 H   0  0  0  0  0  0  0  0  0  0  0  0
    1.1952   -0.6830   -0.0000 C   0  0  0  0  0  0  0  0  0  0  0  0
    2.0774   -1.1888   -0.0034 H   0  0  0  0  0  0  0  0  0  0  0  0
    1.1899    0.6861   -0.0013 C   0  0  0  0  0  0  0  0  0  0  0  0
    2.0603    1.1899   -0.0073 H   0  0  0  0  0  0  0  0  0  0  0  0
  1  5  1  0
  5  6  1  0
  5  7  2  0
  1  2  1  0
  1  3  1  0
  1  4  1  0
  8 12  1  0
 12 13  2  0
 13 15  1  0
 15 17  2  0
 17 19  1  0
 19 21  2  0
 21 12  1  0
  8  9  1  0
  8 10  1  0
  8 11  1  0
 13 14  1  0
 15 16  1  0
 17 18  1  0
 19 20  1  0
 21 22  1  0
M  CHG  1   6  -1
M  END
>  <PDB_ID>  (1487) 
pdb4fin

>  <RESIDUE_NAME>  (1487) 
GLU   PHE

>  <FRAG_NAME>  (1487) 
ACET   MBZ

>  <FRAG_ATOM_NUM>  (1487) 
fragi: 7  fragj: 15

>  <atom.prop.CHAIN_ID>  (1487) 
A A A A A A A Z Z Z Z Z Z Z Z Z Z Z Z Z Z Z

>  <atom.prop.IS_HEAVY_ATOM>  (1487) 
1 0 0 0 1 1 1 1 0 0 0 1 1 0 1 0 1 0 1 0 1 0

>  <DIFUSE_FUNC_ATOM>  (1487) 
atom 6   atom 7   

>  <FINAL_SINGLE_POINT_ENERGY>  (1487) 
0

>  <NONCOV_INTER_ENERGY_QM>  (1487) 
0

>  <FF_Energy>  (1487) 
-0.92

>  <QM_Energy>  (1487) 
-6.0

>  <source>  (1487) 
ACET_MBZ_01

>  <Index>  (1487) 
22566

$$$$
ACET-pdb4fin-B-GLU-484:MBZ-pdb4fin-B-PHE-503
     RDKit          3D

 22 21  0  0  0  0  0  0  0  0999 V2000
   -2.9805    0.9979    2.6329 C   0  0  0  0  0  0  0  0  0  0  0  0
   -2.1196    1.1672    3.0867 H   0  0  0  0  0  0  0  0  0  0  0  0
   -2.8552    0.4687    1.8082 H   0  0  0  0  0  0  0  0  0  0  0  0
   -3.6313    0.4451    3.3104 H   0  0  0  0  0  0  0  0  0  0  0  0
   -3.5420    2.3450    2.2188 C   0  0  0  0  0  0  0  0  0  0  0  0
   -4.3927    2.8945    2.9523 O   0  0  0  0  0  1  0  0  0  0  0  0
   -3.1302    2.8439    1.1461 O   0  0  0  0  0  0  0  0  0  0  0  0
   -0.0089    2.9119   -0.0151 C   0  0  0  0  0  0  0  0  0  0  0  0
   -0.8283    3.2041   -0.4912 H   0  0  0  0  0  0  0  0  0  0  0  0
    0.8051    3.2130   -0.4953 H   0  0  0  0  0  0  0  0  0  0  0  0
   -0.0089    3.3858    0.9665 H   0  0  0  0  0  0  0  0  0  0  0  0
   -0.0002    1.4035    0.0108 C   0  0  0  0  0  0  0  0  0  0  0  0
   -1.1879    0.6919   -0.0148 C   0  0  0  0  0  0  0  0  0  0  0  0
   -2.0599    1.1766   -0.0460 H   0  0  0  0  0  0  0  0  0  0  0  0
   -1.1957   -0.7067    0.0000 C   0  0  0  0  0  0  0  0  0  0  0  0
   -2.0769   -1.1914    0.0081 H   0  0  0  0  0  0  0  0  0  0  0  0
   -0.0046   -1.3959    0.0054 C   0  0  0  0  0  0  0  0  0  0  0  0
    0.0012   -2.3949    0.0120 H   0  0  0  0  0  0  0  0  0  0  0  0
    1.1957   -0.6930    0.0000 C   0  0  0  0  0  0  0  0  0  0  0  0
    2.0783   -1.1898   -0.0016 H   0  0  0  0  0  0  0  0  0  0  0  0
    1.1928    0.7001   -0.0014 C   0  0  0  0  0  0  0  0  0  0  0  0
    2.0622    1.1936   -0.0115 H   0  0  0  0  0  0  0  0  0  0  0  0
  1  5  1  0
  5  6  1  0
  5  7  2  0
  1  2  1  0
  1  3  1  0
  1  4  1  0
  8 12  1  0
 12 13  2  0
 13 15  1  0
 15 17  2  0
 17 19  1  0
 19 21  2  0
 21 12  1  0
  8  9  1  0
  8 10  1  0
  8 11  1  0
 13 14  1  0
 15 16  1  0
 17 18  1  0
 19 20  1  0
 21 22  1  0
M  CHG  1   6  -1
M  END
>  <PDB_ID>  (1488) 
pdb4fin

>  <RESIDUE_NAME>  (1488) 
GLU   PHE

>  <FRAG_NAME>  (1488) 
ACET   MBZ

>  <FRAG_ATOM_NUM>  (1488) 
fragi: 7  fragj: 15

>  <atom.prop.CHAIN_ID>  (1488) 
A A A A A A A Z Z Z Z Z Z Z Z Z Z Z Z Z Z Z

>  <atom.prop.IS_HEAVY_ATOM>  (1488) 
1 0 0 0 1 1 1 1 0 0 0 1 1 0 1 0 1 0 1 0 1 0

>  <DIFUSE_FUNC_ATOM>  (1488) 
atom 6   atom 7   

>  <FINAL_SINGLE_POINT_ENERGY>  (1488) 
0

>  <NONCOV_INTER_ENERGY_QM>  (1488) 
0

>  <FF_Energy>  (1488) 
0.87

>  <QM_Energy>  (1488) 
-5.31

>  <source>  (1488) 
ACET_MBZ_01

>  <Index>  (1488) 
22571

$$$$
ACET-pdb4fk1-A-ASP-137:MBZ-pdb4fk1-A-PHE-131
     RDKit          3D

 22 21  0  0  0  0  0  0  0  0999 V2000
   -0.6885    1.3709    3.5168 C   0  0  0  0  0  0  0  0  0  0  0  0
   -0.0602    2.0153    3.0989 H   0  0  0  0  0  0  0  0  0  0  0  0
   -0.4956    0.4461    3.2153 H   0  0  0  0  0  0  0  0  0  0  0  0
   -0.5490    1.4129    4.5970 H   0  0  0  0  0  0  0  0  0  0  0  0
   -2.1097    1.7345    3.0924 C   0  0  0  0  0  0  0  0  0  0  0  0
   -2.3159    2.8564    2.5678 O   0  0  0  0  0  1  0  0  0  0  0  0
   -3.0184    0.8990    3.2869 O   0  0  0  0  0  0  0  0  0  0  0  0
    0.0072    2.8872   -0.0281 C   0  0  0  0  0  0  0  0  0  0  0  0
    0.7700    3.2054    0.5104 H   0  0  0  0  0  0  0  0  0  0  0  0
   -0.8532    3.2096    0.3298 H   0  0  0  0  0  0  0  0  0  0  0  0
    0.1198    3.2928   -1.0336 H   0  0  0  0  0  0  0  0  0  0  0  0
   -0.0002    1.3930    0.0031 C   0  0  0  0  0  0  0  0  0  0  0  0
   -1.1985    0.6939   -0.0065 C   0  0  0  0  0  0  0  0  0  0  0  0
   -2.0619    1.1884   -0.0195 H   0  0  0  0  0  0  0  0  0  0  0  0
   -1.2040   -0.6891   -0.0000 C   0  0  0  0  0  0  0  0  0  0  0  0
   -2.0795   -1.1861    0.0003 H   0  0  0  0  0  0  0  0  0  0  0  0
   -0.0020   -1.3839    0.0075 C   0  0  0  0  0  0  0  0  0  0  0  0
   -0.0078   -2.3848    0.0175 H   0  0  0  0  0  0  0  0  0  0  0  0
    1.2040   -0.6941   -0.0000 C   0  0  0  0  0  0  0  0  0  0  0  0
    2.0802   -1.2020   -0.0007 H   0  0  0  0  0  0  0  0  0  0  0  0
    1.2006    0.6801   -0.0040 C   0  0  0  0  0  0  0  0  0  0  0  0
    2.0654    1.1858   -0.0134 H   0  0  0  0  0  0  0  0  0  0  0  0
  1  5  1  0
  5  6  1  0
  5  7  2  0
  1  2  1  0
  1  3  1  0
  1  4  1  0
  8 12  1  0
 12 13  2  0
 13 15  1  0
 15 17  2  0
 17 19  1  0
 19 21  2  0
 21 12  1  0
  8  9  1  0
  8 10  1  0
  8 11  1  0
 13 14  1  0
 15 16  1  0
 17 18  1  0
 19 20  1  0
 21 22  1  0
M  CHG  1   6  -1
M  END
>  <PDB_ID>  (1489) 
pdb4fk1

>  <RESIDUE_NAME>  (1489) 
ASP   PHE

>  <FRAG_NAME>  (1489) 
ACET   MBZ

>  <FRAG_ATOM_NUM>  (1489) 
fragi: 7  fragj: 15

>  <atom.prop.CHAIN_ID>  (1489) 
A A A A A A A Z Z Z Z Z Z Z Z Z Z Z Z Z Z Z

>  <atom.prop.IS_HEAVY_ATOM>  (1489) 
1 0 0 0 1 1 1 1 0 0 0 1 1 0 1 0 1 0 1 0 1 0

>  <DIFUSE_FUNC_ATOM>  (1489) 
atom 6   atom 7   

>  <FINAL_SINGLE_POINT_ENERGY>  (1489) 
0

>  <NONCOV_INTER_ENERGY_QM>  (1489) 
0

>  <FF_Energy>  (1489) 
-1.35

>  <QM_Energy>  (1489) 
-6.43

>  <source>  (1489) 
ACET_MBZ_01

>  <Index>  (1489) 
22642

$$$$
ACET-pdb4fm4-J-GLU-171:MBZ-pdb4fm4-J-PHE-198
     RDKit          3D

 22 21  0  0  0  0  0  0  0  0999 V2000
   -4.6096    2.4018    0.1838 C   0  0  0  0  0  0  0  0  0  0  0  0
   -4.3860    1.5546    0.6326 H   0  0  0  0  0  0  0  0  0  0  0  0
   -4.1827    2.4758   -0.7003 H   0  0  0  0  0  0  0  0  0  0  0  0
   -5.6900    2.4357    0.0433 H   0  0  0  0  0  0  0  0  0  0  0  0
   -4.0886    3.5312    1.0432 C   0  0  0  0  0  0  0  0  0  0  0  0
   -4.8552    4.0083    1.9031 O   0  0  0  0  0  1  0  0  0  0  0  0
   -2.9195    3.9484    0.8649 O   0  0  0  0  0  0  0  0  0  0  0  0
    0.0068    2.8898   -0.0288 C   0  0  0  0  0  0  0  0  0  0  0  0
    0.8181    3.2132    0.4291 H   0  0  0  0  0  0  0  0  0  0  0  0
   -0.8145    3.2188    0.4053 H   0  0  0  0  0  0  0  0  0  0  0  0
    0.0228    3.2894   -1.0428 H   0  0  0  0  0  0  0  0  0  0  0  0
    0.0006    1.4004    0.0103 C   0  0  0  0  0  0  0  0  0  0  0  0
   -1.1941    0.7022   -0.0067 C   0  0  0  0  0  0  0  0  0  0  0  0
   -2.0609    1.1905   -0.0257 H   0  0  0  0  0  0  0  0  0  0  0  0
   -1.2042   -0.6953   -0.0000 C   0  0  0  0  0  0  0  0  0  0  0  0
   -2.0798   -1.1853    0.0022 H   0  0  0  0  0  0  0  0  0  0  0  0
    0.0013   -1.3996    0.0055 C   0  0  0  0  0  0  0  0  0  0  0  0
   -0.0051   -2.3945    0.0132 H   0  0  0  0  0  0  0  0  0  0  0  0
    1.2042   -0.6990    0.0000 C   0  0  0  0  0  0  0  0  0  0  0  0
    2.0848   -1.1942    0.0044 H   0  0  0  0  0  0  0  0  0  0  0  0
    1.1921    0.6914   -0.0090 C   0  0  0  0  0  0  0  0  0  0  0  0
    2.0632    1.1895   -0.0308 H   0  0  0  0  0  0  0  0  0  0  0  0
  1  5  1  0
  5  6  1  0
  5  7  2  0
  1  2  1  0
  1  3  1  0
  1  4  1  0
  8 12  1  0
 12 13  2  0
 13 15  1  0
 15 17  2  0
 17 19  1  0
 19 21  2  0
 21 12  1  0
  8  9  1  0
  8 10  1  0
  8 11  1  0
 13 14  1  0
 15 16  1  0
 17 18  1  0
 19 20  1  0
 21 22  1  0
M  CHG  1   6  -1
M  END
>  <PDB_ID>  (1490) 
pdb4fm4

>  <RESIDUE_NAME>  (1490) 
GLU   PHE

>  <FRAG_NAME>  (1490) 
ACET   MBZ

>  <FRAG_ATOM_NUM>  (1490) 
fragi: 7  fragj: 15

>  <atom.prop.CHAIN_ID>  (1490) 
A A A A A A A Z Z Z Z Z Z Z Z Z Z Z Z Z Z Z

>  <atom.prop.IS_HEAVY_ATOM>  (1490) 
1 0 0 0 1 1 1 1 0 0 0 1 1 0 1 0 1 0 1 0 1 0

>  <DIFUSE_FUNC_ATOM>  (1490) 
atom 6   atom 7   

>  <FINAL_SINGLE_POINT_ENERGY>  (1490) 
0

>  <NONCOV_INTER_ENERGY_QM>  (1490) 
0

>  <FF_Energy>  (1490) 
-1.12

>  <QM_Energy>  (1490) 
-7.09

>  <source>  (1490) 
ACET_MBZ_01

>  <Index>  (1490) 
22719

$$$$
ACET-pdb4fm4-N-GLU-90:MBZ-pdb4fm4-N-PHE-86
     RDKit          3D

 22 21  0  0  0  0  0  0  0  0999 V2000
   -2.9616    5.9747   -2.6496 C   0  0  0  0  0  0  0  0  0  0  0  0
   -2.7063    6.4396   -3.4791 H   0  0  0  0  0  0  0  0  0  0  0  0
   -3.8452    6.2612   -2.3244 H   0  0  0  0  0  0  0  0  0  0  0  0
   -2.9902    4.9028   -2.8446 H   0  0  0  0  0  0  0  0  0  0  0  0
   -1.9461    6.3526   -1.5890 C   0  0  0  0  0  0  0  0  0  0  0  0
   -1.2784    5.4357   -1.0468 O   0  0  0  0  0  1  0  0  0  0  0  0
   -1.8286    7.5726   -1.3043 O   0  0  0  0  0  0  0  0  0  0  0  0
    0.0080    2.9263   -0.0243 C   0  0  0  0  0  0  0  0  0  0  0  0
   -0.6922    3.2231   -0.6565 H   0  0  0  0  0  0  0  0  0  0  0  0
    0.9062    3.2179   -0.3197 H   0  0  0  0  0  0  0  0  0  0  0  0
   -0.1936    3.3942    0.9393 H   0  0  0  0  0  0  0  0  0  0  0  0
   -0.0018    1.4121    0.0023 C   0  0  0  0  0  0  0  0  0  0  0  0
   -1.2003    0.7091   -0.0011 C   0  0  0  0  0  0  0  0  0  0  0  0
   -2.0665    1.1927   -0.0051 H   0  0  0  0  0  0  0  0  0  0  0  0
   -1.2050   -0.6959   -0.0000 C   0  0  0  0  0  0  0  0  0  0  0  0
   -2.0809   -1.1857   -0.0055 H   0  0  0  0  0  0  0  0  0  0  0  0
    0.0049   -1.4069    0.0104 C   0  0  0  0  0  0  0  0  0  0  0  0
   -0.0068   -2.3993    0.0243 H   0  0  0  0  0  0  0  0  0  0  0  0
    1.2050   -0.7070    0.0000 C   0  0  0  0  0  0  0  0  0  0  0  0
    2.0872   -1.2011    0.0023 H   0  0  0  0  0  0  0  0  0  0  0  0
    1.1972    0.6885   -0.0116 C   0  0  0  0  0  0  0  0  0  0  0  0
    2.0672    1.1846   -0.0310 H   0  0  0  0  0  0  0  0  0  0  0  0
  1  5  1  0
  5  6  1  0
  5  7  2  0
  1  2  1  0
  1  3  1  0
  1  4  1  0
  8 12  1  0
 12 13  2  0
 13 15  1  0
 15 17  2  0
 17 19  1  0
 19 21  2  0
 21 12  1  0
  8  9  1  0
  8 10  1  0
  8 11  1  0
 13 14  1  0
 15 16  1  0
 17 18  1  0
 19 20  1  0
 21 22  1  0
M  CHG  1   6  -1
M  END
>  <PDB_ID>  (1491) 
pdb4fm4

>  <RESIDUE_NAME>  (1491) 
GLU   PHE

>  <FRAG_NAME>  (1491) 
ACET   MBZ

>  <FRAG_ATOM_NUM>  (1491) 
fragi: 7  fragj: 15

>  <atom.prop.CHAIN_ID>  (1491) 
A A A A A A A Z Z Z Z Z Z Z Z Z Z Z Z Z Z Z

>  <atom.prop.IS_HEAVY_ATOM>  (1491) 
1 0 0 0 1 1 1 1 0 0 0 1 1 0 1 0 1 0 1 0 1 0

>  <DIFUSE_FUNC_ATOM>  (1491) 
atom 6   atom 7   

>  <FINAL_SINGLE_POINT_ENERGY>  (1491) 
0

>  <NONCOV_INTER_ENERGY_QM>  (1491) 
0

>  <FF_Energy>  (1491) 
0.0

>  <QM_Energy>  (1491) 
-5.02

>  <source>  (1491) 
ACET_MBZ_01

>  <Index>  (1491) 
22725

$$$$
ACET-pdb4fm4-P-GLU-171:MBZ-pdb4fm4-P-PHE-198
     RDKit          3D

 22 21  0  0  0  0  0  0  0  0999 V2000
   -4.6866    2.1180    0.2119 C   0  0  0  0  0  0  0  0  0  0  0  0
   -4.4263    1.2908    0.6779 H   0  0  0  0  0  0  0  0  0  0  0  0
   -4.2358    2.2103   -0.6585 H   0  0  0  0  0  0  0  0  0  0  0  0
   -5.7629    2.0915    0.0415 H   0  0  0  0  0  0  0  0  0  0  0  0
   -4.2595    3.2831    1.0735 C   0  0  0  0  0  0  0  0  0  0  0  0
   -5.0964    3.7700    1.8623 O   0  0  0  0  0  1  0  0  0  0  0  0
   -3.0890    3.7209    0.9629 O   0  0  0  0  0  0  0  0  0  0  0  0
   -0.0005    2.8851   -0.0277 C   0  0  0  0  0  0  0  0  0  0  0  0
    0.8322    3.2112    0.3886 H   0  0  0  0  0  0  0  0  0  0  0  0
   -0.7992    3.2114    0.4505 H   0  0  0  0  0  0  0  0  0  0  0  0
   -0.0388    3.2865   -1.0404 H   0  0  0  0  0  0  0  0  0  0  0  0
    0.0006    1.4008    0.0072 C   0  0  0  0  0  0  0  0  0  0  0  0
   -1.2003    0.6948   -0.0068 C   0  0  0  0  0  0  0  0  0  0  0  0
   -2.0644    1.1873   -0.0233 H   0  0  0  0  0  0  0  0  0  0  0  0
   -1.2101   -0.6987    0.0000 C   0  0  0  0  0  0  0  0  0  0  0  0
   -2.0812   -1.1939    0.0008 H   0  0  0  0  0  0  0  0  0  0  0  0
    0.0045   -1.4031    0.0081 C   0  0  0  0  0  0  0  0  0  0  0  0
    0.0013   -2.3942    0.0188 H   0  0  0  0  0  0  0  0  0  0  0  0
    1.2101   -0.6933    0.0000 C   0  0  0  0  0  0  0  0  0  0  0  0
    2.0904   -1.1866    0.0020 H   0  0  0  0  0  0  0  0  0  0  0  0
    1.1951    0.6996   -0.0085 C   0  0  0  0  0  0  0  0  0  0  0  0
    2.0638    1.1990   -0.0270 H   0  0  0  0  0  0  0  0  0  0  0  0
  1  5  1  0
  5  6  1  0
  5  7  2  0
  1  2  1  0
  1  3  1  0
  1  4  1  0
  8 12  1  0
 12 13  2  0
 13 15  1  0
 15 17  2  0
 17 19  1  0
 19 21  2  0
 21 12  1  0
  8  9  1  0
  8 10  1  0
  8 11  1  0
 13 14  1  0
 15 16  1  0
 17 18  1  0
 19 20  1  0
 21 22  1  0
M  CHG  1   6  -1
M  END
>  <PDB_ID>  (1492) 
pdb4fm4

>  <RESIDUE_NAME>  (1492) 
GLU   PHE

>  <FRAG_NAME>  (1492) 
ACET   MBZ

>  <FRAG_ATOM_NUM>  (1492) 
fragi: 7  fragj: 15

>  <atom.prop.CHAIN_ID>  (1492) 
A A A A A A A Z Z Z Z Z Z Z Z Z Z Z Z Z Z Z

>  <atom.prop.IS_HEAVY_ATOM>  (1492) 
1 0 0 0 1 1 1 1 0 0 0 1 1 0 1 0 1 0 1 0 1 0

>  <DIFUSE_FUNC_ATOM>  (1492) 
atom 6   atom 7   

>  <FINAL_SINGLE_POINT_ENERGY>  (1492) 
0

>  <NONCOV_INTER_ENERGY_QM>  (1492) 
0

>  <FF_Energy>  (1492) 
-1.75

>  <QM_Energy>  (1492) 
-7.24

>  <source>  (1492) 
ACET_MBZ_01

>  <Index>  (1492) 
22730

$$$$
ACET-pdb4fmv-A-GLU-249:MBZ-pdb4fmv-A-PHE-206
     RDKit          3D

 22 21  0  0  0  0  0  0  0  0999 V2000
    4.7203    1.5510    1.0199 C   0  0  0  0  0  0  0  0  0  0  0  0
    4.6690    1.1337    0.1385 H   0  0  0  0  0  0  0  0  0  0  0  0
    4.3243    1.0092    1.7290 H   0  0  0  0  0  0  0  0  0  0  0  0
    5.7716    1.7110    1.2591 H   0  0  0  0  0  0  0  0  0  0  0  0
    3.9781    2.8576    0.9619 C   0  0  0  0  0  0  0  0  0  0  0  0
    3.7416    3.4661    2.0231 O   0  0  0  0  0  1  0  0  0  0  0  0
    3.6518    3.2852   -0.1439 O   0  0  0  0  0  0  0  0  0  0  0  0
    0.0179    2.9310    0.0060 C   0  0  0  0  0  0  0  0  0  0  0  0
    0.4441    3.2322   -0.8343 H   0  0  0  0  0  0  0  0  0  0  0  0
    0.5366    3.2219    0.7959 H   0  0  0  0  0  0  0  0  0  0  0  0
   -0.9693    3.3894    0.0654 H   0  0  0  0  0  0  0  0  0  0  0  0
    0.0004    1.4161   -0.0028 C   0  0  0  0  0  0  0  0  0  0  0  0
   -1.2040    0.7023    0.0030 C   0  0  0  0  0  0  0  0  0  0  0  0
   -2.0690    1.1906    0.0085 H   0  0  0  0  0  0  0  0  0  0  0  0
   -1.2136   -0.7033    0.0000 C   0  0  0  0  0  0  0  0  0  0  0  0
   -2.0877   -1.1919   -0.0001 H   0  0  0  0  0  0  0  0  0  0  0  0
   -0.0020   -1.4094   -0.0014 C   0  0  0  0  0  0  0  0  0  0  0  0
   -0.0078   -2.4037   -0.0040 H   0  0  0  0  0  0  0  0  0  0  0  0
    1.2136   -0.7092   -0.0000 C   0  0  0  0  0  0  0  0  0  0  0  0
    2.0894   -1.2000    0.0018 H   0  0  0  0  0  0  0  0  0  0  0  0
    1.2056    0.7035    0.0012 C   0  0  0  0  0  0  0  0  0  0  0  0
    2.0719    1.1940    0.0046 H   0  0  0  0  0  0  0  0  0  0  0  0
  1  5  1  0
  5  6  1  0
  5  7  2  0
  1  2  1  0
  1  3  1  0
  1  4  1  0
  8 12  1  0
 12 13  2  0
 13 15  1  0
 15 17  2  0
 17 19  1  0
 19 21  2  0
 21 12  1  0
  8  9  1  0
  8 10  1  0
  8 11  1  0
 13 14  1  0
 15 16  1  0
 17 18  1  0
 19 20  1  0
 21 22  1  0
M  CHG  1   6  -1
M  END
>  <PDB_ID>  (1493) 
pdb4fmv

>  <RESIDUE_NAME>  (1493) 
GLU   PHE

>  <FRAG_NAME>  (1493) 
ACET   MBZ

>  <FRAG_ATOM_NUM>  (1493) 
fragi: 7  fragj: 15

>  <atom.prop.CHAIN_ID>  (1493) 
A A A A A A A Z Z Z Z Z Z Z Z Z Z Z Z Z Z Z

>  <atom.prop.IS_HEAVY_ATOM>  (1493) 
1 0 0 0 1 1 1 1 0 0 0 1 1 0 1 0 1 0 1 0 1 0

>  <DIFUSE_FUNC_ATOM>  (1493) 
atom 6   atom 7   

>  <FINAL_SINGLE_POINT_ENERGY>  (1493) 
0

>  <NONCOV_INTER_ENERGY_QM>  (1493) 
0

>  <FF_Energy>  (1493) 
-2.1

>  <QM_Energy>  (1493) 
-7.37

>  <source>  (1493) 
ACET_MBZ_01

>  <Index>  (1493) 
22822

$$$$
ACET-pdb3ikk-A-GLU-82:MBZ-pdb3ikk-A-PHE-123
     RDKit          3D

 22 21  0  0  0  0  0  0  0  0999 V2000
    6.4174    1.4483   -0.7662 C   0  0  0  0  0  0  0  0  0  0  0  0
    7.0354    1.8403   -0.1086 H   0  0  0  0  0  0  0  0  0  0  0  0
    5.8720    2.1336   -1.2153 H   0  0  0  0  0  0  0  0  0  0  0  0
    7.0077    0.9310   -1.5224 H   0  0  0  0  0  0  0  0  0  0  0  0
    5.4598    0.5315   -0.0030 C   0  0  0  0  0  0  0  0  0  0  0  0
    4.2233    0.6587   -0.1839 O   0  0  0  0  0  1  0  0  0  0  0  0
    5.9453   -0.2976    0.7963 O   0  0  0  0  0  0  0  0  0  0  0  0
   -0.0124    2.8882   -0.0011 C   0  0  0  0  0  0  0  0  0  0  0  0
    0.7535    3.2047   -0.5382 H   0  0  0  0  0  0  0  0  0  0  0  0
    0.0491    3.1992    0.9347 H   0  0  0  0  0  0  0  0  0  0  0  0
   -0.9192    3.3120   -0.4327 H   0  0  0  0  0  0  0  0  0  0  0  0
    0.0036    1.3923    0.0001 C   0  0  0  0  0  0  0  0  0  0  0  0
   -1.1902    0.6746   -0.0088 C   0  0  0  0  0  0  0  0  0  0  0  0
   -2.0590    1.1750   -0.0226 H   0  0  0  0  0  0  0  0  0  0  0  0
   -1.2007   -0.6993   -0.0000 C   0  0  0  0  0  0  0  0  0  0  0  0
   -2.0812   -1.1928    0.0020 H   0  0  0  0  0  0  0  0  0  0  0  0
   -0.0140   -1.3842    0.0075 C   0  0  0  0  0  0  0  0  0  0  0  0
   -0.0023   -2.3852    0.0181 H   0  0  0  0  0  0  0  0  0  0  0  0
    1.2007   -0.6834    0.0000 C   0  0  0  0  0  0  0  0  0  0  0  0
    2.0746   -1.1920   -0.0047 H   0  0  0  0  0  0  0  0  0  0  0  0
    1.2005    0.7000    0.0012 C   0  0  0  0  0  0  0  0  0  0  0  0
    2.0648    1.1974    0.0019 H   0  0  0  0  0  0  0  0  0  0  0  0
  1  5  1  0
  5  6  1  0
  5  7  2  0
  1  2  1  0
  1  3  1  0
  1  4  1  0
  8 12  1  0
 12 13  2  0
 13 15  1  0
 15 17  2  0
 17 19  1  0
 19 21  2  0
 21 12  1  0
  8  9  1  0
  8 10  1  0
  8 11  1  0
 13 14  1  0
 15 16  1  0
 17 18  1  0
 19 20  1  0
 21 22  1  0
M  CHG  1   6  -1
M  END
>  <PDB_ID>  (1494) 
pdb3ikk

>  <RESIDUE_NAME>  (1494) 
GLU   PHE

>  <FRAG_NAME>  (1494) 
ACET   MBZ

>  <FRAG_ATOM_NUM>  (1494) 
fragi: 7  fragj: 15

>  <atom.prop.CHAIN_ID>  (1494) 
A A A A A A A Z Z Z Z Z Z Z Z Z Z Z Z Z Z Z

>  <atom.prop.IS_HEAVY_ATOM>  (1494) 
1 0 0 0 1 1 1 1 0 0 0 1 1 0 1 0 1 0 1 0 1 0

>  <DIFUSE_FUNC_ATOM>  (1494) 
atom 6   atom 7   

>  <FINAL_SINGLE_POINT_ENERGY>  (1494) 
0

>  <NONCOV_INTER_ENERGY_QM>  (1494) 
0

>  <FF_Energy>  (1494) 
-0.82

>  <QM_Energy>  (1494) 
-7.09

>  <source>  (1494) 
ACET_MBZ_01

>  <Index>  (1494) 
22832

$$$$
ACET-pdb3il6-A-ASP-230:MBZ-pdb3il6-A-PHE-226
     RDKit          3D

 22 21  0  0  0  0  0  0  0  0999 V2000
    4.1569    0.0114   -2.3708 C   0  0  0  0  0  0  0  0  0  0  0  0
    3.1778    0.0999   -2.2424 H   0  0  0  0  0  0  0  0  0  0  0  0
    4.4533   -0.9164   -2.1842 H   0  0  0  0  0  0  0  0  0  0  0  0
    4.3803    0.2329   -3.4145 H   0  0  0  0  0  0  0  0  0  0  0  0
    4.8629    0.9523   -1.4302 C   0  0  0  0  0  0  0  0  0  0  0  0
    6.0650    1.2049   -1.6475 O   0  0  0  0  0  1  0  0  0  0  0  0
    4.2252    1.4425   -0.4789 O   0  0  0  0  0  0  0  0  0  0  0  0
   -0.0133    2.9205    0.0009 C   0  0  0  0  0  0  0  0  0  0  0  0
    0.5204    3.2292    0.7744 H   0  0  0  0  0  0  0  0  0  0  0  0
   -0.9546    3.2186    0.0735 H   0  0  0  0  0  0  0  0  0  0  0  0
    0.4091    3.3759   -0.8948 H   0  0  0  0  0  0  0  0  0  0  0  0
   -0.0015    1.4102    0.0002 C   0  0  0  0  0  0  0  0  0  0  0  0
   -1.2014    0.6937   -0.0004 C   0  0  0  0  0  0  0  0  0  0  0  0
   -2.0685    1.1812   -0.0023 H   0  0  0  0  0  0  0  0  0  0  0  0
   -1.2046   -0.7044   -0.0000 C   0  0  0  0  0  0  0  0  0  0  0  0
   -2.0790   -1.1976    0.0026 H   0  0  0  0  0  0  0  0  0  0  0  0
    0.0023   -1.4000   -0.0009 C   0  0  0  0  0  0  0  0  0  0  0  0
    0.0003   -2.3975   -0.0031 H   0  0  0  0  0  0  0  0  0  0  0  0
    1.2046   -0.6991    0.0000 C   0  0  0  0  0  0  0  0  0  0  0  0
    2.0871   -1.1933    0.0013 H   0  0  0  0  0  0  0  0  0  0  0  0
    1.2006    0.6997    0.0011 C   0  0  0  0  0  0  0  0  0  0  0  0
    2.0667    1.1940    0.0021 H   0  0  0  0  0  0  0  0  0  0  0  0
  1  5  1  0
  5  6  1  0
  5  7  2  0
  1  2  1  0
  1  3  1  0
  1  4  1  0
  8 12  1  0
 12 13  2  0
 13 15  1  0
 15 17  2  0
 17 19  1  0
 19 21  2  0
 21 12  1  0
  8  9  1  0
  8 10  1  0
  8 11  1  0
 13 14  1  0
 15 16  1  0
 17 18  1  0
 19 20  1  0
 21 22  1  0
M  CHG  1   6  -1
M  END
>  <PDB_ID>  (1495) 
pdb3il6

>  <RESIDUE_NAME>  (1495) 
ASP   PHE

>  <FRAG_NAME>  (1495) 
ACET   MBZ

>  <FRAG_ATOM_NUM>  (1495) 
fragi: 7  fragj: 15

>  <atom.prop.CHAIN_ID>  (1495) 
A A A A A A A Z Z Z Z Z Z Z Z Z Z Z Z Z Z Z

>  <atom.prop.IS_HEAVY_ATOM>  (1495) 
1 0 0 0 1 1 1 1 0 0 0 1 1 0 1 0 1 0 1 0 1 0

>  <DIFUSE_FUNC_ATOM>  (1495) 
atom 6   atom 7   

>  <FINAL_SINGLE_POINT_ENERGY>  (1495) 
0

>  <NONCOV_INTER_ENERGY_QM>  (1495) 
0

>  <FF_Energy>  (1495) 
-1.36

>  <QM_Energy>  (1495) 
-6.67

>  <source>  (1495) 
ACET_MBZ_01

>  <Index>  (1495) 
22837

$$$$
ACET-pdb4fop-A-ASP-43:MBZ-pdb4fop-A-PHE-46
     RDKit          3D

 22 21  0  0  0  0  0  0  0  0999 V2000
    4.8476    4.2563   -0.6595 C   0  0  0  0  0  0  0  0  0  0  0  0
    5.7285    4.3537   -0.1999 H   0  0  0  0  0  0  0  0  0  0  0  0
    4.1948    4.9078   -0.2788 H   0  0  0  0  0  0  0  0  0  0  0  0
    5.0006    4.5297   -1.7035 H   0  0  0  0  0  0  0  0  0  0  0  0
    4.3384    2.8719   -0.4802 C   0  0  0  0  0  0  0  0  0  0  0  0
    4.1192    2.1597   -1.4889 O   0  0  0  0  0  1  0  0  0  0  0  0
    4.1416    2.4682    0.7051 O   0  0  0  0  0  0  0  0  0  0  0  0
   -0.0283    2.8606   -0.0542 C   0  0  0  0  0  0  0  0  0  0  0  0
    0.8861    3.2138    0.0495 H   0  0  0  0  0  0  0  0  0  0  0  0
   -0.6345    3.2047    0.6428 H   0  0  0  0  0  0  0  0  0  0  0  0
   -0.4004    3.2515   -1.0012 H   0  0  0  0  0  0  0  0  0  0  0  0
   -0.0035    1.4005   -0.0136 C   0  0  0  0  0  0  0  0  0  0  0  0
   -1.1949    0.6708   -0.0109 C   0  0  0  0  0  0  0  0  0  0  0  0
   -2.0667    1.1560   -0.0176 H   0  0  0  0  0  0  0  0  0  0  0  0
   -1.1868   -0.7158    0.0000 C   0  0  0  0  0  0  0  0  0  0  0  0
   -2.0684   -1.2115   -0.0167 H   0  0  0  0  0  0  0  0  0  0  0  0
   -0.0026   -1.3883    0.0344 C   0  0  0  0  0  0  0  0  0  0  0  0
    0.0188   -2.3868    0.0838 H   0  0  0  0  0  0  0  0  0  0  0  0
    1.1868   -0.6731   -0.0000 C   0  0  0  0  0  0  0  0  0  0  0  0
    2.0780   -1.1814   -0.0165 H   0  0  0  0  0  0  0  0  0  0  0  0
    1.2010    0.7058   -0.0099 C   0  0  0  0  0  0  0  0  0  0  0  0
    2.0600    1.2020   -0.0151 H   0  0  0  0  0  0  0  0  0  0  0  0
  1  5  1  0
  5  6  1  0
  5  7  2  0
  1  2  1  0
  1  3  1  0
  1  4  1  0
  8 12  1  0
 12 13  2  0
 13 15  1  0
 15 17  2  0
 17 19  1  0
 19 21  2  0
 21 12  1  0
  8  9  1  0
  8 10  1  0
  8 11  1  0
 13 14  1  0
 15 16  1  0
 17 18  1  0
 19 20  1  0
 21 22  1  0
M  CHG  1   6  -1
M  END
>  <PDB_ID>  (1496) 
pdb4fop

>  <RESIDUE_NAME>  (1496) 
ASP   PHE

>  <FRAG_NAME>  (1496) 
ACET   MBZ

>  <FRAG_ATOM_NUM>  (1496) 
fragi: 7  fragj: 15

>  <atom.prop.CHAIN_ID>  (1496) 
A A A A A A A Z Z Z Z Z Z Z Z Z Z Z Z Z Z Z

>  <atom.prop.IS_HEAVY_ATOM>  (1496) 
1 0 0 0 1 1 1 1 0 0 0 1 1 0 1 0 1 0 1 0 1 0

>  <DIFUSE_FUNC_ATOM>  (1496) 
atom 6   atom 7   

>  <FINAL_SINGLE_POINT_ENERGY>  (1496) 
0

>  <NONCOV_INTER_ENERGY_QM>  (1496) 
0

>  <FF_Energy>  (1496) 
-2.58

>  <QM_Energy>  (1496) 
-7.94

>  <source>  (1496) 
ACET_MBZ_01

>  <Index>  (1496) 
22912

$$$$
ACET-pdb3iml-C-GLU-368:MBZ-pdb3iml-C-PHE-371
     RDKit          3D

 22 21  0  0  0  0  0  0  0  0999 V2000
    1.7659    0.1324   -3.0783 C   0  0  0  0  0  0  0  0  0  0  0  0
    2.6738    0.5498   -3.0493 H   0  0  0  0  0  0  0  0  0  0  0  0
    1.2520    0.3966   -2.2623 H   0  0  0  0  0  0  0  0  0  0  0  0
    1.2437    0.5369   -3.9454 H   0  0  0  0  0  0  0  0  0  0  0  0
    1.9452   -1.3536   -3.0441 C   0  0  0  0  0  0  0  0  0  0  0  0
    1.5453   -2.1108   -3.9166 O   0  0  0  0  0  1  0  0  0  0  0  0
    2.5399   -1.7367   -2.0146 O   0  0  0  0  0  0  0  0  0  0  0  0
    0.0225    2.9142    0.0117 C   0  0  0  0  0  0  0  0  0  0  0  0
    0.5953    3.2169   -0.7350 H   0  0  0  0  0  0  0  0  0  0  0  0
    0.3857    3.2015    0.8846 H   0  0  0  0  0  0  0  0  0  0  0  0
   -0.9570    3.3765   -0.1102 H   0  0  0  0  0  0  0  0  0  0  0  0
   -0.0001    1.3994   -0.0057 C   0  0  0  0  0  0  0  0  0  0  0  0
   -1.1920    0.6804    0.0061 C   0  0  0  0  0  0  0  0  0  0  0  0
   -2.0622    1.1628    0.0181 H   0  0  0  0  0  0  0  0  0  0  0  0
   -1.1823   -0.7092   -0.0000 C   0  0  0  0  0  0  0  0  0  0  0  0
   -2.0570   -1.2083    0.0014 H   0  0  0  0  0  0  0  0  0  0  0  0
    0.0156   -1.3816   -0.0066 C   0  0  0  0  0  0  0  0  0  0  0  0
    0.0193   -2.3871   -0.0165 H   0  0  0  0  0  0  0  0  0  0  0  0
    1.1823   -0.6824   -0.0000 C   0  0  0  0  0  0  0  0  0  0  0  0
    2.0811   -1.1738    0.0024 H   0  0  0  0  0  0  0  0  0  0  0  0
    1.1765    0.6934    0.0061 C   0  0  0  0  0  0  0  0  0  0  0  0
    2.0538    1.1904    0.0192 H   0  0  0  0  0  0  0  0  0  0  0  0
  1  5  1  0
  5  6  1  0
  5  7  2  0
  1  2  1  0
  1  3  1  0
  1  4  1  0
  8 12  1  0
 12 13  2  0
 13 15  1  0
 15 17  2  0
 17 19  1  0
 19 21  2  0
 21 12  1  0
  8  9  1  0
  8 10  1  0
  8 11  1  0
 13 14  1  0
 15 16  1  0
 17 18  1  0
 19 20  1  0
 21 22  1  0
M  CHG  1   6  -1
M  END
>  <PDB_ID>  (1497) 
pdb3iml

>  <RESIDUE_NAME>  (1497) 
GLU   PHE

>  <FRAG_NAME>  (1497) 
ACET   MBZ

>  <FRAG_ATOM_NUM>  (1497) 
fragi: 7  fragj: 15

>  <atom.prop.CHAIN_ID>  (1497) 
A A A A A A A Z Z Z Z Z Z Z Z Z Z Z Z Z Z Z

>  <atom.prop.IS_HEAVY_ATOM>  (1497) 
1 0 0 0 1 1 1 1 0 0 0 1 1 0 1 0 1 0 1 0 1 0

>  <DIFUSE_FUNC_ATOM>  (1497) 
atom 6   atom 7   

>  <FINAL_SINGLE_POINT_ENERGY>  (1497) 
0

>  <NONCOV_INTER_ENERGY_QM>  (1497) 
0

>  <FF_Energy>  (1497) 
10.59

>  <QM_Energy>  (1497) 
0.04

>  <source>  (1497) 
ACET_MBZ_01

>  <Index>  (1497) 
22952

$$$$
ACET-pdb3iq0-A-ASP-146:MBZ-pdb3iq0-A-PHE-142
     RDKit          3D

 22 21  0  0  0  0  0  0  0  0999 V2000
   -0.2692   -1.1163    4.8120 C   0  0  0  0  0  0  0  0  0  0  0  0
    0.3942   -0.3760    4.7965 H   0  0  0  0  0  0  0  0  0  0  0  0
    0.1154   -1.9167    5.2586 H   0  0  0  0  0  0  0  0  0  0  0  0
   -1.1292   -0.7856    5.3944 H   0  0  0  0  0  0  0  0  0  0  0  0
   -0.6361   -1.4738    3.3950 C   0  0  0  0  0  0  0  0  0  0  0  0
   -1.7985   -1.8708    3.1524 O   0  0  0  0  0  1  0  0  0  0  0  0
    0.2493   -1.3726    2.5277 O   0  0  0  0  0  0  0  0  0  0  0  0
    0.0099    2.9133   -0.0274 C   0  0  0  0  0  0  0  0  0  0  0  0
   -0.5816    3.2110   -0.7614 H   0  0  0  0  0  0  0  0  0  0  0  0
    0.9414    3.2129   -0.1718 H   0  0  0  0  0  0  0  0  0  0  0  0
   -0.3470    3.3770    0.8922 H   0  0  0  0  0  0  0  0  0  0  0  0
    0.0017    1.4090   -0.0002 C   0  0  0  0  0  0  0  0  0  0  0  0
   -1.2001    0.6987    0.0004 C   0  0  0  0  0  0  0  0  0  0  0  0
   -2.0655    1.1866    0.0002 H   0  0  0  0  0  0  0  0  0  0  0  0
   -1.2089   -0.7055   -0.0000 C   0  0  0  0  0  0  0  0  0  0  0  0
   -2.0844   -1.1921    0.0030 H   0  0  0  0  0  0  0  0  0  0  0  0
   -0.0041   -1.4023   -0.0028 C   0  0  0  0  0  0  0  0  0  0  0  0
   -0.0021   -2.3982   -0.0076 H   0  0  0  0  0  0  0  0  0  0  0  0
    1.2089   -0.6987   -0.0000 C   0  0  0  0  0  0  0  0  0  0  0  0
    2.0859   -1.1964    0.0017 H   0  0  0  0  0  0  0  0  0  0  0  0
    1.2025    0.6988    0.0026 C   0  0  0  0  0  0  0  0  0  0  0  0
    2.0691    1.1942    0.0062 H   0  0  0  0  0  0  0  0  0  0  0  0
  1  5  1  0
  5  6  1  0
  5  7  2  0
  1  2  1  0
  1  3  1  0
  1  4  1  0
  8 12  1  0
 12 13  2  0
 13 15  1  0
 15 17  2  0
 17 19  1  0
 19 21  2  0
 21 12  1  0
  8  9  1  0
  8 10  1  0
  8 11  1  0
 13 14  1  0
 15 16  1  0
 17 18  1  0
 19 20  1  0
 21 22  1  0
M  CHG  1   6  -1
M  END
>  <PDB_ID>  (1498) 
pdb3iq0

>  <RESIDUE_NAME>  (1498) 
ASP   PHE

>  <FRAG_NAME>  (1498) 
ACET   MBZ

>  <FRAG_ATOM_NUM>  (1498) 
fragi: 7  fragj: 15

>  <atom.prop.CHAIN_ID>  (1498) 
A A A A A A A Z Z Z Z Z Z Z Z Z Z Z Z Z Z Z

>  <atom.prop.IS_HEAVY_ATOM>  (1498) 
1 0 0 0 1 1 1 1 0 0 0 1 1 0 1 0 1 0 1 0 1 0

>  <DIFUSE_FUNC_ATOM>  (1498) 
atom 6   atom 7   

>  <FINAL_SINGLE_POINT_ENERGY>  (1498) 
0

>  <NONCOV_INTER_ENERGY_QM>  (1498) 
0

>  <FF_Energy>  (1498) 
13.3

>  <QM_Energy>  (1498) 
3.82

>  <source>  (1498) 
ACET_MBZ_01

>  <Index>  (1498) 
23128

$$$$
ACET-pdb4fus-A-GLU-224:MBZ-pdb4fus-A-PHE-234
     RDKit          3D

 22 21  0  0  0  0  0  0  0  0999 V2000
   -5.6055    4.4527    0.1903 C   0  0  0  0  0  0  0  0  0  0  0  0
   -4.9738    5.1898    0.2157 H   0  0  0  0  0  0  0  0  0  0  0  0
   -6.3297    4.5228    0.8330 H   0  0  0  0  0  0  0  0  0  0  0  0
   -6.0363    4.4047   -0.8099 H   0  0  0  0  0  0  0  0  0  0  0  0
   -4.8289    3.1670    0.5083 C   0  0  0  0  0  0  0  0  0  0  0  0
   -3.6307    3.0784    0.0896 O   0  0  0  0  0  1  0  0  0  0  0  0
   -5.3814    2.3458    1.2241 O   0  0  0  0  0  0  0  0  0  0  0  0
   -0.0099    2.8868    0.0570 C   0  0  0  0  0  0  0  0  0  0  0  0
   -0.7665    3.2321   -0.4671 H   0  0  0  0  0  0  0  0  0  0  0  0
    0.8551    3.2150   -0.2746 H   0  0  0  0  0  0  0  0  0  0  0  0
   -0.1267    3.2570    1.0756 H   0  0  0  0  0  0  0  0  0  0  0  0
   -0.0162    1.3905   -0.0223 C   0  0  0  0  0  0  0  0  0  0  0  0
   -1.1979    0.6902    0.0177 C   0  0  0  0  0  0  0  0  0  0  0  0
   -2.0680    1.1886    0.0587 H   0  0  0  0  0  0  0  0  0  0  0  0
   -1.2064   -0.6760   -0.0000 C   0  0  0  0  0  0  0  0  0  0  0  0
   -2.0810   -1.1798    0.0050 H   0  0  0  0  0  0  0  0  0  0  0  0
   -0.0050   -1.3774   -0.0230 C   0  0  0  0  0  0  0  0  0  0  0  0
   -0.0199   -2.3799   -0.0576 H   0  0  0  0  0  0  0  0  0  0  0  0
    1.2064   -0.7004   -0.0000 C   0  0  0  0  0  0  0  0  0  0  0  0
    2.0780   -1.2180   -0.0019 H   0  0  0  0  0  0  0  0  0  0  0  0
    1.2190    0.6731    0.0276 C   0  0  0  0  0  0  0  0  0  0  0  0
    2.0629    1.1844    0.0808 H   0  0  0  0  0  0  0  0  0  0  0  0
  1  5  1  0
  5  6  1  0
  5  7  2  0
  1  2  1  0
  1  3  1  0
  1  4  1  0
  8 12  1  0
 12 13  2  0
 13 15  1  0
 15 17  2  0
 17 19  1  0
 19 21  2  0
 21 12  1  0
  8  9  1  0
  8 10  1  0
  8 11  1  0
 13 14  1  0
 15 16  1  0
 17 18  1  0
 19 20  1  0
 21 22  1  0
M  CHG  1   6  -1
M  END
>  <PDB_ID>  (1499) 
pdb4fus

>  <RESIDUE_NAME>  (1499) 
GLU   PHE

>  <FRAG_NAME>  (1499) 
ACET   MBZ

>  <FRAG_ATOM_NUM>  (1499) 
fragi: 7  fragj: 15

>  <atom.prop.CHAIN_ID>  (1499) 
A A A A A A A Z Z Z Z Z Z Z Z Z Z Z Z Z Z Z

>  <atom.prop.IS_HEAVY_ATOM>  (1499) 
1 0 0 0 1 1 1 1 0 0 0 1 1 0 1 0 1 0 1 0 1 0

>  <DIFUSE_FUNC_ATOM>  (1499) 
atom 6   atom 7   

>  <FINAL_SINGLE_POINT_ENERGY>  (1499) 
0

>  <NONCOV_INTER_ENERGY_QM>  (1499) 
0

>  <FF_Energy>  (1499) 
-2.31

>  <QM_Energy>  (1499) 
-7.97

>  <source>  (1499) 
ACET_MBZ_01

>  <Index>  (1499) 
23161

$$$$
ACET-pdb3iso-B-GLU-22:MBZ-pdb3iso-B-PHE-192
     RDKit          3D

 22 21  0  0  0  0  0  0  0  0999 V2000
   -0.2760    1.0490   -3.4558 C   0  0  0  0  0  0  0  0  0  0  0  0
   -0.2593    0.3815   -4.1699 H   0  0  0  0  0  0  0  0  0  0  0  0
    0.0684    0.7110   -2.6057 H   0  0  0  0  0  0  0  0  0  0  0  0
    0.4082    1.8385   -3.7666 H   0  0  0  0  0  0  0  0  0  0  0  0
   -1.6633    1.5456   -3.2688 C   0  0  0  0  0  0  0  0  0  0  0  0
   -1.8530    2.7543   -2.9993 O   0  0  0  0  0  1  0  0  0  0  0  0
   -2.5584    0.6936   -3.2035 O   0  0  0  0  0  0  0  0  0  0  0  0
    0.0328    2.9341   -0.0391 C   0  0  0  0  0  0  0  0  0  0  0  0
   -0.2627    3.2151   -0.9460 H   0  0  0  0  0  0  0  0  0  0  0  0
    0.9664    3.2322    0.1298 H   0  0  0  0  0  0  0  0  0  0  0  0
   -0.6101    3.4311    0.6873 H   0  0  0  0  0  0  0  0  0  0  0  0
    0.0111    1.4312    0.0100 C   0  0  0  0  0  0  0  0  0  0  0  0
   -1.1833    0.7314   -0.0313 C   0  0  0  0  0  0  0  0  0  0  0  0
   -2.0536    1.1874   -0.0838 H   0  0  0  0  0  0  0  0  0  0  0  0
   -1.1878   -0.7256    0.0000 C   0  0  0  0  0  0  0  0  0  0  0  0
   -2.0934   -1.1698    0.0320 H   0  0  0  0  0  0  0  0  0  0  0  0
   -0.0321   -1.4162   -0.0124 C   0  0  0  0  0  0  0  0  0  0  0  0
   -0.0275   -2.4219   -0.0309 H   0  0  0  0  0  0  0  0  0  0  0  0
    1.1878   -0.7373    0.0000 C   0  0  0  0  0  0  0  0  0  0  0  0
    2.0627   -1.2200   -0.0123 H   0  0  0  0  0  0  0  0  0  0  0  0
    1.2043    0.7165    0.0336 C   0  0  0  0  0  0  0  0  0  0  0  0
    2.0783    1.1716    0.0722 H   0  0  0  0  0  0  0  0  0  0  0  0
  1  5  1  0
  5  6  1  0
  5  7  2  0
  1  2  1  0
  1  3  1  0
  1  4  1  0
  8 12  1  0
 12 13  2  0
 13 15  1  0
 15 17  2  0
 17 19  1  0
 19 21  2  0
 21 12  1  0
  8  9  1  0
  8 10  1  0
  8 11  1  0
 13 14  1  0
 15 16  1  0
 17 18  1  0
 19 20  1  0
 21 22  1  0
M  CHG  1   6  -1
M  END
>  <PDB_ID>  (1500) 
pdb3iso

>  <RESIDUE_NAME>  (1500) 
GLU   PHE

>  <FRAG_NAME>  (1500) 
ACET   MBZ

>  <FRAG_ATOM_NUM>  (1500) 
fragi: 7  fragj: 15

>  <atom.prop.CHAIN_ID>  (1500) 
A A A A A A A Z Z Z Z Z Z Z Z Z Z Z Z Z Z Z

>  <atom.prop.IS_HEAVY_ATOM>  (1500) 
1 0 0 0 1 1 1 1 0 0 0 1 1 0 1 0 1 0 1 0 1 0

>  <DIFUSE_FUNC_ATOM>  (1500) 
atom 6   atom 7   

>  <FINAL_SINGLE_POINT_ENERGY>  (1500) 
0

>  <NONCOV_INTER_ENERGY_QM>  (1500) 
0

>  <FF_Energy>  (1500) 
-0.54

>  <QM_Energy>  (1500) 
-6.49

>  <source>  (1500) 
ACET_MBZ_01

>  <Index>  (1500) 
23301

$$$$
ACET-pdb4fz2-B-ASP-357:MBZ-pdb4fz2-A-PHE-227
     RDKit          3D

 22 21  0  0  0  0  0  0  0  0999 V2000
    3.0673    2.6271   -4.5252 C   0  0  0  0  0  0  0  0  0  0  0  0
    3.8450    2.1745   -4.9504 H   0  0  0  0  0  0  0  0  0  0  0  0
    2.9575    3.5443   -4.8946 H   0  0  0  0  0  0  0  0  0  0  0  0
    2.1765    2.0614   -4.7984 H   0  0  0  0  0  0  0  0  0  0  0  0
    3.2604    2.6917   -3.0613 C   0  0  0  0  0  0  0  0  0  0  0  0
    4.2688    3.2559   -2.5971 O   0  0  0  0  0  1  0  0  0  0  0  0
    2.3710    2.1677   -2.3720 O   0  0  0  0  0  0  0  0  0  0  0  0
   -0.0010    2.9158   -0.0043 C   0  0  0  0  0  0  0  0  0  0  0  0
   -0.7162    3.2174   -0.6153 H   0  0  0  0  0  0  0  0  0  0  0  0
    0.8885    3.2183   -0.3109 H   0  0  0  0  0  0  0  0  0  0  0  0
   -0.1870    3.3607    0.9731 H   0  0  0  0  0  0  0  0  0  0  0  0
   -0.0008    1.4053   -0.0005 C   0  0  0  0  0  0  0  0  0  0  0  0
   -1.1950    0.6960    0.0008 C   0  0  0  0  0  0  0  0  0  0  0  0
   -2.0643    1.1831    0.0009 H   0  0  0  0  0  0  0  0  0  0  0  0
   -1.2003   -0.7005   -0.0000 C   0  0  0  0  0  0  0  0  0  0  0  0
   -2.0769   -1.1913    0.0003 H   0  0  0  0  0  0  0  0  0  0  0  0
    0.0017   -1.3965    0.0007 C   0  0  0  0  0  0  0  0  0  0  0  0
   -0.0022   -2.3949    0.0015 H   0  0  0  0  0  0  0  0  0  0  0  0
    1.2003   -0.6994   -0.0000 C   0  0  0  0  0  0  0  0  0  0  0  0
    2.0830   -1.1940    0.0015 H   0  0  0  0  0  0  0  0  0  0  0  0
    1.1941    0.6951   -0.0010 C   0  0  0  0  0  0  0  0  0  0  0  0
    2.0635    1.1897   -0.0031 H   0  0  0  0  0  0  0  0  0  0  0  0
  1  5  1  0
  5  6  1  0
  5  7  2  0
  1  2  1  0
  1  3  1  0
  1  4  1  0
  8 12  1  0
 12 13  2  0
 13 15  1  0
 15 17  2  0
 17 19  1  0
 19 21  2  0
 21 12  1  0
  8  9  1  0
  8 10  1  0
  8 11  1  0
 13 14  1  0
 15 16  1  0
 17 18  1  0
 19 20  1  0
 21 22  1  0
M  CHG  1   6  -1
M  END
>  <PDB_ID>  (1501) 
pdb4fz2

>  <RESIDUE_NAME>  (1501) 
ASP   PHE

>  <FRAG_NAME>  (1501) 
ACET   MBZ

>  <FRAG_ATOM_NUM>  (1501) 
fragi: 7  fragj: 15

>  <atom.prop.CHAIN_ID>  (1501) 
A A A A A A A Z Z Z Z Z Z Z Z Z Z Z Z Z Z Z

>  <atom.prop.IS_HEAVY_ATOM>  (1501) 
1 0 0 0 1 1 1 1 0 0 0 1 1 0 1 0 1 0 1 0 1 0

>  <DIFUSE_FUNC_ATOM>  (1501) 
atom 6   atom 7   

>  <FINAL_SINGLE_POINT_ENERGY>  (1501) 
0

>  <NONCOV_INTER_ENERGY_QM>  (1501) 
0

>  <FF_Energy>  (1501) 
0.37

>  <QM_Energy>  (1501) 
-5.58

>  <source>  (1501) 
ACET_MBZ_01

>  <Index>  (1501) 
23311

$$$$
ACET-pdb3itj-D-GLU-205:MBZ-pdb3itj-D-PHE-180
     RDKit          3D

 22 21  0  0  0  0  0  0  0  0999 V2000
   -4.8273    0.5766   -1.2819 C   0  0  0  0  0  0  0  0  0  0  0  0
   -4.2764    1.1975   -0.7526 H   0  0  0  0  0  0  0  0  0  0  0  0
   -5.7631    0.8776   -1.3464 H   0  0  0  0  0  0  0  0  0  0  0  0
   -4.4134    0.5283   -2.2891 H   0  0  0  0  0  0  0  0  0  0  0  0
   -4.8186   -0.7546   -0.5865 C   0  0  0  0  0  0  0  0  0  0  0  0
   -5.7954   -1.0625    0.1574 O   0  0  0  0  0  1  0  0  0  0  0  0
   -3.8435   -1.5042   -0.7616 O   0  0  0  0  0  0  0  0  0  0  0  0
   -0.0126    2.8737   -0.0409 C   0  0  0  0  0  0  0  0  0  0  0  0
    0.8975    3.2140    0.1534 H   0  0  0  0  0  0  0  0  0  0  0  0
   -0.6667    3.2128    0.6211 H   0  0  0  0  0  0  0  0  0  0  0  0
   -0.3049    3.2614   -1.0168 H   0  0  0  0  0  0  0  0  0  0  0  0
    0.0049    1.4107    0.0144 C   0  0  0  0  0  0  0  0  0  0  0  0
   -1.1949    0.6854    0.0123 C   0  0  0  0  0  0  0  0  0  0  0  0
   -2.0627    1.1779    0.0187 H   0  0  0  0  0  0  0  0  0  0  0  0
   -1.1999   -0.7046    0.0000 C   0  0  0  0  0  0  0  0  0  0  0  0
   -2.0781   -1.1987   -0.0073 H   0  0  0  0  0  0  0  0  0  0  0  0
    0.0012   -1.4079   -0.0003 C   0  0  0  0  0  0  0  0  0  0  0  0
   -0.0046   -2.4030   -0.0010 H   0  0  0  0  0  0  0  0  0  0  0  0
    1.1999   -0.7070   -0.0000 C   0  0  0  0  0  0  0  0  0  0  0  0
    2.0860   -1.1808    0.0199 H   0  0  0  0  0  0  0  0  0  0  0  0
    1.1889    0.7234   -0.0263 C   0  0  0  0  0  0  0  0  0  0  0  0
    2.0624    1.1977   -0.0756 H   0  0  0  0  0  0  0  0  0  0  0  0
  1  5  1  0
  5  6  1  0
  5  7  2  0
  1  2  1  0
  1  3  1  0
  1  4  1  0
  8 12  1  0
 12 13  2  0
 13 15  1  0
 15 17  2  0
 17 19  1  0
 19 21  2  0
 21 12  1  0
  8  9  1  0
  8 10  1  0
  8 11  1  0
 13 14  1  0
 15 16  1  0
 17 18  1  0
 19 20  1  0
 21 22  1  0
M  CHG  1   6  -1
M  END
>  <PDB_ID>  (1502) 
pdb3itj

>  <RESIDUE_NAME>  (1502) 
GLU   PHE

>  <FRAG_NAME>  (1502) 
ACET   MBZ

>  <FRAG_ATOM_NUM>  (1502) 
fragi: 7  fragj: 15

>  <atom.prop.CHAIN_ID>  (1502) 
A A A A A A A Z Z Z Z Z Z Z Z Z Z Z Z Z Z Z

>  <atom.prop.IS_HEAVY_ATOM>  (1502) 
1 0 0 0 1 1 1 1 0 0 0 1 1 0 1 0 1 0 1 0 1 0

>  <DIFUSE_FUNC_ATOM>  (1502) 
atom 6   atom 7   

>  <FINAL_SINGLE_POINT_ENERGY>  (1502) 
0

>  <NONCOV_INTER_ENERGY_QM>  (1502) 
0

>  <FF_Energy>  (1502) 
8.92

>  <QM_Energy>  (1502) 
-4.82

>  <source>  (1502) 
ACET_MBZ_01

>  <Index>  (1502) 
23362

$$$$
ACET-pdb4fye-A-GLU-374:MBZ-pdb4fye-A-PHE-278
     RDKit          3D

 22 21  0  0  0  0  0  0  0  0999 V2000
    0.2233   -3.4005    2.4357 C   0  0  0  0  0  0  0  0  0  0  0  0
   -0.0316   -2.9276    1.6158 H   0  0  0  0  0  0  0  0  0  0  0  0
    0.0316   -4.3611    2.3928 H   0  0  0  0  0  0  0  0  0  0  0  0
    1.2920   -3.2627    2.6001 H   0  0  0  0  0  0  0  0  0  0  0  0
   -0.6573   -2.8207    3.5791 C   0  0  0  0  0  0  0  0  0  0  0  0
   -0.4370   -1.6801    4.0794 O   0  0  0  0  0  1  0  0  0  0  0  0
   -1.6072   -3.5225    3.9690 O   0  0  0  0  0  0  0  0  0  0  0  0
   -0.0035    2.8786   -0.0059 C   0  0  0  0  0  0  0  0  0  0  0  0
    0.9354    3.1906    0.0188 H   0  0  0  0  0  0  0  0  0  0  0  0
   -0.5061    3.1913    0.7864 H   0  0  0  0  0  0  0  0  0  0  0  0
   -0.4741    3.3087   -0.8900 H   0  0  0  0  0  0  0  0  0  0  0  0
   -0.0009    1.3871    0.0016 C   0  0  0  0  0  0  0  0  0  0  0  0
   -1.1860    0.6868   -0.0020 C   0  0  0  0  0  0  0  0  0  0  0  0
   -2.0557    1.1796   -0.0067 H   0  0  0  0  0  0  0  0  0  0  0  0
   -1.1906   -0.6899    0.0000 C   0  0  0  0  0  0  0  0  0  0  0  0
   -2.0709   -1.1855    0.0021 H   0  0  0  0  0  0  0  0  0  0  0  0
   -0.0009   -1.3806    0.0007 C   0  0  0  0  0  0  0  0  0  0  0  0
   -0.0041   -2.3830    0.0012 H   0  0  0  0  0  0  0  0  0  0  0  0
    1.1906   -0.6904   -0.0000 C   0  0  0  0  0  0  0  0  0  0  0  0
    2.0748   -1.1919    0.0006 H   0  0  0  0  0  0  0  0  0  0  0  0
    1.1878    0.6870   -0.0003 C   0  0  0  0  0  0  0  0  0  0  0  0
    2.0576    1.1860   -0.0029 H   0  0  0  0  0  0  0  0  0  0  0  0
  1  5  1  0
  5  6  1  0
  5  7  2  0
  1  2  1  0
  1  3  1  0
  1  4  1  0
  8 12  1  0
 12 13  2  0
 13 15  1  0
 15 17  2  0
 17 19  1  0
 19 21  2  0
 21 12  1  0
  8  9  1  0
  8 10  1  0
  8 11  1  0
 13 14  1  0
 15 16  1  0
 17 18  1  0
 19 20  1  0
 21 22  1  0
M  CHG  1   6  -1
M  END
>  <PDB_ID>  (1503) 
pdb4fye

>  <RESIDUE_NAME>  (1503) 
GLU   PHE

>  <FRAG_NAME>  (1503) 
ACET   MBZ

>  <FRAG_ATOM_NUM>  (1503) 
fragi: 7  fragj: 15

>  <atom.prop.CHAIN_ID>  (1503) 
A A A A A A A Z Z Z Z Z Z Z Z Z Z Z Z Z Z Z

>  <atom.prop.IS_HEAVY_ATOM>  (1503) 
1 0 0 0 1 1 1 1 0 0 0 1 1 0 1 0 1 0 1 0 1 0

>  <DIFUSE_FUNC_ATOM>  (1503) 
atom 6   atom 7   

>  <FINAL_SINGLE_POINT_ENERGY>  (1503) 
0

>  <NONCOV_INTER_ENERGY_QM>  (1503) 
0

>  <FF_Energy>  (1503) 
11.59

>  <QM_Energy>  (1503) 
3.71

>  <source>  (1503) 
ACET_MBZ_01

>  <Index>  (1503) 
23446

$$$$
ACET-pdb4g6c-A-ASP-65:MBZ-pdb4g6c-A-PHE-123
     RDKit          3D

 22 21  0  0  0  0  0  0  0  0999 V2000
    4.7339    4.6759    0.2907 C   0  0  0  0  0  0  0  0  0  0  0  0
    5.7267    4.7058    0.2352 H   0  0  0  0  0  0  0  0  0  0  0  0
    4.3826    5.5335    0.6509 H   0  0  0  0  0  0  0  0  0  0  0  0
    4.3441    4.5499   -0.7193 H   0  0  0  0  0  0  0  0  0  0  0  0
    4.3306    3.5532    1.2195 C   0  0  0  0  0  0  0  0  0  0  0  0
    3.1368    3.2099    1.2561 O   0  0  0  0  0  1  0  0  0  0  0  0
    5.2016    3.0221    1.9329 O   0  0  0  0  0  0  0  0  0  0  0  0
   -0.0515    2.9012    0.0396 C   0  0  0  0  0  0  0  0  0  0  0  0
    0.8799    3.2330    0.0594 H   0  0  0  0  0  0  0  0  0  0  0  0
   -0.5449    3.1641    0.8544 H   0  0  0  0  0  0  0  0  0  0  0  0
   -0.5515    3.3529   -0.8172 H   0  0  0  0  0  0  0  0  0  0  0  0
   -0.0052    1.3949   -0.0066 C   0  0  0  0  0  0  0  0  0  0  0  0
   -1.2049    0.6875   -0.0041 C   0  0  0  0  0  0  0  0  0  0  0  0
   -2.0690    1.1840   -0.0067 H   0  0  0  0  0  0  0  0  0  0  0  0
   -1.2080   -0.6911    0.0000 C   0  0  0  0  0  0  0  0  0  0  0  0
   -2.0797   -1.1936   -0.0091 H   0  0  0  0  0  0  0  0  0  0  0  0
   -0.0020   -1.3813    0.0188 C   0  0  0  0  0  0  0  0  0  0  0  0
   -0.0097   -2.3866    0.0459 H   0  0  0  0  0  0  0  0  0  0  0  0
    1.2080   -0.7002    0.0000 C   0  0  0  0  0  0  0  0  0  0  0  0
    2.0823   -1.2053   -0.0062 H   0  0  0  0  0  0  0  0  0  0  0  0
    1.2120    0.6903   -0.0080 C   0  0  0  0  0  0  0  0  0  0  0  0
    2.0674    1.1906   -0.0158 H   0  0  0  0  0  0  0  0  0  0  0  0
  1  5  1  0
  5  6  1  0
  5  7  2  0
  1  2  1  0
  1  3  1  0
  1  4  1  0
  8 12  1  0
 12 13  2  0
 13 15  1  0
 15 17  2  0
 17 19  1  0
 19 21  2  0
 21 12  1  0
  8  9  1  0
  8 10  1  0
  8 11  1  0
 13 14  1  0
 15 16  1  0
 17 18  1  0
 19 20  1  0
 21 22  1  0
M  CHG  1   6  -1
M  END
>  <PDB_ID>  (1504) 
pdb4g6c

>  <RESIDUE_NAME>  (1504) 
ASP   PHE

>  <FRAG_NAME>  (1504) 
ACET   MBZ

>  <FRAG_ATOM_NUM>  (1504) 
fragi: 7  fragj: 15

>  <atom.prop.CHAIN_ID>  (1504) 
A A A A A A A Z Z Z Z Z Z Z Z Z Z Z Z Z Z Z

>  <atom.prop.IS_HEAVY_ATOM>  (1504) 
1 0 0 0 1 1 1 1 0 0 0 1 1 0 1 0 1 0 1 0 1 0

>  <DIFUSE_FUNC_ATOM>  (1504) 
atom 6   atom 7   

>  <FINAL_SINGLE_POINT_ENERGY>  (1504) 
0

>  <NONCOV_INTER_ENERGY_QM>  (1504) 
0

>  <FF_Energy>  (1504) 
-1.62

>  <QM_Energy>  (1504) 
-7.07

>  <source>  (1504) 
ACET_MBZ_01

>  <Index>  (1504) 
23609

$$$$
ACET-pdb4g8t-C-GLU-50:MBZ-pdb4g8t-C-PHE-340
     RDKit          3D

 22 21  0  0  0  0  0  0  0  0999 V2000
    4.5427    5.0007    0.4357 C   0  0  0  0  0  0  0  0  0  0  0  0
    5.1812    5.1227   -0.3039 H   0  0  0  0  0  0  0  0  0  0  0  0
    4.7409    4.1909    0.9614 H   0  0  0  0  0  0  0  0  0  0  0  0
    4.6282    5.8619    1.0983 H   0  0  0  0  0  0  0  0  0  0  0  0
    3.1576    4.8257   -0.1753 C   0  0  0  0  0  0  0  0  0  0  0  0
    2.1688    5.3790    0.3623 O   0  0  0  0  0  1  0  0  0  0  0  0
    3.0585    4.1035   -1.1986 O   0  0  0  0  0  0  0  0  0  0  0  0
    0.0109    2.9061    0.0112 C   0  0  0  0  0  0  0  0  0  0  0  0
    0.9322    3.2082    0.2083 H   0  0  0  0  0  0  0  0  0  0  0  0
   -0.6227    3.2091    0.7086 H   0  0  0  0  0  0  0  0  0  0  0  0
   -0.2925    3.3606   -0.9319 H   0  0  0  0  0  0  0  0  0  0  0  0
    0.0048    1.4053   -0.0042 C   0  0  0  0  0  0  0  0  0  0  0  0
   -1.1925    0.7030    0.0017 C   0  0  0  0  0  0  0  0  0  0  0  0
   -2.0592    1.1895    0.0060 H   0  0  0  0  0  0  0  0  0  0  0  0
   -1.1999   -0.6984   -0.0000 C   0  0  0  0  0  0  0  0  0  0  0  0
   -2.0830   -1.1822    0.0002 H   0  0  0  0  0  0  0  0  0  0  0  0
   -0.0080   -1.3981   -0.0003 C   0  0  0  0  0  0  0  0  0  0  0  0
   -0.0125   -2.3973   -0.0011 H   0  0  0  0  0  0  0  0  0  0  0  0
    1.1999   -0.7058   -0.0000 C   0  0  0  0  0  0  0  0  0  0  0  0
    2.0775   -1.2022   -0.0001 H   0  0  0  0  0  0  0  0  0  0  0  0
    1.1958    0.6941    0.0028 C   0  0  0  0  0  0  0  0  0  0  0  0
    2.0680    1.1840    0.0093 H   0  0  0  0  0  0  0  0  0  0  0  0
  1  5  1  0
  5  6  1  0
  5  7  2  0
  1  2  1  0
  1  3  1  0
  1  4  1  0
  8 12  1  0
 12 13  2  0
 13 15  1  0
 15 17  2  0
 17 19  1  0
 19 21  2  0
 21 12  1  0
  8  9  1  0
  8 10  1  0
  8 11  1  0
 13 14  1  0
 15 16  1  0
 17 18  1  0
 19 20  1  0
 21 22  1  0
M  CHG  1   6  -1
M  END
>  <PDB_ID>  (1505) 
pdb4g8t

>  <RESIDUE_NAME>  (1505) 
GLU   PHE

>  <FRAG_NAME>  (1505) 
ACET   MBZ

>  <FRAG_ATOM_NUM>  (1505) 
fragi: 7  fragj: 15

>  <atom.prop.CHAIN_ID>  (1505) 
A A A A A A A Z Z Z Z Z Z Z Z Z Z Z Z Z Z Z

>  <atom.prop.IS_HEAVY_ATOM>  (1505) 
1 0 0 0 1 1 1 1 0 0 0 1 1 0 1 0 1 0 1 0 1 0

>  <DIFUSE_FUNC_ATOM>  (1505) 
atom 6   atom 7   

>  <FINAL_SINGLE_POINT_ENERGY>  (1505) 
0

>  <NONCOV_INTER_ENERGY_QM>  (1505) 
0

>  <FF_Energy>  (1505) 
-1.64

>  <QM_Energy>  (1505) 
-6.92

>  <source>  (1505) 
ACET_MBZ_01

>  <Index>  (1505) 
23822

$$$$
ACET-pdb3ju5-D-GLU-251:MBZ-pdb3ju5-D-PHE-262
     RDKit          3D

 22 21  0  0  0  0  0  0  0  0999 V2000
    1.3464    0.0698   -3.7066 C   0  0  0  0  0  0  0  0  0  0  0  0
    1.4120    0.1435   -4.7014 H   0  0  0  0  0  0  0  0  0  0  0  0
    0.3922    0.1806   -3.4270 H   0  0  0  0  0  0  0  0  0  0  0  0
    1.6439   -0.9445   -3.4408 H   0  0  0  0  0  0  0  0  0  0  0  0
    2.1389    1.2262   -3.1058 C   0  0  0  0  0  0  0  0  0  0  0  0
    3.2724    1.0023   -2.6744 O   0  0  0  0  0  1  0  0  0  0  0  0
    1.5810    2.3935   -3.1023 O   0  0  0  0  0  0  0  0  0  0  0  0
    0.0489    2.9215    0.0884 C   0  0  0  0  0  0  0  0  0  0  0  0
    0.8784    3.2449   -0.3448 H   0  0  0  0  0  0  0  0  0  0  0  0
    0.0323    3.1611    1.0485 H   0  0  0  0  0  0  0  0  0  0  0  0
   -0.7852    3.4383   -0.3863 H   0  0  0  0  0  0  0  0  0  0  0  0
    0.0060    1.4262   -0.0278 C   0  0  0  0  0  0  0  0  0  0  0  0
   -1.2036    0.7040    0.0496 C   0  0  0  0  0  0  0  0  0  0  0  0
   -2.0638    1.1829    0.1386 H   0  0  0  0  0  0  0  0  0  0  0  0
   -1.2142   -0.7219    0.0000 C   0  0  0  0  0  0  0  0  0  0  0  0
   -2.0849   -1.2006   -0.0247 H   0  0  0  0  0  0  0  0  0  0  0  0
    0.0026   -1.4177   -0.0110 C   0  0  0  0  0  0  0  0  0  0  0  0
    0.0045   -2.4130   -0.0268 H   0  0  0  0  0  0  0  0  0  0  0  0
    1.2142   -0.7101    0.0000 C   0  0  0  0  0  0  0  0  0  0  0  0
    2.0937   -1.1861    0.0170 H   0  0  0  0  0  0  0  0  0  0  0  0
    1.1950    0.7195   -0.0108 C   0  0  0  0  0  0  0  0  0  0  0  0
    2.0715    1.2010   -0.0065 H   0  0  0  0  0  0  0  0  0  0  0  0
  1  5  1  0
  5  6  1  0
  5  7  2  0
  1  2  1  0
  1  3  1  0
  1  4  1  0
  8 12  1  0
 12 13  2  0
 13 15  1  0
 15 17  2  0
 17 19  1  0
 19 21  2  0
 21 12  1  0
  8  9  1  0
  8 10  1  0
  8 11  1  0
 13 14  1  0
 15 16  1  0
 17 18  1  0
 19 20  1  0
 21 22  1  0
M  CHG  1   6  -1
M  END
>  <PDB_ID>  (1506) 
pdb3ju5

>  <RESIDUE_NAME>  (1506) 
GLU   PHE

>  <FRAG_NAME>  (1506) 
ACET   MBZ

>  <FRAG_ATOM_NUM>  (1506) 
fragi: 7  fragj: 15

>  <atom.prop.CHAIN_ID>  (1506) 
A A A A A A A Z Z Z Z Z Z Z Z Z Z Z Z Z Z Z

>  <atom.prop.IS_HEAVY_ATOM>  (1506) 
1 0 0 0 1 1 1 1 0 0 0 1 1 0 1 0 1 0 1 0 1 0

>  <DIFUSE_FUNC_ATOM>  (1506) 
atom 6   atom 7   

>  <FINAL_SINGLE_POINT_ENERGY>  (1506) 
0

>  <NONCOV_INTER_ENERGY_QM>  (1506) 
0

>  <FF_Energy>  (1506) 
-0.52

>  <QM_Energy>  (1506) 
-5.84

>  <source>  (1506) 
ACET_MBZ_01

>  <Index>  (1506) 
24055

$$$$
ACET-pdb4gdi-C-ASP-459:MBZ-pdb4gdi-C-PHE-398
     RDKit          3D

 22 21  0  0  0  0  0  0  0  0999 V2000
   -5.4371    3.0735   -0.8748 C   0  0  0  0  0  0  0  0  0  0  0  0
   -5.7882    3.3877   -1.7229 H   0  0  0  0  0  0  0  0  0  0  0  0
   -6.0776    3.2456   -0.1666 H   0  0  0  0  0  0  0  0  0  0  0  0
   -5.2613    1.9997   -0.9399 H   0  0  0  0  0  0  0  0  0  0  0  0
   -4.1896    3.8573   -0.5713 C   0  0  0  0  0  0  0  0  0  0  0  0
   -3.3388    3.3758    0.2008 O   0  0  0  0  0  1  0  0  0  0  0  0
   -4.0660    4.9803   -1.1022 O   0  0  0  0  0  0  0  0  0  0  0  0
   -0.0031    2.9006    0.0028 C   0  0  0  0  0  0  0  0  0  0  0  0
    0.8581    3.1944    0.3400 H   0  0  0  0  0  0  0  0  0  0  0  0
   -0.7070    3.1938    0.6023 H   0  0  0  0  0  0  0  0  0  0  0  0
   -0.1673    3.3490   -0.9771 H   0  0  0  0  0  0  0  0  0  0  0  0
   -0.0025    1.3969   -0.0019 C   0  0  0  0  0  0  0  0  0  0  0  0
   -1.1926    0.6895    0.0034 C   0  0  0  0  0  0  0  0  0  0  0  0
   -2.0009    1.1493    0.0024 H   0  0  0  0  0  0  0  0  0  0  0  0
   -1.1924   -0.6950   -0.0000 C   0  0  0  0  0  0  0  0  0  0  0  0
   -1.9976   -1.1598   -0.0010 H   0  0  0  0  0  0  0  0  0  0  0  0
    0.0043   -1.3863   -0.0050 C   0  0  0  0  0  0  0  0  0  0  0  0
    0.0058   -2.3163   -0.0034 H   0  0  0  0  0  0  0  0  0  0  0  0
    1.1924   -0.6947    0.0000 C   0  0  0  0  0  0  0  0  0  0  0  0
    1.9991   -1.1590   -0.0016 H   0  0  0  0  0  0  0  0  0  0  0  0
    1.1908    0.6896    0.0034 C   0  0  0  0  0  0  0  0  0  0  0  0
    1.9979    1.1503    0.0006 H   0  0  0  0  0  0  0  0  0  0  0  0
  1  5  1  0
  5  6  1  0
  5  7  2  0
  1  2  1  0
  1  3  1  0
  1  4  1  0
  8 12  1  0
 12 13  2  0
 13 15  1  0
 15 17  2  0
 17 19  1  0
 19 21  2  0
 21 12  1  0
  8  9  1  0
  8 10  1  0
  8 11  1  0
 13 14  1  0
 15 16  1  0
 17 18  1  0
 19 20  1  0
 21 22  1  0
M  CHG  1   6  -1
M  END
>  <PDB_ID>  (1507) 
pdb4gdi

>  <RESIDUE_NAME>  (1507) 
ASP   PHE

>  <FRAG_NAME>  (1507) 
ACET   MBZ

>  <FRAG_ATOM_NUM>  (1507) 
fragi: 7  fragj: 15

>  <atom.prop.CHAIN_ID>  (1507) 
A A A A A A A Z Z Z Z Z Z Z Z Z Z Z Z Z Z Z

>  <atom.prop.IS_HEAVY_ATOM>  (1507) 
1 0 0 0 1 1 1 1 0 0 0 1 1 0 1 0 1 0 1 0 1 0

>  <DIFUSE_FUNC_ATOM>  (1507) 
atom 6   atom 7   

>  <FINAL_SINGLE_POINT_ENERGY>  (1507) 
0

>  <NONCOV_INTER_ENERGY_QM>  (1507) 
0

>  <FF_Energy>  (1507) 
-2.12

>  <QM_Energy>  (1507) 
-7.3

>  <source>  (1507) 
ACET_MBZ_01

>  <Index>  (1507) 
24114

$$$$
ACET-pdb4ge1-A-ASP-72:MBZ-pdb4ge1-A-PHE-59
     RDKit          3D

 22 21  0  0  0  0  0  0  0  0999 V2000
   -3.5829    3.3908   -3.3695 C   0  0  0  0  0  0  0  0  0  0  0  0
   -4.2143    2.6477   -3.5661 H   0  0  0  0  0  0  0  0  0  0  0  0
   -3.5774    4.0459   -4.1178 H   0  0  0  0  0  0  0  0  0  0  0  0
   -3.9548    3.9085   -2.4853 H   0  0  0  0  0  0  0  0  0  0  0  0
   -2.1897    2.8249   -3.1943 C   0  0  0  0  0  0  0  0  0  0  0  0
   -1.2162    3.5399   -3.5219 O   0  0  0  0  0  1  0  0  0  0  0  0
   -2.0592    1.6501   -2.7683 O   0  0  0  0  0  0  0  0  0  0  0  0
   -0.0053    2.9210   -0.0161 C   0  0  0  0  0  0  0  0  0  0  0  0
   -0.7371    3.2119   -0.6142 H   0  0  0  0  0  0  0  0  0  0  0  0
    0.8755    3.2179   -0.3540 H   0  0  0  0  0  0  0  0  0  0  0  0
   -0.1639    3.3842    0.9577 H   0  0  0  0  0  0  0  0  0  0  0  0
   -0.0038    1.4039    0.0067 C   0  0  0  0  0  0  0  0  0  0  0  0
   -1.1923    0.6958   -0.0044 C   0  0  0  0  0  0  0  0  0  0  0  0
   -2.0630    1.1819   -0.0174 H   0  0  0  0  0  0  0  0  0  0  0  0
   -1.1948   -0.6952    0.0000 C   0  0  0  0  0  0  0  0  0  0  0  0
   -2.0722   -1.1901    0.0012 H   0  0  0  0  0  0  0  0  0  0  0  0
    0.0070   -1.3936    0.0044 C   0  0  0  0  0  0  0  0  0  0  0  0
   -0.0055   -2.3940    0.0101 H   0  0  0  0  0  0  0  0  0  0  0  0
    1.1948   -0.7049   -0.0000 C   0  0  0  0  0  0  0  0  0  0  0  0
    2.0828   -1.1932    0.0030 H   0  0  0  0  0  0  0  0  0  0  0  0
    1.1891    0.6940   -0.0068 C   0  0  0  0  0  0  0  0  0  0  0  0
    2.0604    1.1855   -0.0224 H   0  0  0  0  0  0  0  0  0  0  0  0
  1  5  1  0
  5  6  1  0
  5  7  2  0
  1  2  1  0
  1  3  1  0
  1  4  1  0
  8 12  1  0
 12 13  2  0
 13 15  1  0
 15 17  2  0
 17 19  1  0
 19 21  2  0
 21 12  1  0
  8  9  1  0
  8 10  1  0
  8 11  1  0
 13 14  1  0
 15 16  1  0
 17 18  1  0
 19 20  1  0
 21 22  1  0
M  CHG  1   6  -1
M  END
>  <PDB_ID>  (1508) 
pdb4ge1

>  <RESIDUE_NAME>  (1508) 
ASP   PHE

>  <FRAG_NAME>  (1508) 
ACET   MBZ

>  <FRAG_ATOM_NUM>  (1508) 
fragi: 7  fragj: 15

>  <atom.prop.CHAIN_ID>  (1508) 
A A A A A A A Z Z Z Z Z Z Z Z Z Z Z Z Z Z Z

>  <atom.prop.IS_HEAVY_ATOM>  (1508) 
1 0 0 0 1 1 1 1 0 0 0 1 1 0 1 0 1 0 1 0 1 0

>  <DIFUSE_FUNC_ATOM>  (1508) 
atom 6   atom 7   

>  <FINAL_SINGLE_POINT_ENERGY>  (1508) 
0

>  <NONCOV_INTER_ENERGY_QM>  (1508) 
0

>  <FF_Energy>  (1508) 
1.52

>  <QM_Energy>  (1508) 
-4.16

>  <source>  (1508) 
ACET_MBZ_01

>  <Index>  (1508) 
24151

$$$$
ACET-pdb4gec-A-ASP-210:MBZ-pdb4gec-A-PHE-213
     RDKit          3D

 22 21  0  0  0  0  0  0  0  0999 V2000
    4.2139    4.9009    0.7682 C   0  0  0  0  0  0  0  0  0  0  0  0
    4.7709    4.9724    1.6047 H   0  0  0  0  0  0  0  0  0  0  0  0
    3.4758    5.5837    0.8209 H   0  0  0  0  0  0  0  0  0  0  0  0
    4.8509    5.1689   -0.0747 H   0  0  0  0  0  0  0  0  0  0  0  0
    3.5873    3.5162    0.7245 C   0  0  0  0  0  0  0  0  0  0  0  0
    3.8415    2.7710   -0.2572 O   0  0  0  0  0  1  0  0  0  0  0  0
    2.8451    3.1691    1.6744 O   0  0  0  0  0  0  0  0  0  0  0  0
   -0.0046    2.9169   -0.0994 C   0  0  0  0  0  0  0  0  0  0  0  0
    0.8317    3.2436    0.2427 H   0  0  0  0  0  0  0  0  0  0  0  0
   -0.7988    3.2483    0.3282 H   0  0  0  0  0  0  0  0  0  0  0  0
   -0.0595    3.1679   -1.1587 H   0  0  0  0  0  0  0  0  0  0  0  0
   -0.0035    1.4083    0.0048 C   0  0  0  0  0  0  0  0  0  0  0  0
   -1.1922    0.6929   -0.0146 C   0  0  0  0  0  0  0  0  0  0  0  0
   -2.0639    1.1740   -0.0407 H   0  0  0  0  0  0  0  0  0  0  0  0
   -1.1877   -0.7022    0.0000 C   0  0  0  0  0  0  0  0  0  0  0  0
   -2.0690   -1.1947    0.0006 H   0  0  0  0  0  0  0  0  0  0  0  0
    0.0049   -1.3898    0.0153 C   0  0  0  0  0  0  0  0  0  0  0  0
   -0.0024   -2.3945    0.0373 H   0  0  0  0  0  0  0  0  0  0  0  0
    1.1877   -0.7037   -0.0000 C   0  0  0  0  0  0  0  0  0  0  0  0
    2.0782   -1.1942   -0.0065 H   0  0  0  0  0  0  0  0  0  0  0  0
    1.1908    0.6944   -0.0055 C   0  0  0  0  0  0  0  0  0  0  0  0
    2.0614    1.1833   -0.0180 H   0  0  0  0  0  0  0  0  0  0  0  0
  1  5  1  0
  5  6  1  0
  5  7  2  0
  1  2  1  0
  1  3  1  0
  1  4  1  0
  8 12  1  0
 12 13  2  0
 13 15  1  0
 15 17  2  0
 17 19  1  0
 19 21  2  0
 21 12  1  0
  8  9  1  0
  8 10  1  0
  8 11  1  0
 13 14  1  0
 15 16  1  0
 17 18  1  0
 19 20  1  0
 21 22  1  0
M  CHG  1   6  -1
M  END
>  <PDB_ID>  (1509) 
pdb4gec

>  <RESIDUE_NAME>  (1509) 
ASP   PHE

>  <FRAG_NAME>  (1509) 
ACET   MBZ

>  <FRAG_ATOM_NUM>  (1509) 
fragi: 7  fragj: 15

>  <atom.prop.CHAIN_ID>  (1509) 
A A A A A A A Z Z Z Z Z Z Z Z Z Z Z Z Z Z Z

>  <atom.prop.IS_HEAVY_ATOM>  (1509) 
1 0 0 0 1 1 1 1 0 0 0 1 1 0 1 0 1 0 1 0 1 0

>  <DIFUSE_FUNC_ATOM>  (1509) 
atom 6   atom 7   

>  <FINAL_SINGLE_POINT_ENERGY>  (1509) 
0

>  <NONCOV_INTER_ENERGY_QM>  (1509) 
0

>  <FF_Energy>  (1509) 
-1.63

>  <QM_Energy>  (1509) 
-9.5

>  <source>  (1509) 
ACET_MBZ_01

>  <Index>  (1509) 
24177

$$$$
ACET-pdb3jva-A-ASP-248:MBZ-pdb3jva-A-PHE-244
     RDKit          3D

 22 21  0  0  0  0  0  0  0  0999 V2000
   -1.9949    5.8019   -3.7611 C   0  0  0  0  0  0  0  0  0  0  0  0
   -2.0803    6.1112   -2.8188 H   0  0  0  0  0  0  0  0  0  0  0  0
   -2.7965    5.2756   -4.0244 H   0  0  0  0  0  0  0  0  0  0  0  0
   -1.9484    6.6838   -4.4001 H   0  0  0  0  0  0  0  0  0  0  0  0
   -0.7692    4.9148   -3.8740 C   0  0  0  0  0  0  0  0  0  0  0  0
   -0.0278    4.9990   -4.8798 O   0  0  0  0  0  1  0  0  0  0  0  0
   -0.5606    4.1037   -2.9487 O   0  0  0  0  0  0  0  0  0  0  0  0
    0.0197    2.9212   -0.0177 C   0  0  0  0  0  0  0  0  0  0  0  0
    0.2334    3.2112   -0.9392 H   0  0  0  0  0  0  0  0  0  0  0  0
    0.7105    3.2242    0.6225 H   0  0  0  0  0  0  0  0  0  0  0  0
   -0.9245    3.3852    0.2673 H   0  0  0  0  0  0  0  0  0  0  0  0
    0.0024    1.4093    0.0000 C   0  0  0  0  0  0  0  0  0  0  0  0
   -1.1958    0.7004   -0.0013 C   0  0  0  0  0  0  0  0  0  0  0  0
   -2.0629    1.1861   -0.0045 H   0  0  0  0  0  0  0  0  0  0  0  0
   -1.2016   -0.7015   -0.0000 C   0  0  0  0  0  0  0  0  0  0  0  0
   -2.0813   -1.1879    0.0021 H   0  0  0  0  0  0  0  0  0  0  0  0
   -0.0036   -1.4001    0.0008 C   0  0  0  0  0  0  0  0  0  0  0  0
   -0.0066   -2.3976    0.0015 H   0  0  0  0  0  0  0  0  0  0  0  0
    1.2016   -0.7026   -0.0000 C   0  0  0  0  0  0  0  0  0  0  0  0
    2.0809   -1.1988    0.0005 H   0  0  0  0  0  0  0  0  0  0  0  0
    1.1970    0.6945    0.0004 C   0  0  0  0  0  0  0  0  0  0  0  0
    2.0677    1.1868    0.0002 H   0  0  0  0  0  0  0  0  0  0  0  0
  1  5  1  0
  5  6  1  0
  5  7  2  0
  1  2  1  0
  1  3  1  0
  1  4  1  0
  8 12  1  0
 12 13  2  0
 13 15  1  0
 15 17  2  0
 17 19  1  0
 19 21  2  0
 21 12  1  0
  8  9  1  0
  8 10  1  0
  8 11  1  0
 13 14  1  0
 15 16  1  0
 17 18  1  0
 19 20  1  0
 21 22  1  0
M  CHG  1   6  -1
M  END
>  <PDB_ID>  (1510) 
pdb3jva

>  <RESIDUE_NAME>  (1510) 
ASP   PHE

>  <FRAG_NAME>  (1510) 
ACET   MBZ

>  <FRAG_ATOM_NUM>  (1510) 
fragi: 7  fragj: 15

>  <atom.prop.CHAIN_ID>  (1510) 
A A A A A A A Z Z Z Z Z Z Z Z Z Z Z Z Z Z Z

>  <atom.prop.IS_HEAVY_ATOM>  (1510) 
1 0 0 0 1 1 1 1 0 0 0 1 1 0 1 0 1 0 1 0 1 0

>  <DIFUSE_FUNC_ATOM>  (1510) 
atom 6   atom 7   

>  <FINAL_SINGLE_POINT_ENERGY>  (1510) 
0

>  <NONCOV_INTER_ENERGY_QM>  (1510) 
0

>  <FF_Energy>  (1510) 
0.58

>  <QM_Energy>  (1510) 
-4.65

>  <source>  (1510) 
ACET_MBZ_01

>  <Index>  (1510) 
24209

$$$$
ACET-pdb4ggo-A-ASP-205:MBZ-pdb4ggo-A-PHE-118
     RDKit          3D

 22 21  0  0  0  0  0  0  0  0999 V2000
   -4.6043    0.4778    1.3300 C   0  0  0  0  0  0  0  0  0  0  0  0
   -3.8516    0.6762    1.9471 H   0  0  0  0  0  0  0  0  0  0  0  0
   -4.6177   -0.4855    1.0935 H   0  0  0  0  0  0  0  0  0  0  0  0
   -5.5353    0.7127    1.8459 H   0  0  0  0  0  0  0  0  0  0  0  0
   -4.4242    1.2895    0.0635 C   0  0  0  0  0  0  0  0  0  0  0  0
   -4.4880    2.5348    0.1403 O   0  0  0  0  0  1  0  0  0  0  0  0
   -4.2290    0.6816   -1.0103 O   0  0  0  0  0  0  0  0  0  0  0  0
   -0.0019    2.8993    0.0029 C   0  0  0  0  0  0  0  0  0  0  0  0
    0.8741    3.2061   -0.3370 H   0  0  0  0  0  0  0  0  0  0  0  0
   -0.1544    3.2041    0.9308 H   0  0  0  0  0  0  0  0  0  0  0  0
   -0.7769    3.3394   -0.6247 H   0  0  0  0  0  0  0  0  0  0  0  0
   -0.0005    1.3950    0.0016 C   0  0  0  0  0  0  0  0  0  0  0  0
   -1.1894    0.6887   -0.0007 C   0  0  0  0  0  0  0  0  0  0  0  0
   -2.0593    1.1809   -0.0040 H   0  0  0  0  0  0  0  0  0  0  0  0
   -1.1942   -0.6926    0.0000 C   0  0  0  0  0  0  0  0  0  0  0  0
   -2.0739   -1.1871    0.0026 H   0  0  0  0  0  0  0  0  0  0  0  0
   -0.0015   -1.3858   -0.0008 C   0  0  0  0  0  0  0  0  0  0  0  0
   -0.0054   -2.3875   -0.0022 H   0  0  0  0  0  0  0  0  0  0  0  0
    1.1942   -0.6944    0.0000 C   0  0  0  0  0  0  0  0  0  0  0  0
    2.0768   -1.1944    0.0018 H   0  0  0  0  0  0  0  0  0  0  0  0
    1.1914    0.6891   -0.0001 C   0  0  0  0  0  0  0  0  0  0  0  0
    2.0613    1.1865   -0.0022 H   0  0  0  0  0  0  0  0  0  0  0  0
  1  5  1  0
  5  6  1  0
  5  7  2  0
  1  2  1  0
  1  3  1  0
  1  4  1  0
  8 12  1  0
 12 13  2  0
 13 15  1  0
 15 17  2  0
 17 19  1  0
 19 21  2  0
 21 12  1  0
  8  9  1  0
  8 10  1  0
  8 11  1  0
 13 14  1  0
 15 16  1  0
 17 18  1  0
 19 20  1  0
 21 22  1  0
M  CHG  1   6  -1
M  END
>  <PDB_ID>  (1511) 
pdb4ggo

>  <RESIDUE_NAME>  (1511) 
ASP   PHE

>  <FRAG_NAME>  (1511) 
ACET   MBZ

>  <FRAG_ATOM_NUM>  (1511) 
fragi: 7  fragj: 15

>  <atom.prop.CHAIN_ID>  (1511) 
A A A A A A A Z Z Z Z Z Z Z Z Z Z Z Z Z Z Z

>  <atom.prop.IS_HEAVY_ATOM>  (1511) 
1 0 0 0 1 1 1 1 0 0 0 1 1 0 1 0 1 0 1 0 1 0

>  <DIFUSE_FUNC_ATOM>  (1511) 
atom 6   atom 7   

>  <FINAL_SINGLE_POINT_ENERGY>  (1511) 
0

>  <NONCOV_INTER_ENERGY_QM>  (1511) 
0

>  <FF_Energy>  (1511) 
-0.08

>  <QM_Energy>  (1511) 
-6.3

>  <source>  (1511) 
ACET_MBZ_01

>  <Index>  (1511) 
24339

$$$$
ACET-pdb4ggo-C-ASP-205:MBZ-pdb4ggo-C-PHE-118
     RDKit          3D

 22 21  0  0  0  0  0  0  0  0999 V2000
   -4.8287    0.6562    1.1424 C   0  0  0  0  0  0  0  0  0  0  0  0
   -4.1022    0.7517    1.8116 H   0  0  0  0  0  0  0  0  0  0  0  0
   -4.9277   -0.2912    0.8669 H   0  0  0  0  0  0  0  0  0  0  0  0
   -5.7614    0.9714    1.6103 H   0  0  0  0  0  0  0  0  0  0  0  0
   -4.4817    1.4868   -0.0774 C   0  0  0  0  0  0  0  0  0  0  0  0
   -4.5639    2.7301    0.0061 O   0  0  0  0  0  1  0  0  0  0  0  0
   -4.1321    0.8981   -1.1217 O   0  0  0  0  0  0  0  0  0  0  0  0
    0.0047    2.8979    0.0021 C   0  0  0  0  0  0  0  0  0  0  0  0
    0.9025    3.2023   -0.2807 H   0  0  0  0  0  0  0  0  0  0  0  0
   -0.2044    3.2046    0.9198 H   0  0  0  0  0  0  0  0  0  0  0  0
   -0.7264    3.3438   -0.6724 H   0  0  0  0  0  0  0  0  0  0  0  0
    0.0005    1.3959    0.0008 C   0  0  0  0  0  0  0  0  0  0  0  0
   -1.1906    0.6912   -0.0008 C   0  0  0  0  0  0  0  0  0  0  0  0
   -2.0587    1.1809   -0.0038 H   0  0  0  0  0  0  0  0  0  0  0  0
   -1.1947   -0.6951    0.0000 C   0  0  0  0  0  0  0  0  0  0  0  0
   -2.0748   -1.1886    0.0018 H   0  0  0  0  0  0  0  0  0  0  0  0
   -0.0013   -1.3863    0.0002 C   0  0  0  0  0  0  0  0  0  0  0  0
   -0.0042   -2.3887   -0.0000 H   0  0  0  0  0  0  0  0  0  0  0  0
    1.1947   -0.6947   -0.0000 C   0  0  0  0  0  0  0  0  0  0  0  0
    2.0773   -1.1945    0.0015 H   0  0  0  0  0  0  0  0  0  0  0  0
    1.1914    0.6889   -0.0002 C   0  0  0  0  0  0  0  0  0  0  0  0
    2.0620    1.1865   -0.0017 H   0  0  0  0  0  0  0  0  0  0  0  0
  1  5  1  0
  5  6  1  0
  5  7  2  0
  1  2  1  0
  1  3  1  0
  1  4  1  0
  8 12  1  0
 12 13  2  0
 13 15  1  0
 15 17  2  0
 17 19  1  0
 19 21  2  0
 21 12  1  0
  8  9  1  0
  8 10  1  0
  8 11  1  0
 13 14  1  0
 15 16  1  0
 17 18  1  0
 19 20  1  0
 21 22  1  0
M  CHG  1   6  -1
M  END
>  <PDB_ID>  (1512) 
pdb4ggo

>  <RESIDUE_NAME>  (1512) 
ASP   PHE

>  <FRAG_NAME>  (1512) 
ACET   MBZ

>  <FRAG_ATOM_NUM>  (1512) 
fragi: 7  fragj: 15

>  <atom.prop.CHAIN_ID>  (1512) 
A A A A A A A Z Z Z Z Z Z Z Z Z Z Z Z Z Z Z

>  <atom.prop.IS_HEAVY_ATOM>  (1512) 
1 0 0 0 1 1 1 1 0 0 0 1 1 0 1 0 1 0 1 0 1 0

>  <DIFUSE_FUNC_ATOM>  (1512) 
atom 6   atom 7   

>  <FINAL_SINGLE_POINT_ENERGY>  (1512) 
0

>  <NONCOV_INTER_ENERGY_QM>  (1512) 
0

>  <FF_Energy>  (1512) 
-0.59

>  <QM_Energy>  (1512) 
-6.12

>  <source>  (1512) 
ACET_MBZ_01

>  <Index>  (1512) 
24341

$$$$
ACET-pdb3jyh-C-GLU-127:MBZ-pdb3jyh-C-PHE-48
     RDKit          3D

 22 21  0  0  0  0  0  0  0  0999 V2000
    2.4845   -5.4827   -0.0540 C   0  0  0  0  0  0  0  0  0  0  0  0
    3.3735   -5.0628   -0.0361 H   0  0  0  0  0  0  0  0  0  0  0  0
    2.5088   -6.3886   -0.4362 H   0  0  0  0  0  0  0  0  0  0  0  0
    2.0736   -5.5180    0.9550 H   0  0  0  0  0  0  0  0  0  0  0  0
    1.6212   -4.6413   -0.9798 C   0  0  0  0  0  0  0  0  0  0  0  0
    0.4524   -4.3575   -0.6480 O   0  0  0  0  0  1  0  0  0  0  0  0
    2.1050   -4.2641   -2.0624 O   0  0  0  0  0  0  0  0  0  0  0  0
   -0.0064    2.8970    0.0120 C   0  0  0  0  0  0  0  0  0  0  0  0
    0.8124    3.1980    0.4820 H   0  0  0  0  0  0  0  0  0  0  0  0
   -0.8210    3.1934    0.4925 H   0  0  0  0  0  0  0  0  0  0  0  0
   -0.0138    3.3563   -0.9765 H   0  0  0  0  0  0  0  0  0  0  0  0
   -0.0029    1.3956   -0.0084 C   0  0  0  0  0  0  0  0  0  0  0  0
   -1.2015    0.6864    0.0016 C   0  0  0  0  0  0  0  0  0  0  0  0
   -2.0659    1.1836    0.0084 H   0  0  0  0  0  0  0  0  0  0  0  0
   -1.2077   -0.6934    0.0000 C   0  0  0  0  0  0  0  0  0  0  0  0
   -2.0768   -1.1957   -0.0049 H   0  0  0  0  0  0  0  0  0  0  0  0
    0.0047   -1.3891    0.0072 C   0  0  0  0  0  0  0  0  0  0  0  0
   -0.0004   -2.3874    0.0175 H   0  0  0  0  0  0  0  0  0  0  0  0
    1.2077   -0.6914   -0.0000 C   0  0  0  0  0  0  0  0  0  0  0  0
    2.0869   -1.1917   -0.0032 H   0  0  0  0  0  0  0  0  0  0  0  0
    1.1998    0.6918   -0.0005 C   0  0  0  0  0  0  0  0  0  0  0  0
    2.0629    1.1956    0.0037 H   0  0  0  0  0  0  0  0  0  0  0  0
  1  5  1  0
  5  6  1  0
  5  7  2  0
  1  2  1  0
  1  3  1  0
  1  4  1  0
  8 12  1  0
 12 13  2  0
 13 15  1  0
 15 17  2  0
 17 19  1  0
 19 21  2  0
 21 12  1  0
  8  9  1  0
  8 10  1  0
  8 11  1  0
 13 14  1  0
 15 16  1  0
 17 18  1  0
 19 20  1  0
 21 22  1  0
M  CHG  1   6  -1
M  END
>  <PDB_ID>  (1513) 
pdb3jyh

>  <RESIDUE_NAME>  (1513) 
GLU   PHE

>  <FRAG_NAME>  (1513) 
ACET   MBZ

>  <FRAG_ATOM_NUM>  (1513) 
fragi: 7  fragj: 15

>  <atom.prop.CHAIN_ID>  (1513) 
A A A A A A A Z Z Z Z Z Z Z Z Z Z Z Z Z Z Z

>  <atom.prop.IS_HEAVY_ATOM>  (1513) 
1 0 0 0 1 1 1 1 0 0 0 1 1 0 1 0 1 0 1 0 1 0

>  <DIFUSE_FUNC_ATOM>  (1513) 
atom 6   atom 7   

>  <FINAL_SINGLE_POINT_ENERGY>  (1513) 
0

>  <NONCOV_INTER_ENERGY_QM>  (1513) 
0

>  <FF_Energy>  (1513) 
0.53

>  <QM_Energy>  (1513) 
-5.46

>  <source>  (1513) 
ACET_MBZ_01

>  <Index>  (1513) 
24429

$$$$
ACET-pdb4gio-A-ASP-75:MBZ-pdb4gio-A-PHE-79
     RDKit          3D

 22 21  0  0  0  0  0  0  0  0999 V2000
    3.1915    5.2276   -3.1609 C   0  0  0  0  0  0  0  0  0  0  0  0
    4.0410    4.9827   -3.5951 H   0  0  0  0  0  0  0  0  0  0  0  0
    3.3195    5.9069   -2.4606 H   0  0  0  0  0  0  0  0  0  0  0  0
    2.5427    5.6574   -3.9242 H   0  0  0  0  0  0  0  0  0  0  0  0
    2.5883    3.9476   -2.5021 C   0  0  0  0  0  0  0  0  0  0  0  0
    1.5725    3.3882   -2.9991 O   0  0  0  0  0  1  0  0  0  0  0  0
    3.1882    3.4670   -1.5024 O   0  0  0  0  0  0  0  0  0  0  0  0
   -0.0158    2.9849    0.0377 C   0  0  0  0  0  0  0  0  0  0  0  0
    0.8328    3.2920   -0.3672 H   0  0  0  0  0  0  0  0  0  0  0  0
   -0.0695    3.2397    0.9922 H   0  0  0  0  0  0  0  0  0  0  0  0
   -0.8454    3.4497   -0.4951 H   0  0  0  0  0  0  0  0  0  0  0  0
   -0.0002    1.4423   -0.0114 C   0  0  0  0  0  0  0  0  0  0  0  0
   -1.2071    0.7137   -0.0244 C   0  0  0  0  0  0  0  0  0  0  0  0
   -2.0778    1.1820   -0.0517 H   0  0  0  0  0  0  0  0  0  0  0  0
   -1.2228   -0.7396   -0.0000 C   0  0  0  0  0  0  0  0  0  0  0  0
   -2.0955   -1.2031    0.0127 H   0  0  0  0  0  0  0  0  0  0  0  0
   -0.0060   -1.4350    0.0060 C   0  0  0  0  0  0  0  0  0  0  0  0
    0.0028   -2.4285    0.0145 H   0  0  0  0  0  0  0  0  0  0  0  0
    1.2228   -0.7217    0.0000 C   0  0  0  0  0  0  0  0  0  0  0  0
    2.0978   -1.1928   -0.0222 H   0  0  0  0  0  0  0  0  0  0  0  0
    1.2133    0.7403    0.0298 C   0  0  0  0  0  0  0  0  0  0  0  0
    2.0762    1.2097    0.0780 H   0  0  0  0  0  0  0  0  0  0  0  0
  1  5  1  0
  5  6  1  0
  5  7  2  0
  1  2  1  0
  1  3  1  0
  1  4  1  0
  8 12  1  0
 12 13  2  0
 13 15  1  0
 15 17  2  0
 17 19  1  0
 19 21  2  0
 21 12  1  0
  8  9  1  0
  8 10  1  0
  8 11  1  0
 13 14  1  0
 15 16  1  0
 17 18  1  0
 19 20  1  0
 21 22  1  0
M  CHG  1   6  -1
M  END
>  <PDB_ID>  (1514) 
pdb4gio

>  <RESIDUE_NAME>  (1514) 
ASP   PHE

>  <FRAG_NAME>  (1514) 
ACET   MBZ

>  <FRAG_ATOM_NUM>  (1514) 
fragi: 7  fragj: 15

>  <atom.prop.CHAIN_ID>  (1514) 
A A A A A A A Z Z Z Z Z Z Z Z Z Z Z Z Z Z Z

>  <atom.prop.IS_HEAVY_ATOM>  (1514) 
1 0 0 0 1 1 1 1 0 0 0 1 1 0 1 0 1 0 1 0 1 0

>  <DIFUSE_FUNC_ATOM>  (1514) 
atom 6   atom 7   

>  <FINAL_SINGLE_POINT_ENERGY>  (1514) 
0

>  <NONCOV_INTER_ENERGY_QM>  (1514) 
0

>  <FF_Energy>  (1514) 
-0.77

>  <QM_Energy>  (1514) 
-7.15

>  <source>  (1514) 
ACET_MBZ_01

>  <Index>  (1514) 
24467

$$$$
ACET-pdb3jze-A-ASP-210:MBZ-pdb3jze-A-PHE-206
     RDKit          3D

 22 21  0  0  0  0  0  0  0  0999 V2000
   -2.7096    2.2442    2.8085 C   0  0  0  0  0  0  0  0  0  0  0  0
   -1.9510    2.8695    2.6640 H   0  0  0  0  0  0  0  0  0  0  0  0
   -2.3880    1.3060    2.8390 H   0  0  0  0  0  0  0  0  0  0  0  0
   -3.1657    2.4794    3.7702 H   0  0  0  0  0  0  0  0  0  0  0  0
   -3.6833    2.3873    1.6533 C   0  0  0  0  0  0  0  0  0  0  0  0
   -4.7521    1.7596    1.7146 O   0  0  0  0  0  1  0  0  0  0  0  0
   -3.3803    3.1224    0.6881 O   0  0  0  0  0  0  0  0  0  0  0  0
   -0.0230    2.8950    0.0124 C   0  0  0  0  0  0  0  0  0  0  0  0
    0.9131    3.2122   -0.0192 H   0  0  0  0  0  0  0  0  0  0  0  0
   -0.4710    3.1820    0.8461 H   0  0  0  0  0  0  0  0  0  0  0  0
   -0.5568    3.3438   -0.8253 H   0  0  0  0  0  0  0  0  0  0  0  0
   -0.0052    1.3922   -0.0116 C   0  0  0  0  0  0  0  0  0  0  0  0
   -1.1840    0.6878    0.0092 C   0  0  0  0  0  0  0  0  0  0  0  0
   -2.0589    1.1737    0.0298 H   0  0  0  0  0  0  0  0  0  0  0  0
   -1.1857   -0.6949    0.0000 C   0  0  0  0  0  0  0  0  0  0  0  0
   -2.0647   -1.1902   -0.0008 H   0  0  0  0  0  0  0  0  0  0  0  0
    0.0075   -1.3820   -0.0059 C   0  0  0  0  0  0  0  0  0  0  0  0
    0.0003   -2.3869   -0.0153 H   0  0  0  0  0  0  0  0  0  0  0  0
    1.1857   -0.6950   -0.0000 C   0  0  0  0  0  0  0  0  0  0  0  0
    2.0770   -1.1858   -0.0003 H   0  0  0  0  0  0  0  0  0  0  0  0
    1.1817    0.6919    0.0084 C   0  0  0  0  0  0  0  0  0  0  0  0
    2.0534    1.1862    0.0286 H   0  0  0  0  0  0  0  0  0  0  0  0
  1  5  1  0
  5  6  1  0
  5  7  2  0
  1  2  1  0
  1  3  1  0
  1  4  1  0
  8 12  1  0
 12 13  2  0
 13 15  1  0
 15 17  2  0
 17 19  1  0
 19 21  2  0
 21 12  1  0
  8  9  1  0
  8 10  1  0
  8 11  1  0
 13 14  1  0
 15 16  1  0
 17 18  1  0
 19 20  1  0
 21 22  1  0
M  CHG  1   6  -1
M  END
>  <PDB_ID>  (1515) 
pdb3jze

>  <RESIDUE_NAME>  (1515) 
ASP   PHE

>  <FRAG_NAME>  (1515) 
ACET   MBZ

>  <FRAG_ATOM_NUM>  (1515) 
fragi: 7  fragj: 15

>  <atom.prop.CHAIN_ID>  (1515) 
A A A A A A A Z Z Z Z Z Z Z Z Z Z Z Z Z Z Z

>  <atom.prop.IS_HEAVY_ATOM>  (1515) 
1 0 0 0 1 1 1 1 0 0 0 1 1 0 1 0 1 0 1 0 1 0

>  <DIFUSE_FUNC_ATOM>  (1515) 
atom 6   atom 7   

>  <FINAL_SINGLE_POINT_ENERGY>  (1515) 
0

>  <NONCOV_INTER_ENERGY_QM>  (1515) 
0

>  <FF_Energy>  (1515) 
-2.12

>  <QM_Energy>  (1515) 
-7.41

>  <source>  (1515) 
ACET_MBZ_01

>  <Index>  (1515) 
24523

$$$$
ACET-pdb4gio-B-ASP-75:MBZ-pdb4gio-B-PHE-79
     RDKit          3D

 22 21  0  0  0  0  0  0  0  0999 V2000
    2.9982    5.1963   -3.4471 C   0  0  0  0  0  0  0  0  0  0  0  0
    3.8888    4.9977   -3.8333 H   0  0  0  0  0  0  0  0  0  0  0  0
    3.0597    5.9127   -2.7663 H   0  0  0  0  0  0  0  0  0  0  0  0
    2.3355    5.5274   -4.2467 H   0  0  0  0  0  0  0  0  0  0  0  0
    2.5034    3.8935   -2.7152 C   0  0  0  0  0  0  0  0  0  0  0  0
    1.5221    3.1793   -3.1136 O   0  0  0  0  0  1  0  0  0  0  0  0
    3.1492    3.5900   -1.6796 O   0  0  0  0  0  0  0  0  0  0  0  0
   -0.0044    2.9348    0.0123 C   0  0  0  0  0  0  0  0  0  0  0  0
    0.8315    3.2400   -0.4131 H   0  0  0  0  0  0  0  0  0  0  0  0
   -0.0504    3.2025    0.9607 H   0  0  0  0  0  0  0  0  0  0  0  0
   -0.8399    3.3996   -0.5110 H   0  0  0  0  0  0  0  0  0  0  0  0
   -0.0006    1.3941   -0.0278 C   0  0  0  0  0  0  0  0  0  0  0  0
   -1.1619    0.6887   -0.0158 C   0  0  0  0  0  0  0  0  0  0  0  0
   -2.0494    1.1757   -0.0191 H   0  0  0  0  0  0  0  0  0  0  0  0
   -1.1941   -0.7075    0.0000 C   0  0  0  0  0  0  0  0  0  0  0  0
   -2.0824   -1.1749   -0.0056 H   0  0  0  0  0  0  0  0  0  0  0  0
   -0.0223   -1.3921    0.0238 C   0  0  0  0  0  0  0  0  0  0  0  0
   -0.0086   -2.3931    0.0580 H   0  0  0  0  0  0  0  0  0  0  0  0
    1.1941   -0.6941    0.0000 C   0  0  0  0  0  0  0  0  0  0  0  0
    2.0675   -1.1880   -0.0296 H   0  0  0  0  0  0  0  0  0  0  0  0
    1.1848    0.7109    0.0198 C   0  0  0  0  0  0  0  0  0  0  0  0
    2.0544    1.1974    0.0679 H   0  0  0  0  0  0  0  0  0  0  0  0
  1  5  1  0
  5  6  1  0
  5  7  2  0
  1  2  1  0
  1  3  1  0
  1  4  1  0
  8 12  1  0
 12 13  2  0
 13 15  1  0
 15 17  2  0
 17 19  1  0
 19 21  2  0
 21 12  1  0
  8  9  1  0
  8 10  1  0
  8 11  1  0
 13 14  1  0
 15 16  1  0
 17 18  1  0
 19 20  1  0
 21 22  1  0
M  CHG  1   6  -1
M  END
>  <PDB_ID>  (1516) 
pdb4gio

>  <RESIDUE_NAME>  (1516) 
ASP   PHE

>  <FRAG_NAME>  (1516) 
ACET   MBZ

>  <FRAG_ATOM_NUM>  (1516) 
fragi: 7  fragj: 15

>  <atom.prop.CHAIN_ID>  (1516) 
A A A A A A A Z Z Z Z Z Z Z Z Z Z Z Z Z Z Z

>  <atom.prop.IS_HEAVY_ATOM>  (1516) 
1 0 0 0 1 1 1 1 0 0 0 1 1 0 1 0 1 0 1 0 1 0

>  <DIFUSE_FUNC_ATOM>  (1516) 
atom 6   atom 7   

>  <FINAL_SINGLE_POINT_ENERGY>  (1516) 
0

>  <NONCOV_INTER_ENERGY_QM>  (1516) 
0

>  <FF_Energy>  (1516) 
-0.57

>  <QM_Energy>  (1516) 
-6.54

>  <source>  (1516) 
ACET_MBZ_01

>  <Index>  (1516) 
24537

$$$$
ACET-pdb4gkb-A-GLU-242:MBZ-pdb4gkb-B-PHE-245
     RDKit          3D

 22 21  0  0  0  0  0  0  0  0999 V2000
   -2.1436    5.1893   -2.9894 C   0  0  0  0  0  0  0  0  0  0  0  0
   -1.5889    5.7375   -3.5782 H   0  0  0  0  0  0  0  0  0  0  0  0
   -2.0485    5.4176   -2.0439 H   0  0  0  0  0  0  0  0  0  0  0  0
   -3.1870    5.3223   -3.2751 H   0  0  0  0  0  0  0  0  0  0  0  0
   -1.7195    3.7530   -3.1613 C   0  0  0  0  0  0  0  0  0  0  0  0
   -2.2835    2.8916   -2.4597 O   0  0  0  0  0  1  0  0  0  0  0  0
   -0.8537    3.4739   -4.0139 O   0  0  0  0  0  0  0  0  0  0  0  0
    0.0002    2.9068   -0.0304 C   0  0  0  0  0  0  0  0  0  0  0  0
   -0.6580    3.1978   -0.7119 H   0  0  0  0  0  0  0  0  0  0  0  0
    0.9137    3.2089   -0.2686 H   0  0  0  0  0  0  0  0  0  0  0  0
   -0.2693    3.3779    0.9149 H   0  0  0  0  0  0  0  0  0  0  0  0
    0.0021    1.4021   -0.0001 C   0  0  0  0  0  0  0  0  0  0  0  0
   -1.1937    0.6927    0.0011 C   0  0  0  0  0  0  0  0  0  0  0  0
   -2.0617    1.1845    0.0013 H   0  0  0  0  0  0  0  0  0  0  0  0
   -1.2040   -0.6989   -0.0000 C   0  0  0  0  0  0  0  0  0  0  0  0
   -2.0820   -1.1879    0.0007 H   0  0  0  0  0  0  0  0  0  0  0  0
   -0.0066   -1.3951   -0.0006 C   0  0  0  0  0  0  0  0  0  0  0  0
   -0.0081   -2.3937   -0.0019 H   0  0  0  0  0  0  0  0  0  0  0  0
    1.2040   -0.7003    0.0000 C   0  0  0  0  0  0  0  0  0  0  0  0
    2.0811   -1.1964    0.0020 H   0  0  0  0  0  0  0  0  0  0  0  0
    1.1981    0.6995   -0.0004 C   0  0  0  0  0  0  0  0  0  0  0  0
    2.0666    1.1914   -0.0020 H   0  0  0  0  0  0  0  0  0  0  0  0
  1  5  1  0
  5  6  1  0
  5  7  2  0
  1  2  1  0
  1  3  1  0
  1  4  1  0
  8 12  1  0
 12 13  2  0
 13 15  1  0
 15 17  2  0
 17 19  1  0
 19 21  2  0
 21 12  1  0
  8  9  1  0
  8 10  1  0
  8 11  1  0
 13 14  1  0
 15 16  1  0
 17 18  1  0
 19 20  1  0
 21 22  1  0
M  CHG  1   6  -1
M  END
>  <PDB_ID>  (1517) 
pdb4gkb

>  <RESIDUE_NAME>  (1517) 
GLU   PHE

>  <FRAG_NAME>  (1517) 
ACET   MBZ

>  <FRAG_ATOM_NUM>  (1517) 
fragi: 7  fragj: 15

>  <atom.prop.CHAIN_ID>  (1517) 
A A A A A A A Z Z Z Z Z Z Z Z Z Z Z Z Z Z Z

>  <atom.prop.IS_HEAVY_ATOM>  (1517) 
1 0 0 0 1 1 1 1 0 0 0 1 1 0 1 0 1 0 1 0 1 0

>  <DIFUSE_FUNC_ATOM>  (1517) 
atom 6   atom 7   

>  <FINAL_SINGLE_POINT_ENERGY>  (1517) 
0

>  <NONCOV_INTER_ENERGY_QM>  (1517) 
0

>  <FF_Energy>  (1517) 
0.51

>  <QM_Energy>  (1517) 
-5.35

>  <source>  (1517) 
ACET_MBZ_01

>  <Index>  (1517) 
24540

$$$$
ACET-pdb4gkb-D-GLU-242:MBZ-pdb4gkb-C-PHE-245
     RDKit          3D

 22 21  0  0  0  0  0  0  0  0999 V2000
   -2.2491    5.2204   -2.9519 C   0  0  0  0  0  0  0  0  0  0  0  0
   -1.7188    5.7796   -3.5504 H   0  0  0  0  0  0  0  0  0  0  0  0
   -2.1478    5.4519   -2.0096 H   0  0  0  0  0  0  0  0  0  0  0  0
   -3.2994    5.3291   -3.2225 H   0  0  0  0  0  0  0  0  0  0  0  0
   -1.7922    3.7890   -3.1287 C   0  0  0  0  0  0  0  0  0  0  0  0
   -2.3392    2.9097   -2.4328 O   0  0  0  0  0  1  0  0  0  0  0  0
   -0.9249    3.5236   -3.9870 O   0  0  0  0  0  0  0  0  0  0  0  0
   -0.0084    2.9138   -0.0145 C   0  0  0  0  0  0  0  0  0  0  0  0
   -0.6814    3.2030   -0.6799 H   0  0  0  0  0  0  0  0  0  0  0  0
    0.8993    3.2152   -0.2685 H   0  0  0  0  0  0  0  0  0  0  0  0
   -0.2600    3.3764    0.9399 H   0  0  0  0  0  0  0  0  0  0  0  0
   -0.0031    1.4020    0.0093 C   0  0  0  0  0  0  0  0  0  0  0  0
   -1.1990    0.6875   -0.0039 C   0  0  0  0  0  0  0  0  0  0  0  0
   -2.0673    1.1784   -0.0181 H   0  0  0  0  0  0  0  0  0  0  0  0
   -1.2052   -0.7028   -0.0000 C   0  0  0  0  0  0  0  0  0  0  0  0
   -2.0753   -1.1998    0.0038 H   0  0  0  0  0  0  0  0  0  0  0  0
    0.0061   -1.3947    0.0011 C   0  0  0  0  0  0  0  0  0  0  0  0
    0.0044   -2.3938    0.0024 H   0  0  0  0  0  0  0  0  0  0  0  0
    1.2052   -0.6941    0.0000 C   0  0  0  0  0  0  0  0  0  0  0  0
    2.0884   -1.1863    0.0060 H   0  0  0  0  0  0  0  0  0  0  0  0
    1.1960    0.7021   -0.0064 C   0  0  0  0  0  0  0  0  0  0  0  0
    2.0617    1.1985   -0.0235 H   0  0  0  0  0  0  0  0  0  0  0  0
  1  5  1  0
  5  6  1  0
  5  7  2  0
  1  2  1  0
  1  3  1  0
  1  4  1  0
  8 12  1  0
 12 13  2  0
 13 15  1  0
 15 17  2  0
 17 19  1  0
 19 21  2  0
 21 12  1  0
  8  9  1  0
  8 10  1  0
  8 11  1  0
 13 14  1  0
 15 16  1  0
 17 18  1  0
 19 20  1  0
 21 22  1  0
M  CHG  1   6  -1
M  END
>  <PDB_ID>  (1518) 
pdb4gkb

>  <RESIDUE_NAME>  (1518) 
GLU   PHE

>  <FRAG_NAME>  (1518) 
ACET   MBZ

>  <FRAG_ATOM_NUM>  (1518) 
fragi: 7  fragj: 15

>  <atom.prop.CHAIN_ID>  (1518) 
A A A A A A A Z Z Z Z Z Z Z Z Z Z Z Z Z Z Z

>  <atom.prop.IS_HEAVY_ATOM>  (1518) 
1 0 0 0 1 1 1 1 0 0 0 1 1 0 1 0 1 0 1 0 1 0

>  <DIFUSE_FUNC_ATOM>  (1518) 
atom 6   atom 7   

>  <FINAL_SINGLE_POINT_ENERGY>  (1518) 
0

>  <NONCOV_INTER_ENERGY_QM>  (1518) 
0

>  <FF_Energy>  (1518) 
0.3

>  <QM_Energy>  (1518) 
-5.46

>  <source>  (1518) 
ACET_MBZ_01

>  <Index>  (1518) 
24543

$$$$
ACET-pdb4gl0-A-ASP-118:MBZ-pdb4gl0-A-PHE-121
     RDKit          3D

 22 21  0  0  0  0  0  0  0  0999 V2000
    4.5460    0.7457   -0.0775 C   0  0  0  0  0  0  0  0  0  0  0  0
    4.9370    0.2487    0.6881 H   0  0  0  0  0  0  0  0  0  0  0  0
    3.5829    0.9286    0.0802 H   0  0  0  0  0  0  0  0  0  0  0  0
    5.0700    1.6961   -0.1791 H   0  0  0  0  0  0  0  0  0  0  0  0
    4.6688   -0.1268   -1.3264 C   0  0  0  0  0  0  0  0  0  0  0  0
    4.4975    0.3576   -2.4679 O   0  0  0  0  0  1  0  0  0  0  0  0
    4.9268   -1.3123   -1.1569 O   0  0  0  0  0  0  0  0  0  0  0  0
   -0.0042    2.9104   -0.0768 C   0  0  0  0  0  0  0  0  0  0  0  0
    0.8849    3.2299    0.1886 H   0  0  0  0  0  0  0  0  0  0  0  0
   -0.7161    3.2424    0.5117 H   0  0  0  0  0  0  0  0  0  0  0  0
   -0.2056    3.2638   -1.0880 H   0  0  0  0  0  0  0  0  0  0  0  0
    0.0009    1.4005    0.0092 C   0  0  0  0  0  0  0  0  0  0  0  0
   -1.1693    0.6957   -0.0051 C   0  0  0  0  0  0  0  0  0  0  0  0
   -2.0488    1.1828   -0.0211 H   0  0  0  0  0  0  0  0  0  0  0  0
   -1.1802   -0.6875    0.0000 C   0  0  0  0  0  0  0  0  0  0  0  0
   -2.0714   -1.1722    0.0050 H   0  0  0  0  0  0  0  0  0  0  0  0
   -0.0048   -1.3951    0.0004 C   0  0  0  0  0  0  0  0  0  0  0  0
   -0.0179   -2.3927    0.0007 H   0  0  0  0  0  0  0  0  0  0  0  0
    1.1802   -0.7079    0.0000 C   0  0  0  0  0  0  0  0  0  0  0  0
    2.0690   -1.1928    0.0046 H   0  0  0  0  0  0  0  0  0  0  0  0
    1.1731    0.6943   -0.0045 C   0  0  0  0  0  0  0  0  0  0  0  0
    2.0551    1.1776   -0.0190 H   0  0  0  0  0  0  0  0  0  0  0  0
  1  5  1  0
  5  6  1  0
  5  7  2  0
  1  2  1  0
  1  3  1  0
  1  4  1  0
  8 12  1  0
 12 13  2  0
 13 15  1  0
 15 17  2  0
 17 19  1  0
 19 21  2  0
 21 12  1  0
  8  9  1  0
  8 10  1  0
  8 11  1  0
 13 14  1  0
 15 16  1  0
 17 18  1  0
 19 20  1  0
 21 22  1  0
M  CHG  1   6  -1
M  END
>  <PDB_ID>  (1519) 
pdb4gl0

>  <RESIDUE_NAME>  (1519) 
ASP   PHE

>  <FRAG_NAME>  (1519) 
ACET   MBZ

>  <FRAG_ATOM_NUM>  (1519) 
fragi: 7  fragj: 15

>  <atom.prop.CHAIN_ID>  (1519) 
A A A A A A A Z Z Z Z Z Z Z Z Z Z Z Z Z Z Z

>  <atom.prop.IS_HEAVY_ATOM>  (1519) 
1 0 0 0 1 1 1 1 0 0 0 1 1 0 1 0 1 0 1 0 1 0

>  <DIFUSE_FUNC_ATOM>  (1519) 
atom 6   atom 7   

>  <FINAL_SINGLE_POINT_ENERGY>  (1519) 
0

>  <NONCOV_INTER_ENERGY_QM>  (1519) 
0

>  <FF_Energy>  (1519) 
19.71

>  <QM_Energy>  (1519) 
-0.12

>  <source>  (1519) 
ACET_MBZ_01

>  <Index>  (1519) 
24575

$$$$
ACET-pdb3k1d-A-GLU-259:MBZ-pdb3k1d-A-PHE-573
     RDKit          3D

 22 21  0  0  0  0  0  0  0  0999 V2000
   -4.7515    1.7858   -0.5418 C   0  0  0  0  0  0  0  0  0  0  0  0
   -4.4323    0.9250   -0.1936 H   0  0  0  0  0  0  0  0  0  0  0  0
   -5.7177    1.7844   -0.7174 H   0  0  0  0  0  0  0  0  0  0  0  0
   -4.5358    2.5566    0.1981 H   0  0  0  0  0  0  0  0  0  0  0  0
   -4.0469    2.0359   -1.8625 C   0  0  0  0  0  0  0  0  0  0  0  0
   -2.9614    2.6516   -1.8356 O   0  0  0  0  0  1  0  0  0  0  0  0
   -4.5675    1.6037   -2.9216 O   0  0  0  0  0  0  0  0  0  0  0  0
   -0.0101    2.9031   -0.0230 C   0  0  0  0  0  0  0  0  0  0  0  0
   -0.5207    3.1953   -0.8189 H   0  0  0  0  0  0  0  0  0  0  0  0
    0.9286    3.2147   -0.0647 H   0  0  0  0  0  0  0  0  0  0  0  0
   -0.4728    3.3539    0.8550 H   0  0  0  0  0  0  0  0  0  0  0  0
   -0.0012    1.4032   -0.0012 C   0  0  0  0  0  0  0  0  0  0  0  0
   -1.2020    0.6933   -0.0003 C   0  0  0  0  0  0  0  0  0  0  0  0
   -2.0670    1.1852   -0.0013 H   0  0  0  0  0  0  0  0  0  0  0  0
   -1.2068   -0.6980    0.0000 C   0  0  0  0  0  0  0  0  0  0  0  0
   -2.0784   -1.1949    0.0014 H   0  0  0  0  0  0  0  0  0  0  0  0
    0.0037   -1.3954   -0.0004 C   0  0  0  0  0  0  0  0  0  0  0  0
   -0.0012   -2.3936   -0.0018 H   0  0  0  0  0  0  0  0  0  0  0  0
    1.2068   -0.6979    0.0000 C   0  0  0  0  0  0  0  0  0  0  0  0
    2.0868   -1.1941    0.0009 H   0  0  0  0  0  0  0  0  0  0  0  0
    1.1995    0.6947    0.0018 C   0  0  0  0  0  0  0  0  0  0  0  0
    2.0658    1.1933    0.0045 H   0  0  0  0  0  0  0  0  0  0  0  0
  1  5  1  0
  5  6  1  0
  5  7  2  0
  1  2  1  0
  1  3  1  0
  1  4  1  0
  8 12  1  0
 12 13  2  0
 13 15  1  0
 15 17  2  0
 17 19  1  0
 19 21  2  0
 21 12  1  0
  8  9  1  0
  8 10  1  0
  8 11  1  0
 13 14  1  0
 15 16  1  0
 17 18  1  0
 19 20  1  0
 21 22  1  0
M  CHG  1   6  -1
M  END
>  <PDB_ID>  (1520) 
pdb3k1d

>  <RESIDUE_NAME>  (1520) 
GLU   PHE

>  <FRAG_NAME>  (1520) 
ACET   MBZ

>  <FRAG_ATOM_NUM>  (1520) 
fragi: 7  fragj: 15

>  <atom.prop.CHAIN_ID>  (1520) 
A A A A A A A Z Z Z Z Z Z Z Z Z Z Z Z Z Z Z

>  <atom.prop.IS_HEAVY_ATOM>  (1520) 
1 0 0 0 1 1 1 1 0 0 0 1 1 0 1 0 1 0 1 0 1 0

>  <DIFUSE_FUNC_ATOM>  (1520) 
atom 6   atom 7   

>  <FINAL_SINGLE_POINT_ENERGY>  (1520) 
0

>  <NONCOV_INTER_ENERGY_QM>  (1520) 
0

>  <FF_Energy>  (1520) 
-0.84

>  <QM_Energy>  (1520) 
-6.25

>  <source>  (1520) 
ACET_MBZ_01

>  <Index>  (1520) 
24618

$$$$
ACET-pdb4gmo-A-ASP-298:MBZ-pdb4gmo-A-PHE-295
     RDKit          3D

 22 21  0  0  0  0  0  0  0  0999 V2000
    2.9771    4.2144    0.6523 C   0  0  0  0  0  0  0  0  0  0  0  0
    2.2328    3.6632    0.2652 H   0  0  0  0  0  0  0  0  0  0  0  0
    3.7721    4.1583    0.0418 H   0  0  0  0  0  0  0  0  0  0  0  0
    2.6467    5.2528    0.6779 H   0  0  0  0  0  0  0  0  0  0  0  0
    3.3598    3.6300    1.9969 C   0  0  0  0  0  0  0  0  0  0  0  0
    3.2788    4.3433    3.0235 O   0  0  0  0  0  1  0  0  0  0  0  0
    3.7259    2.4494    2.0138 O   0  0  0  0  0  0  0  0  0  0  0  0
   -0.0186    2.9087   -0.0165 C   0  0  0  0  0  0  0  0  0  0  0  0
    0.9136    3.2244   -0.0589 H   0  0  0  0  0  0  0  0  0  0  0  0
   -0.4764    3.2187    0.7990 H   0  0  0  0  0  0  0  0  0  0  0  0
   -0.5497    3.3222   -0.8739 H   0  0  0  0  0  0  0  0  0  0  0  0
   -0.0010    1.3986    0.0031 C   0  0  0  0  0  0  0  0  0  0  0  0
   -1.1943    0.6863   -0.0010 C   0  0  0  0  0  0  0  0  0  0  0  0
   -2.0629    1.1773   -0.0065 H   0  0  0  0  0  0  0  0  0  0  0  0
   -1.1972   -0.6988    0.0000 C   0  0  0  0  0  0  0  0  0  0  0  0
   -2.0743   -1.1949    0.0018 H   0  0  0  0  0  0  0  0  0  0  0  0
    0.0001   -1.3869    0.0004 C   0  0  0  0  0  0  0  0  0  0  0  0
    0.0010   -2.3886    0.0006 H   0  0  0  0  0  0  0  0  0  0  0  0
    1.1972   -0.6906   -0.0000 C   0  0  0  0  0  0  0  0  0  0  0  0
    2.0804   -1.1925    0.0029 H   0  0  0  0  0  0  0  0  0  0  0  0
    1.1952    0.6914   -0.0026 C   0  0  0  0  0  0  0  0  0  0  0  0
    2.0628    1.1904   -0.0092 H   0  0  0  0  0  0  0  0  0  0  0  0
  1  5  1  0
  5  6  1  0
  5  7  2  0
  1  2  1  0
  1  3  1  0
  1  4  1  0
  8 12  1  0
 12 13  2  0
 13 15  1  0
 15 17  2  0
 17 19  1  0
 19 21  2  0
 21 12  1  0
  8  9  1  0
  8 10  1  0
  8 11  1  0
 13 14  1  0
 15 16  1  0
 17 18  1  0
 19 20  1  0
 21 22  1  0
M  CHG  1   6  -1
M  END
>  <PDB_ID>  (1521) 
pdb4gmo

>  <RESIDUE_NAME>  (1521) 
ASP   PHE

>  <FRAG_NAME>  (1521) 
ACET   MBZ

>  <FRAG_ATOM_NUM>  (1521) 
fragi: 7  fragj: 15

>  <atom.prop.CHAIN_ID>  (1521) 
A A A A A A A Z Z Z Z Z Z Z Z Z Z Z Z Z Z Z

>  <atom.prop.IS_HEAVY_ATOM>  (1521) 
1 0 0 0 1 1 1 1 0 0 0 1 1 0 1 0 1 0 1 0 1 0

>  <DIFUSE_FUNC_ATOM>  (1521) 
atom 6   atom 7   

>  <FINAL_SINGLE_POINT_ENERGY>  (1521) 
0

>  <NONCOV_INTER_ENERGY_QM>  (1521) 
0

>  <FF_Energy>  (1521) 
46.76

>  <QM_Energy>  (1521) 
1.86

>  <source>  (1521) 
ACET_MBZ_01

>  <Index>  (1521) 
24690

$$$$
ACET-pdb3k2l-A-GLU-183:MBZ-pdb3k2l-A-PHE-186
     RDKit          3D

 22 21  0  0  0  0  0  0  0  0999 V2000
    4.9845    1.4534    0.9482 C   0  0  0  0  0  0  0  0  0  0  0  0
    5.9799    1.4891    1.0506 H   0  0  0  0  0  0  0  0  0  0  0  0
    4.5539    1.7769    1.7913 H   0  0  0  0  0  0  0  0  0  0  0  0
    4.7101    2.1431    0.1500 H   0  0  0  0  0  0  0  0  0  0  0  0
    4.5956    0.0207    0.7566 C   0  0  0  0  0  0  0  0  0  0  0  0
    4.0008   -0.3986   -0.2261 O   0  0  0  0  0  1  0  0  0  0  0  0
    4.9349   -0.6970    1.7201 O   0  0  0  0  0  0  0  0  0  0  0  0
   -0.0077    2.9070   -0.0152 C   0  0  0  0  0  0  0  0  0  0  0  0
    0.9104    3.2202    0.1570 H   0  0  0  0  0  0  0  0  0  0  0  0
   -0.6373    3.2200    0.6755 H   0  0  0  0  0  0  0  0  0  0  0  0
   -0.3269    3.3262   -0.9694 H   0  0  0  0  0  0  0  0  0  0  0  0
   -0.0022    1.4032    0.0022 C   0  0  0  0  0  0  0  0  0  0  0  0
   -1.2038    0.6952   -0.0024 C   0  0  0  0  0  0  0  0  0  0  0  0
   -2.0672    1.1878   -0.0092 H   0  0  0  0  0  0  0  0  0  0  0  0
   -1.2072   -0.6931    0.0000 C   0  0  0  0  0  0  0  0  0  0  0  0
   -2.0776   -1.1931    0.0030 H   0  0  0  0  0  0  0  0  0  0  0  0
    0.0068   -1.3944   -0.0005 C   0  0  0  0  0  0  0  0  0  0  0  0
   -0.0051   -2.3933   -0.0019 H   0  0  0  0  0  0  0  0  0  0  0  0
    1.2072   -0.7025    0.0000 C   0  0  0  0  0  0  0  0  0  0  0  0
    2.0882   -1.1961    0.0011 H   0  0  0  0  0  0  0  0  0  0  0  0
    1.1991    0.6917    0.0007 C   0  0  0  0  0  0  0  0  0  0  0  0
    2.0660    1.1892   -0.0005 H   0  0  0  0  0  0  0  0  0  0  0  0
  1  5  1  0
  5  6  1  0
  5  7  2  0
  1  2  1  0
  1  3  1  0
  1  4  1  0
  8 12  1  0
 12 13  2  0
 13 15  1  0
 15 17  2  0
 17 19  1  0
 19 21  2  0
 21 12  1  0
  8  9  1  0
  8 10  1  0
  8 11  1  0
 13 14  1  0
 15 16  1  0
 17 18  1  0
 19 20  1  0
 21 22  1  0
M  CHG  1   6  -1
M  END
>  <PDB_ID>  (1522) 
pdb3k2l

>  <RESIDUE_NAME>  (1522) 
GLU   PHE

>  <FRAG_NAME>  (1522) 
ACET   MBZ

>  <FRAG_ATOM_NUM>  (1522) 
fragi: 7  fragj: 15

>  <atom.prop.CHAIN_ID>  (1522) 
A A A A A A A Z Z Z Z Z Z Z Z Z Z Z Z Z Z Z

>  <atom.prop.IS_HEAVY_ATOM>  (1522) 
1 0 0 0 1 1 1 1 0 0 0 1 1 0 1 0 1 0 1 0 1 0

>  <DIFUSE_FUNC_ATOM>  (1522) 
atom 6   atom 7   

>  <FINAL_SINGLE_POINT_ENERGY>  (1522) 
0

>  <NONCOV_INTER_ENERGY_QM>  (1522) 
0

>  <FF_Energy>  (1522) 
3.36

>  <QM_Energy>  (1522) 
-5.77

>  <source>  (1522) 
ACET_MBZ_01

>  <Index>  (1522) 
24751

$$$$
ACET-pdb3k2n-B-ASP-36:MBZ-pdb3k2n-B-PHE-59
     RDKit          3D

 22 21  0  0  0  0  0  0  0  0999 V2000
   -6.1751   -1.3304   -1.1270 C   0  0  0  0  0  0  0  0  0  0  0  0
   -6.8970   -0.9498   -0.5658 H   0  0  0  0  0  0  0  0  0  0  0  0
   -5.8051   -2.1540   -0.7195 H   0  0  0  0  0  0  0  0  0  0  0  0
   -6.5997   -1.5910   -2.0965 H   0  0  0  0  0  0  0  0  0  0  0  0
   -5.0415   -0.2889   -1.2282 C   0  0  0  0  0  0  0  0  0  0  0  0
   -4.9638    0.4404   -2.2366 O   0  0  0  0  0  1  0  0  0  0  0  0
   -4.2184   -0.1960   -0.2957 O   0  0  0  0  0  0  0  0  0  0  0  0
   -0.0090    2.8923   -0.0150 C   0  0  0  0  0  0  0  0  0  0  0  0
    0.6175    3.2107    0.6808 H   0  0  0  0  0  0  0  0  0  0  0  0
   -0.9329    3.1939    0.1683 H   0  0  0  0  0  0  0  0  0  0  0  0
    0.3009    3.3246   -0.9664 H   0  0  0  0  0  0  0  0  0  0  0  0
    0.0021    1.3915    0.0002 C   0  0  0  0  0  0  0  0  0  0  0  0
   -1.1915    0.6751   -0.0057 C   0  0  0  0  0  0  0  0  0  0  0  0
   -2.0596    1.1741   -0.0160 H   0  0  0  0  0  0  0  0  0  0  0  0
   -1.1972   -0.6971    0.0000 C   0  0  0  0  0  0  0  0  0  0  0  0
   -2.0748   -1.1968    0.0015 H   0  0  0  0  0  0  0  0  0  0  0  0
   -0.0030   -1.3854    0.0050 C   0  0  0  0  0  0  0  0  0  0  0  0
    0.0019   -2.3850    0.0115 H   0  0  0  0  0  0  0  0  0  0  0  0
    1.1972   -0.6836    0.0000 C   0  0  0  0  0  0  0  0  0  0  0  0
    2.0787   -1.1845   -0.0020 H   0  0  0  0  0  0  0  0  0  0  0  0
    1.1923    0.6996    0.0005 C   0  0  0  0  0  0  0  0  0  0  0  0
    2.0602    1.1971    0.0004 H   0  0  0  0  0  0  0  0  0  0  0  0
  1  5  1  0
  5  6  1  0
  5  7  2  0
  1  2  1  0
  1  3  1  0
  1  4  1  0
  8 12  1  0
 12 13  2  0
 13 15  1  0
 15 17  2  0
 17 19  1  0
 19 21  2  0
 21 12  1  0
  8  9  1  0
  8 10  1  0
  8 11  1  0
 13 14  1  0
 15 16  1  0
 17 18  1  0
 19 20  1  0
 21 22  1  0
M  CHG  1   6  -1
M  END
>  <PDB_ID>  (1523) 
pdb3k2n

>  <RESIDUE_NAME>  (1523) 
ASP   PHE

>  <FRAG_NAME>  (1523) 
ACET   MBZ

>  <FRAG_ATOM_NUM>  (1523) 
fragi: 7  fragj: 15

>  <atom.prop.CHAIN_ID>  (1523) 
A A A A A A A Z Z Z Z Z Z Z Z Z Z Z Z Z Z Z

>  <atom.prop.IS_HEAVY_ATOM>  (1523) 
1 0 0 0 1 1 1 1 0 0 0 1 1 0 1 0 1 0 1 0 1 0

>  <DIFUSE_FUNC_ATOM>  (1523) 
atom 6   atom 7   

>  <FINAL_SINGLE_POINT_ENERGY>  (1523) 
0

>  <NONCOV_INTER_ENERGY_QM>  (1523) 
0

>  <FF_Energy>  (1523) 
-1.6

>  <QM_Energy>  (1523) 
-6.83

>  <source>  (1523) 
ACET_MBZ_01

>  <Index>  (1523) 
24755

$$$$
ACET-pdb4goq-E-GLU-95:MBZ-pdb4goq-E-PHE-22
     RDKit          3D

 22 21  0  0  0  0  0  0  0  0999 V2000
    4.6683    1.6833   -1.2198 C   0  0  0  0  0  0  0  0  0  0  0  0
    5.6198    1.7620   -1.5000 H   0  0  0  0  0  0  0  0  0  0  0  0
    4.6104    1.3385   -0.2879 H   0  0  0  0  0  0  0  0  0  0  0  0
    4.2282    2.6803   -1.2396 H   0  0  0  0  0  0  0  0  0  0  0  0
    4.0130    0.6541   -2.1241 C   0  0  0  0  0  0  0  0  0  0  0  0
    2.7974    0.3944   -1.9626 O   0  0  0  0  0  1  0  0  0  0  0  0
    4.7315    0.0749   -2.9693 O   0  0  0  0  0  0  0  0  0  0  0  0
   -0.0077    2.8935   -0.0244 C   0  0  0  0  0  0  0  0  0  0  0  0
   -0.8222    3.1947   -0.5159 H   0  0  0  0  0  0  0  0  0  0  0  0
    0.8104    3.2047   -0.5034 H   0  0  0  0  0  0  0  0  0  0  0  0
   -0.0187    3.3842    0.9488 H   0  0  0  0  0  0  0  0  0  0  0  0
    0.0018    1.3994   -0.0073 C   0  0  0  0  0  0  0  0  0  0  0  0
   -1.1987    0.6924   -0.0083 C   0  0  0  0  0  0  0  0  0  0  0  0
   -2.0633    1.1938   -0.0157 H   0  0  0  0  0  0  0  0  0  0  0  0
   -1.2193   -0.6922   -0.0000 C   0  0  0  0  0  0  0  0  0  0  0  0
   -2.0882   -1.1855   -0.0104 H   0  0  0  0  0  0  0  0  0  0  0  0
   -0.0065   -1.3903    0.0253 C   0  0  0  0  0  0  0  0  0  0  0  0
   -0.0128   -2.3901    0.0611 H   0  0  0  0  0  0  0  0  0  0  0  0
    1.2193   -0.7011   -0.0000 C   0  0  0  0  0  0  0  0  0  0  0  0
    2.0842   -1.2019   -0.0097 H   0  0  0  0  0  0  0  0  0  0  0  0
    1.2035    0.6918   -0.0098 C   0  0  0  0  0  0  0  0  0  0  0  0
    2.0696    1.1938   -0.0191 H   0  0  0  0  0  0  0  0  0  0  0  0
  1  5  1  0
  5  6  1  0
  5  7  2  0
  1  2  1  0
  1  3  1  0
  1  4  1  0
  8 12  1  0
 12 13  2  0
 13 15  1  0
 15 17  2  0
 17 19  1  0
 19 21  2  0
 21 12  1  0
  8  9  1  0
  8 10  1  0
  8 11  1  0
 13 14  1  0
 15 16  1  0
 17 18  1  0
 19 20  1  0
 21 22  1  0
M  CHG  1   6  -1
M  END
>  <PDB_ID>  (1524) 
pdb4goq

>  <RESIDUE_NAME>  (1524) 
GLU   PHE

>  <FRAG_NAME>  (1524) 
ACET   MBZ

>  <FRAG_ATOM_NUM>  (1524) 
fragi: 7  fragj: 15

>  <atom.prop.CHAIN_ID>  (1524) 
A A A A A A A Z Z Z Z Z Z Z Z Z Z Z Z Z Z Z

>  <atom.prop.IS_HEAVY_ATOM>  (1524) 
1 0 0 0 1 1 1 1 0 0 0 1 1 0 1 0 1 0 1 0 1 0

>  <DIFUSE_FUNC_ATOM>  (1524) 
atom 6   atom 7   

>  <FINAL_SINGLE_POINT_ENERGY>  (1524) 
0

>  <NONCOV_INTER_ENERGY_QM>  (1524) 
0

>  <FF_Energy>  (1524) 
11.12

>  <QM_Energy>  (1524) 
0.62

>  <source>  (1524) 
ACET_MBZ_01

>  <Index>  (1524) 
24791

$$$$
ACET-pdb3k2q-B-GLU-390:MBZ-pdb3k2q-C-PHE-395
     RDKit          3D

 22 21  0  0  0  0  0  0  0  0999 V2000
    0.4555    0.3206    3.7436 C   0  0  0  0  0  0  0  0  0  0  0  0
    1.1838    0.0080    3.1644 H   0  0  0  0  0  0  0  0  0  0  0  0
   -0.3469   -0.2396    3.6750 H   0  0  0  0  0  0  0  0  0  0  0  0
    0.8043    0.2979    4.7761 H   0  0  0  0  0  0  0  0  0  0  0  0
    0.0828    1.7131    3.3048 C   0  0  0  0  0  0  0  0  0  0  0  0
   -1.1254    2.0324    3.2914 O   0  0  0  0  0  1  0  0  0  0  0  0
    1.0087    2.4945    2.9878 O   0  0  0  0  0  0  0  0  0  0  0  0
   -0.0090    2.9027    0.0716 C   0  0  0  0  0  0  0  0  0  0  0  0
    0.5829    3.1768    0.8175 H   0  0  0  0  0  0  0  0  0  0  0  0
   -0.9410    3.1974    0.2318 H   0  0  0  0  0  0  0  0  0  0  0  0
    0.3460    3.3947   -0.8340 H   0  0  0  0  0  0  0  0  0  0  0  0
   -0.0024    1.4024    0.0008 C   0  0  0  0  0  0  0  0  0  0  0  0
   -1.2000    0.6947   -0.0025 C   0  0  0  0  0  0  0  0  0  0  0  0
   -2.0662    1.1862   -0.0081 H   0  0  0  0  0  0  0  0  0  0  0  0
   -1.2071   -0.6954   -0.0000 C   0  0  0  0  0  0  0  0  0  0  0  0
   -2.0785   -1.1932    0.0004 H   0  0  0  0  0  0  0  0  0  0  0  0
    0.0059   -1.3975    0.0038 C   0  0  0  0  0  0  0  0  0  0  0  0
   -0.0022   -2.3926    0.0081 H   0  0  0  0  0  0  0  0  0  0  0  0
    1.2071   -0.6978    0.0000 C   0  0  0  0  0  0  0  0  0  0  0  0
    2.0885   -1.1924    0.0003 H   0  0  0  0  0  0  0  0  0  0  0  0
    1.1966    0.6935   -0.0021 C   0  0  0  0  0  0  0  0  0  0  0  0
    2.0644    1.1933   -0.0066 H   0  0  0  0  0  0  0  0  0  0  0  0
  1  5  1  0
  5  6  1  0
  5  7  2  0
  1  2  1  0
  1  3  1  0
  1  4  1  0
  8 12  1  0
 12 13  2  0
 13 15  1  0
 15 17  2  0
 17 19  1  0
 19 21  2  0
 21 12  1  0
  8  9  1  0
  8 10  1  0
  8 11  1  0
 13 14  1  0
 15 16  1  0
 17 18  1  0
 19 20  1  0
 21 22  1  0
M  CHG  1   6  -1
M  END
>  <PDB_ID>  (1525) 
pdb3k2q

>  <RESIDUE_NAME>  (1525) 
GLU   PHE

>  <FRAG_NAME>  (1525) 
ACET   MBZ

>  <FRAG_ATOM_NUM>  (1525) 
fragi: 7  fragj: 15

>  <atom.prop.CHAIN_ID>  (1525) 
A A A A A A A Z Z Z Z Z Z Z Z Z Z Z Z Z Z Z

>  <atom.prop.IS_HEAVY_ATOM>  (1525) 
1 0 0 0 1 1 1 1 0 0 0 1 1 0 1 0 1 0 1 0 1 0

>  <DIFUSE_FUNC_ATOM>  (1525) 
atom 6   atom 7   

>  <FINAL_SINGLE_POINT_ENERGY>  (1525) 
0

>  <NONCOV_INTER_ENERGY_QM>  (1525) 
0

>  <FF_Energy>  (1525) 
1.86

>  <QM_Energy>  (1525) 
-6.62

>  <source>  (1525) 
ACET_MBZ_01

>  <Index>  (1525) 
24792

$$$$
ACET-pdb3k32-B-GLU-169:MBZ-pdb3k32-B-PHE-37
     RDKit          3D

 22 21  0  0  0  0  0  0  0  0999 V2000
   -5.1389    3.3362   -0.4339 C   0  0  0  0  0  0  0  0  0  0  0  0
   -5.6215    4.1842   -0.5887 H   0  0  0  0  0  0  0  0  0  0  0  0
   -5.7090    2.6737    0.0252 H   0  0  0  0  0  0  0  0  0  0  0  0
   -4.8575    2.9266   -1.4041 H   0  0  0  0  0  0  0  0  0  0  0  0
   -3.9603    3.6451    0.4975 C   0  0  0  0  0  0  0  0  0  0  0  0
   -3.3885    2.7035    1.0969 O   0  0  0  0  0  1  0  0  0  0  0  0
   -3.6321    4.8420    0.6591 O   0  0  0  0  0  0  0  0  0  0  0  0
   -0.0062    2.9097   -0.0288 C   0  0  0  0  0  0  0  0  0  0  0  0
   -0.8652    3.2047   -0.4269 H   0  0  0  0  0  0  0  0  0  0  0  0
    0.7598    3.2074   -0.5845 H   0  0  0  0  0  0  0  0  0  0  0  0
    0.0877    3.3836    0.9483 H   0  0  0  0  0  0  0  0  0  0  0  0
   -0.0005    1.4088    0.0026 C   0  0  0  0  0  0  0  0  0  0  0  0
   -1.1958    0.6982   -0.0073 C   0  0  0  0  0  0  0  0  0  0  0  0
   -2.0645    1.1866   -0.0213 H   0  0  0  0  0  0  0  0  0  0  0  0
   -1.2053   -0.6990   -0.0000 C   0  0  0  0  0  0  0  0  0  0  0  0
   -2.0824   -1.1888    0.0060 H   0  0  0  0  0  0  0  0  0  0  0  0
   -0.0016   -1.4055    0.0011 C   0  0  0  0  0  0  0  0  0  0  0  0
   -0.0084   -2.3996    0.0026 H   0  0  0  0  0  0  0  0  0  0  0  0
    1.2053   -0.7058   -0.0000 C   0  0  0  0  0  0  0  0  0  0  0  0
    2.0859   -1.1953   -0.0024 H   0  0  0  0  0  0  0  0  0  0  0  0
    1.1979    0.7033    0.0036 C   0  0  0  0  0  0  0  0  0  0  0  0
    2.0670    1.1924    0.0061 H   0  0  0  0  0  0  0  0  0  0  0  0
  1  5  1  0
  5  6  1  0
  5  7  2  0
  1  2  1  0
  1  3  1  0
  1  4  1  0
  8 12  1  0
 12 13  2  0
 13 15  1  0
 15 17  2  0
 17 19  1  0
 19 21  2  0
 21 12  1  0
  8  9  1  0
  8 10  1  0
  8 11  1  0
 13 14  1  0
 15 16  1  0
 17 18  1  0
 19 20  1  0
 21 22  1  0
M  CHG  1   6  -1
M  END
>  <PDB_ID>  (1526) 
pdb3k32

>  <RESIDUE_NAME>  (1526) 
GLU   PHE

>  <FRAG_NAME>  (1526) 
ACET   MBZ

>  <FRAG_ATOM_NUM>  (1526) 
fragi: 7  fragj: 15

>  <atom.prop.CHAIN_ID>  (1526) 
A A A A A A A Z Z Z Z Z Z Z Z Z Z Z Z Z Z Z

>  <atom.prop.IS_HEAVY_ATOM>  (1526) 
1 0 0 0 1 1 1 1 0 0 0 1 1 0 1 0 1 0 1 0 1 0

>  <DIFUSE_FUNC_ATOM>  (1526) 
atom 6   atom 7   

>  <FINAL_SINGLE_POINT_ENERGY>  (1526) 
0

>  <NONCOV_INTER_ENERGY_QM>  (1526) 
0

>  <FF_Energy>  (1526) 
-1.3

>  <QM_Energy>  (1526) 
-7.43

>  <source>  (1526) 
ACET_MBZ_01

>  <Index>  (1526) 
24821

$$$$
ACET-pdb4gsn-B-GLU-103:MBZ-pdb4gsn-B-PHE-108
     RDKit          3D

 22 21  0  0  0  0  0  0  0  0999 V2000
    2.2418    6.5126    2.8074 C   0  0  0  0  0  0  0  0  0  0  0  0
    2.4633    6.8410    1.9076 H   0  0  0  0  0  0  0  0  0  0  0  0
    3.0029    6.5824    3.4258 H   0  0  0  0  0  0  0  0  0  0  0  0
    1.4267    7.1205    3.1998 H   0  0  0  0  0  0  0  0  0  0  0  0
    1.8833    5.0410    2.6840 C   0  0  0  0  0  0  0  0  0  0  0  0
    0.9801    4.5760    3.4131 O   0  0  0  0  0  1  0  0  0  0  0  0
    2.5040    4.3480    1.8532 O   0  0  0  0  0  0  0  0  0  0  0  0
    0.0031    2.9003   -0.0088 C   0  0  0  0  0  0  0  0  0  0  0  0
    0.7733    3.2084    0.5269 H   0  0  0  0  0  0  0  0  0  0  0  0
   -0.8531    3.2111    0.3733 H   0  0  0  0  0  0  0  0  0  0  0  0
    0.0979    3.3298   -1.0061 H   0  0  0  0  0  0  0  0  0  0  0  0
   -0.0000    1.3970    0.0003 C   0  0  0  0  0  0  0  0  0  0  0  0
   -1.1928    0.6899   -0.0006 C   0  0  0  0  0  0  0  0  0  0  0  0
   -2.0608    1.1802   -0.0032 H   0  0  0  0  0  0  0  0  0  0  0  0
   -1.1943   -0.6951    0.0000 C   0  0  0  0  0  0  0  0  0  0  0  0
   -2.0729   -1.1916    0.0013 H   0  0  0  0  0  0  0  0  0  0  0  0
    0.0026   -1.3877    0.0005 C   0  0  0  0  0  0  0  0  0  0  0  0
   -0.0022   -2.3885    0.0008 H   0  0  0  0  0  0  0  0  0  0  0  0
    1.1943   -0.6948   -0.0000 C   0  0  0  0  0  0  0  0  0  0  0  0
    2.0791   -1.1919    0.0015 H   0  0  0  0  0  0  0  0  0  0  0  0
    1.1903    0.6906   -0.0003 C   0  0  0  0  0  0  0  0  0  0  0  0
    2.0610    1.1874   -0.0016 H   0  0  0  0  0  0  0  0  0  0  0  0
  1  5  1  0
  5  6  1  0
  5  7  2  0
  1  2  1  0
  1  3  1  0
  1  4  1  0
  8 12  1  0
 12 13  2  0
 13 15  1  0
 15 17  2  0
 17 19  1  0
 19 21  2  0
 21 12  1  0
  8  9  1  0
  8 10  1  0
  8 11  1  0
 13 14  1  0
 15 16  1  0
 17 18  1  0
 19 20  1  0
 21 22  1  0
M  CHG  1   6  -1
M  END
>  <PDB_ID>  (1527) 
pdb4gsn

>  <RESIDUE_NAME>  (1527) 
GLU   PHE

>  <FRAG_NAME>  (1527) 
ACET   MBZ

>  <FRAG_ATOM_NUM>  (1527) 
fragi: 7  fragj: 15

>  <atom.prop.CHAIN_ID>  (1527) 
A A A A A A A Z Z Z Z Z Z Z Z Z Z Z Z Z Z Z

>  <atom.prop.IS_HEAVY_ATOM>  (1527) 
1 0 0 0 1 1 1 1 0 0 0 1 1 0 1 0 1 0 1 0 1 0

>  <DIFUSE_FUNC_ATOM>  (1527) 
atom 6   atom 7   

>  <FINAL_SINGLE_POINT_ENERGY>  (1527) 
0

>  <NONCOV_INTER_ENERGY_QM>  (1527) 
0

>  <FF_Energy>  (1527) 
-0.77

>  <QM_Energy>  (1527) 
-5.99

>  <source>  (1527) 
ACET_MBZ_01

>  <Index>  (1527) 
25010

$$$$
ACET-pdb4gsn-D-ASP-159:MBZ-pdb4gsn-D-PHE-149
     RDKit          3D

 22 21  0  0  0  0  0  0  0  0999 V2000
   -4.3753    2.8147    2.5068 C   0  0  0  0  0  0  0  0  0  0  0  0
   -4.1814    2.4289    3.4013 H   0  0  0  0  0  0  0  0  0  0  0  0
   -4.8246    2.1451    1.9279 H   0  0  0  0  0  0  0  0  0  0  0  0
   -5.0573    3.6540    2.6432 H   0  0  0  0  0  0  0  0  0  0  0  0
   -3.0731    3.2273    1.8591 C   0  0  0  0  0  0  0  0  0  0  0  0
   -3.0711    3.4657    0.6314 O   0  0  0  0  0  1  0  0  0  0  0  0
   -2.0526    3.3105    2.5749 O   0  0  0  0  0  0  0  0  0  0  0  0
    0.0018    2.9018   -0.0070 C   0  0  0  0  0  0  0  0  0  0  0  0
    0.8598    3.2093    0.3727 H   0  0  0  0  0  0  0  0  0  0  0  0
   -0.7661    3.2103    0.5324 H   0  0  0  0  0  0  0  0  0  0  0  0
   -0.0960    3.3305   -1.0044 H   0  0  0  0  0  0  0  0  0  0  0  0
    0.0016    1.3969    0.0020 C   0  0  0  0  0  0  0  0  0  0  0  0
   -1.1922    0.6903   -0.0006 C   0  0  0  0  0  0  0  0  0  0  0  0
   -2.0596    1.1818   -0.0047 H   0  0  0  0  0  0  0  0  0  0  0  0
   -1.1951   -0.6946    0.0000 C   0  0  0  0  0  0  0  0  0  0  0  0
   -2.0753   -1.1892    0.0017 H   0  0  0  0  0  0  0  0  0  0  0  0
   -0.0024   -1.3867    0.0002 C   0  0  0  0  0  0  0  0  0  0  0  0
   -0.0054   -2.3889   -0.0005 H   0  0  0  0  0  0  0  0  0  0  0  0
    1.1951   -0.6951   -0.0000 C   0  0  0  0  0  0  0  0  0  0  0  0
    2.0768   -1.1954    0.0028 H   0  0  0  0  0  0  0  0  0  0  0  0
    1.1930    0.6892   -0.0016 C   0  0  0  0  0  0  0  0  0  0  0  0
    2.0634    1.1854   -0.0059 H   0  0  0  0  0  0  0  0  0  0  0  0
  1  5  1  0
  5  6  1  0
  5  7  2  0
  1  2  1  0
  1  3  1  0
  1  4  1  0
  8 12  1  0
 12 13  2  0
 13 15  1  0
 15 17  2  0
 17 19  1  0
 19 21  2  0
 21 12  1  0
  8  9  1  0
  8 10  1  0
  8 11  1  0
 13 14  1  0
 15 16  1  0
 17 18  1  0
 19 20  1  0
 21 22  1  0
M  CHG  1   6  -1
M  END
>  <PDB_ID>  (1528) 
pdb4gsn

>  <RESIDUE_NAME>  (1528) 
ASP   PHE

>  <FRAG_NAME>  (1528) 
ACET   MBZ

>  <FRAG_ATOM_NUM>  (1528) 
fragi: 7  fragj: 15

>  <atom.prop.CHAIN_ID>  (1528) 
A A A A A A A Z Z Z Z Z Z Z Z Z Z Z Z Z Z Z

>  <atom.prop.IS_HEAVY_ATOM>  (1528) 
1 0 0 0 1 1 1 1 0 0 0 1 1 0 1 0 1 0 1 0 1 0

>  <DIFUSE_FUNC_ATOM>  (1528) 
atom 6   atom 7   

>  <FINAL_SINGLE_POINT_ENERGY>  (1528) 
0

>  <NONCOV_INTER_ENERGY_QM>  (1528) 
0

>  <FF_Energy>  (1528) 
-0.05

>  <QM_Energy>  (1528) 
-8.59

>  <source>  (1528) 
ACET_MBZ_01

>  <Index>  (1528) 
25024

$$$$
ACET-pdb3k63-A-ASP-218:MBZ-pdb3k63-A-PHE-135
     RDKit          3D

 22 21  0  0  0  0  0  0  0  0999 V2000
   -0.1003    0.6148   -4.0337 C   0  0  0  0  0  0  0  0  0  0  0  0
    0.5207    0.1764   -3.3927 H   0  0  0  0  0  0  0  0  0  0  0  0
    0.2411    0.5265   -4.9628 H   0  0  0  0  0  0  0  0  0  0  0  0
   -1.0587    0.0986   -3.9785 H   0  0  0  0  0  0  0  0  0  0  0  0
   -0.2031    2.0862   -3.6868 C   0  0  0  0  0  0  0  0  0  0  0  0
   -1.2913    2.6643   -3.9075 O   0  0  0  0  0  1  0  0  0  0  0  0
    0.8113    2.6612   -3.2091 O   0  0  0  0  0  0  0  0  0  0  0  0
    0.0109    2.9001   -0.0044 C   0  0  0  0  0  0  0  0  0  0  0  0
   -0.6316    3.2077   -0.6912 H   0  0  0  0  0  0  0  0  0  0  0  0
    0.9300    3.2015   -0.2123 H   0  0  0  0  0  0  0  0  0  0  0  0
   -0.2794    3.3465    0.9466 H   0  0  0  0  0  0  0  0  0  0  0  0
    0.0033    1.3996    0.0014 C   0  0  0  0  0  0  0  0  0  0  0  0
   -1.1954    0.6930    0.0004 C   0  0  0  0  0  0  0  0  0  0  0  0
   -2.0602    1.1869   -0.0015 H   0  0  0  0  0  0  0  0  0  0  0  0
   -1.2025   -0.6945   -0.0000 C   0  0  0  0  0  0  0  0  0  0  0  0
   -2.0820   -1.1870    0.0038 H   0  0  0  0  0  0  0  0  0  0  0  0
   -0.0064   -1.3926   -0.0037 C   0  0  0  0  0  0  0  0  0  0  0  0
   -0.0081   -2.3909   -0.0096 H   0  0  0  0  0  0  0  0  0  0  0  0
    1.2025   -0.6962    0.0000 C   0  0  0  0  0  0  0  0  0  0  0  0
    2.0795   -1.1987    0.0027 H   0  0  0  0  0  0  0  0  0  0  0  0
    1.1984    0.6907    0.0019 C   0  0  0  0  0  0  0  0  0  0  0  0
    2.0674    1.1884    0.0023 H   0  0  0  0  0  0  0  0  0  0  0  0
  1  5  1  0
  5  6  1  0
  5  7  2  0
  1  2  1  0
  1  3  1  0
  1  4  1  0
  8 12  1  0
 12 13  2  0
 13 15  1  0
 15 17  2  0
 17 19  1  0
 19 21  2  0
 21 12  1  0
  8  9  1  0
  8 10  1  0
  8 11  1  0
 13 14  1  0
 15 16  1  0
 17 18  1  0
 19 20  1  0
 21 22  1  0
M  CHG  1   6  -1
M  END
>  <PDB_ID>  (1529) 
pdb3k63

>  <RESIDUE_NAME>  (1529) 
ASP   PHE

>  <FRAG_NAME>  (1529) 
ACET   MBZ

>  <FRAG_ATOM_NUM>  (1529) 
fragi: 7  fragj: 15

>  <atom.prop.CHAIN_ID>  (1529) 
A A A A A A A Z Z Z Z Z Z Z Z Z Z Z Z Z Z Z

>  <atom.prop.IS_HEAVY_ATOM>  (1529) 
1 0 0 0 1 1 1 1 0 0 0 1 1 0 1 0 1 0 1 0 1 0

>  <DIFUSE_FUNC_ATOM>  (1529) 
atom 6   atom 7   

>  <FINAL_SINGLE_POINT_ENERGY>  (1529) 
0

>  <NONCOV_INTER_ENERGY_QM>  (1529) 
0

>  <FF_Energy>  (1529) 
0.04

>  <QM_Energy>  (1529) 
-5.11

>  <source>  (1529) 
ACET_MBZ_01

>  <Index>  (1529) 
25037

$$$$
ACET-pdb3k6c-A-ASP-75:MBZ-pdb3k6c-A-PHE-78
     RDKit          3D

 22 21  0  0  0  0  0  0  0  0999 V2000
    2.8291    5.3483    0.6895 C   0  0  0  0  0  0  0  0  0  0  0  0
    3.7031    5.1221    1.1006 H   0  0  0  0  0  0  0  0  0  0  0  0
    2.0830    4.9524    1.2085 H   0  0  0  0  0  0  0  0  0  0  0  0
    2.7181    6.4319    0.7302 H   0  0  0  0  0  0  0  0  0  0  0  0
    2.7921    4.8059   -0.7275 C   0  0  0  0  0  0  0  0  0  0  0  0
    2.1239    5.4279   -1.5942 O   0  0  0  0  0  1  0  0  0  0  0  0
    3.3733    3.7252   -0.9618 O   0  0  0  0  0  0  0  0  0  0  0  0
   -0.0048    2.9033    0.0153 C   0  0  0  0  0  0  0  0  0  0  0  0
    0.8593    3.2109   -0.3517 H   0  0  0  0  0  0  0  0  0  0  0  0
   -0.1319    3.2095    0.9457 H   0  0  0  0  0  0  0  0  0  0  0  0
   -0.7967    3.3454   -0.5894 H   0  0  0  0  0  0  0  0  0  0  0  0
   -0.0066    1.3996    0.0135 C   0  0  0  0  0  0  0  0  0  0  0  0
   -1.1946    0.6855   -0.0094 C   0  0  0  0  0  0  0  0  0  0  0  0
   -2.0662    1.1782   -0.0343 H   0  0  0  0  0  0  0  0  0  0  0  0
   -1.2008   -0.6952    0.0000 C   0  0  0  0  0  0  0  0  0  0  0  0
   -2.0752   -1.1916    0.0111 H   0  0  0  0  0  0  0  0  0  0  0  0
   -0.0012   -1.3799   -0.0042 C   0  0  0  0  0  0  0  0  0  0  0  0
   -0.0068   -2.3881   -0.0110 H   0  0  0  0  0  0  0  0  0  0  0  0
    1.2008   -0.6992   -0.0000 C   0  0  0  0  0  0  0  0  0  0  0  0
    2.0794   -1.2012    0.0045 H   0  0  0  0  0  0  0  0  0  0  0  0
    1.2023    0.6891    0.0001 C   0  0  0  0  0  0  0  0  0  0  0  0
    2.0637    1.1886   -0.0099 H   0  0  0  0  0  0  0  0  0  0  0  0
  1  5  1  0
  5  6  1  0
  5  7  2  0
  1  2  1  0
  1  3  1  0
  1  4  1  0
  8 12  1  0
 12 13  2  0
 13 15  1  0
 15 17  2  0
 17 19  1  0
 19 21  2  0
 21 12  1  0
  8  9  1  0
  8 10  1  0
  8 11  1  0
 13 14  1  0
 15 16  1  0
 17 18  1  0
 19 20  1  0
 21 22  1  0
M  CHG  1   6  -1
M  END
>  <PDB_ID>  (1530) 
pdb3k6c

>  <RESIDUE_NAME>  (1530) 
ASP   PHE

>  <FRAG_NAME>  (1530) 
ACET   MBZ

>  <FRAG_ATOM_NUM>  (1530) 
fragi: 7  fragj: 15

>  <atom.prop.CHAIN_ID>  (1530) 
A A A A A A A Z Z Z Z Z Z Z Z Z Z Z Z Z Z Z

>  <atom.prop.IS_HEAVY_ATOM>  (1530) 
1 0 0 0 1 1 1 1 0 0 0 1 1 0 1 0 1 0 1 0 1 0

>  <DIFUSE_FUNC_ATOM>  (1530) 
atom 6   atom 7   

>  <FINAL_SINGLE_POINT_ENERGY>  (1530) 
0

>  <NONCOV_INTER_ENERGY_QM>  (1530) 
0

>  <FF_Energy>  (1530) 
-1.58

>  <QM_Energy>  (1530) 
-6.91

>  <source>  (1530) 
ACET_MBZ_01

>  <Index>  (1530) 
25038

$$$$
ACET-pdb3k6c-E-ASP-79:MBZ-pdb3k6c-F-PHE-87
     RDKit          3D

 22 21  0  0  0  0  0  0  0  0999 V2000
   -6.1577   -2.6531   -1.4050 C   0  0  0  0  0  0  0  0  0  0  0  0
   -6.5605   -2.4571   -2.2913 H   0  0  0  0  0  0  0  0  0  0  0  0
   -6.8644   -2.8362   -0.7329 H   0  0  0  0  0  0  0  0  0  0  0  0
   -5.5463   -3.5499   -1.5044 H   0  0  0  0  0  0  0  0  0  0  0  0
   -5.3470   -1.4807   -0.9623 C   0  0  0  0  0  0  0  0  0  0  0  0
   -4.1530   -1.6816   -0.6521 O   0  0  0  0  0  1  0  0  0  0  0  0
   -5.8838   -0.3567   -0.9138 O   0  0  0  0  0  0  0  0  0  0  0  0
   -0.0017    2.9251   -0.0304 C   0  0  0  0  0  0  0  0  0  0  0  0
    0.8988    3.2374    0.2122 H   0  0  0  0  0  0  0  0  0  0  0  0
   -0.6882    3.2447    0.5984 H   0  0  0  0  0  0  0  0  0  0  0  0
   -0.2385    3.3380   -1.0110 H   0  0  0  0  0  0  0  0  0  0  0  0
   -0.0009    1.4137   -0.0000 C   0  0  0  0  0  0  0  0  0  0  0  0
   -1.1945    0.7011    0.0035 C   0  0  0  0  0  0  0  0  0  0  0  0
   -2.0650    1.1859    0.0076 H   0  0  0  0  0  0  0  0  0  0  0  0
   -1.2008   -0.7009   -0.0000 C   0  0  0  0  0  0  0  0  0  0  0  0
   -2.0844   -1.1865    0.0025 H   0  0  0  0  0  0  0  0  0  0  0  0
   -0.0057   -1.4099   -0.0055 C   0  0  0  0  0  0  0  0  0  0  0  0
   -0.0103   -2.4025   -0.0141 H   0  0  0  0  0  0  0  0  0  0  0  0
    1.2008   -0.7073   -0.0000 C   0  0  0  0  0  0  0  0  0  0  0  0
    2.0821   -1.2000    0.0039 H   0  0  0  0  0  0  0  0  0  0  0  0
    1.2012    0.7032    0.0020 C   0  0  0  0  0  0  0  0  0  0  0  0
    2.0685    1.1898    0.0036 H   0  0  0  0  0  0  0  0  0  0  0  0
  1  5  1  0
  5  6  1  0
  5  7  2  0
  1  2  1  0
  1  3  1  0
  1  4  1  0
  8 12  1  0
 12 13  2  0
 13 15  1  0
 15 17  2  0
 17 19  1  0
 19 21  2  0
 21 12  1  0
  8  9  1  0
  8 10  1  0
  8 11  1  0
 13 14  1  0
 15 16  1  0
 17 18  1  0
 19 20  1  0
 21 22  1  0
M  CHG  1   6  -1
M  END
>  <PDB_ID>  (1531) 
pdb3k6c

>  <RESIDUE_NAME>  (1531) 
ASP   PHE

>  <FRAG_NAME>  (1531) 
ACET   MBZ

>  <FRAG_ATOM_NUM>  (1531) 
fragi: 7  fragj: 15

>  <atom.prop.CHAIN_ID>  (1531) 
A A A A A A A Z Z Z Z Z Z Z Z Z Z Z Z Z Z Z

>  <atom.prop.IS_HEAVY_ATOM>  (1531) 
1 0 0 0 1 1 1 1 0 0 0 1 1 0 1 0 1 0 1 0 1 0

>  <DIFUSE_FUNC_ATOM>  (1531) 
atom 6   atom 7   

>  <FINAL_SINGLE_POINT_ENERGY>  (1531) 
0

>  <NONCOV_INTER_ENERGY_QM>  (1531) 
0

>  <FF_Energy>  (1531) 
-1.24

>  <QM_Energy>  (1531) 
-6.62

>  <source>  (1531) 
ACET_MBZ_01

>  <Index>  (1531) 
25052

$$$$
ACET-pdb3k6c-G-ASP-75:MBZ-pdb3k6c-G-PHE-78
     RDKit          3D

 22 21  0  0  0  0  0  0  0  0999 V2000
    2.6467    5.0063    1.4522 C   0  0  0  0  0  0  0  0  0  0  0  0
    3.3331    4.6530    2.0767 H   0  0  0  0  0  0  0  0  0  0  0  0
    1.7471    4.6642    1.6921 H   0  0  0  0  0  0  0  0  0  0  0  0
    2.6298    6.0913    1.5556 H   0  0  0  0  0  0  0  0  0  0  0  0
    2.9872    4.5343    0.0335 C   0  0  0  0  0  0  0  0  0  0  0  0
    2.6635    5.2165   -0.9536 O   0  0  0  0  0  1  0  0  0  0  0  0
    3.5723    3.4363   -0.1058 O   0  0  0  0  0  0  0  0  0  0  0  0
    0.0040    2.9171   -0.0128 C   0  0  0  0  0  0  0  0  0  0  0  0
    0.9421    3.2141   -0.1173 H   0  0  0  0  0  0  0  0  0  0  0  0
   -0.3773    3.2286    0.8454 H   0  0  0  0  0  0  0  0  0  0  0  0
   -0.5821    3.3536   -0.8215 H   0  0  0  0  0  0  0  0  0  0  0  0
   -0.0025    1.4099   -0.0001 C   0  0  0  0  0  0  0  0  0  0  0  0
   -1.1977    0.7040   -0.0129 C   0  0  0  0  0  0  0  0  0  0  0  0
   -2.0659    1.2026   -0.0331 H   0  0  0  0  0  0  0  0  0  0  0  0
   -1.2190   -0.6835   -0.0000 C   0  0  0  0  0  0  0  0  0  0  0  0
   -2.0938   -1.1760    0.0026 H   0  0  0  0  0  0  0  0  0  0  0  0
   -0.0057   -1.4145    0.0108 C   0  0  0  0  0  0  0  0  0  0  0  0
   -0.0256   -2.4017    0.0252 H   0  0  0  0  0  0  0  0  0  0  0  0
    1.2190   -0.7191   -0.0000 C   0  0  0  0  0  0  0  0  0  0  0  0
    2.0887   -1.2062   -0.0074 H   0  0  0  0  0  0  0  0  0  0  0  0
    1.2059    0.7031    0.0021 C   0  0  0  0  0  0  0  0  0  0  0  0
    2.0709    1.1923    0.0039 H   0  0  0  0  0  0  0  0  0  0  0  0
  1  5  1  0
  5  6  1  0
  5  7  2  0
  1  2  1  0
  1  3  1  0
  1  4  1  0
  8 12  1  0
 12 13  2  0
 13 15  1  0
 15 17  2  0
 17 19  1  0
 19 21  2  0
 21 12  1  0
  8  9  1  0
  8 10  1  0
  8 11  1  0
 13 14  1  0
 15 16  1  0
 17 18  1  0
 19 20  1  0
 21 22  1  0
M  CHG  1   6  -1
M  END
>  <PDB_ID>  (1532) 
pdb3k6c

>  <RESIDUE_NAME>  (1532) 
ASP   PHE

>  <FRAG_NAME>  (1532) 
ACET   MBZ

>  <FRAG_ATOM_NUM>  (1532) 
fragi: 7  fragj: 15

>  <atom.prop.CHAIN_ID>  (1532) 
A A A A A A A Z Z Z Z Z Z Z Z Z Z Z Z Z Z Z

>  <atom.prop.IS_HEAVY_ATOM>  (1532) 
1 0 0 0 1 1 1 1 0 0 0 1 1 0 1 0 1 0 1 0 1 0

>  <DIFUSE_FUNC_ATOM>  (1532) 
atom 6   atom 7   

>  <FINAL_SINGLE_POINT_ENERGY>  (1532) 
0

>  <NONCOV_INTER_ENERGY_QM>  (1532) 
0

>  <FF_Energy>  (1532) 
-1.33

>  <QM_Energy>  (1532) 
-7.5

>  <source>  (1532) 
ACET_MBZ_01

>  <Index>  (1532) 
25055

$$$$
ACET-pdb4gt2-B-ASP-183:MBZ-pdb4gt2-B-PHE-180
     RDKit          3D

 22 21  0  0  0  0  0  0  0  0999 V2000
    3.9174    5.4562   -0.3899 C   0  0  0  0  0  0  0  0  0  0  0  0
    3.2406    5.8118   -1.0269 H   0  0  0  0  0  0  0  0  0  0  0  0
    4.8348    5.6695   -0.7083 H   0  0  0  0  0  0  0  0  0  0  0  0
    3.7702    5.9542    0.5685 H   0  0  0  0  0  0  0  0  0  0  0  0
    3.7655    3.9542   -0.3041 C   0  0  0  0  0  0  0  0  0  0  0  0
    3.4179    3.4484    0.7869 O   0  0  0  0  0  1  0  0  0  0  0  0
    3.9923    3.2792   -1.3371 O   0  0  0  0  0  0  0  0  0  0  0  0
    0.0006    2.8921   -0.0057 C   0  0  0  0  0  0  0  0  0  0  0  0
    0.8959    3.2057    0.2763 H   0  0  0  0  0  0  0  0  0  0  0  0
   -0.7012    3.2014    0.6190 H   0  0  0  0  0  0  0  0  0  0  0  0
   -0.2100    3.3280   -0.9823 H   0  0  0  0  0  0  0  0  0  0  0  0
    0.0051    1.3944    0.0016 C   0  0  0  0  0  0  0  0  0  0  0  0
   -1.1948    0.6851    0.0024 C   0  0  0  0  0  0  0  0  0  0  0  0
   -2.0596    1.1811    0.0033 H   0  0  0  0  0  0  0  0  0  0  0  0
   -1.1994   -0.6965   -0.0000 C   0  0  0  0  0  0  0  0  0  0  0  0
   -2.0792   -1.1909    0.0029 H   0  0  0  0  0  0  0  0  0  0  0  0
   -0.0088   -1.3843   -0.0051 C   0  0  0  0  0  0  0  0  0  0  0  0
   -0.0060   -2.3874   -0.0132 H   0  0  0  0  0  0  0  0  0  0  0  0
    1.1994   -0.6918    0.0000 C   0  0  0  0  0  0  0  0  0  0  0  0
    2.0756   -1.1962    0.0041 H   0  0  0  0  0  0  0  0  0  0  0  0
    1.1985    0.6931    0.0011 C   0  0  0  0  0  0  0  0  0  0  0  0
    2.0661    1.1898    0.0011 H   0  0  0  0  0  0  0  0  0  0  0  0
  1  5  1  0
  5  6  1  0
  5  7  2  0
  1  2  1  0
  1  3  1  0
  1  4  1  0
  8 12  1  0
 12 13  2  0
 13 15  1  0
 15 17  2  0
 17 19  1  0
 19 21  2  0
 21 12  1  0
  8  9  1  0
  8 10  1  0
  8 11  1  0
 13 14  1  0
 15 16  1  0
 17 18  1  0
 19 20  1  0
 21 22  1  0
M  CHG  1   6  -1
M  END
>  <PDB_ID>  (1533) 
pdb4gt2

>  <RESIDUE_NAME>  (1533) 
ASP   PHE

>  <FRAG_NAME>  (1533) 
ACET   MBZ

>  <FRAG_ATOM_NUM>  (1533) 
fragi: 7  fragj: 15

>  <atom.prop.CHAIN_ID>  (1533) 
A A A A A A A Z Z Z Z Z Z Z Z Z Z Z Z Z Z Z

>  <atom.prop.IS_HEAVY_ATOM>  (1533) 
1 0 0 0 1 1 1 1 0 0 0 1 1 0 1 0 1 0 1 0 1 0

>  <DIFUSE_FUNC_ATOM>  (1533) 
atom 6   atom 7   

>  <FINAL_SINGLE_POINT_ENERGY>  (1533) 
0

>  <NONCOV_INTER_ENERGY_QM>  (1533) 
0

>  <FF_Energy>  (1533) 
-2.65

>  <QM_Energy>  (1533) 
-8.32

>  <source>  (1533) 
ACET_MBZ_01

>  <Index>  (1533) 
25082

$$$$
ACET-pdb4gt2-E-ASP-183:MBZ-pdb4gt2-E-PHE-180
     RDKit          3D

 22 21  0  0  0  0  0  0  0  0999 V2000
    3.8575    5.5627   -0.5032 C   0  0  0  0  0  0  0  0  0  0  0  0
    3.1465    5.9280   -1.0973 H   0  0  0  0  0  0  0  0  0  0  0  0
    4.7561    5.7809   -0.8716 H   0  0  0  0  0  0  0  0  0  0  0  0
    3.7660    6.0522    0.4664 H   0  0  0  0  0  0  0  0  0  0  0  0
    3.7098    4.0604   -0.4295 C   0  0  0  0  0  0  0  0  0  0  0  0
    3.4400    3.5257    0.6707 O   0  0  0  0  0  1  0  0  0  0  0  0
    3.8524    3.4189   -1.4971 O   0  0  0  0  0  0  0  0  0  0  0  0
   -0.0014    2.9025    0.0192 C   0  0  0  0  0  0  0  0  0  0  0  0
    0.9053    3.2051    0.2769 H   0  0  0  0  0  0  0  0  0  0  0  0
   -0.6779    3.2000    0.6774 H   0  0  0  0  0  0  0  0  0  0  0  0
   -0.2454    3.3593   -0.9399 H   0  0  0  0  0  0  0  0  0  0  0  0
   -0.0018    1.3992   -0.0003 C   0  0  0  0  0  0  0  0  0  0  0  0
   -1.1980    0.6940    0.0038 C   0  0  0  0  0  0  0  0  0  0  0  0
   -2.0642    1.1850    0.0086 H   0  0  0  0  0  0  0  0  0  0  0  0
   -1.2035   -0.6954    0.0000 C   0  0  0  0  0  0  0  0  0  0  0  0
   -2.0760   -1.1924    0.0006 H   0  0  0  0  0  0  0  0  0  0  0  0
    0.0054   -1.3918   -0.0029 C   0  0  0  0  0  0  0  0  0  0  0  0
   -0.0011   -2.3909   -0.0075 H   0  0  0  0  0  0  0  0  0  0  0  0
    1.2035   -0.6963   -0.0000 C   0  0  0  0  0  0  0  0  0  0  0  0
    2.0853   -1.1927    0.0043 H   0  0  0  0  0  0  0  0  0  0  0  0
    1.1944    0.6903   -0.0006 C   0  0  0  0  0  0  0  0  0  0  0  0
    2.0631    1.1909   -0.0021 H   0  0  0  0  0  0  0  0  0  0  0  0
  1  5  1  0
  5  6  1  0
  5  7  2  0
  1  2  1  0
  1  3  1  0
  1  4  1  0
  8 12  1  0
 12 13  2  0
 13 15  1  0
 15 17  2  0
 17 19  1  0
 19 21  2  0
 21 12  1  0
  8  9  1  0
  8 10  1  0
  8 11  1  0
 13 14  1  0
 15 16  1  0
 17 18  1  0
 19 20  1  0
 21 22  1  0
M  CHG  1   6  -1
M  END
>  <PDB_ID>  (1534) 
pdb4gt2

>  <RESIDUE_NAME>  (1534) 
ASP   PHE

>  <FRAG_NAME>  (1534) 
ACET   MBZ

>  <FRAG_ATOM_NUM>  (1534) 
fragi: 7  fragj: 15

>  <atom.prop.CHAIN_ID>  (1534) 
A A A A A A A Z Z Z Z Z Z Z Z Z Z Z Z Z Z Z

>  <atom.prop.IS_HEAVY_ATOM>  (1534) 
1 0 0 0 1 1 1 1 0 0 0 1 1 0 1 0 1 0 1 0 1 0

>  <DIFUSE_FUNC_ATOM>  (1534) 
atom 6   atom 7   

>  <FINAL_SINGLE_POINT_ENERGY>  (1534) 
0

>  <NONCOV_INTER_ENERGY_QM>  (1534) 
0

>  <FF_Energy>  (1534) 
-2.6

>  <QM_Energy>  (1534) 
-8.13

>  <source>  (1534) 
ACET_MBZ_01

>  <Index>  (1534) 
25085

$$$$
ACET-pdb4gs1-B-ASP-171:MBZ-pdb4gs1-B-PHE-168
     RDKit          3D

 22 21  0  0  0  0  0  0  0  0999 V2000
    4.1370    5.6794   -0.7373 C   0  0  0  0  0  0  0  0  0  0  0  0
    3.5827    6.1226   -1.4374 H   0  0  0  0  0  0  0  0  0  0  0  0
    5.1020    5.7372   -0.9796 H   0  0  0  0  0  0  0  0  0  0  0  0
    3.9930    6.2218    0.1972 H   0  0  0  0  0  0  0  0  0  0  0  0
    3.7410    4.2134   -0.6602 C   0  0  0  0  0  0  0  0  0  0  0  0
    3.4528    3.7004    0.4404 O   0  0  0  0  0  1  0  0  0  0  0  0
    3.7390    3.5643   -1.7324 O   0  0  0  0  0  0  0  0  0  0  0  0
    0.0044    2.9130   -0.0102 C   0  0  0  0  0  0  0  0  0  0  0  0
    0.8690    3.2189    0.3524 H   0  0  0  0  0  0  0  0  0  0  0  0
   -0.7531    3.2214    0.5408 H   0  0  0  0  0  0  0  0  0  0  0  0
   -0.1106    3.3433   -1.0050 H   0  0  0  0  0  0  0  0  0  0  0  0
    0.0031    1.4007    0.0014 C   0  0  0  0  0  0  0  0  0  0  0  0
   -1.1960    0.6910   -0.0017 C   0  0  0  0  0  0  0  0  0  0  0  0
   -2.0611    1.1839   -0.0060 H   0  0  0  0  0  0  0  0  0  0  0  0
   -1.1991   -0.6942   -0.0000 C   0  0  0  0  0  0  0  0  0  0  0  0
   -2.0782   -1.1896    0.0026 H   0  0  0  0  0  0  0  0  0  0  0  0
   -0.0024   -1.3905   -0.0003 C   0  0  0  0  0  0  0  0  0  0  0  0
   -0.0072   -2.3907   -0.0016 H   0  0  0  0  0  0  0  0  0  0  0  0
    1.1991   -0.6980   -0.0000 C   0  0  0  0  0  0  0  0  0  0  0  0
    2.0796   -1.1967    0.0009 H   0  0  0  0  0  0  0  0  0  0  0  0
    1.1952    0.6910    0.0007 C   0  0  0  0  0  0  0  0  0  0  0  0
    2.0657    1.1862   -0.0001 H   0  0  0  0  0  0  0  0  0  0  0  0
  1  5  1  0
  5  6  1  0
  5  7  2  0
  1  2  1  0
  1  3  1  0
  1  4  1  0
  8 12  1  0
 12 13  2  0
 13 15  1  0
 15 17  2  0
 17 19  1  0
 19 21  2  0
 21 12  1  0
  8  9  1  0
  8 10  1  0
  8 11  1  0
 13 14  1  0
 15 16  1  0
 17 18  1  0
 19 20  1  0
 21 22  1  0
M  CHG  1   6  -1
M  END
>  <PDB_ID>  (1535) 
pdb4gs1

>  <RESIDUE_NAME>  (1535) 
ASP   PHE

>  <FRAG_NAME>  (1535) 
ACET   MBZ

>  <FRAG_ATOM_NUM>  (1535) 
fragi: 7  fragj: 15

>  <atom.prop.CHAIN_ID>  (1535) 
A A A A A A A Z Z Z Z Z Z Z Z Z Z Z Z Z Z Z

>  <atom.prop.IS_HEAVY_ATOM>  (1535) 
1 0 0 0 1 1 1 1 0 0 0 1 1 0 1 0 1 0 1 0 1 0

>  <DIFUSE_FUNC_ATOM>  (1535) 
atom 6   atom 7   

>  <FINAL_SINGLE_POINT_ENERGY>  (1535) 
0

>  <NONCOV_INTER_ENERGY_QM>  (1535) 
0

>  <FF_Energy>  (1535) 
-2.4

>  <QM_Energy>  (1535) 
-7.76

>  <source>  (1535) 
ACET_MBZ_01

>  <Index>  (1535) 
25225

$$$$
ACET-pdb3k94-A-ASP-16:MBZ-pdb3k94-A-PHE-19
     RDKit          3D

 22 21  0  0  0  0  0  0  0  0999 V2000
    4.0076    0.4925    1.9650 C   0  0  0  0  0  0  0  0  0  0  0  0
    4.2020   -0.1494    2.6981 H   0  0  0  0  0  0  0  0  0  0  0  0
    3.0430    0.7278    1.9553 H   0  0  0  0  0  0  0  0  0  0  0  0
    4.5738    1.4035    2.1591 H   0  0  0  0  0  0  0  0  0  0  0  0
    4.3661   -0.1583    0.6371 C   0  0  0  0  0  0  0  0  0  0  0  0
    4.9828    0.5079   -0.2272 O   0  0  0  0  0  1  0  0  0  0  0  0
    4.0183   -1.3423    0.4616 O   0  0  0  0  0  0  0  0  0  0  0  0
    0.0055    2.8911   -0.0264 C   0  0  0  0  0  0  0  0  0  0  0  0
    0.6681    3.2141    0.6269 H   0  0  0  0  0  0  0  0  0  0  0  0
   -0.9035    3.2088    0.1815 H   0  0  0  0  0  0  0  0  0  0  0  0
    0.2799    3.2937   -1.0015 H   0  0  0  0  0  0  0  0  0  0  0  0
    0.0011    1.3915    0.0090 C   0  0  0  0  0  0  0  0  0  0  0  0
   -1.1899    0.6896   -0.0067 C   0  0  0  0  0  0  0  0  0  0  0  0
   -2.0575    1.1817   -0.0243 H   0  0  0  0  0  0  0  0  0  0  0  0
   -1.1934   -0.6913    0.0000 C   0  0  0  0  0  0  0  0  0  0  0  0
   -2.0723   -1.1877    0.0042 H   0  0  0  0  0  0  0  0  0  0  0  0
    0.0005   -1.3826    0.0021 C   0  0  0  0  0  0  0  0  0  0  0  0
   -0.0041   -2.3848    0.0045 H   0  0  0  0  0  0  0  0  0  0  0  0
    1.1934   -0.6924   -0.0000 C   0  0  0  0  0  0  0  0  0  0  0  0
    2.0764   -1.1931    0.0032 H   0  0  0  0  0  0  0  0  0  0  0  0
    1.1883    0.6851   -0.0045 C   0  0  0  0  0  0  0  0  0  0  0  0
    2.0596    1.1851   -0.0191 H   0  0  0  0  0  0  0  0  0  0  0  0
  1  5  1  0
  5  6  1  0
  5  7  2  0
  1  2  1  0
  1  3  1  0
  1  4  1  0
  8 12  1  0
 12 13  2  0
 13 15  1  0
 15 17  2  0
 17 19  1  0
 19 21  2  0
 21 12  1  0
  8  9  1  0
  8 10  1  0
  8 11  1  0
 13 14  1  0
 15 16  1  0
 17 18  1  0
 19 20  1  0
 21 22  1  0
M  CHG  1   6  -1
M  END
>  <PDB_ID>  (1536) 
pdb3k94

>  <RESIDUE_NAME>  (1536) 
ASP   PHE

>  <FRAG_NAME>  (1536) 
ACET   MBZ

>  <FRAG_ATOM_NUM>  (1536) 
fragi: 7  fragj: 15

>  <atom.prop.CHAIN_ID>  (1536) 
A A A A A A A Z Z Z Z Z Z Z Z Z Z Z Z Z Z Z

>  <atom.prop.IS_HEAVY_ATOM>  (1536) 
1 0 0 0 1 1 1 1 0 0 0 1 1 0 1 0 1 0 1 0 1 0

>  <DIFUSE_FUNC_ATOM>  (1536) 
atom 6   atom 7   

>  <FINAL_SINGLE_POINT_ENERGY>  (1536) 
0

>  <NONCOV_INTER_ENERGY_QM>  (1536) 
0

>  <FF_Energy>  (1536) 
6.13

>  <QM_Energy>  (1536) 
-5.73

>  <source>  (1536) 
ACET_MBZ_01

>  <Index>  (1536) 
25254

$$$$
ACET-pdb4gyp-C-GLU-53:MBZ-pdb4gyp-C-PHE-343
     RDKit          3D

 22 21  0  0  0  0  0  0  0  0999 V2000
    4.7111    4.4500    1.4630 C   0  0  0  0  0  0  0  0  0  0  0  0
    5.5264    4.4626    0.9202 H   0  0  0  0  0  0  0  0  0  0  0  0
    4.6605    3.6716    2.0556 H   0  0  0  0  0  0  0  0  0  0  0  0
    4.7105    5.3452    2.0849 H   0  0  0  0  0  0  0  0  0  0  0  0
    3.5178    4.3878    0.5097 C   0  0  0  0  0  0  0  0  0  0  0  0
    2.5244    5.1032    0.7605 O   0  0  0  0  0  1  0  0  0  0  0  0
    3.5818    3.6342   -0.4937 O   0  0  0  0  0  0  0  0  0  0  0  0
    0.0067    2.9130    0.0115 C   0  0  0  0  0  0  0  0  0  0  0  0
    0.8290    3.2123    0.4702 H   0  0  0  0  0  0  0  0  0  0  0  0
   -0.8036    3.2137    0.4918 H   0  0  0  0  0  0  0  0  0  0  0  0
   -0.0062    3.3685   -0.9787 H   0  0  0  0  0  0  0  0  0  0  0  0
    0.0054    1.4040   -0.0049 C   0  0  0  0  0  0  0  0  0  0  0  0
   -1.1915    0.6966    0.0034 C   0  0  0  0  0  0  0  0  0  0  0  0
   -2.0583    1.1844    0.0100 H   0  0  0  0  0  0  0  0  0  0  0  0
   -1.1967   -0.6990   -0.0000 C   0  0  0  0  0  0  0  0  0  0  0  0
   -2.0804   -1.1852   -0.0039 H   0  0  0  0  0  0  0  0  0  0  0  0
   -0.0088   -1.3954    0.0035 C   0  0  0  0  0  0  0  0  0  0  0  0
   -0.0095   -2.3952    0.0082 H   0  0  0  0  0  0  0  0  0  0  0  0
    1.1967   -0.7012    0.0000 C   0  0  0  0  0  0  0  0  0  0  0  0
    2.0762   -1.1990   -0.0001 H   0  0  0  0  0  0  0  0  0  0  0  0
    1.1949    0.6949   -0.0020 C   0  0  0  0  0  0  0  0  0  0  0  0
    2.0672    1.1845   -0.0024 H   0  0  0  0  0  0  0  0  0  0  0  0
  1  5  1  0
  5  6  1  0
  5  7  2  0
  1  2  1  0
  1  3  1  0
  1  4  1  0
  8 12  1  0
 12 13  2  0
 13 15  1  0
 15 17  2  0
 17 19  1  0
 19 21  2  0
 21 12  1  0
  8  9  1  0
  8 10  1  0
  8 11  1  0
 13 14  1  0
 15 16  1  0
 17 18  1  0
 19 20  1  0
 21 22  1  0
M  CHG  1   6  -1
M  END
>  <PDB_ID>  (1537) 
pdb4gyp

>  <RESIDUE_NAME>  (1537) 
GLU   PHE

>  <FRAG_NAME>  (1537) 
ACET   MBZ

>  <FRAG_ATOM_NUM>  (1537) 
fragi: 7  fragj: 15

>  <atom.prop.CHAIN_ID>  (1537) 
A A A A A A A Z Z Z Z Z Z Z Z Z Z Z Z Z Z Z

>  <atom.prop.IS_HEAVY_ATOM>  (1537) 
1 0 0 0 1 1 1 1 0 0 0 1 1 0 1 0 1 0 1 0 1 0

>  <DIFUSE_FUNC_ATOM>  (1537) 
atom 6   atom 7   

>  <FINAL_SINGLE_POINT_ENERGY>  (1537) 
0

>  <NONCOV_INTER_ENERGY_QM>  (1537) 
0

>  <FF_Energy>  (1537) 
-2.38

>  <QM_Energy>  (1537) 
-7.75

>  <source>  (1537) 
ACET_MBZ_01

>  <Index>  (1537) 
25312

$$$$
ACET-pdb3kae-A-ASP-238:MBZ-pdb3kae-A-PHE-241
     RDKit          3D

 22 21  0  0  0  0  0  0  0  0999 V2000
   -0.5171    5.0759   -3.3792 C   0  0  0  0  0  0  0  0  0  0  0  0
   -0.9854    5.0139   -4.2528 H   0  0  0  0  0  0  0  0  0  0  0  0
    0.2461    4.4420   -3.3467 H   0  0  0  0  0  0  0  0  0  0  0  0
   -0.1190    6.0861   -3.2836 H   0  0  0  0  0  0  0  0  0  0  0  0
   -1.4883    4.7327   -2.2763 C   0  0  0  0  0  0  0  0  0  0  0  0
   -2.0299    3.6051   -2.2500 O   0  0  0  0  0  1  0  0  0  0  0  0
   -1.7200    5.6093   -1.4278 O   0  0  0  0  0  0  0  0  0  0  0  0
   -0.0044    2.9080   -0.0094 C   0  0  0  0  0  0  0  0  0  0  0  0
   -0.8413    3.2156   -0.4327 H   0  0  0  0  0  0  0  0  0  0  0  0
    0.7895    3.2179   -0.5067 H   0  0  0  0  0  0  0  0  0  0  0  0
    0.0403    3.3461    0.9877 H   0  0  0  0  0  0  0  0  0  0  0  0
   -0.0025    1.4037   -0.0112 C   0  0  0  0  0  0  0  0  0  0  0  0
   -1.1929    0.6987    0.0025 C   0  0  0  0  0  0  0  0  0  0  0  0
   -2.0623    1.1837    0.0126 H   0  0  0  0  0  0  0  0  0  0  0  0
   -1.1957   -0.6957    0.0000 C   0  0  0  0  0  0  0  0  0  0  0  0
   -2.0730   -1.1881   -0.0100 H   0  0  0  0  0  0  0  0  0  0  0  0
    0.0053   -1.3937    0.0137 C   0  0  0  0  0  0  0  0  0  0  0  0
   -0.0048   -2.3937    0.0327 H   0  0  0  0  0  0  0  0  0  0  0  0
    1.1957   -0.7035    0.0000 C   0  0  0  0  0  0  0  0  0  0  0  0
    2.0817   -1.1955   -0.0050 H   0  0  0  0  0  0  0  0  0  0  0  0
    1.1901    0.6905   -0.0049 C   0  0  0  0  0  0  0  0  0  0  0  0
    2.0615    1.1841   -0.0044 H   0  0  0  0  0  0  0  0  0  0  0  0
  1  5  1  0
  5  6  1  0
  5  7  2  0
  1  2  1  0
  1  3  1  0
  1  4  1  0
  8 12  1  0
 12 13  2  0
 13 15  1  0
 15 17  2  0
 17 19  1  0
 19 21  2  0
 21 12  1  0
  8  9  1  0
  8 10  1  0
  8 11  1  0
 13 14  1  0
 15 16  1  0
 17 18  1  0
 19 20  1  0
 21 22  1  0
M  CHG  1   6  -1
M  END
>  <PDB_ID>  (1538) 
pdb3kae

>  <RESIDUE_NAME>  (1538) 
ASP   PHE

>  <FRAG_NAME>  (1538) 
ACET   MBZ

>  <FRAG_ATOM_NUM>  (1538) 
fragi: 7  fragj: 15

>  <atom.prop.CHAIN_ID>  (1538) 
A A A A A A A Z Z Z Z Z Z Z Z Z Z Z Z Z Z Z

>  <atom.prop.IS_HEAVY_ATOM>  (1538) 
1 0 0 0 1 1 1 1 0 0 0 1 1 0 1 0 1 0 1 0 1 0

>  <DIFUSE_FUNC_ATOM>  (1538) 
atom 6   atom 7   

>  <FINAL_SINGLE_POINT_ENERGY>  (1538) 
0

>  <NONCOV_INTER_ENERGY_QM>  (1538) 
0

>  <FF_Energy>  (1538) 
1.92

>  <QM_Energy>  (1538) 
-6.22

>  <source>  (1538) 
ACET_MBZ_01

>  <Index>  (1538) 
25387

$$$$
ACET-pdb3kae-B-ASP-238:MBZ-pdb3kae-B-PHE-241
     RDKit          3D

 22 21  0  0  0  0  0  0  0  0999 V2000
   -0.4969    5.0846   -3.3716 C   0  0  0  0  0  0  0  0  0  0  0  0
   -0.9483    5.0225   -4.2521 H   0  0  0  0  0  0  0  0  0  0  0  0
    0.2671    4.4560   -3.3216 H   0  0  0  0  0  0  0  0  0  0  0  0
   -0.1085    6.0972   -3.2621 H   0  0  0  0  0  0  0  0  0  0  0  0
   -1.4914    4.7359   -2.2853 C   0  0  0  0  0  0  0  0  0  0  0  0
   -2.0482    3.6136   -2.2858 O   0  0  0  0  0  1  0  0  0  0  0  0
   -1.7073    5.6059   -1.4283 O   0  0  0  0  0  0  0  0  0  0  0  0
    0.0019    2.9090   -0.0002 C   0  0  0  0  0  0  0  0  0  0  0  0
   -0.8297    3.2132   -0.4400 H   0  0  0  0  0  0  0  0  0  0  0  0
    0.8023    3.2107   -0.4960 H   0  0  0  0  0  0  0  0  0  0  0  0
    0.0372    3.3477    0.9971 H   0  0  0  0  0  0  0  0  0  0  0  0
   -0.0012    1.4029   -0.0005 C   0  0  0  0  0  0  0  0  0  0  0  0
   -1.1946    0.6962    0.0076 C   0  0  0  0  0  0  0  0  0  0  0  0
   -2.0626    1.1845    0.0176 H   0  0  0  0  0  0  0  0  0  0  0  0
   -1.1956   -0.6926    0.0000 C   0  0  0  0  0  0  0  0  0  0  0  0
   -2.0739   -1.1888    0.0009 H   0  0  0  0  0  0  0  0  0  0  0  0
    0.0052   -1.3962   -0.0073 C   0  0  0  0  0  0  0  0  0  0  0  0
   -0.0068   -2.3928   -0.0180 H   0  0  0  0  0  0  0  0  0  0  0  0
    1.1956   -0.7025   -0.0000 C   0  0  0  0  0  0  0  0  0  0  0  0
    2.0825   -1.1939    0.0064 H   0  0  0  0  0  0  0  0  0  0  0  0
    1.1907    0.6922    0.0002 C   0  0  0  0  0  0  0  0  0  0  0  0
    2.0620    1.1849    0.0005 H   0  0  0  0  0  0  0  0  0  0  0  0
  1  5  1  0
  5  6  1  0
  5  7  2  0
  1  2  1  0
  1  3  1  0
  1  4  1  0
  8 12  1  0
 12 13  2  0
 13 15  1  0
 15 17  2  0
 17 19  1  0
 19 21  2  0
 21 12  1  0
  8  9  1  0
  8 10  1  0
  8 11  1  0
 13 14  1  0
 15 16  1  0
 17 18  1  0
 19 20  1  0
 21 22  1  0
M  CHG  1   6  -1
M  END
>  <PDB_ID>  (1539) 
pdb3kae

>  <RESIDUE_NAME>  (1539) 
ASP   PHE

>  <FRAG_NAME>  (1539) 
ACET   MBZ

>  <FRAG_ATOM_NUM>  (1539) 
fragi: 7  fragj: 15

>  <atom.prop.CHAIN_ID>  (1539) 
A A A A A A A Z Z Z Z Z Z Z Z Z Z Z Z Z Z Z

>  <atom.prop.IS_HEAVY_ATOM>  (1539) 
1 0 0 0 1 1 1 1 0 0 0 1 1 0 1 0 1 0 1 0 1 0

>  <DIFUSE_FUNC_ATOM>  (1539) 
atom 6   atom 7   

>  <FINAL_SINGLE_POINT_ENERGY>  (1539) 
0

>  <NONCOV_INTER_ENERGY_QM>  (1539) 
0

>  <FF_Energy>  (1539) 
1.32

>  <QM_Energy>  (1539) 
-6.3

>  <source>  (1539) 
ACET_MBZ_01

>  <Index>  (1539) 
25392

$$$$
ACET-pdb3kae-C-ASP-238:MBZ-pdb3kae-C-PHE-241
     RDKit          3D

 22 21  0  0  0  0  0  0  0  0999 V2000
   -0.4555    5.1086   -3.3462 C   0  0  0  0  0  0  0  0  0  0  0  0
   -0.8989    5.0535   -4.2324 H   0  0  0  0  0  0  0  0  0  0  0  0
    0.3075    4.4773   -3.2945 H   0  0  0  0  0  0  0  0  0  0  0  0
   -0.0677    6.1200   -3.2241 H   0  0  0  0  0  0  0  0  0  0  0  0
   -1.4615    4.7496   -2.2733 C   0  0  0  0  0  0  0  0  0  0  0  0
   -2.0121    3.6226   -2.2864 O   0  0  0  0  0  1  0  0  0  0  0  0
   -1.6890    5.6154   -1.4118 O   0  0  0  0  0  0  0  0  0  0  0  0
   -0.0052    2.9161    0.0175 C   0  0  0  0  0  0  0  0  0  0  0  0
   -0.8342    3.2211   -0.4248 H   0  0  0  0  0  0  0  0  0  0  0  0
    0.7980    3.2233   -0.4698 H   0  0  0  0  0  0  0  0  0  0  0  0
    0.0224    3.3490    1.0175 H   0  0  0  0  0  0  0  0  0  0  0  0
   -0.0036    1.4050    0.0055 C   0  0  0  0  0  0  0  0  0  0  0  0
   -1.1962    0.6964    0.0105 C   0  0  0  0  0  0  0  0  0  0  0  0
   -2.0646    1.1815    0.0200 H   0  0  0  0  0  0  0  0  0  0  0  0
   -1.1963   -0.6983   -0.0000 C   0  0  0  0  0  0  0  0  0  0  0  0
   -2.0707   -1.1942    0.0041 H   0  0  0  0  0  0  0  0  0  0  0  0
    0.0107   -1.3982   -0.0143 C   0  0  0  0  0  0  0  0  0  0  0  0
    0.0004   -2.3944   -0.0354 H   0  0  0  0  0  0  0  0  0  0  0  0
    1.1963   -0.7001   -0.0000 C   0  0  0  0  0  0  0  0  0  0  0  0
    2.0857   -1.1886    0.0135 H   0  0  0  0  0  0  0  0  0  0  0  0
    1.1890    0.6951   -0.0016 C   0  0  0  0  0  0  0  0  0  0  0  0
    2.0600    1.1891   -0.0095 H   0  0  0  0  0  0  0  0  0  0  0  0
  1  5  1  0
  5  6  1  0
  5  7  2  0
  1  2  1  0
  1  3  1  0
  1  4  1  0
  8 12  1  0
 12 13  2  0
 13 15  1  0
 15 17  2  0
 17 19  1  0
 19 21  2  0
 21 12  1  0
  8  9  1  0
  8 10  1  0
  8 11  1  0
 13 14  1  0
 15 16  1  0
 17 18  1  0
 19 20  1  0
 21 22  1  0
M  CHG  1   6  -1
M  END
>  <PDB_ID>  (1540) 
pdb3kae

>  <RESIDUE_NAME>  (1540) 
ASP   PHE

>  <FRAG_NAME>  (1540) 
ACET   MBZ

>  <FRAG_ATOM_NUM>  (1540) 
fragi: 7  fragj: 15

>  <atom.prop.CHAIN_ID>  (1540) 
A A A A A A A Z Z Z Z Z Z Z Z Z Z Z Z Z Z Z

>  <atom.prop.IS_HEAVY_ATOM>  (1540) 
1 0 0 0 1 1 1 1 0 0 0 1 1 0 1 0 1 0 1 0 1 0

>  <DIFUSE_FUNC_ATOM>  (1540) 
atom 6   atom 7   

>  <FINAL_SINGLE_POINT_ENERGY>  (1540) 
0

>  <NONCOV_INTER_ENERGY_QM>  (1540) 
0

>  <FF_Energy>  (1540) 
1.5

>  <QM_Energy>  (1540) 
-6.25

>  <source>  (1540) 
ACET_MBZ_01

>  <Index>  (1540) 
25398

$$$$
ACET-pdb4gu5-B-ASP-213:MBZ-pdb4gu5-B-PHE-217
     RDKit          3D

 22 21  0  0  0  0  0  0  0  0999 V2000
   -4.8432   -3.2328    0.8163 C   0  0  0  0  0  0  0  0  0  0  0  0
   -5.3648   -3.3410    1.6535 H   0  0  0  0  0  0  0  0  0  0  0  0
   -4.8969   -4.0521    0.2598 H   0  0  0  0  0  0  0  0  0  0  0  0
   -5.2882   -2.4145    0.2502 H   0  0  0  0  0  0  0  0  0  0  0  0
   -3.3785   -2.9830    1.1808 C   0  0  0  0  0  0  0  0  0  0  0  0
   -3.0978   -2.1413    2.0721 O   0  0  0  0  0  1  0  0  0  0  0  0
   -2.5068   -3.6563    0.5850 O   0  0  0  0  0  0  0  0  0  0  0  0
   -0.0049    2.8777    0.0024 C   0  0  0  0  0  0  0  0  0  0  0  0
   -0.3277    3.1902   -0.8792 H   0  0  0  0  0  0  0  0  0  0  0  0
    0.9158    3.1939    0.1799 H   0  0  0  0  0  0  0  0  0  0  0  0
   -0.6542    3.3100    0.7638 H   0  0  0  0  0  0  0  0  0  0  0  0
    0.0011    1.3891    0.0004 C   0  0  0  0  0  0  0  0  0  0  0  0
   -1.1963    0.6812   -0.0004 C   0  0  0  0  0  0  0  0  0  0  0  0
   -2.0622    1.1790   -0.0024 H   0  0  0  0  0  0  0  0  0  0  0  0
   -1.2051   -0.6992   -0.0000 C   0  0  0  0  0  0  0  0  0  0  0  0
   -2.0790   -1.1961    0.0013 H   0  0  0  0  0  0  0  0  0  0  0  0
   -0.0036   -1.3862    0.0004 C   0  0  0  0  0  0  0  0  0  0  0  0
    0.0052   -2.3847    0.0009 H   0  0  0  0  0  0  0  0  0  0  0  0
    1.2051   -0.6793    0.0000 C   0  0  0  0  0  0  0  0  0  0  0  0
    2.0823   -1.1877    0.0016 H   0  0  0  0  0  0  0  0  0  0  0  0
    1.1988    0.6944   -0.0004 C   0  0  0  0  0  0  0  0  0  0  0  0
    2.0627    1.2003   -0.0020 H   0  0  0  0  0  0  0  0  0  0  0  0
  1  5  1  0
  5  6  1  0
  5  7  2  0
  1  2  1  0
  1  3  1  0
  1  4  1  0
  8 12  1  0
 12 13  2  0
 13 15  1  0
 15 17  2  0
 17 19  1  0
 19 21  2  0
 21 12  1  0
  8  9  1  0
  8 10  1  0
  8 11  1  0
 13 14  1  0
 15 16  1  0
 17 18  1  0
 19 20  1  0
 21 22  1  0
M  CHG  1   6  -1
M  END
>  <PDB_ID>  (1541) 
pdb4gu5

>  <RESIDUE_NAME>  (1541) 
ASP   PHE

>  <FRAG_NAME>  (1541) 
ACET   MBZ

>  <FRAG_ATOM_NUM>  (1541) 
fragi: 7  fragj: 15

>  <atom.prop.CHAIN_ID>  (1541) 
A A A A A A A Z Z Z Z Z Z Z Z Z Z Z Z Z Z Z

>  <atom.prop.IS_HEAVY_ATOM>  (1541) 
1 0 0 0 1 1 1 1 0 0 0 1 1 0 1 0 1 0 1 0 1 0

>  <DIFUSE_FUNC_ATOM>  (1541) 
atom 6   atom 7   

>  <FINAL_SINGLE_POINT_ENERGY>  (1541) 
0

>  <NONCOV_INTER_ENERGY_QM>  (1541) 
0

>  <FF_Energy>  (1541) 
-0.57

>  <QM_Energy>  (1541) 
-5.61

>  <source>  (1541) 
ACET_MBZ_01

>  <Index>  (1541) 
25434

$$$$
ACET-pdb4h18-C-GLU-168:MBZ-pdb4h18-C-PHE-164
     RDKit          3D

 22 21  0  0  0  0  0  0  0  0999 V2000
   -4.4013    3.9059    1.9549 C   0  0  0  0  0  0  0  0  0  0  0  0
   -5.3705    4.0004    2.0951 H   0  0  0  0  0  0  0  0  0  0  0  0
   -3.8920    4.6241    2.3935 H   0  0  0  0  0  0  0  0  0  0  0  0
   -4.0897    2.9568    2.3911 H   0  0  0  0  0  0  0  0  0  0  0  0
   -4.1364    3.9897    0.4705 C   0  0  0  0  0  0  0  0  0  0  0  0
   -3.3374    3.1863   -0.0662 O   0  0  0  0  0  1  0  0  0  0  0  0
   -4.7037    4.8954   -0.1856 O   0  0  0  0  0  0  0  0  0  0  0  0
    0.0165    2.9284    0.0265 C   0  0  0  0  0  0  0  0  0  0  0  0
   -0.6040    3.2518   -0.6678 H   0  0  0  0  0  0  0  0  0  0  0  0
    0.9414    3.2223   -0.1414 H   0  0  0  0  0  0  0  0  0  0  0  0
   -0.2994    3.3558    0.9782 H   0  0  0  0  0  0  0  0  0  0  0  0
   -0.0032    1.4092   -0.0008 C   0  0  0  0  0  0  0  0  0  0  0  0
   -1.1948    0.7174   -0.0056 C   0  0  0  0  0  0  0  0  0  0  0  0
   -2.0632    1.2023   -0.0138 H   0  0  0  0  0  0  0  0  0  0  0  0
   -1.2085   -0.6881    0.0000 C   0  0  0  0  0  0  0  0  0  0  0  0
   -2.0896   -1.1717    0.0034 H   0  0  0  0  0  0  0  0  0  0  0  0
   -0.0058   -1.4087    0.0022 C   0  0  0  0  0  0  0  0  0  0  0  0
   -0.0222   -2.3998    0.0047 H   0  0  0  0  0  0  0  0  0  0  0  0
    1.2085   -0.7148   -0.0000 C   0  0  0  0  0  0  0  0  0  0  0  0
    2.0834   -1.2131   -0.0034 H   0  0  0  0  0  0  0  0  0  0  0  0
    1.2038    0.6851    0.0042 C   0  0  0  0  0  0  0  0  0  0  0  0
    2.0702    1.1817    0.0100 H   0  0  0  0  0  0  0  0  0  0  0  0
  1  5  1  0
  5  6  1  0
  5  7  2  0
  1  2  1  0
  1  3  1  0
  1  4  1  0
  8 12  1  0
 12 13  2  0
 13 15  1  0
 15 17  2  0
 17 19  1  0
 19 21  2  0
 21 12  1  0
  8  9  1  0
  8 10  1  0
  8 11  1  0
 13 14  1  0
 15 16  1  0
 17 18  1  0
 19 20  1  0
 21 22  1  0
M  CHG  1   6  -1
M  END
>  <PDB_ID>  (1542) 
pdb4h18

>  <RESIDUE_NAME>  (1542) 
GLU   PHE

>  <FRAG_NAME>  (1542) 
ACET   MBZ

>  <FRAG_ATOM_NUM>  (1542) 
fragi: 7  fragj: 15

>  <atom.prop.CHAIN_ID>  (1542) 
A A A A A A A Z Z Z Z Z Z Z Z Z Z Z Z Z Z Z

>  <atom.prop.IS_HEAVY_ATOM>  (1542) 
1 0 0 0 1 1 1 1 0 0 0 1 1 0 1 0 1 0 1 0 1 0

>  <DIFUSE_FUNC_ATOM>  (1542) 
atom 6   atom 7   

>  <FINAL_SINGLE_POINT_ENERGY>  (1542) 
0

>  <NONCOV_INTER_ENERGY_QM>  (1542) 
0

>  <FF_Energy>  (1542) 
-1.76

>  <QM_Energy>  (1542) 
-7.91

>  <source>  (1542) 
ACET_MBZ_01

>  <Index>  (1542) 
25534

$$$$
ACET-pdb4h18-D-GLU-168:MBZ-pdb4h18-D-PHE-164
     RDKit          3D

 22 21  0  0  0  0  0  0  0  0999 V2000
   -4.4635    3.8120    1.7669 C   0  0  0  0  0  0  0  0  0  0  0  0
   -5.3981    4.0620    1.9363 H   0  0  0  0  0  0  0  0  0  0  0  0
   -3.8293    4.4483    2.1639 H   0  0  0  0  0  0  0  0  0  0  0  0
   -4.2919    2.8392    2.2275 H   0  0  0  0  0  0  0  0  0  0  0  0
   -4.2445    3.8115    0.2646 C   0  0  0  0  0  0  0  0  0  0  0  0
   -3.4478    3.0026   -0.2529 O   0  0  0  0  0  1  0  0  0  0  0  0
   -4.8700    4.6506   -0.4467 O   0  0  0  0  0  0  0  0  0  0  0  0
   -0.0300    2.9204   -0.0171 C   0  0  0  0  0  0  0  0  0  0  0  0
   -0.5938    3.2113   -0.7745 H   0  0  0  0  0  0  0  0  0  0  0  0
    0.9020    3.2319   -0.1202 H   0  0  0  0  0  0  0  0  0  0  0  0
   -0.4346    3.3607    0.8942 H   0  0  0  0  0  0  0  0  0  0  0  0
   -0.0106    1.4058   -0.0118 C   0  0  0  0  0  0  0  0  0  0  0  0
   -1.2001    0.6833    0.0112 C   0  0  0  0  0  0  0  0  0  0  0  0
   -2.0744    1.1646    0.0348 H   0  0  0  0  0  0  0  0  0  0  0  0
   -1.2064   -0.7224    0.0000 C   0  0  0  0  0  0  0  0  0  0  0  0
   -2.0672   -1.2182   -0.0091 H   0  0  0  0  0  0  0  0  0  0  0  0
    0.0235   -1.4078    0.0041 C   0  0  0  0  0  0  0  0  0  0  0  0
    0.0327   -2.3992    0.0096 H   0  0  0  0  0  0  0  0  0  0  0  0
    1.2064   -0.6796   -0.0000 C   0  0  0  0  0  0  0  0  0  0  0  0
    2.1027   -1.1593    0.0011 H   0  0  0  0  0  0  0  0  0  0  0  0
    1.1871    0.7207   -0.0035 C   0  0  0  0  0  0  0  0  0  0  0  0
    2.0527    1.2190   -0.0011 H   0  0  0  0  0  0  0  0  0  0  0  0
  1  5  1  0
  5  6  1  0
  5  7  2  0
  1  2  1  0
  1  3  1  0
  1  4  1  0
  8 12  1  0
 12 13  2  0
 13 15  1  0
 15 17  2  0
 17 19  1  0
 19 21  2  0
 21 12  1  0
  8  9  1  0
  8 10  1  0
  8 11  1  0
 13 14  1  0
 15 16  1  0
 17 18  1  0
 19 20  1  0
 21 22  1  0
M  CHG  1   6  -1
M  END
>  <PDB_ID>  (1543) 
pdb4h18

>  <RESIDUE_NAME>  (1543) 
GLU   PHE

>  <FRAG_NAME>  (1543) 
ACET   MBZ

>  <FRAG_ATOM_NUM>  (1543) 
fragi: 7  fragj: 15

>  <atom.prop.CHAIN_ID>  (1543) 
A A A A A A A Z Z Z Z Z Z Z Z Z Z Z Z Z Z Z

>  <atom.prop.IS_HEAVY_ATOM>  (1543) 
1 0 0 0 1 1 1 1 0 0 0 1 1 0 1 0 1 0 1 0 1 0

>  <DIFUSE_FUNC_ATOM>  (1543) 
atom 6   atom 7   

>  <FINAL_SINGLE_POINT_ENERGY>  (1543) 
0

>  <NONCOV_INTER_ENERGY_QM>  (1543) 
0

>  <FF_Energy>  (1543) 
-1.54

>  <QM_Energy>  (1543) 
-7.65

>  <source>  (1543) 
ACET_MBZ_01

>  <Index>  (1543) 
25538

$$$$
ACET-pdb4h18-D-ASP-349:MBZ-pdb4h18-D-PHE-212
     RDKit          3D

 22 21  0  0  0  0  0  0  0  0999 V2000
   -0.8806    0.0785    3.5204 C   0  0  0  0  0  0  0  0  0  0  0  0
    0.0531    0.3294    3.7577 H   0  0  0  0  0  0  0  0  0  0  0  0
   -0.9142   -0.2897    2.5972 H   0  0  0  0  0  0  0  0  0  0  0  0
   -1.1946   -0.7106    4.2036 H   0  0  0  0  0  0  0  0  0  0  0  0
   -1.7537    1.3160    3.5880 C   0  0  0  0  0  0  0  0  0  0  0  0
   -2.9336    1.2143    3.9876 O   0  0  0  0  0  1  0  0  0  0  0  0
   -1.2504    2.3941    3.2104 O   0  0  0  0  0  0  0  0  0  0  0  0
    0.0227    2.9198    0.0541 C   0  0  0  0  0  0  0  0  0  0  0  0
    0.9336    3.2197   -0.2048 H   0  0  0  0  0  0  0  0  0  0  0  0
   -0.1850    3.2004    0.9843 H   0  0  0  0  0  0  0  0  0  0  0  0
   -0.6869    3.4192   -0.6056 H   0  0  0  0  0  0  0  0  0  0  0  0
    0.0011    1.4092    0.0090 C   0  0  0  0  0  0  0  0  0  0  0  0
   -1.1980    0.6840    0.0046 C   0  0  0  0  0  0  0  0  0  0  0  0
   -2.0650    1.1813    0.0032 H   0  0  0  0  0  0  0  0  0  0  0  0
   -1.2009   -0.6937   -0.0000 C   0  0  0  0  0  0  0  0  0  0  0  0
   -2.0803   -1.1918    0.0049 H   0  0  0  0  0  0  0  0  0  0  0  0
   -0.0060   -1.3931   -0.0092 C   0  0  0  0  0  0  0  0  0  0  0  0
   -0.0134   -2.3935   -0.0229 H   0  0  0  0  0  0  0  0  0  0  0  0
    1.2009   -0.7049    0.0000 C   0  0  0  0  0  0  0  0  0  0  0  0
    2.0784   -1.2014    0.0113 H   0  0  0  0  0  0  0  0  0  0  0  0
    1.2029    0.6985   -0.0045 C   0  0  0  0  0  0  0  0  0  0  0  0
    2.0693    1.1872   -0.0180 H   0  0  0  0  0  0  0  0  0  0  0  0
  1  5  1  0
  5  6  1  0
  5  7  2  0
  1  2  1  0
  1  3  1  0
  1  4  1  0
  8 12  1  0
 12 13  2  0
 13 15  1  0
 15 17  2  0
 17 19  1  0
 19 21  2  0
 21 12  1  0
  8  9  1  0
  8 10  1  0
  8 11  1  0
 13 14  1  0
 15 16  1  0
 17 18  1  0
 19 20  1  0
 21 22  1  0
M  CHG  1   6  -1
M  END
>  <PDB_ID>  (1544) 
pdb4h18

>  <RESIDUE_NAME>  (1544) 
ASP   PHE

>  <FRAG_NAME>  (1544) 
ACET   MBZ

>  <FRAG_ATOM_NUM>  (1544) 
fragi: 7  fragj: 15

>  <atom.prop.CHAIN_ID>  (1544) 
A A A A A A A Z Z Z Z Z Z Z Z Z Z Z Z Z Z Z

>  <atom.prop.IS_HEAVY_ATOM>  (1544) 
1 0 0 0 1 1 1 1 0 0 0 1 1 0 1 0 1 0 1 0 1 0

>  <DIFUSE_FUNC_ATOM>  (1544) 
atom 6   atom 7   

>  <FINAL_SINGLE_POINT_ENERGY>  (1544) 
0

>  <NONCOV_INTER_ENERGY_QM>  (1544) 
0

>  <FF_Energy>  (1544) 
0.1

>  <QM_Energy>  (1544) 
-5.12

>  <source>  (1544) 
ACET_MBZ_01

>  <Index>  (1544) 
25541

$$$$
ACET-pdb4h73-A-ASP-373:MBZ-pdb4h73-A-PHE-376
     RDKit          3D

 22 21  0  0  0  0  0  0  0  0999 V2000
   -4.2385   -0.3291   -3.0865 C   0  0  0  0  0  0  0  0  0  0  0  0
   -5.0625    0.0326   -3.5109 H   0  0  0  0  0  0  0  0  0  0  0  0
   -4.0775   -1.2629   -3.3872 H   0  0  0  0  0  0  0  0  0  0  0  0
   -3.3965    0.2795   -3.4164 H   0  0  0  0  0  0  0  0  0  0  0  0
   -4.4301   -0.3291   -1.5739 C   0  0  0  0  0  0  0  0  0  0  0  0
   -3.9971    0.6099   -0.8779 O   0  0  0  0  0  1  0  0  0  0  0  0
   -5.0537   -1.2819   -1.0702 O   0  0  0  0  0  0  0  0  0  0  0  0
    0.0016    2.9103   -0.0226 C   0  0  0  0  0  0  0  0  0  0  0  0
   -0.2432    3.1987   -0.9361 H   0  0  0  0  0  0  0  0  0  0  0  0
    0.9102    3.2145    0.2196 H   0  0  0  0  0  0  0  0  0  0  0  0
   -0.7011    3.3702    0.6724 H   0  0  0  0  0  0  0  0  0  0  0  0
   -0.0015    1.3966    0.0009 C   0  0  0  0  0  0  0  0  0  0  0  0
   -1.1853    0.6843   -0.0054 C   0  0  0  0  0  0  0  0  0  0  0  0
   -2.0582    1.1762   -0.0157 H   0  0  0  0  0  0  0  0  0  0  0  0
   -1.1883   -0.6926   -0.0000 C   0  0  0  0  0  0  0  0  0  0  0  0
   -2.0701   -1.1880   -0.0000 H   0  0  0  0  0  0  0  0  0  0  0  0
   -0.0011   -1.3833    0.0075 C   0  0  0  0  0  0  0  0  0  0  0  0
   -0.0052   -2.3859    0.0183 H   0  0  0  0  0  0  0  0  0  0  0  0
    1.1883   -0.6940   -0.0000 C   0  0  0  0  0  0  0  0  0  0  0  0
    2.0740   -1.1935   -0.0023 H   0  0  0  0  0  0  0  0  0  0  0  0
    1.1879    0.6890   -0.0030 C   0  0  0  0  0  0  0  0  0  0  0  0
    2.0589    1.1851   -0.0088 H   0  0  0  0  0  0  0  0  0  0  0  0
  1  5  1  0
  5  6  1  0
  5  7  2  0
  1  2  1  0
  1  3  1  0
  1  4  1  0
  8 12  1  0
 12 13  2  0
 13 15  1  0
 15 17  2  0
 17 19  1  0
 19 21  2  0
 21 12  1  0
  8  9  1  0
  8 10  1  0
  8 11  1  0
 13 14  1  0
 15 16  1  0
 17 18  1  0
 19 20  1  0
 21 22  1  0
M  CHG  1   6  -1
M  END
>  <PDB_ID>  (1545) 
pdb4h73

>  <RESIDUE_NAME>  (1545) 
ASP   PHE

>  <FRAG_NAME>  (1545) 
ACET   MBZ

>  <FRAG_ATOM_NUM>  (1545) 
fragi: 7  fragj: 15

>  <atom.prop.CHAIN_ID>  (1545) 
A A A A A A A Z Z Z Z Z Z Z Z Z Z Z Z Z Z Z

>  <atom.prop.IS_HEAVY_ATOM>  (1545) 
1 0 0 0 1 1 1 1 0 0 0 1 1 0 1 0 1 0 1 0 1 0

>  <DIFUSE_FUNC_ATOM>  (1545) 
atom 6   atom 7   

>  <FINAL_SINGLE_POINT_ENERGY>  (1545) 
0

>  <NONCOV_INTER_ENERGY_QM>  (1545) 
0

>  <FF_Energy>  (1545) 
-0.53

>  <QM_Energy>  (1545) 
-6.72

>  <source>  (1545) 
ACET_MBZ_01

>  <Index>  (1545) 
25846

$$$$
ACET-pdb4h73-E-GLU-39:MBZ-pdb4h73-E-PHE-25
     RDKit          3D

 22 21  0  0  0  0  0  0  0  0999 V2000
   -4.4973    0.4304   -1.0985 C   0  0  0  0  0  0  0  0  0  0  0  0
   -4.1252    0.4470   -0.1912 H   0  0  0  0  0  0  0  0  0  0  0  0
   -5.4268    0.1163   -1.1201 H   0  0  0  0  0  0  0  0  0  0  0  0
   -4.4603    1.4397   -1.5082 H   0  0  0  0  0  0  0  0  0  0  0  0
   -3.6707   -0.5349   -1.9142 C   0  0  0  0  0  0  0  0  0  0  0  0
   -2.8761   -0.0660   -2.7621 O   0  0  0  0  0  1  0  0  0  0  0  0
   -3.8096   -1.7591   -1.7047 O   0  0  0  0  0  0  0  0  0  0  0  0
    0.0120    2.9018    0.0110 C   0  0  0  0  0  0  0  0  0  0  0  0
   -0.9140    3.2169   -0.1233 H   0  0  0  0  0  0  0  0  0  0  0  0
    0.6089    3.2099   -0.7142 H   0  0  0  0  0  0  0  0  0  0  0  0
    0.3763    3.3297    0.9449 H   0  0  0  0  0  0  0  0  0  0  0  0
    0.0004    1.4001    0.0002 C   0  0  0  0  0  0  0  0  0  0  0  0
   -1.1972    0.7027    0.0034 C   0  0  0  0  0  0  0  0  0  0  0  0
   -2.0605    1.1935    0.0071 H   0  0  0  0  0  0  0  0  0  0  0  0
   -1.1994   -0.6836    0.0000 C   0  0  0  0  0  0  0  0  0  0  0  0
   -2.0788   -1.1799    0.0033 H   0  0  0  0  0  0  0  0  0  0  0  0
   -0.0004   -1.3897   -0.0066 C   0  0  0  0  0  0  0  0  0  0  0  0
   -0.0176   -2.3898   -0.0166 H   0  0  0  0  0  0  0  0  0  0  0  0
    1.1994   -0.7075    0.0000 C   0  0  0  0  0  0  0  0  0  0  0  0
    2.0782   -1.2084    0.0042 H   0  0  0  0  0  0  0  0  0  0  0  0
    1.1972    0.6780    0.0030 C   0  0  0  0  0  0  0  0  0  0  0  0
    2.0666    1.1764    0.0062 H   0  0  0  0  0  0  0  0  0  0  0  0
  1  5  1  0
  5  6  1  0
  5  7  2  0
  1  2  1  0
  1  3  1  0
  1  4  1  0
  8 12  1  0
 12 13  2  0
 13 15  1  0
 15 17  2  0
 17 19  1  0
 19 21  2  0
 21 12  1  0
  8  9  1  0
  8 10  1  0
  8 11  1  0
 13 14  1  0
 15 16  1  0
 17 18  1  0
 19 20  1  0
 21 22  1  0
M  CHG  1   6  -1
M  END
>  <PDB_ID>  (1546) 
pdb4h73

>  <RESIDUE_NAME>  (1546) 
GLU   PHE

>  <FRAG_NAME>  (1546) 
ACET   MBZ

>  <FRAG_ATOM_NUM>  (1546) 
fragi: 7  fragj: 15

>  <atom.prop.CHAIN_ID>  (1546) 
A A A A A A A Z Z Z Z Z Z Z Z Z Z Z Z Z Z Z

>  <atom.prop.IS_HEAVY_ATOM>  (1546) 
1 0 0 0 1 1 1 1 0 0 0 1 1 0 1 0 1 0 1 0 1 0

>  <DIFUSE_FUNC_ATOM>  (1546) 
atom 6   atom 7   

>  <FINAL_SINGLE_POINT_ENERGY>  (1546) 
0

>  <NONCOV_INTER_ENERGY_QM>  (1546) 
0

>  <FF_Energy>  (1546) 
1.58

>  <QM_Energy>  (1546) 
-3.57

>  <source>  (1546) 
ACET_MBZ_01

>  <Index>  (1546) 
25864

$$$$
ACET-pdb3kkj-B-GLU-310:MBZ-pdb3kkj-B-PHE-65
     RDKit          3D

 22 21  0  0  0  0  0  0  0  0999 V2000
    1.6958    1.7970   -3.1273 C   0  0  0  0  0  0  0  0  0  0  0  0
    1.3484    2.3559   -3.8568 H   0  0  0  0  0  0  0  0  0  0  0  0
    1.1366    1.8474   -2.3202 H   0  0  0  0  0  0  0  0  0  0  0  0
    1.7208    0.7618   -3.4676 H   0  0  0  0  0  0  0  0  0  0  0  0
    3.0623    2.3053   -2.7703 C   0  0  0  0  0  0  0  0  0  0  0  0
    3.3326    2.4847   -1.5664 O   0  0  0  0  0  1  0  0  0  0  0  0
    3.8727    2.5201   -3.6988 O   0  0  0  0  0  0  0  0  0  0  0  0
   -0.0089    2.8600    0.1382 C   0  0  0  0  0  0  0  0  0  0  0  0
   -0.4981    3.2441   -0.6268 H   0  0  0  0  0  0  0  0  0  0  0  0
    0.9225    3.1800    0.1756 H   0  0  0  0  0  0  0  0  0  0  0  0
   -0.5084    3.1893    1.0493 H   0  0  0  0  0  0  0  0  0  0  0  0
    0.0013    1.3876    0.0024 C   0  0  0  0  0  0  0  0  0  0  0  0
   -1.1967    0.6857   -0.0035 C   0  0  0  0  0  0  0  0  0  0  0  0
   -2.0607    1.1814   -0.0115 H   0  0  0  0  0  0  0  0  0  0  0  0
   -1.2041   -0.6978    0.0000 C   0  0  0  0  0  0  0  0  0  0  0  0
   -2.0777   -1.1943    0.0006 H   0  0  0  0  0  0  0  0  0  0  0  0
   -0.0015   -1.3843    0.0044 C   0  0  0  0  0  0  0  0  0  0  0  0
    0.0056   -2.3832    0.0103 H   0  0  0  0  0  0  0  0  0  0  0  0
    1.2041   -0.6791   -0.0000 C   0  0  0  0  0  0  0  0  0  0  0  0
    2.0824   -1.1893    0.0005 H   0  0  0  0  0  0  0  0  0  0  0  0
    1.1968    0.6879   -0.0033 C   0  0  0  0  0  0  0  0  0  0  0  0
    2.0618    1.1966   -0.0105 H   0  0  0  0  0  0  0  0  0  0  0  0
  1  5  1  0
  5  6  1  0
  5  7  2  0
  1  2  1  0
  1  3  1  0
  1  4  1  0
  8 12  1  0
 12 13  2  0
 13 15  1  0
 15 17  2  0
 17 19  1  0
 19 21  2  0
 21 12  1  0
  8  9  1  0
  8 10  1  0
  8 11  1  0
 13 14  1  0
 15 16  1  0
 17 18  1  0
 19 20  1  0
 21 22  1  0
M  CHG  1   6  -1
M  END
>  <PDB_ID>  (1547) 
pdb3kkj

>  <RESIDUE_NAME>  (1547) 
GLU   PHE

>  <FRAG_NAME>  (1547) 
ACET   MBZ

>  <FRAG_ATOM_NUM>  (1547) 
fragi: 7  fragj: 15

>  <atom.prop.CHAIN_ID>  (1547) 
A A A A A A A Z Z Z Z Z Z Z Z Z Z Z Z Z Z Z

>  <atom.prop.IS_HEAVY_ATOM>  (1547) 
1 0 0 0 1 1 1 1 0 0 0 1 1 0 1 0 1 0 1 0 1 0

>  <DIFUSE_FUNC_ATOM>  (1547) 
atom 6   atom 7   

>  <FINAL_SINGLE_POINT_ENERGY>  (1547) 
0

>  <NONCOV_INTER_ENERGY_QM>  (1547) 
0

>  <FF_Energy>  (1547) 
-0.79

>  <QM_Energy>  (1547) 
-5.88

>  <source>  (1547) 
ACET_MBZ_01

>  <Index>  (1547) 
26042

$$$$
ACET-pdb3kkr-A-ASP-116:MBZ-pdb3kkr-A-PHE-121
     RDKit          3D

 22 21  0  0  0  0  0  0  0  0999 V2000
    6.1477    1.0397    1.1947 C   0  0  0  0  0  0  0  0  0  0  0  0
    6.9176    1.4730    0.7399 H   0  0  0  0  0  0  0  0  0  0  0  0
    6.4624    0.3178    1.7991 H   0  0  0  0  0  0  0  0  0  0  0  0
    5.6483    1.7940    1.8028 H   0  0  0  0  0  0  0  0  0  0  0  0
    5.2383    0.4233    0.1305 C   0  0  0  0  0  0  0  0  0  0  0  0
    4.2713    1.0748   -0.3167 O   0  0  0  0  0  1  0  0  0  0  0  0
    5.5060   -0.7308   -0.2625 O   0  0  0  0  0  0  0  0  0  0  0  0
    0.0098    2.8907    0.0213 C   0  0  0  0  0  0  0  0  0  0  0  0
    0.8566    3.1985   -0.3908 H   0  0  0  0  0  0  0  0  0  0  0  0
   -0.0517    3.1822    0.9661 H   0  0  0  0  0  0  0  0  0  0  0  0
   -0.8133    3.3532   -0.5233 H   0  0  0  0  0  0  0  0  0  0  0  0
   -0.0012    1.3911   -0.0042 C   0  0  0  0  0  0  0  0  0  0  0  0
   -1.1868    0.6895    0.0087 C   0  0  0  0  0  0  0  0  0  0  0  0
   -2.0568    1.1797    0.0232 H   0  0  0  0  0  0  0  0  0  0  0  0
   -1.1885   -0.6891   -0.0000 C   0  0  0  0  0  0  0  0  0  0  0  0
   -2.0700   -1.1853   -0.0007 H   0  0  0  0  0  0  0  0  0  0  0  0
    0.0009   -1.3790   -0.0056 C   0  0  0  0  0  0  0  0  0  0  0  0
   -0.0061   -2.3831   -0.0144 H   0  0  0  0  0  0  0  0  0  0  0  0
    1.1885   -0.6941    0.0000 C   0  0  0  0  0  0  0  0  0  0  0  0
    2.0739   -1.1952    0.0045 H   0  0  0  0  0  0  0  0  0  0  0  0
    1.1871    0.6816    0.0011 C   0  0  0  0  0  0  0  0  0  0  0  0
    2.0583    1.1809    0.0049 H   0  0  0  0  0  0  0  0  0  0  0  0
  1  5  1  0
  5  6  1  0
  5  7  2  0
  1  2  1  0
  1  3  1  0
  1  4  1  0
  8 12  1  0
 12 13  2  0
 13 15  1  0
 15 17  2  0
 17 19  1  0
 19 21  2  0
 21 12  1  0
  8  9  1  0
  8 10  1  0
  8 11  1  0
 13 14  1  0
 15 16  1  0
 17 18  1  0
 19 20  1  0
 21 22  1  0
M  CHG  1   6  -1
M  END
>  <PDB_ID>  (1548) 
pdb3kkr

>  <RESIDUE_NAME>  (1548) 
ASP   PHE

>  <FRAG_NAME>  (1548) 
ACET   MBZ

>  <FRAG_ATOM_NUM>  (1548) 
fragi: 7  fragj: 15

>  <atom.prop.CHAIN_ID>  (1548) 
A A A A A A A Z Z Z Z Z Z Z Z Z Z Z Z Z Z Z

>  <atom.prop.IS_HEAVY_ATOM>  (1548) 
1 0 0 0 1 1 1 1 0 0 0 1 1 0 1 0 1 0 1 0 1 0

>  <DIFUSE_FUNC_ATOM>  (1548) 
atom 6   atom 7   

>  <FINAL_SINGLE_POINT_ENERGY>  (1548) 
0

>  <NONCOV_INTER_ENERGY_QM>  (1548) 
0

>  <FF_Energy>  (1548) 
-1.56

>  <QM_Energy>  (1548) 
-7.22

>  <source>  (1548) 
ACET_MBZ_01

>  <Index>  (1548) 
26077

$$$$
ACET-pdb3kma-B-GLU-28:MBZ-pdb3kma-B-PHE-24
     RDKit          3D

 22 21  0  0  0  0  0  0  0  0999 V2000
   -5.0954    2.0187    0.6576 C   0  0  0  0  0  0  0  0  0  0  0  0
   -5.0576    1.1779    1.1665 H   0  0  0  0  0  0  0  0  0  0  0  0
   -6.0171    2.2701    0.4241 H   0  0  0  0  0  0  0  0  0  0  0  0
   -4.6716    2.8100    1.2759 H   0  0  0  0  0  0  0  0  0  0  0  0
   -4.3350    1.8088   -0.6350 C   0  0  0  0  0  0  0  0  0  0  0  0
   -3.8065    2.8009   -1.1801 O   0  0  0  0  0  1  0  0  0  0  0  0
   -4.2796    0.6556   -1.1114 O   0  0  0  0  0  0  0  0  0  0  0  0
    0.0006    2.9030    0.0102 C   0  0  0  0  0  0  0  0  0  0  0  0
    0.9203    3.2088    0.2070 H   0  0  0  0  0  0  0  0  0  0  0  0
   -0.6338    3.2062    0.7061 H   0  0  0  0  0  0  0  0  0  0  0  0
   -0.3035    3.3538   -0.9344 H   0  0  0  0  0  0  0  0  0  0  0  0
   -0.0002    1.4022   -0.0002 C   0  0  0  0  0  0  0  0  0  0  0  0
   -1.1972    0.6944   -0.0005 C   0  0  0  0  0  0  0  0  0  0  0  0
   -2.0636    1.1847   -0.0027 H   0  0  0  0  0  0  0  0  0  0  0  0
   -1.2036   -0.6987   -0.0000 C   0  0  0  0  0  0  0  0  0  0  0  0
   -2.0788   -1.1915    0.0014 H   0  0  0  0  0  0  0  0  0  0  0  0
    0.0001   -1.3958    0.0009 C   0  0  0  0  0  0  0  0  0  0  0  0
   -0.0030   -2.3931    0.0017 H   0  0  0  0  0  0  0  0  0  0  0  0
    1.2036   -0.6973   -0.0000 C   0  0  0  0  0  0  0  0  0  0  0  0
    2.0835   -1.1943    0.0004 H   0  0  0  0  0  0  0  0  0  0  0  0
    1.1973    0.6952   -0.0001 C   0  0  0  0  0  0  0  0  0  0  0  0
    2.0649    1.1915   -0.0009 H   0  0  0  0  0  0  0  0  0  0  0  0
  1  5  1  0
  5  6  1  0
  5  7  2  0
  1  2  1  0
  1  3  1  0
  1  4  1  0
  8 12  1  0
 12 13  2  0
 13 15  1  0
 15 17  2  0
 17 19  1  0
 19 21  2  0
 21 12  1  0
  8  9  1  0
  8 10  1  0
  8 11  1  0
 13 14  1  0
 15 16  1  0
 17 18  1  0
 19 20  1  0
 21 22  1  0
M  CHG  1   6  -1
M  END
>  <PDB_ID>  (1549) 
pdb3kma

>  <RESIDUE_NAME>  (1549) 
GLU   PHE

>  <FRAG_NAME>  (1549) 
ACET   MBZ

>  <FRAG_ATOM_NUM>  (1549) 
fragi: 7  fragj: 15

>  <atom.prop.CHAIN_ID>  (1549) 
A A A A A A A Z Z Z Z Z Z Z Z Z Z Z Z Z Z Z

>  <atom.prop.IS_HEAVY_ATOM>  (1549) 
1 0 0 0 1 1 1 1 0 0 0 1 1 0 1 0 1 0 1 0 1 0

>  <DIFUSE_FUNC_ATOM>  (1549) 
atom 6   atom 7   

>  <FINAL_SINGLE_POINT_ENERGY>  (1549) 
0

>  <NONCOV_INTER_ENERGY_QM>  (1549) 
0

>  <FF_Energy>  (1549) 
-0.83

>  <QM_Energy>  (1549) 
-6.75

>  <source>  (1549) 
ACET_MBZ_01

>  <Index>  (1549) 
26155

$$$$
ACET-pdb3kma-B-GLU-31:MBZ-pdb3kma-B-PHE-64
     RDKit          3D

 22 21  0  0  0  0  0  0  0  0999 V2000
    3.3900    4.7527    1.4328 C   0  0  0  0  0  0  0  0  0  0  0  0
    2.5438    5.1121    1.0871 H   0  0  0  0  0  0  0  0  0  0  0  0
    4.1521    5.3415    1.2394 H   0  0  0  0  0  0  0  0  0  0  0  0
    3.2994    4.6640    2.5153 H   0  0  0  0  0  0  0  0  0  0  0  0
    3.6438    3.4256    0.7535 C   0  0  0  0  0  0  0  0  0  0  0  0
    3.8918    2.4285    1.4662 O   0  0  0  0  0  1  0  0  0  0  0  0
    3.6013    3.3785   -0.4973 O   0  0  0  0  0  0  0  0  0  0  0  0
    0.0071    2.9005    0.0181 C   0  0  0  0  0  0  0  0  0  0  0  0
    0.8300    3.2016    0.4821 H   0  0  0  0  0  0  0  0  0  0  0  0
   -0.8033    3.2077    0.4990 H   0  0  0  0  0  0  0  0  0  0  0  0
   -0.0012    3.3651   -0.9678 H   0  0  0  0  0  0  0  0  0  0  0  0
    0.0009    1.4020   -0.0001 C   0  0  0  0  0  0  0  0  0  0  0  0
   -1.1979    0.6977    0.0001 C   0  0  0  0  0  0  0  0  0  0  0  0
   -2.0631    1.1862   -0.0010 H   0  0  0  0  0  0  0  0  0  0  0  0
   -1.2018   -0.6978   -0.0000 C   0  0  0  0  0  0  0  0  0  0  0  0
   -2.0782   -1.1907    0.0013 H   0  0  0  0  0  0  0  0  0  0  0  0
    0.0017   -1.3956    0.0001 C   0  0  0  0  0  0  0  0  0  0  0  0
   -0.0026   -2.3940   -0.0004 H   0  0  0  0  0  0  0  0  0  0  0  0
    1.2018   -0.6977    0.0000 C   0  0  0  0  0  0  0  0  0  0  0  0
    2.0833   -1.1948    0.0007 H   0  0  0  0  0  0  0  0  0  0  0  0
    1.1953    0.6914   -0.0001 C   0  0  0  0  0  0  0  0  0  0  0  0
    2.0649    1.1886   -0.0007 H   0  0  0  0  0  0  0  0  0  0  0  0
  1  5  1  0
  5  6  1  0
  5  7  2  0
  1  2  1  0
  1  3  1  0
  1  4  1  0
  8 12  1  0
 12 13  2  0
 13 15  1  0
 15 17  2  0
 17 19  1  0
 19 21  2  0
 21 12  1  0
  8  9  1  0
  8 10  1  0
  8 11  1  0
 13 14  1  0
 15 16  1  0
 17 18  1  0
 19 20  1  0
 21 22  1  0
M  CHG  1   6  -1
M  END
>  <PDB_ID>  (1550) 
pdb3kma

>  <RESIDUE_NAME>  (1550) 
GLU   PHE

>  <FRAG_NAME>  (1550) 
ACET   MBZ

>  <FRAG_ATOM_NUM>  (1550) 
fragi: 7  fragj: 15

>  <atom.prop.CHAIN_ID>  (1550) 
A A A A A A A Z Z Z Z Z Z Z Z Z Z Z Z Z Z Z

>  <atom.prop.IS_HEAVY_ATOM>  (1550) 
1 0 0 0 1 1 1 1 0 0 0 1 1 0 1 0 1 0 1 0 1 0

>  <DIFUSE_FUNC_ATOM>  (1550) 
atom 6   atom 7   

>  <FINAL_SINGLE_POINT_ENERGY>  (1550) 
0

>  <NONCOV_INTER_ENERGY_QM>  (1550) 
0

>  <FF_Energy>  (1550) 
-2.78

>  <QM_Energy>  (1550) 
-8.18

>  <source>  (1550) 
ACET_MBZ_01

>  <Index>  (1550) 
26239

$$$$
ACET-pdb3kra-A-ASP-221:MBZ-pdb3kra-A-PHE-217
     RDKit          3D

 22 21  0  0  0  0  0  0  0  0999 V2000
    3.0392   -0.7869    4.3892 C   0  0  0  0  0  0  0  0  0  0  0  0
    3.0232    0.0596    3.8678 H   0  0  0  0  0  0  0  0  0  0  0  0
    3.9717   -1.1162    4.4849 H   0  0  0  0  0  0  0  0  0  0  0  0
    2.6370   -0.5887    5.3827 H   0  0  0  0  0  0  0  0  0  0  0  0
    2.2355   -1.8283    3.6401 C   0  0  0  0  0  0  0  0  0  0  0  0
    2.0379   -1.6143    2.4216 O   0  0  0  0  0  1  0  0  0  0  0  0
    1.8365   -2.8627    4.2622 O   0  0  0  0  0  0  0  0  0  0  0  0
    0.0053    2.9143    0.0918 C   0  0  0  0  0  0  0  0  0  0  0  0
   -0.8554    3.2511   -0.2463 H   0  0  0  0  0  0  0  0  0  0  0  0
    0.7671    3.2610   -0.4276 H   0  0  0  0  0  0  0  0  0  0  0  0
    0.1178    3.2736    1.1148 H   0  0  0  0  0  0  0  0  0  0  0  0
    0.0038    1.4275    0.0000 C   0  0  0  0  0  0  0  0  0  0  0  0
   -1.2078    0.7095   -0.0016 C   0  0  0  0  0  0  0  0  0  0  0  0
   -2.0714    1.1959   -0.0051 H   0  0  0  0  0  0  0  0  0  0  0  0
   -1.2240   -0.7110    0.0000 C   0  0  0  0  0  0  0  0  0  0  0  0
   -2.0984   -1.1907   -0.0029 H   0  0  0  0  0  0  0  0  0  0  0  0
   -0.0071   -1.4326    0.0080 C   0  0  0  0  0  0  0  0  0  0  0  0
   -0.0129   -2.4177    0.0184 H   0  0  0  0  0  0  0  0  0  0  0  0
    1.2240   -0.7212   -0.0000 C   0  0  0  0  0  0  0  0  0  0  0  0
    2.0960   -1.1980    0.0004 H   0  0  0  0  0  0  0  0  0  0  0  0
    1.2111    0.7279   -0.0064 C   0  0  0  0  0  0  0  0  0  0  0  0
    2.0776    1.2027   -0.0158 H   0  0  0  0  0  0  0  0  0  0  0  0
  1  5  1  0
  5  6  1  0
  5  7  2  0
  1  2  1  0
  1  3  1  0
  1  4  1  0
  8 12  1  0
 12 13  2  0
 13 15  1  0
 15 17  2  0
 17 19  1  0
 19 21  2  0
 21 12  1  0
  8  9  1  0
  8 10  1  0
  8 11  1  0
 13 14  1  0
 15 16  1  0
 17 18  1  0
 19 20  1  0
 21 22  1  0
M  CHG  1   6  -1
M  END
>  <PDB_ID>  (1551) 
pdb3kra

>  <RESIDUE_NAME>  (1551) 
ASP   PHE

>  <FRAG_NAME>  (1551) 
ACET   MBZ

>  <FRAG_ATOM_NUM>  (1551) 
fragi: 7  fragj: 15

>  <atom.prop.CHAIN_ID>  (1551) 
A A A A A A A Z Z Z Z Z Z Z Z Z Z Z Z Z Z Z

>  <atom.prop.IS_HEAVY_ATOM>  (1551) 
1 0 0 0 1 1 1 1 0 0 0 1 1 0 1 0 1 0 1 0 1 0

>  <DIFUSE_FUNC_ATOM>  (1551) 
atom 6   atom 7   

>  <FINAL_SINGLE_POINT_ENERGY>  (1551) 
0

>  <NONCOV_INTER_ENERGY_QM>  (1551) 
0

>  <FF_Energy>  (1551) 
4.19

>  <QM_Energy>  (1551) 
-0.82

>  <source>  (1551) 
ACET_MBZ_01

>  <Index>  (1551) 
26371

$$$$
ACET-pdb4hhh-B-ASP-302:MBZ-pdb4hhh-B-PHE-311
     RDKit          3D

 22 21  0  0  0  0  0  0  0  0999 V2000
   -3.2864    5.7041   -0.2436 C   0  0  0  0  0  0  0  0  0  0  0  0
   -2.3836    6.0179    0.0367 H   0  0  0  0  0  0  0  0  0  0  0  0
   -3.7143    5.1901    0.4924 H   0  0  0  0  0  0  0  0  0  0  0  0
   -3.8983    6.5876   -0.4255 H   0  0  0  0  0  0  0  0  0  0  0  0
   -3.1190    4.7627   -1.4645 C   0  0  0  0  0  0  0  0  0  0  0  0
   -3.1179    5.2262   -2.6388 O   0  0  0  0  0  1  0  0  0  0  0  0
   -2.9085    3.5322   -1.2584 O   0  0  0  0  0  0  0  0  0  0  0  0
   -0.0830    2.8800    0.1065 C   0  0  0  0  0  0  0  0  0  0  0  0
   -0.6551    3.2263   -0.6114 H   0  0  0  0  0  0  0  0  0  0  0  0
    0.8231    3.2562    0.0827 H   0  0  0  0  0  0  0  0  0  0  0  0
   -0.5326    3.1907    1.0496 H   0  0  0  0  0  0  0  0  0  0  0  0
    0.0015    1.4050   -0.0088 C   0  0  0  0  0  0  0  0  0  0  0  0
   -1.2041    0.6843   -0.0202 C   0  0  0  0  0  0  0  0  0  0  0  0
   -2.0669    1.1904   -0.0448 H   0  0  0  0  0  0  0  0  0  0  0  0
   -1.2156   -0.6875    0.0000 C   0  0  0  0  0  0  0  0  0  0  0  0
   -2.0988   -1.1816    0.0243 H   0  0  0  0  0  0  0  0  0  0  0  0
   -0.0279   -1.3937   -0.0112 C   0  0  0  0  0  0  0  0  0  0  0  0
   -0.0340   -2.3940   -0.0281 H   0  0  0  0  0  0  0  0  0  0  0  0
    1.2156   -0.7143   -0.0000 C   0  0  0  0  0  0  0  0  0  0  0  0
    2.0747   -1.2203   -0.0180 H   0  0  0  0  0  0  0  0  0  0  0  0
    1.2305    0.7062    0.0402 C   0  0  0  0  0  0  0  0  0  0  0  0
    2.0783    1.1890    0.1000 H   0  0  0  0  0  0  0  0  0  0  0  0
  1  5  1  0
  5  6  1  0
  5  7  2  0
  1  2  1  0
  1  3  1  0
  1  4  1  0
  8 12  1  0
 12 13  2  0
 13 15  1  0
 15 17  2  0
 17 19  1  0
 19 21  2  0
 21 12  1  0
  8  9  1  0
  8 10  1  0
  8 11  1  0
 13 14  1  0
 15 16  1  0
 17 18  1  0
 19 20  1  0
 21 22  1  0
M  CHG  1   6  -1
M  END
>  <PDB_ID>  (1552) 
pdb4hhh

>  <RESIDUE_NAME>  (1552) 
ASP   PHE

>  <FRAG_NAME>  (1552) 
ACET   MBZ

>  <FRAG_ATOM_NUM>  (1552) 
fragi: 7  fragj: 15

>  <atom.prop.CHAIN_ID>  (1552) 
A A A A A A A Z Z Z Z Z Z Z Z Z Z Z Z Z Z Z

>  <atom.prop.IS_HEAVY_ATOM>  (1552) 
1 0 0 0 1 1 1 1 0 0 0 1 1 0 1 0 1 0 1 0 1 0

>  <DIFUSE_FUNC_ATOM>  (1552) 
atom 6   atom 7   

>  <FINAL_SINGLE_POINT_ENERGY>  (1552) 
0

>  <NONCOV_INTER_ENERGY_QM>  (1552) 
0

>  <FF_Energy>  (1552) 
-1.23

>  <QM_Energy>  (1552) 
-7.14

>  <source>  (1552) 
ACET_MBZ_01

>  <Index>  (1552) 
26422

$$$$
ACET-pdb4hhh-C-GLU-259:MBZ-pdb4hhh-C-PHE-256
     RDKit          3D

 22 21  0  0  0  0  0  0  0  0999 V2000
   -4.1626    1.2302    3.6378 C   0  0  0  0  0  0  0  0  0  0  0  0
   -3.6104    0.4286    3.6456 H   0  0  0  0  0  0  0  0  0  0  0  0
   -5.0170    1.1274    4.0926 H   0  0  0  0  0  0  0  0  0  0  0  0
   -3.6091    2.0463    4.1020 H   0  0  0  0  0  0  0  0  0  0  0  0
   -4.4891    1.5321    2.1398 C   0  0  0  0  0  0  0  0  0  0  0  0
   -3.7579    1.0287    1.2547 O   0  0  0  0  0  1  0  0  0  0  0  0
   -5.4086    2.3418    1.8037 O   0  0  0  0  0  0  0  0  0  0  0  0
    0.0259    2.9314    0.0656 C   0  0  0  0  0  0  0  0  0  0  0  0
   -0.5577    3.2690   -0.6533 H   0  0  0  0  0  0  0  0  0  0  0  0
    0.9600    3.2218   -0.0512 H   0  0  0  0  0  0  0  0  0  0  0  0
   -0.3353    3.3411    1.0089 H   0  0  0  0  0  0  0  0  0  0  0  0
    0.0042    1.4048    0.0017 C   0  0  0  0  0  0  0  0  0  0  0  0
   -1.1952    0.6939   -0.0245 C   0  0  0  0  0  0  0  0  0  0  0  0
   -2.0580    1.1884   -0.0621 H   0  0  0  0  0  0  0  0  0  0  0  0
   -1.1899   -0.6803   -0.0000 C   0  0  0  0  0  0  0  0  0  0  0  0
   -2.0716   -1.1843    0.0344 H   0  0  0  0  0  0  0  0  0  0  0  0
    0.0059   -1.3945   -0.0191 C   0  0  0  0  0  0  0  0  0  0  0  0
   -0.0168   -2.3897   -0.0465 H   0  0  0  0  0  0  0  0  0  0  0  0
    1.1899   -0.7094    0.0000 C   0  0  0  0  0  0  0  0  0  0  0  0
    2.0787   -1.1978   -0.0138 H   0  0  0  0  0  0  0  0  0  0  0  0
    1.1851    0.6856    0.0420 C   0  0  0  0  0  0  0  0  0  0  0  0
    2.0615    1.1726    0.1021 H   0  0  0  0  0  0  0  0  0  0  0  0
  1  5  1  0
  5  6  1  0
  5  7  2  0
  1  2  1  0
  1  3  1  0
  1  4  1  0
  8 12  1  0
 12 13  2  0
 13 15  1  0
 15 17  2  0
 17 19  1  0
 19 21  2  0
 21 12  1  0
  8  9  1  0
  8 10  1  0
  8 11  1  0
 13 14  1  0
 15 16  1  0
 17 18  1  0
 19 20  1  0
 21 22  1  0
M  CHG  1   6  -1
M  END
>  <PDB_ID>  (1553) 
pdb4hhh

>  <RESIDUE_NAME>  (1553) 
GLU   PHE

>  <FRAG_NAME>  (1553) 
ACET   MBZ

>  <FRAG_ATOM_NUM>  (1553) 
fragi: 7  fragj: 15

>  <atom.prop.CHAIN_ID>  (1553) 
A A A A A A A Z Z Z Z Z Z Z Z Z Z Z Z Z Z Z

>  <atom.prop.IS_HEAVY_ATOM>  (1553) 
1 0 0 0 1 1 1 1 0 0 0 1 1 0 1 0 1 0 1 0 1 0

>  <DIFUSE_FUNC_ATOM>  (1553) 
atom 6   atom 7   

>  <FINAL_SINGLE_POINT_ENERGY>  (1553) 
0

>  <NONCOV_INTER_ENERGY_QM>  (1553) 
0

>  <FF_Energy>  (1553) 
1.39

>  <QM_Energy>  (1553) 
-5.4

>  <source>  (1553) 
ACET_MBZ_01

>  <Index>  (1553) 
26427

$$$$
ACET-pdb4hj1-D-GLU-753:MBZ-pdb4hj1-D-PHE-1002
     RDKit          3D

 22 21  0  0  0  0  0  0  0  0999 V2000
   -3.8275   -0.4598   -1.5173 C   0  0  0  0  0  0  0  0  0  0  0  0
   -3.0194   -0.1551   -1.0377 H   0  0  0  0  0  0  0  0  0  0  0  0
   -4.6002    0.1274   -1.3305 H   0  0  0  0  0  0  0  0  0  0  0  0
   -3.6213   -0.4220   -2.5869 H   0  0  0  0  0  0  0  0  0  0  0  0
   -4.1752   -1.8506   -0.9859 C   0  0  0  0  0  0  0  0  0  0  0  0
   -3.7670   -2.1690    0.1545 O   0  0  0  0  0  1  0  0  0  0  0  0
   -4.8650   -2.6266   -1.6910 O   0  0  0  0  0  0  0  0  0  0  0  0
    0.0146    2.8816   -0.0255 C   0  0  0  0  0  0  0  0  0  0  0  0
    0.8436    3.1979    0.4099 H   0  0  0  0  0  0  0  0  0  0  0  0
   -0.7882    3.2111    0.4472 H   0  0  0  0  0  0  0  0  0  0  0  0
   -0.0052    3.2867   -1.0373 H   0  0  0  0  0  0  0  0  0  0  0  0
    0.0028    1.3996    0.0069 C   0  0  0  0  0  0  0  0  0  0  0  0
   -1.2047    0.7021   -0.0125 C   0  0  0  0  0  0  0  0  0  0  0  0
   -2.0631    1.1922   -0.0363 H   0  0  0  0  0  0  0  0  0  0  0  0
   -1.2012   -0.6893    0.0000 C   0  0  0  0  0  0  0  0  0  0  0  0
   -2.0808   -1.1855    0.0084 H   0  0  0  0  0  0  0  0  0  0  0  0
   -0.0013   -1.3921    0.0033 C   0  0  0  0  0  0  0  0  0  0  0  0
   -0.0141   -2.3920    0.0071 H   0  0  0  0  0  0  0  0  0  0  0  0
    1.2012   -0.7070   -0.0000 C   0  0  0  0  0  0  0  0  0  0  0  0
    2.0800   -1.2069   -0.0028 H   0  0  0  0  0  0  0  0  0  0  0  0
    1.2032    0.6867    0.0023 C   0  0  0  0  0  0  0  0  0  0  0  0
    2.0701    1.1801   -0.0001 H   0  0  0  0  0  0  0  0  0  0  0  0
  1  5  1  0
  5  6  1  0
  5  7  2  0
  1  2  1  0
  1  3  1  0
  1  4  1  0
  8 12  1  0
 12 13  2  0
 13 15  1  0
 15 17  2  0
 17 19  1  0
 19 21  2  0
 21 12  1  0
  8  9  1  0
  8 10  1  0
  8 11  1  0
 13 14  1  0
 15 16  1  0
 17 18  1  0
 19 20  1  0
 21 22  1  0
M  CHG  1   6  -1
M  END
>  <PDB_ID>  (1554) 
pdb4hj1

>  <RESIDUE_NAME>  (1554) 
GLU   PHE

>  <FRAG_NAME>  (1554) 
ACET   MBZ

>  <FRAG_ATOM_NUM>  (1554) 
fragi: 7  fragj: 15

>  <atom.prop.CHAIN_ID>  (1554) 
A A A A A A A Z Z Z Z Z Z Z Z Z Z Z Z Z Z Z

>  <atom.prop.IS_HEAVY_ATOM>  (1554) 
1 0 0 0 1 1 1 1 0 0 0 1 1 0 1 0 1 0 1 0 1 0

>  <DIFUSE_FUNC_ATOM>  (1554) 
atom 6   atom 7   

>  <FINAL_SINGLE_POINT_ENERGY>  (1554) 
0

>  <NONCOV_INTER_ENERGY_QM>  (1554) 
0

>  <FF_Energy>  (1554) 
28.63

>  <QM_Energy>  (1554) 
0.87

>  <source>  (1554) 
ACET_MBZ_01

>  <Index>  (1554) 
26533

$$$$
ACET-pdb3ktc-B-ASP-130:MBZ-pdb3ktc-B-PHE-93
     RDKit          3D

 22 21  0  0  0  0  0  0  0  0999 V2000
    5.2211    4.3636    0.9442 C   0  0  0  0  0  0  0  0  0  0  0  0
    5.6830    3.5743    1.3500 H   0  0  0  0  0  0  0  0  0  0  0  0
    4.6310    4.7916    1.6278 H   0  0  0  0  0  0  0  0  0  0  0  0
    5.9872    5.0887    0.6693 H   0  0  0  0  0  0  0  0  0  0  0  0
    4.3857    3.9037   -0.2094 C   0  0  0  0  0  0  0  0  0  0  0  0
    4.8463    3.9382   -1.3739 O   0  0  0  0  0  1  0  0  0  0  0  0
    3.2541    3.4496    0.0440 O   0  0  0  0  0  0  0  0  0  0  0  0
    0.0290    2.9217    0.0623 C   0  0  0  0  0  0  0  0  0  0  0  0
    0.8759    3.1802    0.5099 H   0  0  0  0  0  0  0  0  0  0  0  0
   -0.7540    3.2039    0.6045 H   0  0  0  0  0  0  0  0  0  0  0  0
   -0.0193    3.4369   -0.8970 H   0  0  0  0  0  0  0  0  0  0  0  0
    0.0025    1.4040   -0.0186 C   0  0  0  0  0  0  0  0  0  0  0  0
   -1.2019    0.6904   -0.0036 C   0  0  0  0  0  0  0  0  0  0  0  0
   -2.0629    1.1863    0.0038 H   0  0  0  0  0  0  0  0  0  0  0  0
   -1.1972   -0.6857   -0.0000 C   0  0  0  0  0  0  0  0  0  0  0  0
   -2.0696   -1.1935   -0.0199 H   0  0  0  0  0  0  0  0  0  0  0  0
    0.0114   -1.3851    0.0337 C   0  0  0  0  0  0  0  0  0  0  0  0
   -0.0129   -2.3890    0.0822 H   0  0  0  0  0  0  0  0  0  0  0  0
    1.1972   -0.7133   -0.0000 C   0  0  0  0  0  0  0  0  0  0  0  0
    2.0821   -1.1974   -0.0156 H   0  0  0  0  0  0  0  0  0  0  0  0
    1.1880    0.6897   -0.0115 C   0  0  0  0  0  0  0  0  0  0  0  0
    2.0649    1.1785   -0.0150 H   0  0  0  0  0  0  0  0  0  0  0  0
  1  5  1  0
  5  6  1  0
  5  7  2  0
  1  2  1  0
  1  3  1  0
  1  4  1  0
  8 12  1  0
 12 13  2  0
 13 15  1  0
 15 17  2  0
 17 19  1  0
 19 21  2  0
 21 12  1  0
  8  9  1  0
  8 10  1  0
  8 11  1  0
 13 14  1  0
 15 16  1  0
 17 18  1  0
 19 20  1  0
 21 22  1  0
M  CHG  1   6  -1
M  END
>  <PDB_ID>  (1555) 
pdb3ktc

>  <RESIDUE_NAME>  (1555) 
ASP   PHE

>  <FRAG_NAME>  (1555) 
ACET   MBZ

>  <FRAG_ATOM_NUM>  (1555) 
fragi: 7  fragj: 15

>  <atom.prop.CHAIN_ID>  (1555) 
A A A A A A A Z Z Z Z Z Z Z Z Z Z Z Z Z Z Z

>  <atom.prop.IS_HEAVY_ATOM>  (1555) 
1 0 0 0 1 1 1 1 0 0 0 1 1 0 1 0 1 0 1 0 1 0

>  <DIFUSE_FUNC_ATOM>  (1555) 
atom 6   atom 7   

>  <FINAL_SINGLE_POINT_ENERGY>  (1555) 
0

>  <NONCOV_INTER_ENERGY_QM>  (1555) 
0

>  <FF_Energy>  (1555) 
-1.81

>  <QM_Energy>  (1555) 
-7.67

>  <source>  (1555) 
ACET_MBZ_01

>  <Index>  (1555) 
26538

$$$$
ACET-pdb4hkt-A-ASP-177:MBZ-pdb4hkt-A-PHE-120
     RDKit          3D

 22 21  0  0  0  0  0  0  0  0999 V2000
   -0.0120    0.2725    3.7846 C   0  0  0  0  0  0  0  0  0  0  0  0
    0.0739   -0.5426    3.2203 H   0  0  0  0  0  0  0  0  0  0  0  0
   -0.9008    0.6966    3.6462 H   0  0  0  0  0  0  0  0  0  0  0  0
    0.0363   -0.0470    4.8256 H   0  0  0  0  0  0  0  0  0  0  0  0
    1.0596    1.2290    3.4522 C   0  0  0  0  0  0  0  0  0  0  0  0
    2.2052    0.7807    3.3441 O   0  0  0  0  0  1  0  0  0  0  0  0
    0.8032    2.4425    3.3179 O   0  0  0  0  0  0  0  0  0  0  0  0
    0.0049    2.8980    0.0238 C   0  0  0  0  0  0  0  0  0  0  0  0
    0.9432    3.2015   -0.0820 H   0  0  0  0  0  0  0  0  0  0  0  0
   -0.3647    3.1945    0.8956 H   0  0  0  0  0  0  0  0  0  0  0  0
   -0.5889    3.3546   -0.7680 H   0  0  0  0  0  0  0  0  0  0  0  0
   -0.0001    1.4016    0.0066 C   0  0  0  0  0  0  0  0  0  0  0  0
   -1.1937    0.6852    0.0111 C   0  0  0  0  0  0  0  0  0  0  0  0
   -2.0620    1.1776    0.0215 H   0  0  0  0  0  0  0  0  0  0  0  0
   -1.1957   -0.6963   -0.0000 C   0  0  0  0  0  0  0  0  0  0  0  0
   -2.0730   -1.1932    0.0056 H   0  0  0  0  0  0  0  0  0  0  0  0
   -0.0001   -1.3834   -0.0169 C   0  0  0  0  0  0  0  0  0  0  0  0
   -0.0043   -2.3880   -0.0419 H   0  0  0  0  0  0  0  0  0  0  0  0
    1.1957   -0.6978    0.0000 C   0  0  0  0  0  0  0  0  0  0  0  0
    2.0775   -1.1957    0.0145 H   0  0  0  0  0  0  0  0  0  0  0  0
    1.1939    0.6908   -0.0008 C   0  0  0  0  0  0  0  0  0  0  0  0
    2.0633    1.1858   -0.0079 H   0  0  0  0  0  0  0  0  0  0  0  0
  1  5  1  0
  5  6  1  0
  5  7  2  0
  1  2  1  0
  1  3  1  0
  1  4  1  0
  8 12  1  0
 12 13  2  0
 13 15  1  0
 15 17  2  0
 17 19  1  0
 19 21  2  0
 21 12  1  0
  8  9  1  0
  8 10  1  0
  8 11  1  0
 13 14  1  0
 15 16  1  0
 17 18  1  0
 19 20  1  0
 21 22  1  0
M  CHG  1   6  -1
M  END
>  <PDB_ID>  (1556) 
pdb4hkt

>  <RESIDUE_NAME>  (1556) 
ASP   PHE

>  <FRAG_NAME>  (1556) 
ACET   MBZ

>  <FRAG_ATOM_NUM>  (1556) 
fragi: 7  fragj: 15

>  <atom.prop.CHAIN_ID>  (1556) 
A A A A A A A Z Z Z Z Z Z Z Z Z Z Z Z Z Z Z

>  <atom.prop.IS_HEAVY_ATOM>  (1556) 
1 0 0 0 1 1 1 1 0 0 0 1 1 0 1 0 1 0 1 0 1 0

>  <DIFUSE_FUNC_ATOM>  (1556) 
atom 6   atom 7   

>  <FINAL_SINGLE_POINT_ENERGY>  (1556) 
0

>  <NONCOV_INTER_ENERGY_QM>  (1556) 
0

>  <FF_Energy>  (1556) 
0.22

>  <QM_Energy>  (1556) 
-5.24

>  <source>  (1556) 
ACET_MBZ_01

>  <Index>  (1556) 
26576

$$$$
ACET-pdb4hkt-C-ASP-177:MBZ-pdb4hkt-C-PHE-120
     RDKit          3D

 22 21  0  0  0  0  0  0  0  0999 V2000
   -0.4427    0.2787    4.0912 C   0  0  0  0  0  0  0  0  0  0  0  0
   -0.3193   -0.5373    3.5334 H   0  0  0  0  0  0  0  0  0  0  0  0
   -1.3504    0.6609    3.9427 H   0  0  0  0  0  0  0  0  0  0  0  0
   -0.3750   -0.0207    5.1370 H   0  0  0  0  0  0  0  0  0  0  0  0
    0.5915    1.3017    3.7001 C   0  0  0  0  0  0  0  0  0  0  0  0
    1.7828    0.9475    3.6335 O   0  0  0  0  0  1  0  0  0  0  0  0
    0.2137    2.4555    3.4175 O   0  0  0  0  0  0  0  0  0  0  0  0
   -0.0022    2.8941    0.0138 C   0  0  0  0  0  0  0  0  0  0  0  0
    0.9351    3.1986   -0.0764 H   0  0  0  0  0  0  0  0  0  0  0  0
   -0.3923    3.1892    0.8748 H   0  0  0  0  0  0  0  0  0  0  0  0
   -0.5845    3.3364   -0.7945 H   0  0  0  0  0  0  0  0  0  0  0  0
   -0.0018    1.3960   -0.0006 C   0  0  0  0  0  0  0  0  0  0  0  0
   -1.1870    0.6840    0.0094 C   0  0  0  0  0  0  0  0  0  0  0  0
   -2.0603    1.1725    0.0223 H   0  0  0  0  0  0  0  0  0  0  0  0
   -1.1920   -0.7021   -0.0000 C   0  0  0  0  0  0  0  0  0  0  0  0
   -2.0714   -1.1941   -0.0005 H   0  0  0  0  0  0  0  0  0  0  0  0
   -0.0007   -1.3867   -0.0071 C   0  0  0  0  0  0  0  0  0  0  0  0
    0.0034   -2.3885   -0.0181 H   0  0  0  0  0  0  0  0  0  0  0  0
    1.1920   -0.6879   -0.0000 C   0  0  0  0  0  0  0  0  0  0  0  0
    2.0775   -1.1867    0.0079 H   0  0  0  0  0  0  0  0  0  0  0  0
    1.1894    0.6966   -0.0017 C   0  0  0  0  0  0  0  0  0  0  0  0
    2.0587    1.1929   -0.0043 H   0  0  0  0  0  0  0  0  0  0  0  0
  1  5  1  0
  5  6  1  0
  5  7  2  0
  1  2  1  0
  1  3  1  0
  1  4  1  0
  8 12  1  0
 12 13  2  0
 13 15  1  0
 15 17  2  0
 17 19  1  0
 19 21  2  0
 21 12  1  0
  8  9  1  0
  8 10  1  0
  8 11  1  0
 13 14  1  0
 15 16  1  0
 17 18  1  0
 19 20  1  0
 21 22  1  0
M  CHG  1   6  -1
M  END
>  <PDB_ID>  (1557) 
pdb4hkt

>  <RESIDUE_NAME>  (1557) 
ASP   PHE

>  <FRAG_NAME>  (1557) 
ACET   MBZ

>  <FRAG_ATOM_NUM>  (1557) 
fragi: 7  fragj: 15

>  <atom.prop.CHAIN_ID>  (1557) 
A A A A A A A Z Z Z Z Z Z Z Z Z Z Z Z Z Z Z

>  <atom.prop.IS_HEAVY_ATOM>  (1557) 
1 0 0 0 1 1 1 1 0 0 0 1 1 0 1 0 1 0 1 0 1 0

>  <DIFUSE_FUNC_ATOM>  (1557) 
atom 6   atom 7   

>  <FINAL_SINGLE_POINT_ENERGY>  (1557) 
0

>  <NONCOV_INTER_ENERGY_QM>  (1557) 
0

>  <FF_Energy>  (1557) 
0.73

>  <QM_Energy>  (1557) 
-4.5

>  <source>  (1557) 
ACET_MBZ_01

>  <Index>  (1557) 
26582

$$$$
ACET-pdb4hkt-D-ASP-177:MBZ-pdb4hkt-D-PHE-120
     RDKit          3D

 22 21  0  0  0  0  0  0  0  0999 V2000
    0.1252    0.4214    3.8077 C   0  0  0  0  0  0  0  0  0  0  0  0
    0.1696   -0.4061    3.2641 H   0  0  0  0  0  0  0  0  0  0  0  0
   -0.7564    0.8620    3.7103 H   0  0  0  0  0  0  0  0  0  0  0  0
    0.2375    0.1356    4.8535 H   0  0  0  0  0  0  0  0  0  0  0  0
    1.2080    1.3684    3.3606 C   0  0  0  0  0  0  0  0  0  0  0  0
    2.3873    0.9348    3.2898 O   0  0  0  0  0  1  0  0  0  0  0  0
    0.9025    2.5712    3.1163 O   0  0  0  0  0  0  0  0  0  0  0  0
    0.0071    2.9123   -0.0138 C   0  0  0  0  0  0  0  0  0  0  0  0
    0.9365    3.2109   -0.1657 H   0  0  0  0  0  0  0  0  0  0  0  0
   -0.3358    3.2237    0.8585 H   0  0  0  0  0  0  0  0  0  0  0  0
   -0.6172    3.3465   -0.7947 H   0  0  0  0  0  0  0  0  0  0  0  0
    0.0020    1.4024   -0.0011 C   0  0  0  0  0  0  0  0  0  0  0  0
   -1.1942    0.6905   -0.0005 C   0  0  0  0  0  0  0  0  0  0  0  0
   -2.0608    1.1800   -0.0019 H   0  0  0  0  0  0  0  0  0  0  0  0
   -1.1948   -0.6976   -0.0000 C   0  0  0  0  0  0  0  0  0  0  0  0
   -2.0746   -1.1917    0.0070 H   0  0  0  0  0  0  0  0  0  0  0  0
   -0.0011   -1.3913   -0.0074 C   0  0  0  0  0  0  0  0  0  0  0  0
   -0.0045   -2.3914   -0.0182 H   0  0  0  0  0  0  0  0  0  0  0  0
    1.1948   -0.6972   -0.0000 C   0  0  0  0  0  0  0  0  0  0  0  0
    2.0785   -1.1946   -0.0002 H   0  0  0  0  0  0  0  0  0  0  0  0
    1.1932    0.6932    0.0090 C   0  0  0  0  0  0  0  0  0  0  0  0
    2.0644    1.1868    0.0224 H   0  0  0  0  0  0  0  0  0  0  0  0
  1  5  1  0
  5  6  1  0
  5  7  2  0
  1  2  1  0
  1  3  1  0
  1  4  1  0
  8 12  1  0
 12 13  2  0
 13 15  1  0
 15 17  2  0
 17 19  1  0
 19 21  2  0
 21 12  1  0
  8  9  1  0
  8 10  1  0
  8 11  1  0
 13 14  1  0
 15 16  1  0
 17 18  1  0
 19 20  1  0
 21 22  1  0
M  CHG  1   6  -1
M  END
>  <PDB_ID>  (1558) 
pdb4hkt

>  <RESIDUE_NAME>  (1558) 
ASP   PHE

>  <FRAG_NAME>  (1558) 
ACET   MBZ

>  <FRAG_ATOM_NUM>  (1558) 
fragi: 7  fragj: 15

>  <atom.prop.CHAIN_ID>  (1558) 
A A A A A A A Z Z Z Z Z Z Z Z Z Z Z Z Z Z Z

>  <atom.prop.IS_HEAVY_ATOM>  (1558) 
1 0 0 0 1 1 1 1 0 0 0 1 1 0 1 0 1 0 1 0 1 0

>  <DIFUSE_FUNC_ATOM>  (1558) 
atom 6   atom 7   

>  <FINAL_SINGLE_POINT_ENERGY>  (1558) 
0

>  <NONCOV_INTER_ENERGY_QM>  (1558) 
0

>  <FF_Energy>  (1558) 
0.22

>  <QM_Energy>  (1558) 
-5.72

>  <source>  (1558) 
ACET_MBZ_01

>  <Index>  (1558) 
26584

$$$$
ACET-pdb4hn8-E-GLU-56:MBZ-pdb4hn8-E-PHE-361
     RDKit          3D

 22 21  0  0  0  0  0  0  0  0999 V2000
    4.7351    4.1152    1.2044 C   0  0  0  0  0  0  0  0  0  0  0  0
    5.5258    4.1905    0.6088 H   0  0  0  0  0  0  0  0  0  0  0  0
    4.7376    3.2416    1.6774 H   0  0  0  0  0  0  0  0  0  0  0  0
    4.8006    4.9051    1.9527 H   0  0  0  0  0  0  0  0  0  0  0  0
    3.4997    4.1543    0.3280 C   0  0  0  0  0  0  0  0  0  0  0  0
    2.5548    4.9362    0.6003 O   0  0  0  0  0  1  0  0  0  0  0  0
    3.4893    3.3903   -0.6603 O   0  0  0  0  0  0  0  0  0  0  0  0
   -0.0187    2.9068    0.0278 C   0  0  0  0  0  0  0  0  0  0  0  0
    0.8350    3.2104    0.4178 H   0  0  0  0  0  0  0  0  0  0  0  0
   -0.7898    3.1907    0.5741 H   0  0  0  0  0  0  0  0  0  0  0  0
   -0.1189    3.3571   -0.9598 H   0  0  0  0  0  0  0  0  0  0  0  0
   -0.0036    1.3982    0.0004 C   0  0  0  0  0  0  0  0  0  0  0  0
   -1.1978    0.6801   -0.0006 C   0  0  0  0  0  0  0  0  0  0  0  0
   -2.0662    1.1709   -0.0027 H   0  0  0  0  0  0  0  0  0  0  0  0
   -1.1985   -0.7049   -0.0000 C   0  0  0  0  0  0  0  0  0  0  0  0
   -2.0682   -1.2049    0.0023 H   0  0  0  0  0  0  0  0  0  0  0  0
    0.0088   -1.3861   -0.0008 C   0  0  0  0  0  0  0  0  0  0  0  0
    0.0101   -2.3886   -0.0026 H   0  0  0  0  0  0  0  0  0  0  0  0
    1.1985   -0.6875   -0.0000 C   0  0  0  0  0  0  0  0  0  0  0  0
    2.0864   -1.1817    0.0016 H   0  0  0  0  0  0  0  0  0  0  0  0
    1.1925    0.7002    0.0010 C   0  0  0  0  0  0  0  0  0  0  0  0
    2.0589    1.1980    0.0017 H   0  0  0  0  0  0  0  0  0  0  0  0
  1  5  1  0
  5  6  1  0
  5  7  2  0
  1  2  1  0
  1  3  1  0
  1  4  1  0
  8 12  1  0
 12 13  2  0
 13 15  1  0
 15 17  2  0
 17 19  1  0
 19 21  2  0
 21 12  1  0
  8  9  1  0
  8 10  1  0
  8 11  1  0
 13 14  1  0
 15 16  1  0
 17 18  1  0
 19 20  1  0
 21 22  1  0
M  CHG  1   6  -1
M  END
>  <PDB_ID>  (1559) 
pdb4hn8

>  <RESIDUE_NAME>  (1559) 
GLU   PHE

>  <FRAG_NAME>  (1559) 
ACET   MBZ

>  <FRAG_ATOM_NUM>  (1559) 
fragi: 7  fragj: 15

>  <atom.prop.CHAIN_ID>  (1559) 
A A A A A A A Z Z Z Z Z Z Z Z Z Z Z Z Z Z Z

>  <atom.prop.IS_HEAVY_ATOM>  (1559) 
1 0 0 0 1 1 1 1 0 0 0 1 1 0 1 0 1 0 1 0 1 0

>  <DIFUSE_FUNC_ATOM>  (1559) 
atom 6   atom 7   

>  <FINAL_SINGLE_POINT_ENERGY>  (1559) 
0

>  <NONCOV_INTER_ENERGY_QM>  (1559) 
0

>  <FF_Energy>  (1559) 
-2.24

>  <QM_Energy>  (1559) 
-8.22

>  <source>  (1559) 
ACET_MBZ_01

>  <Index>  (1559) 
26723

$$$$
ACET-pdb3kxq-B-ASP-74:MBZ-pdb3kxq-B-PHE-85
     RDKit          3D

 22 21  0  0  0  0  0  0  0  0999 V2000
    4.0507   -0.5604    2.6730 C   0  0  0  0  0  0  0  0  0  0  0  0
    4.5513   -0.7718    3.5156 H   0  0  0  0  0  0  0  0  0  0  0  0
    3.1920   -0.1024    2.9094 H   0  0  0  0  0  0  0  0  0  0  0  0
    4.6540    0.1198    2.0718 H   0  0  0  0  0  0  0  0  0  0  0  0
    3.7250   -1.8536    1.9777 C   0  0  0  0  0  0  0  0  0  0  0  0
    3.8634   -1.9794    0.7531 O   0  0  0  0  0  1  0  0  0  0  0  0
    3.1858   -2.7041    2.7212 O   0  0  0  0  0  0  0  0  0  0  0  0
    0.0107    2.8838   -0.0041 C   0  0  0  0  0  0  0  0  0  0  0  0
    0.8484    3.1959    0.4025 H   0  0  0  0  0  0  0  0  0  0  0  0
   -0.7825    3.2059    0.4780 H   0  0  0  0  0  0  0  0  0  0  0  0
   -0.0338    3.2816   -1.0180 H   0  0  0  0  0  0  0  0  0  0  0  0
    0.0029    1.3802    0.0280 C   0  0  0  0  0  0  0  0  0  0  0  0
   -1.1853    0.6778   -0.0041 C   0  0  0  0  0  0  0  0  0  0  0  0
   -2.0528    1.1667   -0.0312 H   0  0  0  0  0  0  0  0  0  0  0  0
   -1.1789   -0.6999    0.0000 C   0  0  0  0  0  0  0  0  0  0  0  0
   -2.0590   -1.1965    0.0188 H   0  0  0  0  0  0  0  0  0  0  0  0
    0.0007   -1.3549   -0.0197 C   0  0  0  0  0  0  0  0  0  0  0  0
    0.0072   -2.3737   -0.0501 H   0  0  0  0  0  0  0  0  0  0  0  0
    1.1789   -0.6807   -0.0000 C   0  0  0  0  0  0  0  0  0  0  0  0
    2.0657   -1.1892    0.0200 H   0  0  0  0  0  0  0  0  0  0  0  0
    1.1817    0.6775   -0.0043 C   0  0  0  0  0  0  0  0  0  0  0  0
    2.0544    1.1804   -0.0325 H   0  0  0  0  0  0  0  0  0  0  0  0
  1  5  1  0
  5  6  1  0
  5  7  2  0
  1  2  1  0
  1  3  1  0
  1  4  1  0
  8 12  1  0
 12 13  2  0
 13 15  1  0
 15 17  2  0
 17 19  1  0
 19 21  2  0
 21 12  1  0
  8  9  1  0
  8 10  1  0
  8 11  1  0
 13 14  1  0
 15 16  1  0
 17 18  1  0
 19 20  1  0
 21 22  1  0
M  CHG  1   6  -1
M  END
>  <PDB_ID>  (1560) 
pdb3kxq

>  <RESIDUE_NAME>  (1560) 
ASP   PHE

>  <FRAG_NAME>  (1560) 
ACET   MBZ

>  <FRAG_ATOM_NUM>  (1560) 
fragi: 7  fragj: 15

>  <atom.prop.CHAIN_ID>  (1560) 
A A A A A A A Z Z Z Z Z Z Z Z Z Z Z Z Z Z Z

>  <atom.prop.IS_HEAVY_ATOM>  (1560) 
1 0 0 0 1 1 1 1 0 0 0 1 1 0 1 0 1 0 1 0 1 0

>  <DIFUSE_FUNC_ATOM>  (1560) 
atom 6   atom 7   

>  <FINAL_SINGLE_POINT_ENERGY>  (1560) 
0

>  <NONCOV_INTER_ENERGY_QM>  (1560) 
0

>  <FF_Energy>  (1560) 
1.55

>  <QM_Energy>  (1560) 
-5.67

>  <source>  (1560) 
ACET_MBZ_01

>  <Index>  (1560) 
26867

$$$$
ACET-pdb3kzg-A-ASP-46:MBZ-pdb3kzg-A-PHE-32
     RDKit          3D

 22 21  0  0  0  0  0  0  0  0999 V2000
   -3.9709    5.0128    0.6174 C   0  0  0  0  0  0  0  0  0  0  0  0
   -3.1485    5.4534    0.2740 H   0  0  0  0  0  0  0  0  0  0  0  0
   -4.4281    5.5989    1.2768 H   0  0  0  0  0  0  0  0  0  0  0  0
   -4.6468    4.8705   -0.2257 H   0  0  0  0  0  0  0  0  0  0  0  0
   -3.5909    3.7152    1.2910 C   0  0  0  0  0  0  0  0  0  0  0  0
   -4.3619    2.7430    1.1762 O   0  0  0  0  0  1  0  0  0  0  0  0
   -2.5322    3.6699    1.9539 O   0  0  0  0  0  0  0  0  0  0  0  0
    0.0019    2.9045   -0.0733 C   0  0  0  0  0  0  0  0  0  0  0  0
    0.8804    3.2277    0.2356 H   0  0  0  0  0  0  0  0  0  0  0  0
   -0.7315    3.2401    0.4946 H   0  0  0  0  0  0  0  0  0  0  0  0
   -0.1571    3.2852   -1.0823 H   0  0  0  0  0  0  0  0  0  0  0  0
    0.0015    1.4069   -0.0003 C   0  0  0  0  0  0  0  0  0  0  0  0
   -1.1967    0.7001   -0.0002 C   0  0  0  0  0  0  0  0  0  0  0  0
   -2.0632    1.1880   -0.0009 H   0  0  0  0  0  0  0  0  0  0  0  0
   -1.2050   -0.6996    0.0000 C   0  0  0  0  0  0  0  0  0  0  0  0
   -2.0842   -1.1867    0.0016 H   0  0  0  0  0  0  0  0  0  0  0  0
   -0.0055   -1.3996   -0.0005 C   0  0  0  0  0  0  0  0  0  0  0  0
   -0.0089   -2.3973   -0.0017 H   0  0  0  0  0  0  0  0  0  0  0  0
    1.2050   -0.7029   -0.0000 C   0  0  0  0  0  0  0  0  0  0  0  0
    2.0824   -1.2007    0.0011 H   0  0  0  0  0  0  0  0  0  0  0  0
    1.2007    0.6951    0.0009 C   0  0  0  0  0  0  0  0  0  0  0  0
    2.0691    1.1886    0.0018 H   0  0  0  0  0  0  0  0  0  0  0  0
  1  5  1  0
  5  6  1  0
  5  7  2  0
  1  2  1  0
  1  3  1  0
  1  4  1  0
  8 12  1  0
 12 13  2  0
 13 15  1  0
 15 17  2  0
 17 19  1  0
 19 21  2  0
 21 12  1  0
  8  9  1  0
  8 10  1  0
  8 11  1  0
 13 14  1  0
 15 16  1  0
 17 18  1  0
 19 20  1  0
 21 22  1  0
M  CHG  1   6  -1
M  END
>  <PDB_ID>  (1561) 
pdb3kzg

>  <RESIDUE_NAME>  (1561) 
ASP   PHE

>  <FRAG_NAME>  (1561) 
ACET   MBZ

>  <FRAG_ATOM_NUM>  (1561) 
fragi: 7  fragj: 15

>  <atom.prop.CHAIN_ID>  (1561) 
A A A A A A A Z Z Z Z Z Z Z Z Z Z Z Z Z Z Z

>  <atom.prop.IS_HEAVY_ATOM>  (1561) 
1 0 0 0 1 1 1 1 0 0 0 1 1 0 1 0 1 0 1 0 1 0

>  <DIFUSE_FUNC_ATOM>  (1561) 
atom 6   atom 7   

>  <FINAL_SINGLE_POINT_ENERGY>  (1561) 
0

>  <NONCOV_INTER_ENERGY_QM>  (1561) 
0

>  <FF_Energy>  (1561) 
-1.54

>  <QM_Energy>  (1561) 
-7.49

>  <source>  (1561) 
ACET_MBZ_01

>  <Index>  (1561) 
26979

$$$$
ACET-pdb3l2d-A-ASP-375:MBZ-pdb3l2d-A-PHE-312
     RDKit          3D

 22 21  0  0  0  0  0  0  0  0999 V2000
   -4.6697    4.1210   -1.1001 C   0  0  0  0  0  0  0  0  0  0  0  0
   -5.0405    4.9084   -0.6147 H   0  0  0  0  0  0  0  0  0  0  0  0
   -5.3889    3.6673   -1.6176 H   0  0  0  0  0  0  0  0  0  0  0  0
   -3.9286    4.4870   -1.8107 H   0  0  0  0  0  0  0  0  0  0  0  0
   -4.1068    3.1399   -0.0809 C   0  0  0  0  0  0  0  0  0  0  0  0
   -3.5614    3.5857    0.9447 O   0  0  0  0  0  1  0  0  0  0  0  0
   -4.2664    1.9221   -0.2946 O   0  0  0  0  0  0  0  0  0  0  0  0
   -0.0058    2.9053    0.0418 C   0  0  0  0  0  0  0  0  0  0  0  0
   -0.8708    3.2238   -0.3032 H   0  0  0  0  0  0  0  0  0  0  0  0
    0.7505    3.2312   -0.4964 H   0  0  0  0  0  0  0  0  0  0  0  0
    0.1130    3.2938    1.0532 H   0  0  0  0  0  0  0  0  0  0  0  0
   -0.0039    1.4037   -0.0085 C   0  0  0  0  0  0  0  0  0  0  0  0
   -1.2033    0.6952    0.0020 C   0  0  0  0  0  0  0  0  0  0  0  0
   -2.0682    1.1825    0.0103 H   0  0  0  0  0  0  0  0  0  0  0  0
   -1.2033   -0.6995    0.0000 C   0  0  0  0  0  0  0  0  0  0  0  0
   -2.0751   -1.1973    0.0031 H   0  0  0  0  0  0  0  0  0  0  0  0
    0.0096   -1.3980   -0.0038 C   0  0  0  0  0  0  0  0  0  0  0  0
    0.0040   -2.3938   -0.0092 H   0  0  0  0  0  0  0  0  0  0  0  0
    1.2033   -0.6954    0.0000 C   0  0  0  0  0  0  0  0  0  0  0  0
    2.0893   -1.1901   -0.0035 H   0  0  0  0  0  0  0  0  0  0  0  0
    1.1976    0.6939    0.0102 C   0  0  0  0  0  0  0  0  0  0  0  0
    2.0629    1.1938    0.0303 H   0  0  0  0  0  0  0  0  0  0  0  0
  1  5  1  0
  5  6  1  0
  5  7  2  0
  1  2  1  0
  1  3  1  0
  1  4  1  0
  8 12  1  0
 12 13  2  0
 13 15  1  0
 15 17  2  0
 17 19  1  0
 19 21  2  0
 21 12  1  0
  8  9  1  0
  8 10  1  0
  8 11  1  0
 13 14  1  0
 15 16  1  0
 17 18  1  0
 19 20  1  0
 21 22  1  0
M  CHG  1   6  -1
M  END
>  <PDB_ID>  (1562) 
pdb3l2d

>  <RESIDUE_NAME>  (1562) 
ASP   PHE

>  <FRAG_NAME>  (1562) 
ACET   MBZ

>  <FRAG_ATOM_NUM>  (1562) 
fragi: 7  fragj: 15

>  <atom.prop.CHAIN_ID>  (1562) 
A A A A A A A Z Z Z Z Z Z Z Z Z Z Z Z Z Z Z

>  <atom.prop.IS_HEAVY_ATOM>  (1562) 
1 0 0 0 1 1 1 1 0 0 0 1 1 0 1 0 1 0 1 0 1 0

>  <DIFUSE_FUNC_ATOM>  (1562) 
atom 6   atom 7   

>  <FINAL_SINGLE_POINT_ENERGY>  (1562) 
0

>  <NONCOV_INTER_ENERGY_QM>  (1562) 
0

>  <FF_Energy>  (1562) 
-2.4

>  <QM_Energy>  (1562) 
-8.52

>  <source>  (1562) 
ACET_MBZ_01

>  <Index>  (1562) 
27137

$$$$
ACET-pdb3kzg-D-ASP-46:MBZ-pdb3kzg-D-PHE-32
     RDKit          3D

 22 21  0  0  0  0  0  0  0  0999 V2000
   -4.0125    5.1118    0.6584 C   0  0  0  0  0  0  0  0  0  0  0  0
   -3.2162    5.6125    0.3331 H   0  0  0  0  0  0  0  0  0  0  0  0
   -4.4695    5.6216    1.3797 H   0  0  0  0  0  0  0  0  0  0  0  0
   -4.7084    5.0070   -0.1739 H   0  0  0  0  0  0  0  0  0  0  0  0
   -3.5470    3.7768    1.2259 C   0  0  0  0  0  0  0  0  0  0  0  0
   -4.2436    2.7523    1.0577 O   0  0  0  0  0  1  0  0  0  0  0  0
   -2.4813    3.7714    1.8643 O   0  0  0  0  0  0  0  0  0  0  0  0
   -0.0021    2.9116   -0.0497 C   0  0  0  0  0  0  0  0  0  0  0  0
    0.8905    3.2276    0.2286 H   0  0  0  0  0  0  0  0  0  0  0  0
   -0.7091    3.2358    0.5567 H   0  0  0  0  0  0  0  0  0  0  0  0
   -0.2044    3.3124   -1.0429 H   0  0  0  0  0  0  0  0  0  0  0  0
    0.0003    1.4070   -0.0007 C   0  0  0  0  0  0  0  0  0  0  0  0
   -1.1994    0.6961    0.0006 C   0  0  0  0  0  0  0  0  0  0  0  0
   -2.0662    1.1839    0.0007 H   0  0  0  0  0  0  0  0  0  0  0  0
   -1.2064   -0.7038    0.0000 C   0  0  0  0  0  0  0  0  0  0  0  0
   -2.0808   -1.1936    0.0007 H   0  0  0  0  0  0  0  0  0  0  0  0
    0.0002   -1.4012   -0.0005 C   0  0  0  0  0  0  0  0  0  0  0  0
   -0.0010   -2.3969   -0.0015 H   0  0  0  0  0  0  0  0  0  0  0  0
    1.2064   -0.6987    0.0000 C   0  0  0  0  0  0  0  0  0  0  0  0
    2.0863   -1.1922    0.0014 H   0  0  0  0  0  0  0  0  0  0  0  0
    1.1989    0.7007    0.0005 C   0  0  0  0  0  0  0  0  0  0  0  0
    2.0669    1.1945    0.0008 H   0  0  0  0  0  0  0  0  0  0  0  0
  1  5  1  0
  5  6  1  0
  5  7  2  0
  1  2  1  0
  1  3  1  0
  1  4  1  0
  8 12  1  0
 12 13  2  0
 13 15  1  0
 15 17  2  0
 17 19  1  0
 19 21  2  0
 21 12  1  0
  8  9  1  0
  8 10  1  0
  8 11  1  0
 13 14  1  0
 15 16  1  0
 17 18  1  0
 19 20  1  0
 21 22  1  0
M  CHG  1   6  -1
M  END
>  <PDB_ID>  (1563) 
pdb3kzg

>  <RESIDUE_NAME>  (1563) 
ASP   PHE

>  <FRAG_NAME>  (1563) 
ACET   MBZ

>  <FRAG_ATOM_NUM>  (1563) 
fragi: 7  fragj: 15

>  <atom.prop.CHAIN_ID>  (1563) 
A A A A A A A Z Z Z Z Z Z Z Z Z Z Z Z Z Z Z

>  <atom.prop.IS_HEAVY_ATOM>  (1563) 
1 0 0 0 1 1 1 1 0 0 0 1 1 0 1 0 1 0 1 0 1 0

>  <DIFUSE_FUNC_ATOM>  (1563) 
atom 6   atom 7   

>  <FINAL_SINGLE_POINT_ENERGY>  (1563) 
0

>  <NONCOV_INTER_ENERGY_QM>  (1563) 
0

>  <FF_Energy>  (1563) 
-1.15

>  <QM_Energy>  (1563) 
-7.93

>  <source>  (1563) 
ACET_MBZ_01

>  <Index>  (1563) 
27211

$$$$
ACET-pdb4hw6-B-ASP-452:MBZ-pdb4hw6-B-PHE-433
     RDKit          3D

 22 21  0  0  0  0  0  0  0  0999 V2000
   -4.9331    2.6951    1.2686 C   0  0  0  0  0  0  0  0  0  0  0  0
   -4.7108    1.7246    1.3676 H   0  0  0  0  0  0  0  0  0  0  0  0
   -5.8264    2.7878    0.8292 H   0  0  0  0  0  0  0  0  0  0  0  0
   -5.0100    3.1210    2.2691 H   0  0  0  0  0  0  0  0  0  0  0  0
   -3.8955    3.3510    0.4141 C   0  0  0  0  0  0  0  0  0  0  0  0
   -3.0627    4.0987    0.9486 O   0  0  0  0  0  1  0  0  0  0  0  0
   -3.8987    3.0862   -0.8093 O   0  0  0  0  0  0  0  0  0  0  0  0
    0.0129    2.9104    0.0580 C   0  0  0  0  0  0  0  0  0  0  0  0
    0.9122    3.2079    0.3526 H   0  0  0  0  0  0  0  0  0  0  0  0
   -0.6819    3.2028    0.7034 H   0  0  0  0  0  0  0  0  0  0  0  0
   -0.1986    3.3949   -0.8951 H   0  0  0  0  0  0  0  0  0  0  0  0
    0.0099    1.4058    0.0204 C   0  0  0  0  0  0  0  0  0  0  0  0
   -1.1853    0.7038    0.0135 C   0  0  0  0  0  0  0  0  0  0  0  0
   -2.0513    1.1975    0.0168 H   0  0  0  0  0  0  0  0  0  0  0  0
   -1.1914   -0.6790    0.0000 C   0  0  0  0  0  0  0  0  0  0  0  0
   -2.0894   -1.1631    0.0180 H   0  0  0  0  0  0  0  0  0  0  0  0
   -0.0261   -1.3940   -0.0347 C   0  0  0  0  0  0  0  0  0  0  0  0
   -0.0398   -2.3916   -0.0851 H   0  0  0  0  0  0  0  0  0  0  0  0
    1.1914   -0.7186   -0.0000 C   0  0  0  0  0  0  0  0  0  0  0  0
    2.0609   -1.2241    0.0255 H   0  0  0  0  0  0  0  0  0  0  0  0
    1.2016    0.6821    0.0007 C   0  0  0  0  0  0  0  0  0  0  0  0
    2.0743    1.1652   -0.0135 H   0  0  0  0  0  0  0  0  0  0  0  0
  1  5  1  0
  5  6  1  0
  5  7  2  0
  1  2  1  0
  1  3  1  0
  1  4  1  0
  8 12  1  0
 12 13  2  0
 13 15  1  0
 15 17  2  0
 17 19  1  0
 19 21  2  0
 21 12  1  0
  8  9  1  0
  8 10  1  0
  8 11  1  0
 13 14  1  0
 15 16  1  0
 17 18  1  0
 19 20  1  0
 21 22  1  0
M  CHG  1   6  -1
M  END
>  <PDB_ID>  (1564) 
pdb4hw6

>  <RESIDUE_NAME>  (1564) 
ASP   PHE

>  <FRAG_NAME>  (1564) 
ACET   MBZ

>  <FRAG_ATOM_NUM>  (1564) 
fragi: 7  fragj: 15

>  <atom.prop.CHAIN_ID>  (1564) 
A A A A A A A Z Z Z Z Z Z Z Z Z Z Z Z Z Z Z

>  <atom.prop.IS_HEAVY_ATOM>  (1564) 
1 0 0 0 1 1 1 1 0 0 0 1 1 0 1 0 1 0 1 0 1 0

>  <DIFUSE_FUNC_ATOM>  (1564) 
atom 6   atom 7   

>  <FINAL_SINGLE_POINT_ENERGY>  (1564) 
0

>  <NONCOV_INTER_ENERGY_QM>  (1564) 
0

>  <FF_Energy>  (1564) 
-2.59

>  <QM_Energy>  (1564) 
-8.01

>  <source>  (1564) 
ACET_MBZ_01

>  <Index>  (1564) 
27260

$$$$
ACET-pdb4hyr-A-GLU-49:MBZ-pdb4hyr-A-PHE-340
     RDKit          3D

 22 21  0  0  0  0  0  0  0  0999 V2000
    4.8141    3.8340    1.1318 C   0  0  0  0  0  0  0  0  0  0  0  0
    5.6012    3.8616    0.5246 H   0  0  0  0  0  0  0  0  0  0  0  0
    4.7698    2.9566    1.5991 H   0  0  0  0  0  0  0  0  0  0  0  0
    4.9375    4.6143    1.8827 H   0  0  0  0  0  0  0  0  0  0  0  0
    3.5748    3.9512    0.2732 C   0  0  0  0  0  0  0  0  0  0  0  0
    2.6931    4.7857    0.5915 O   0  0  0  0  0  1  0  0  0  0  0  0
    3.4843    3.1862   -0.7373 O   0  0  0  0  0  0  0  0  0  0  0  0
    0.0058    2.9143   -0.0242 C   0  0  0  0  0  0  0  0  0  0  0  0
    0.8404    3.1946    0.4254 H   0  0  0  0  0  0  0  0  0  0  0  0
   -0.7908    3.1917    0.4920 H   0  0  0  0  0  0  0  0  0  0  0  0
   -0.0356    3.3936   -1.0023 H   0  0  0  0  0  0  0  0  0  0  0  0
    0.0070    1.3934   -0.0775 C   0  0  0  0  0  0  0  0  0  0  0  0
   -1.1921    0.6974    0.0013 C   0  0  0  0  0  0  0  0  0  0  0  0
   -2.0522    1.1941    0.0584 H   0  0  0  0  0  0  0  0  0  0  0  0
   -1.2061   -0.6909    0.0000 C   0  0  0  0  0  0  0  0  0  0  0  0
   -2.0861   -1.1775   -0.0389 H   0  0  0  0  0  0  0  0  0  0  0  0
   -0.0161   -1.3862    0.0534 C   0  0  0  0  0  0  0  0  0  0  0  0
   -0.0158   -2.3832    0.1298 H   0  0  0  0  0  0  0  0  0  0  0  0
    1.2061   -0.6976    0.0000 C   0  0  0  0  0  0  0  0  0  0  0  0
    2.0714   -1.2068   -0.0529 H   0  0  0  0  0  0  0  0  0  0  0  0
    1.2012    0.6839    0.0228 C   0  0  0  0  0  0  0  0  0  0  0  0
    2.0632    1.1848    0.1115 H   0  0  0  0  0  0  0  0  0  0  0  0
  1  5  1  0
  5  6  1  0
  5  7  2  0
  1  2  1  0
  1  3  1  0
  1  4  1  0
  8 12  1  0
 12 13  2  0
 13 15  1  0
 15 17  2  0
 17 19  1  0
 19 21  2  0
 21 12  1  0
  8  9  1  0
  8 10  1  0
  8 11  1  0
 13 14  1  0
 15 16  1  0
 17 18  1  0
 19 20  1  0
 21 22  1  0
M  CHG  1   6  -1
M  END
>  <PDB_ID>  (1565) 
pdb4hyr

>  <RESIDUE_NAME>  (1565) 
GLU   PHE

>  <FRAG_NAME>  (1565) 
ACET   MBZ

>  <FRAG_ATOM_NUM>  (1565) 
fragi: 7  fragj: 15

>  <atom.prop.CHAIN_ID>  (1565) 
A A A A A A A Z Z Z Z Z Z Z Z Z Z Z Z Z Z Z

>  <atom.prop.IS_HEAVY_ATOM>  (1565) 
1 0 0 0 1 1 1 1 0 0 0 1 1 0 1 0 1 0 1 0 1 0

>  <DIFUSE_FUNC_ATOM>  (1565) 
atom 6   atom 7   

>  <FINAL_SINGLE_POINT_ENERGY>  (1565) 
0

>  <NONCOV_INTER_ENERGY_QM>  (1565) 
0

>  <FF_Energy>  (1565) 
-2.14

>  <QM_Energy>  (1565) 
-8.22

>  <source>  (1565) 
ACET_MBZ_01

>  <Index>  (1565) 
27414

$$$$
ACET-pdb4hyv-A-ASP-197:MBZ-pdb4hyv-A-PHE-53
     RDKit          3D

 22 21  0  0  0  0  0  0  0  0999 V2000
    3.9214    1.2373   -2.4589 C   0  0  0  0  0  0  0  0  0  0  0  0
    4.1532    1.9190   -3.1426 H   0  0  0  0  0  0  0  0  0  0  0  0
    2.9508    1.0314   -2.4871 H   0  0  0  0  0  0  0  0  0  0  0  0
    4.4717    0.3242   -2.6856 H   0  0  0  0  0  0  0  0  0  0  0  0
    4.2646    1.7814   -1.0952 C   0  0  0  0  0  0  0  0  0  0  0  0
    3.8717    2.9283   -0.7942 O   0  0  0  0  0  1  0  0  0  0  0  0
    4.9608    1.0657   -0.3280 O   0  0  0  0  0  0  0  0  0  0  0  0
   -0.0031    2.9101    0.0044 C   0  0  0  0  0  0  0  0  0  0  0  0
   -0.4125    3.2233   -0.8393 H   0  0  0  0  0  0  0  0  0  0  0  0
    0.9343    3.2136    0.0845 H   0  0  0  0  0  0  0  0  0  0  0  0
   -0.5669    3.3408    0.8320 H   0  0  0  0  0  0  0  0  0  0  0  0
   -0.0039    1.4067   -0.0113 C   0  0  0  0  0  0  0  0  0  0  0  0
   -1.2034    0.6966    0.0392 C   0  0  0  0  0  0  0  0  0  0  0  0
   -2.0658    1.1849    0.1021 H   0  0  0  0  0  0  0  0  0  0  0  0
   -1.2056   -0.6960    0.0000 C   0  0  0  0  0  0  0  0  0  0  0  0
   -2.0796   -1.1928    0.0063 H   0  0  0  0  0  0  0  0  0  0  0  0
    0.0029   -1.3970   -0.0458 C   0  0  0  0  0  0  0  0  0  0  0  0
   -0.0046   -2.3910   -0.1118 H   0  0  0  0  0  0  0  0  0  0  0  0
    1.2056   -0.7004   -0.0000 C   0  0  0  0  0  0  0  0  0  0  0  0
    2.0855   -1.2006    0.0220 H   0  0  0  0  0  0  0  0  0  0  0  0
    1.2044    0.6902    0.0178 C   0  0  0  0  0  0  0  0  0  0  0  0
    2.0665    1.1896    0.0502 H   0  0  0  0  0  0  0  0  0  0  0  0
  1  5  1  0
  5  6  1  0
  5  7  2  0
  1  2  1  0
  1  3  1  0
  1  4  1  0
  8 12  1  0
 12 13  2  0
 13 15  1  0
 15 17  2  0
 17 19  1  0
 19 21  2  0
 21 12  1  0
  8  9  1  0
  8 10  1  0
  8 11  1  0
 13 14  1  0
 15 16  1  0
 17 18  1  0
 19 20  1  0
 21 22  1  0
M  CHG  1   6  -1
M  END
>  <PDB_ID>  (1566) 
pdb4hyv

>  <RESIDUE_NAME>  (1566) 
ASP   PHE

>  <FRAG_NAME>  (1566) 
ACET   MBZ

>  <FRAG_ATOM_NUM>  (1566) 
fragi: 7  fragj: 15

>  <atom.prop.CHAIN_ID>  (1566) 
A A A A A A A Z Z Z Z Z Z Z Z Z Z Z Z Z Z Z

>  <atom.prop.IS_HEAVY_ATOM>  (1566) 
1 0 0 0 1 1 1 1 0 0 0 1 1 0 1 0 1 0 1 0 1 0

>  <DIFUSE_FUNC_ATOM>  (1566) 
atom 6   atom 7   

>  <FINAL_SINGLE_POINT_ENERGY>  (1566) 
0

>  <NONCOV_INTER_ENERGY_QM>  (1566) 
0

>  <FF_Energy>  (1566) 
-2.51

>  <QM_Energy>  (1566) 
-7.56

>  <source>  (1566) 
ACET_MBZ_01

>  <Index>  (1566) 
27421

$$$$
ACET-pdb4hzc-G-ASP-34:MBZ-pdb4hzc-J-PHE-138
     RDKit          3D

 22 21  0  0  0  0  0  0  0  0999 V2000
    5.4256    4.1386   -0.7629 C   0  0  0  0  0  0  0  0  0  0  0  0
    5.2211    5.0245   -0.3559 H   0  0  0  0  0  0  0  0  0  0  0  0
    5.0692    4.0978   -1.6914 H   0  0  0  0  0  0  0  0  0  0  0  0
    6.5096    4.0364   -0.8149 H   0  0  0  0  0  0  0  0  0  0  0  0
    4.7177    3.0480    0.0744 C   0  0  0  0  0  0  0  0  0  0  0  0
    5.2805    1.9659    0.3597 O   0  0  0  0  0  1  0  0  0  0  0  0
    3.5304    3.3007    0.4619 O   0  0  0  0  0  0  0  0  0  0  0  0
    0.0268    2.8989    0.0372 C   0  0  0  0  0  0  0  0  0  0  0  0
    0.9526    3.2025   -0.1234 H   0  0  0  0  0  0  0  0  0  0  0  0
   -0.3059    3.1942    0.9181 H   0  0  0  0  0  0  0  0  0  0  0  0
   -0.6029    3.3671   -0.7194 H   0  0  0  0  0  0  0  0  0  0  0  0
    0.0053    1.4009   -0.0006 C   0  0  0  0  0  0  0  0  0  0  0  0
   -1.2033    0.6862    0.0129 C   0  0  0  0  0  0  0  0  0  0  0  0
   -2.0613    1.1930    0.0305 H   0  0  0  0  0  0  0  0  0  0  0  0
   -1.2059   -0.6775   -0.0000 C   0  0  0  0  0  0  0  0  0  0  0  0
   -2.0847   -1.1855   -0.0003 H   0  0  0  0  0  0  0  0  0  0  0  0
   -0.0058   -1.3945   -0.0114 C   0  0  0  0  0  0  0  0  0  0  0  0
   -0.0183   -2.3867   -0.0276 H   0  0  0  0  0  0  0  0  0  0  0  0
    1.2059   -0.6982   -0.0000 C   0  0  0  0  0  0  0  0  0  0  0  0
    2.0806   -1.2057    0.0107 H   0  0  0  0  0  0  0  0  0  0  0  0
    1.2038    0.6832   -0.0010 C   0  0  0  0  0  0  0  0  0  0  0  0
    2.0720    1.1841   -0.0025 H   0  0  0  0  0  0  0  0  0  0  0  0
  1  5  1  0
  5  6  1  0
  5  7  2  0
  1  2  1  0
  1  3  1  0
  1  4  1  0
  8 12  1  0
 12 13  2  0
 13 15  1  0
 15 17  2  0
 17 19  1  0
 19 21  2  0
 21 12  1  0
  8  9  1  0
  8 10  1  0
  8 11  1  0
 13 14  1  0
 15 16  1  0
 17 18  1  0
 19 20  1  0
 21 22  1  0
M  CHG  1   6  -1
M  END
>  <PDB_ID>  (1567) 
pdb4hzc

>  <RESIDUE_NAME>  (1567) 
ASP   PHE

>  <FRAG_NAME>  (1567) 
ACET   MBZ

>  <FRAG_ATOM_NUM>  (1567) 
fragi: 7  fragj: 15

>  <atom.prop.CHAIN_ID>  (1567) 
A A A A A A A Z Z Z Z Z Z Z Z Z Z Z Z Z Z Z

>  <atom.prop.IS_HEAVY_ATOM>  (1567) 
1 0 0 0 1 1 1 1 0 0 0 1 1 0 1 0 1 0 1 0 1 0

>  <DIFUSE_FUNC_ATOM>  (1567) 
atom 6   atom 7   

>  <FINAL_SINGLE_POINT_ENERGY>  (1567) 
0

>  <NONCOV_INTER_ENERGY_QM>  (1567) 
0

>  <FF_Energy>  (1567) 
-2.7

>  <QM_Energy>  (1567) 
-8.25

>  <source>  (1567) 
ACET_MBZ_01

>  <Index>  (1567) 
27492

$$$$
ACET-pdb4i0x-B-ASP-14:MBZ-pdb4i0x-B-PHE-9
     RDKit          3D

 22 21  0  0  0  0  0  0  0  0999 V2000
   -5.6942   -0.4305    0.1781 C   0  0  0  0  0  0  0  0  0  0  0  0
   -5.9904    0.2335   -0.4637 H   0  0  0  0  0  0  0  0  0  0  0  0
   -6.4398   -0.7195    0.7274 H   0  0  0  0  0  0  0  0  0  0  0  0
   -5.2917   -1.2904   -0.3573 H   0  0  0  0  0  0  0  0  0  0  0  0
   -4.6595    0.2155    1.0860 C   0  0  0  0  0  0  0  0  0  0  0  0
   -3.6732   -0.4723    1.4257 O   0  0  0  0  0  1  0  0  0  0  0  0
   -4.8027    1.4140    1.4257 O   0  0  0  0  0  0  0  0  0  0  0  0
    0.0089    2.9295    0.0418 C   0  0  0  0  0  0  0  0  0  0  0  0
    0.8281    3.2087    0.4801 H   0  0  0  0  0  0  0  0  0  0  0  0
   -0.7562    3.2142    0.5651 H   0  0  0  0  0  0  0  0  0  0  0  0
   -0.0421    3.4042   -0.9380 H   0  0  0  0  0  0  0  0  0  0  0  0
    0.0015    1.4025    0.0010 C   0  0  0  0  0  0  0  0  0  0  0  0
   -1.2001    0.6901   -0.0009 C   0  0  0  0  0  0  0  0  0  0  0  0
   -2.0070    1.1515    0.0069 H   0  0  0  0  0  0  0  0  0  0  0  0
   -1.2031   -0.7002   -0.0000 C   0  0  0  0  0  0  0  0  0  0  0  0
   -2.0087   -1.1661   -0.0106 H   0  0  0  0  0  0  0  0  0  0  0  0
   -0.0000   -1.3892   -0.0071 C   0  0  0  0  0  0  0  0  0  0  0  0
    0.0019   -2.3201   -0.0165 H   0  0  0  0  0  0  0  0  0  0  0  0
    1.2031   -0.6920    0.0000 C   0  0  0  0  0  0  0  0  0  0  0  0
    2.0092   -1.1554   -0.0037 H   0  0  0  0  0  0  0  0  0  0  0  0
    1.1985    0.6889    0.0070 C   0  0  0  0  0  0  0  0  0  0  0  0
    2.0060    1.1498    0.0153 H   0  0  0  0  0  0  0  0  0  0  0  0
  1  5  1  0
  5  6  1  0
  5  7  2  0
  1  2  1  0
  1  3  1  0
  1  4  1  0
  8 12  1  0
 12 13  2  0
 13 15  1  0
 15 17  2  0
 17 19  1  0
 19 21  2  0
 21 12  1  0
  8  9  1  0
  8 10  1  0
  8 11  1  0
 13 14  1  0
 15 16  1  0
 17 18  1  0
 19 20  1  0
 21 22  1  0
M  CHG  1   6  -1
M  END
>  <PDB_ID>  (1568) 
pdb4i0x

>  <RESIDUE_NAME>  (1568) 
ASP   PHE

>  <FRAG_NAME>  (1568) 
ACET   MBZ

>  <FRAG_ATOM_NUM>  (1568) 
fragi: 7  fragj: 15

>  <atom.prop.CHAIN_ID>  (1568) 
A A A A A A A Z Z Z Z Z Z Z Z Z Z Z Z Z Z Z

>  <atom.prop.IS_HEAVY_ATOM>  (1568) 
1 0 0 0 1 1 1 1 0 0 0 1 1 0 1 0 1 0 1 0 1 0

>  <DIFUSE_FUNC_ATOM>  (1568) 
atom 6   atom 7   

>  <FINAL_SINGLE_POINT_ENERGY>  (1568) 
0

>  <NONCOV_INTER_ENERGY_QM>  (1568) 
0

>  <FF_Energy>  (1568) 
0.32

>  <QM_Energy>  (1568) 
-5.49

>  <source>  (1568) 
ACET_MBZ_01

>  <Index>  (1568) 
27540

$$$$
ACET-pdb3l8r-A-GLU-95:MBZ-pdb3l8r-B-PHE-28
     RDKit          3D

 22 21  0  0  0  0  0  0  0  0999 V2000
    0.3775    0.7655   -3.3796 C   0  0  0  0  0  0  0  0  0  0  0  0
   -0.3811    0.3867   -3.8747 H   0  0  0  0  0  0  0  0  0  0  0  0
    0.3416    0.5545   -2.4216 H   0  0  0  0  0  0  0  0  0  0  0  0
    1.2935    0.3378   -3.7873 H   0  0  0  0  0  0  0  0  0  0  0  0
    0.2985    2.2937   -3.5156 C   0  0  0  0  0  0  0  0  0  0  0  0
   -0.7914    2.8047   -3.8335 O   0  0  0  0  0  1  0  0  0  0  0  0
    1.3234    2.9787   -3.3313 O   0  0  0  0  0  0  0  0  0  0  0  0
    0.0048    2.8940   -0.0043 C   0  0  0  0  0  0  0  0  0  0  0  0
   -0.9257    3.2021    0.1261 H   0  0  0  0  0  0  0  0  0  0  0  0
    0.3603    3.1848   -0.8802 H   0  0  0  0  0  0  0  0  0  0  0  0
    0.6211    3.3415    0.7755 H   0  0  0  0  0  0  0  0  0  0  0  0
   -0.0012    1.3865    0.0135 C   0  0  0  0  0  0  0  0  0  0  0  0
   -1.1937    0.6873    0.0059 C   0  0  0  0  0  0  0  0  0  0  0  0
   -2.0570    1.1929    0.0035 H   0  0  0  0  0  0  0  0  0  0  0  0
   -1.1963   -0.6666   -0.0000 C   0  0  0  0  0  0  0  0  0  0  0  0
   -2.0759   -1.1771    0.0100 H   0  0  0  0  0  0  0  0  0  0  0  0
   -0.0018   -1.3762   -0.0183 C   0  0  0  0  0  0  0  0  0  0  0  0
   -0.0241   -2.3771   -0.0447 H   0  0  0  0  0  0  0  0  0  0  0  0
    1.1963   -0.7009    0.0000 C   0  0  0  0  0  0  0  0  0  0  0  0
    2.0736   -1.2090    0.0154 H   0  0  0  0  0  0  0  0  0  0  0  0
    1.1966    0.6699   -0.0011 C   0  0  0  0  0  0  0  0  0  0  0  0
    2.0633    1.1746   -0.0131 H   0  0  0  0  0  0  0  0  0  0  0  0
  1  5  1  0
  5  6  1  0
  5  7  2  0
  1  2  1  0
  1  3  1  0
  1  4  1  0
  8 12  1  0
 12 13  2  0
 13 15  1  0
 15 17  2  0
 17 19  1  0
 19 21  2  0
 21 12  1  0
  8  9  1  0
  8 10  1  0
  8 11  1  0
 13 14  1  0
 15 16  1  0
 17 18  1  0
 19 20  1  0
 21 22  1  0
M  CHG  1   6  -1
M  END
>  <PDB_ID>  (1569) 
pdb3l8r

>  <RESIDUE_NAME>  (1569) 
GLU   PHE

>  <FRAG_NAME>  (1569) 
ACET   MBZ

>  <FRAG_ATOM_NUM>  (1569) 
fragi: 7  fragj: 15

>  <atom.prop.CHAIN_ID>  (1569) 
A A A A A A A Z Z Z Z Z Z Z Z Z Z Z Z Z Z Z

>  <atom.prop.IS_HEAVY_ATOM>  (1569) 
1 0 0 0 1 1 1 1 0 0 0 1 1 0 1 0 1 0 1 0 1 0

>  <DIFUSE_FUNC_ATOM>  (1569) 
atom 6   atom 7   

>  <FINAL_SINGLE_POINT_ENERGY>  (1569) 
0

>  <NONCOV_INTER_ENERGY_QM>  (1569) 
0

>  <FF_Energy>  (1569) 
0.49

>  <QM_Energy>  (1569) 
-5.14

>  <source>  (1569) 
ACET_MBZ_01

>  <Index>  (1569) 
27701

$$$$
ACET-pdb3l8r-B-GLU-95:MBZ-pdb3l8r-C-PHE-28
     RDKit          3D

 22 21  0  0  0  0  0  0  0  0999 V2000
    1.0099    1.2364   -3.2342 C   0  0  0  0  0  0  0  0  0  0  0  0
    0.9769    0.9973   -2.2707 H   0  0  0  0  0  0  0  0  0  0  0  0
    1.8390    1.7435   -3.4392 H   0  0  0  0  0  0  0  0  0  0  0  0
    1.0292    0.3106   -3.8091 H   0  0  0  0  0  0  0  0  0  0  0  0
   -0.1559    2.1287   -3.5257 C   0  0  0  0  0  0  0  0  0  0  0  0
   -0.8198    2.0008   -4.5770 O   0  0  0  0  0  1  0  0  0  0  0  0
   -0.4188    2.9786   -2.6784 O   0  0  0  0  0  0  0  0  0  0  0  0
    0.0038    2.8944    0.0200 C   0  0  0  0  0  0  0  0  0  0  0  0
   -0.9059    3.2057    0.2428 H   0  0  0  0  0  0  0  0  0  0  0  0
    0.2907    3.2167   -0.8678 H   0  0  0  0  0  0  0  0  0  0  0  0
    0.6863    3.3132    0.7595 H   0  0  0  0  0  0  0  0  0  0  0  0
   -0.0076    1.3926   -0.0067 C   0  0  0  0  0  0  0  0  0  0  0  0
   -1.2064    0.6967    0.0035 C   0  0  0  0  0  0  0  0  0  0  0  0
   -2.0669    1.2042    0.0121 H   0  0  0  0  0  0  0  0  0  0  0  0
   -1.2164   -0.6640   -0.0000 C   0  0  0  0  0  0  0  0  0  0  0  0
   -2.0799   -1.1798   -0.0011 H   0  0  0  0  0  0  0  0  0  0  0  0
    0.0117   -1.3868    0.0000 C   0  0  0  0  0  0  0  0  0  0  0  0
   -0.0219   -2.3819   -0.0004 H   0  0  0  0  0  0  0  0  0  0  0  0
    1.2164   -0.7088    0.0000 C   0  0  0  0  0  0  0  0  0  0  0  0
    2.0908   -1.2094   -0.0009 H   0  0  0  0  0  0  0  0  0  0  0  0
    1.2023    0.6704    0.0032 C   0  0  0  0  0  0  0  0  0  0  0  0
    2.0655    1.1824    0.0120 H   0  0  0  0  0  0  0  0  0  0  0  0
  1  5  1  0
  5  6  1  0
  5  7  2  0
  1  2  1  0
  1  3  1  0
  1  4  1  0
  8 12  1  0
 12 13  2  0
 13 15  1  0
 15 17  2  0
 17 19  1  0
 19 21  2  0
 21 12  1  0
  8  9  1  0
  8 10  1  0
  8 11  1  0
 13 14  1  0
 15 16  1  0
 17 18  1  0
 19 20  1  0
 21 22  1  0
M  CHG  1   6  -1
M  END
>  <PDB_ID>  (1570) 
pdb3l8r

>  <RESIDUE_NAME>  (1570) 
GLU   PHE

>  <FRAG_NAME>  (1570) 
ACET   MBZ

>  <FRAG_ATOM_NUM>  (1570) 
fragi: 7  fragj: 15

>  <atom.prop.CHAIN_ID>  (1570) 
A A A A A A A Z Z Z Z Z Z Z Z Z Z Z Z Z Z Z

>  <atom.prop.IS_HEAVY_ATOM>  (1570) 
1 0 0 0 1 1 1 1 0 0 0 1 1 0 1 0 1 0 1 0 1 0

>  <DIFUSE_FUNC_ATOM>  (1570) 
atom 6   atom 7   

>  <FINAL_SINGLE_POINT_ENERGY>  (1570) 
0

>  <NONCOV_INTER_ENERGY_QM>  (1570) 
0

>  <FF_Energy>  (1570) 
16.02

>  <QM_Energy>  (1570) 
-0.65

>  <source>  (1570) 
ACET_MBZ_01

>  <Index>  (1570) 
27702

$$$$
ACET-pdb3l8r-F-GLU-95:MBZ-pdb3l8r-D-PHE-28
     RDKit          3D

 22 21  0  0  0  0  0  0  0  0999 V2000
   -0.5898    0.9052    3.2630 C   0  0  0  0  0  0  0  0  0  0  0  0
    0.1607    0.6172    3.8393 H   0  0  0  0  0  0  0  0  0  0  0  0
   -0.4561    0.6132    2.3281 H   0  0  0  0  0  0  0  0  0  0  0  0
   -1.5293    0.5096    3.6486 H   0  0  0  0  0  0  0  0  0  0  0  0
   -0.5254    2.4594    3.2317 C   0  0  0  0  0  0  0  0  0  0  0  0
   -1.3913    3.1026    2.5757 O   0  0  0  0  0  1  0  0  0  0  0  0
    0.4241    3.0152    3.8532 O   0  0  0  0  0  0  0  0  0  0  0  0
    0.0195    2.8931   -0.0263 C   0  0  0  0  0  0  0  0  0  0  0  0
    0.9576    3.1910   -0.1070 H   0  0  0  0  0  0  0  0  0  0  0  0
   -0.3927    3.2147    0.8116 H   0  0  0  0  0  0  0  0  0  0  0  0
   -0.5368    3.3314   -0.8548 H   0  0  0  0  0  0  0  0  0  0  0  0
    0.0040    1.3877   -0.0105 C   0  0  0  0  0  0  0  0  0  0  0  0
   -1.2003    0.6890   -0.0107 C   0  0  0  0  0  0  0  0  0  0  0  0
   -2.0590    1.1961   -0.0203 H   0  0  0  0  0  0  0  0  0  0  0  0
   -1.2084   -0.6757    0.0000 C   0  0  0  0  0  0  0  0  0  0  0  0
   -2.0830   -1.1820    0.0085 H   0  0  0  0  0  0  0  0  0  0  0  0
   -0.0042   -1.3817    0.0012 C   0  0  0  0  0  0  0  0  0  0  0  0
   -0.0134   -2.3779    0.0026 H   0  0  0  0  0  0  0  0  0  0  0  0
    1.2084   -0.6889    0.0000 C   0  0  0  0  0  0  0  0  0  0  0  0
    2.0794   -1.2048   -0.0140 H   0  0  0  0  0  0  0  0  0  0  0  0
    1.2005    0.6696    0.0200 C   0  0  0  0  0  0  0  0  0  0  0  0
    2.0665    1.1831    0.0564 H   0  0  0  0  0  0  0  0  0  0  0  0
  1  5  1  0
  5  6  1  0
  5  7  2  0
  1  2  1  0
  1  3  1  0
  1  4  1  0
  8 12  1  0
 12 13  2  0
 13 15  1  0
 15 17  2  0
 17 19  1  0
 19 21  2  0
 21 12  1  0
  8  9  1  0
  8 10  1  0
  8 11  1  0
 13 14  1  0
 15 16  1  0
 17 18  1  0
 19 20  1  0
 21 22  1  0
M  CHG  1   6  -1
M  END
>  <PDB_ID>  (1571) 
pdb3l8r

>  <RESIDUE_NAME>  (1571) 
GLU   PHE

>  <FRAG_NAME>  (1571) 
ACET   MBZ

>  <FRAG_ATOM_NUM>  (1571) 
fragi: 7  fragj: 15

>  <atom.prop.CHAIN_ID>  (1571) 
A A A A A A A Z Z Z Z Z Z Z Z Z Z Z Z Z Z Z

>  <atom.prop.IS_HEAVY_ATOM>  (1571) 
1 0 0 0 1 1 1 1 0 0 0 1 1 0 1 0 1 0 1 0 1 0

>  <DIFUSE_FUNC_ATOM>  (1571) 
atom 6   atom 7   

>  <FINAL_SINGLE_POINT_ENERGY>  (1571) 
0

>  <NONCOV_INTER_ENERGY_QM>  (1571) 
0

>  <FF_Energy>  (1571) 
8.56

>  <QM_Energy>  (1571) 
-4.51

>  <source>  (1571) 
ACET_MBZ_01

>  <Index>  (1571) 
27703

$$$$
ACET-pdb3l8r-D-GLU-95:MBZ-pdb3l8r-E-PHE-28
     RDKit          3D

 22 21  0  0  0  0  0  0  0  0999 V2000
   -0.2098    0.4450    3.4300 C   0  0  0  0  0  0  0  0  0  0  0  0
    0.5180    0.0959    3.9871 H   0  0  0  0  0  0  0  0  0  0  0  0
   -0.0849    0.2446    2.4777 H   0  0  0  0  0  0  0  0  0  0  0  0
   -1.1493    0.0039    3.7630 H   0  0  0  0  0  0  0  0  0  0  0  0
   -0.2114    1.9520    3.5785 C   0  0  0  0  0  0  0  0  0  0  0  0
   -1.2452    2.5688    3.2211 O   0  0  0  0  0  1  0  0  0  0  0  0
    0.8059    2.4992    4.0637 O   0  0  0  0  0  0  0  0  0  0  0  0
    0.0090    2.9154    0.0446 C   0  0  0  0  0  0  0  0  0  0  0  0
    0.9389    3.2197   -0.1012 H   0  0  0  0  0  0  0  0  0  0  0  0
   -0.3242    3.1962    0.9330 H   0  0  0  0  0  0  0  0  0  0  0  0
   -0.6155    3.3980   -0.7072 H   0  0  0  0  0  0  0  0  0  0  0  0
   -0.0031    1.4058   -0.0046 C   0  0  0  0  0  0  0  0  0  0  0  0
   -1.2164    0.6967   -0.0184 C   0  0  0  0  0  0  0  0  0  0  0  0
   -2.0747    1.1967   -0.0431 H   0  0  0  0  0  0  0  0  0  0  0  0
   -1.2317   -0.6950   -0.0000 C   0  0  0  0  0  0  0  0  0  0  0  0
   -2.0866   -1.1991    0.0093 H   0  0  0  0  0  0  0  0  0  0  0  0
    0.0140   -1.4077    0.0075 C   0  0  0  0  0  0  0  0  0  0  0  0
    0.0089   -2.3926    0.0170 H   0  0  0  0  0  0  0  0  0  0  0  0
    1.2317   -0.6857   -0.0000 C   0  0  0  0  0  0  0  0  0  0  0  0
    2.1050   -1.1891   -0.0148 H   0  0  0  0  0  0  0  0  0  0  0  0
    1.2055    0.6859    0.0155 C   0  0  0  0  0  0  0  0  0  0  0  0
    2.0684    1.2065    0.0413 H   0  0  0  0  0  0  0  0  0  0  0  0
  1  5  1  0
  5  6  1  0
  5  7  2  0
  1  2  1  0
  1  3  1  0
  1  4  1  0
  8 12  1  0
 12 13  2  0
 13 15  1  0
 15 17  2  0
 17 19  1  0
 19 21  2  0
 21 12  1  0
  8  9  1  0
  8 10  1  0
  8 11  1  0
 13 14  1  0
 15 16  1  0
 17 18  1  0
 19 20  1  0
 21 22  1  0
M  CHG  1   6  -1
M  END
>  <PDB_ID>  (1572) 
pdb3l8r

>  <RESIDUE_NAME>  (1572) 
GLU   PHE

>  <FRAG_NAME>  (1572) 
ACET   MBZ

>  <FRAG_ATOM_NUM>  (1572) 
fragi: 7  fragj: 15

>  <atom.prop.CHAIN_ID>  (1572) 
A A A A A A A Z Z Z Z Z Z Z Z Z Z Z Z Z Z Z

>  <atom.prop.IS_HEAVY_ATOM>  (1572) 
1 0 0 0 1 1 1 1 0 0 0 1 1 0 1 0 1 0 1 0 1 0

>  <DIFUSE_FUNC_ATOM>  (1572) 
atom 6   atom 7   

>  <FINAL_SINGLE_POINT_ENERGY>  (1572) 
0

>  <NONCOV_INTER_ENERGY_QM>  (1572) 
0

>  <FF_Energy>  (1572) 
0.15

>  <QM_Energy>  (1572) 
-5.75

>  <source>  (1572) 
ACET_MBZ_01

>  <Index>  (1572) 
27704

$$$$
ACET-pdb3l8r-E-GLU-95:MBZ-pdb3l8r-F-PHE-28
     RDKit          3D

 22 21  0  0  0  0  0  0  0  0999 V2000
   -0.4738    0.8345    3.3353 C   0  0  0  0  0  0  0  0  0  0  0  0
    0.3878    0.6081    3.7621 H   0  0  0  0  0  0  0  0  0  0  0  0
   -0.4648    0.6263    2.3700 H   0  0  0  0  0  0  0  0  0  0  0  0
   -1.2746    0.2756    3.8196 H   0  0  0  0  0  0  0  0  0  0  0  0
   -0.6426    2.3418    3.4579 C   0  0  0  0  0  0  0  0  0  0  0  0
   -1.6541    2.8996    2.9333 O   0  0  0  0  0  1  0  0  0  0  0  0
    0.2541    2.9603    4.0818 O   0  0  0  0  0  0  0  0  0  0  0  0
    0.0092    2.9414   -0.0287 C   0  0  0  0  0  0  0  0  0  0  0  0
    0.9466    3.2291   -0.0728 H   0  0  0  0  0  0  0  0  0  0  0  0
   -0.4411    3.2532    0.7866 H   0  0  0  0  0  0  0  0  0  0  0  0
   -0.5127    3.3719   -0.8834 H   0  0  0  0  0  0  0  0  0  0  0  0
   -0.0031    1.4018   -0.0049 C   0  0  0  0  0  0  0  0  0  0  0  0
   -1.2039    0.6944   -0.0109 C   0  0  0  0  0  0  0  0  0  0  0  0
   -2.0664    1.1911   -0.0242 H   0  0  0  0  0  0  0  0  0  0  0  0
   -1.2033   -0.6811    0.0000 C   0  0  0  0  0  0  0  0  0  0  0  0
   -2.0706   -1.1915    0.0079 H   0  0  0  0  0  0  0  0  0  0  0  0
    0.0179   -1.3922    0.0025 C   0  0  0  0  0  0  0  0  0  0  0  0
   -0.0071   -2.3882    0.0059 H   0  0  0  0  0  0  0  0  0  0  0  0
    1.2033   -0.7042    0.0000 C   0  0  0  0  0  0  0  0  0  0  0  0
    2.0903   -1.1940   -0.0102 H   0  0  0  0  0  0  0  0  0  0  0  0
    1.1890    0.6813    0.0133 C   0  0  0  0  0  0  0  0  0  0  0  0
    2.0620    1.1827    0.0363 H   0  0  0  0  0  0  0  0  0  0  0  0
  1  5  1  0
  5  6  1  0
  5  7  2  0
  1  2  1  0
  1  3  1  0
  1  4  1  0
  8 12  1  0
 12 13  2  0
 13 15  1  0
 15 17  2  0
 17 19  1  0
 19 21  2  0
 21 12  1  0
  8  9  1  0
  8 10  1  0
  8 11  1  0
 13 14  1  0
 15 16  1  0
 17 18  1  0
 19 20  1  0
 21 22  1  0
M  CHG  1   6  -1
M  END
>  <PDB_ID>  (1573) 
pdb3l8r

>  <RESIDUE_NAME>  (1573) 
GLU   PHE

>  <FRAG_NAME>  (1573) 
ACET   MBZ

>  <FRAG_ATOM_NUM>  (1573) 
fragi: 7  fragj: 15

>  <atom.prop.CHAIN_ID>  (1573) 
A A A A A A A Z Z Z Z Z Z Z Z Z Z Z Z Z Z Z

>  <atom.prop.IS_HEAVY_ATOM>  (1573) 
1 0 0 0 1 1 1 1 0 0 0 1 1 0 1 0 1 0 1 0 1 0

>  <DIFUSE_FUNC_ATOM>  (1573) 
atom 6   atom 7   

>  <FINAL_SINGLE_POINT_ENERGY>  (1573) 
0

>  <NONCOV_INTER_ENERGY_QM>  (1573) 
0

>  <FF_Energy>  (1573) 
1.27

>  <QM_Energy>  (1573) 
-5.02

>  <source>  (1573) 
ACET_MBZ_01

>  <Index>  (1573) 
27705

$$$$
ACET-pdb4i2v-C-GLU-79:MBZ-pdb4i2v-D-PHE-172
     RDKit          3D

 22 21  0  0  0  0  0  0  0  0999 V2000
    5.5098    3.0541   -0.9321 C   0  0  0  0  0  0  0  0  0  0  0  0
    6.2558    3.2497   -0.3169 H   0  0  0  0  0  0  0  0  0  0  0  0
    5.3192    3.8171   -1.5280 H   0  0  0  0  0  0  0  0  0  0  0  0
    5.7977    2.2047   -1.5515 H   0  0  0  0  0  0  0  0  0  0  0  0
    4.2798    2.8013   -0.0997 C   0  0  0  0  0  0  0  0  0  0  0  0
    3.5306    3.7665    0.1381 O   0  0  0  0  0  1  0  0  0  0  0  0
    4.0677    1.6493    0.3277 O   0  0  0  0  0  0  0  0  0  0  0  0
   -0.0040    2.9058   -0.0071 C   0  0  0  0  0  0  0  0  0  0  0  0
   -0.8008    3.2121   -0.5075 H   0  0  0  0  0  0  0  0  0  0  0  0
    0.8311    3.2131   -0.4395 H   0  0  0  0  0  0  0  0  0  0  0  0
   -0.0456    3.3629    0.9815 H   0  0  0  0  0  0  0  0  0  0  0  0
   -0.0027    1.3975   -0.0009 C   0  0  0  0  0  0  0  0  0  0  0  0
   -1.1874    0.6894   -0.0080 C   0  0  0  0  0  0  0  0  0  0  0  0
   -2.0594    1.1786   -0.0207 H   0  0  0  0  0  0  0  0  0  0  0  0
   -1.1907   -0.6921   -0.0000 C   0  0  0  0  0  0  0  0  0  0  0  0
   -2.0719   -1.1861    0.0019 H   0  0  0  0  0  0  0  0  0  0  0  0
   -0.0011   -1.3837    0.0068 C   0  0  0  0  0  0  0  0  0  0  0  0
   -0.0089   -2.3883    0.0165 H   0  0  0  0  0  0  0  0  0  0  0  0
    1.1907   -0.6997    0.0000 C   0  0  0  0  0  0  0  0  0  0  0  0
    2.0746   -1.1970   -0.0051 H   0  0  0  0  0  0  0  0  0  0  0  0
    1.1912    0.6886    0.0022 C   0  0  0  0  0  0  0  0  0  0  0  0
    2.0605    1.1826    0.0052 H   0  0  0  0  0  0  0  0  0  0  0  0
  1  5  1  0
  5  6  1  0
  5  7  2  0
  1  2  1  0
  1  3  1  0
  1  4  1  0
  8 12  1  0
 12 13  2  0
 13 15  1  0
 15 17  2  0
 17 19  1  0
 19 21  2  0
 21 12  1  0
  8  9  1  0
  8 10  1  0
  8 11  1  0
 13 14  1  0
 15 16  1  0
 17 18  1  0
 19 20  1  0
 21 22  1  0
M  CHG  1   6  -1
M  END
>  <PDB_ID>  (1574) 
pdb4i2v

>  <RESIDUE_NAME>  (1574) 
GLU   PHE

>  <FRAG_NAME>  (1574) 
ACET   MBZ

>  <FRAG_ATOM_NUM>  (1574) 
fragi: 7  fragj: 15

>  <atom.prop.CHAIN_ID>  (1574) 
A A A A A A A Z Z Z Z Z Z Z Z Z Z Z Z Z Z Z

>  <atom.prop.IS_HEAVY_ATOM>  (1574) 
1 0 0 0 1 1 1 1 0 0 0 1 1 0 1 0 1 0 1 0 1 0

>  <DIFUSE_FUNC_ATOM>  (1574) 
atom 6   atom 7   

>  <FINAL_SINGLE_POINT_ENERGY>  (1574) 
0

>  <NONCOV_INTER_ENERGY_QM>  (1574) 
0

>  <FF_Energy>  (1574) 
1.3

>  <QM_Energy>  (1574) 
-8.7

>  <source>  (1574) 
ACET_MBZ_01

>  <Index>  (1574) 
27708

$$$$
ACET-pdb3lad-A-ASP-295:MBZ-pdb3lad-A-PHE-299
     RDKit          3D

 22 21  0  0  0  0  0  0  0  0999 V2000
   -2.8822    5.4796   -0.2554 C   0  0  0  0  0  0  0  0  0  0  0  0
   -2.4424    6.1212   -0.9152 H   0  0  0  0  0  0  0  0  0  0  0  0
   -2.1519    5.1916    0.3946 H   0  0  0  0  0  0  0  0  0  0  0  0
   -3.6136    6.0534    0.3138 H   0  0  0  0  0  0  0  0  0  0  0  0
   -3.3470    4.2557   -1.0213 C   0  0  0  0  0  0  0  0  0  0  0  0
   -3.7687    4.3987   -2.1598 O   0  0  0  0  0  1  0  0  0  0  0  0
   -3.2558    3.1557   -0.4935 O   0  0  0  0  0  0  0  0  0  0  0  0
    0.0025    2.9182    0.1789 C   0  0  0  0  0  0  0  0  0  0  0  0
   -0.7913    3.2570   -0.2753 H   0  0  0  0  0  0  0  0  0  0  0  0
    0.8404    3.2456   -0.1987 H   0  0  0  0  0  0  0  0  0  0  0  0
   -0.0451    3.1881    1.2338 H   0  0  0  0  0  0  0  0  0  0  0  0
   -0.0003    1.3890    0.0056 C   0  0  0  0  0  0  0  0  0  0  0  0
   -1.1925    0.6970   -0.0059 C   0  0  0  0  0  0  0  0  0  0  0  0
   -2.0578    1.1814   -0.0191 H   0  0  0  0  0  0  0  0  0  0  0  0
   -1.1885   -0.6926    0.0000 C   0  0  0  0  0  0  0  0  0  0  0  0
   -2.0757   -1.1841    0.0016 H   0  0  0  0  0  0  0  0  0  0  0  0
   -0.0042   -1.3930    0.0046 C   0  0  0  0  0  0  0  0  0  0  0  0
   -0.0030   -2.3870    0.0106 H   0  0  0  0  0  0  0  0  0  0  0  0
    1.1885   -0.6865    0.0000 C   0  0  0  0  0  0  0  0  0  0  0  0
    2.0754   -1.1963    0.0013 H   0  0  0  0  0  0  0  0  0  0  0  0
    1.1970    0.6861   -0.0044 C   0  0  0  0  0  0  0  0  0  0  0  0
    2.0614    1.1861   -0.0152 H   0  0  0  0  0  0  0  0  0  0  0  0
  1  5  1  0
  5  6  1  0
  5  7  2  0
  1  2  1  0
  1  3  1  0
  1  4  1  0
  8 12  1  0
 12 13  2  0
 13 15  1  0
 15 17  2  0
 17 19  1  0
 19 21  2  0
 21 12  1  0
  8  9  1  0
  8 10  1  0
  8 11  1  0
 13 14  1  0
 15 16  1  0
 17 18  1  0
 19 20  1  0
 21 22  1  0
M  CHG  1   6  -1
M  END
>  <PDB_ID>  (1575) 
pdb3lad

>  <RESIDUE_NAME>  (1575) 
ASP   PHE

>  <FRAG_NAME>  (1575) 
ACET   MBZ

>  <FRAG_ATOM_NUM>  (1575) 
fragi: 7  fragj: 15

>  <atom.prop.CHAIN_ID>  (1575) 
A A A A A A A Z Z Z Z Z Z Z Z Z Z Z Z Z Z Z

>  <atom.prop.IS_HEAVY_ATOM>  (1575) 
1 0 0 0 1 1 1 1 0 0 0 1 1 0 1 0 1 0 1 0 1 0

>  <DIFUSE_FUNC_ATOM>  (1575) 
atom 6   atom 7   

>  <FINAL_SINGLE_POINT_ENERGY>  (1575) 
0

>  <NONCOV_INTER_ENERGY_QM>  (1575) 
0

>  <FF_Energy>  (1575) 
-1.44

>  <QM_Energy>  (1575) 
-7.89

>  <source>  (1575) 
ACET_MBZ_01

>  <Index>  (1575) 
27855

$$$$
ACET-pdb4i9f-B-ASP-9:MBZ-pdb4i9f-B-PHE-201
     RDKit          3D

 22 21  0  0  0  0  0  0  0  0999 V2000
   -4.6794    2.8140    1.9461 C   0  0  0  0  0  0  0  0  0  0  0  0
   -4.7209    1.9612    1.4331 H   0  0  0  0  0  0  0  0  0  0  0  0
   -5.5453    3.2988    1.8764 H   0  0  0  0  0  0  0  0  0  0  0  0
   -4.5275    2.5591    2.9949 H   0  0  0  0  0  0  0  0  0  0  0  0
   -3.5810    3.6814    1.3727 C   0  0  0  0  0  0  0  0  0  0  0  0
   -3.5472    3.8138    0.1287 O   0  0  0  0  0  1  0  0  0  0  0  0
   -2.7698    4.2425    2.1466 O   0  0  0  0  0  0  0  0  0  0  0  0
   -0.0077    2.9007   -0.0137 C   0  0  0  0  0  0  0  0  0  0  0  0
    0.9113    3.2133    0.1607 H   0  0  0  0  0  0  0  0  0  0  0  0
   -0.6368    3.2115    0.6805 H   0  0  0  0  0  0  0  0  0  0  0  0
   -0.3286    3.3182   -0.9682 H   0  0  0  0  0  0  0  0  0  0  0  0
    0.0006    1.3978    0.0050 C   0  0  0  0  0  0  0  0  0  0  0  0
   -1.1929    0.6899    0.0024 C   0  0  0  0  0  0  0  0  0  0  0  0
   -2.0610    1.1800    0.0013 H   0  0  0  0  0  0  0  0  0  0  0  0
   -1.1957   -0.6977    0.0000 C   0  0  0  0  0  0  0  0  0  0  0  0
   -2.0747   -1.1912    0.0001 H   0  0  0  0  0  0  0  0  0  0  0  0
   -0.0008   -1.3887   -0.0015 C   0  0  0  0  0  0  0  0  0  0  0  0
   -0.0011   -2.3896   -0.0041 H   0  0  0  0  0  0  0  0  0  0  0  0
    1.1957   -0.6924    0.0000 C   0  0  0  0  0  0  0  0  0  0  0  0
    2.0788   -1.1925    0.0073 H   0  0  0  0  0  0  0  0  0  0  0  0
    1.1930    0.6910   -0.0059 C   0  0  0  0  0  0  0  0  0  0  0  0
    2.0625    1.1882   -0.0189 H   0  0  0  0  0  0  0  0  0  0  0  0
  1  5  1  0
  5  6  1  0
  5  7  2  0
  1  2  1  0
  1  3  1  0
  1  4  1  0
  8 12  1  0
 12 13  2  0
 13 15  1  0
 15 17  2  0
 17 19  1  0
 19 21  2  0
 21 12  1  0
  8  9  1  0
  8 10  1  0
  8 11  1  0
 13 14  1  0
 15 16  1  0
 17 18  1  0
 19 20  1  0
 21 22  1  0
M  CHG  1   6  -1
M  END
>  <PDB_ID>  (1576) 
pdb4i9f

>  <RESIDUE_NAME>  (1576) 
ASP   PHE

>  <FRAG_NAME>  (1576) 
ACET   MBZ

>  <FRAG_ATOM_NUM>  (1576) 
fragi: 7  fragj: 15

>  <atom.prop.CHAIN_ID>  (1576) 
A A A A A A A Z Z Z Z Z Z Z Z Z Z Z Z Z Z Z

>  <atom.prop.IS_HEAVY_ATOM>  (1576) 
1 0 0 0 1 1 1 1 0 0 0 1 1 0 1 0 1 0 1 0 1 0

>  <DIFUSE_FUNC_ATOM>  (1576) 
atom 6   atom 7   

>  <FINAL_SINGLE_POINT_ENERGY>  (1576) 
0

>  <NONCOV_INTER_ENERGY_QM>  (1576) 
0

>  <FF_Energy>  (1576) 
-2.4

>  <QM_Energy>  (1576) 
-7.41

>  <source>  (1576) 
ACET_MBZ_01

>  <Index>  (1576) 
27976

$$$$
ACET-pdb4ian-A-ASP-834:MBZ-pdb4ian-A-PHE-698
     RDKit          3D

 22 21  0  0  0  0  0  0  0  0999 V2000
   -0.7457   -5.1704   -2.0758 C   0  0  0  0  0  0  0  0  0  0  0  0
    0.1942   -5.3147   -2.3509 H   0  0  0  0  0  0  0  0  0  0  0  0
   -1.3727   -5.4821   -2.7745 H   0  0  0  0  0  0  0  0  0  0  0  0
   -0.9282   -5.7493   -1.1705 H   0  0  0  0  0  0  0  0  0  0  0  0
   -0.9658   -3.6914   -1.8457 C   0  0  0  0  0  0  0  0  0  0  0  0
   -1.6609   -3.3692   -0.8513 O   0  0  0  0  0  1  0  0  0  0  0  0
   -0.4492   -2.8568   -2.6294 O   0  0  0  0  0  0  0  0  0  0  0  0
    0.0059    2.8897   -0.0059 C   0  0  0  0  0  0  0  0  0  0  0  0
   -0.1788    3.2003    0.9142 H   0  0  0  0  0  0  0  0  0  0  0  0
   -0.6903    3.1969   -0.6366 H   0  0  0  0  0  0  0  0  0  0  0  0
    0.9565    3.3199   -0.3212 H   0  0  0  0  0  0  0  0  0  0  0  0
   -0.0009    1.3899   -0.0002 C   0  0  0  0  0  0  0  0  0  0  0  0
   -1.1934    0.6907   -0.0008 C   0  0  0  0  0  0  0  0  0  0  0  0
   -2.0595    1.1837   -0.0027 H   0  0  0  0  0  0  0  0  0  0  0  0
   -1.1941   -0.6868    0.0000 C   0  0  0  0  0  0  0  0  0  0  0  0
   -2.0699   -1.1879    0.0015 H   0  0  0  0  0  0  0  0  0  0  0  0
    0.0043   -1.3774    0.0006 C   0  0  0  0  0  0  0  0  0  0  0  0
   -0.0054   -2.3820    0.0005 H   0  0  0  0  0  0  0  0  0  0  0  0
    1.1941   -0.6933   -0.0000 C   0  0  0  0  0  0  0  0  0  0  0  0
    2.0777   -1.1968    0.0006 H   0  0  0  0  0  0  0  0  0  0  0  0
    1.1901    0.6769    0.0004 C   0  0  0  0  0  0  0  0  0  0  0  0
    2.0599    1.1812    0.0004 H   0  0  0  0  0  0  0  0  0  0  0  0
  1  5  1  0
  5  6  1  0
  5  7  2  0
  1  2  1  0
  1  3  1  0
  1  4  1  0
  8 12  1  0
 12 13  2  0
 13 15  1  0
 15 17  2  0
 17 19  1  0
 19 21  2  0
 21 12  1  0
  8  9  1  0
  8 10  1  0
  8 11  1  0
 13 14  1  0
 15 16  1  0
 17 18  1  0
 19 20  1  0
 21 22  1  0
M  CHG  1   6  -1
M  END
>  <PDB_ID>  (1577) 
pdb4ian

>  <RESIDUE_NAME>  (1577) 
ASP   PHE

>  <FRAG_NAME>  (1577) 
ACET   MBZ

>  <FRAG_ATOM_NUM>  (1577) 
fragi: 7  fragj: 15

>  <atom.prop.CHAIN_ID>  (1577) 
A A A A A A A Z Z Z Z Z Z Z Z Z Z Z Z Z Z Z

>  <atom.prop.IS_HEAVY_ATOM>  (1577) 
1 0 0 0 1 1 1 1 0 0 0 1 1 0 1 0 1 0 1 0 1 0

>  <DIFUSE_FUNC_ATOM>  (1577) 
atom 6   atom 7   

>  <FINAL_SINGLE_POINT_ENERGY>  (1577) 
0

>  <NONCOV_INTER_ENERGY_QM>  (1577) 
0

>  <FF_Energy>  (1577) 
9.22

>  <QM_Energy>  (1577) 
-1.76

>  <source>  (1577) 
ACET_MBZ_01

>  <Index>  (1577) 
28044

$$$$
ACET-pdb4ian-B-ASP-834:MBZ-pdb4ian-B-PHE-698
     RDKit          3D

 22 21  0  0  0  0  0  0  0  0999 V2000
   -0.1516   -5.5404   -1.8763 C   0  0  0  0  0  0  0  0  0  0  0  0
    0.8177   -5.5674   -1.6766 H   0  0  0  0  0  0  0  0  0  0  0  0
   -0.3332   -5.8240   -2.8062 H   0  0  0  0  0  0  0  0  0  0  0  0
   -0.6629   -6.2249   -1.1993 H   0  0  0  0  0  0  0  0  0  0  0  0
   -0.6393   -4.1043   -1.7058 C   0  0  0  0  0  0  0  0  0  0  0  0
   -1.5411   -3.8718   -0.8621 O   0  0  0  0  0  1  0  0  0  0  0  0
   -0.1238   -3.2074   -2.4047 O   0  0  0  0  0  0  0  0  0  0  0  0
   -0.0068    2.9149    0.0020 C   0  0  0  0  0  0  0  0  0  0  0  0
   -0.7147    3.2129    0.6227 H   0  0  0  0  0  0  0  0  0  0  0  0
   -0.1842    3.2174   -0.9213 H   0  0  0  0  0  0  0  0  0  0  0  0
    0.9334    3.3611    0.3261 H   0  0  0  0  0  0  0  0  0  0  0  0
   -0.0016    1.3993   -0.0002 C   0  0  0  0  0  0  0  0  0  0  0  0
   -1.1955    0.6919   -0.0006 C   0  0  0  0  0  0  0  0  0  0  0  0
   -2.0633    1.1836   -0.0028 H   0  0  0  0  0  0  0  0  0  0  0  0
   -1.1989   -0.6931   -0.0000 C   0  0  0  0  0  0  0  0  0  0  0  0
   -2.0737   -1.1910    0.0011 H   0  0  0  0  0  0  0  0  0  0  0  0
    0.0034   -1.3849    0.0008 C   0  0  0  0  0  0  0  0  0  0  0  0
   -0.0034   -2.3876    0.0021 H   0  0  0  0  0  0  0  0  0  0  0  0
    1.1989   -0.6958   -0.0000 C   0  0  0  0  0  0  0  0  0  0  0  0
    2.0807   -1.1974    0.0013 H   0  0  0  0  0  0  0  0  0  0  0  0
    1.1937    0.6827   -0.0000 C   0  0  0  0  0  0  0  0  0  0  0  0
    2.0629    1.1852   -0.0004 H   0  0  0  0  0  0  0  0  0  0  0  0
  1  5  1  0
  5  6  1  0
  5  7  2  0
  1  2  1  0
  1  3  1  0
  1  4  1  0
  8 12  1  0
 12 13  2  0
 13 15  1  0
 15 17  2  0
 17 19  1  0
 19 21  2  0
 21 12  1  0
  8  9  1  0
  8 10  1  0
  8 11  1  0
 13 14  1  0
 15 16  1  0
 17 18  1  0
 19 20  1  0
 21 22  1  0
M  CHG  1   6  -1
M  END
>  <PDB_ID>  (1578) 
pdb4ian

>  <RESIDUE_NAME>  (1578) 
ASP   PHE

>  <FRAG_NAME>  (1578) 
ACET   MBZ

>  <FRAG_ATOM_NUM>  (1578) 
fragi: 7  fragj: 15

>  <atom.prop.CHAIN_ID>  (1578) 
A A A A A A A Z Z Z Z Z Z Z Z Z Z Z Z Z Z Z

>  <atom.prop.IS_HEAVY_ATOM>  (1578) 
1 0 0 0 1 1 1 1 0 0 0 1 1 0 1 0 1 0 1 0 1 0

>  <DIFUSE_FUNC_ATOM>  (1578) 
atom 6   atom 7   

>  <FINAL_SINGLE_POINT_ENERGY>  (1578) 
0

>  <NONCOV_INTER_ENERGY_QM>  (1578) 
0

>  <FF_Energy>  (1578) 
1.66

>  <QM_Energy>  (1578) 
-4.65

>  <source>  (1578) 
ACET_MBZ_01

>  <Index>  (1578) 
28047

$$$$
ACET-pdb3lg0-C-ASP-233:MBZ-pdb3lg0-C-PHE-147
     RDKit          3D

 22 21  0  0  0  0  0  0  0  0999 V2000
   -2.6179   -0.4537   -4.1722 C   0  0  0  0  0  0  0  0  0  0  0  0
   -1.6671   -0.6648   -3.9814 H   0  0  0  0  0  0  0  0  0  0  0  0
   -2.7551    0.5280   -4.2216 H   0  0  0  0  0  0  0  0  0  0  0  0
   -2.8756   -0.8840   -5.1399 H   0  0  0  0  0  0  0  0  0  0  0  0
   -3.4731   -1.0053   -3.0323 C   0  0  0  0  0  0  0  0  0  0  0  0
   -4.4735   -1.7231   -3.3002 O   0  0  0  0  0  1  0  0  0  0  0  0
   -3.1445   -0.7246   -1.8571 O   0  0  0  0  0  0  0  0  0  0  0  0
    0.0021    2.8947    0.0216 C   0  0  0  0  0  0  0  0  0  0  0  0
   -0.7429    3.2132   -0.5417 H   0  0  0  0  0  0  0  0  0  0  0  0
    0.8741    3.2070   -0.3170 H   0  0  0  0  0  0  0  0  0  0  0  0
   -0.1352    3.3075    1.0211 H   0  0  0  0  0  0  0  0  0  0  0  0
    0.0000    1.3983   -0.0018 C   0  0  0  0  0  0  0  0  0  0  0  0
   -1.1936    0.6929    0.0042 C   0  0  0  0  0  0  0  0  0  0  0  0
   -2.0611    1.1830    0.0108 H   0  0  0  0  0  0  0  0  0  0  0  0
   -1.1964   -0.6946    0.0000 C   0  0  0  0  0  0  0  0  0  0  0  0
   -2.0746   -1.1897    0.0054 H   0  0  0  0  0  0  0  0  0  0  0  0
    0.0027   -1.3927   -0.0097 C   0  0  0  0  0  0  0  0  0  0  0  0
   -0.0037   -2.3910   -0.0237 H   0  0  0  0  0  0  0  0  0  0  0  0
    1.1964   -0.6966   -0.0000 C   0  0  0  0  0  0  0  0  0  0  0  0
    2.0814   -1.1913    0.0036 H   0  0  0  0  0  0  0  0  0  0  0  0
    1.1909    0.6927    0.0072 C   0  0  0  0  0  0  0  0  0  0  0  0
    2.0616    1.1884    0.0187 H   0  0  0  0  0  0  0  0  0  0  0  0
  1  5  1  0
  5  6  1  0
  5  7  2  0
  1  2  1  0
  1  3  1  0
  1  4  1  0
  8 12  1  0
 12 13  2  0
 13 15  1  0
 15 17  2  0
 17 19  1  0
 19 21  2  0
 21 12  1  0
  8  9  1  0
  8 10  1  0
  8 11  1  0
 13 14  1  0
 15 16  1  0
 17 18  1  0
 19 20  1  0
 21 22  1  0
M  CHG  1   6  -1
M  END
>  <PDB_ID>  (1579) 
pdb3lg0

>  <RESIDUE_NAME>  (1579) 
ASP   PHE

>  <FRAG_NAME>  (1579) 
ACET   MBZ

>  <FRAG_ATOM_NUM>  (1579) 
fragi: 7  fragj: 15

>  <atom.prop.CHAIN_ID>  (1579) 
A A A A A A A Z Z Z Z Z Z Z Z Z Z Z Z Z Z Z

>  <atom.prop.IS_HEAVY_ATOM>  (1579) 
1 0 0 0 1 1 1 1 0 0 0 1 1 0 1 0 1 0 1 0 1 0

>  <DIFUSE_FUNC_ATOM>  (1579) 
atom 6   atom 7   

>  <FINAL_SINGLE_POINT_ENERGY>  (1579) 
0

>  <NONCOV_INTER_ENERGY_QM>  (1579) 
0

>  <FF_Energy>  (1579) 
4.07

>  <QM_Energy>  (1579) 
-2.63

>  <source>  (1579) 
ACET_MBZ_01

>  <Index>  (1579) 
28244

$$$$
ACET-pdb3lg6-B-ASP-224:MBZ-pdb3lg6-B-PHE-12
     RDKit          3D

 22 21  0  0  0  0  0  0  0  0999 V2000
    3.7072    3.5273   -2.9330 C   0  0  0  0  0  0  0  0  0  0  0  0
    4.0997    2.6307   -2.7715 H   0  0  0  0  0  0  0  0  0  0  0  0
    4.4073    4.1751   -3.2029 H   0  0  0  0  0  0  0  0  0  0  0  0
    2.9928    3.4406   -3.7517 H   0  0  0  0  0  0  0  0  0  0  0  0
    3.0715    4.0218   -1.6158 C   0  0  0  0  0  0  0  0  0  0  0  0
    2.1396    4.8633   -1.6626 O   0  0  0  0  0  1  0  0  0  0  0  0
    3.5435    3.6086   -0.5249 O   0  0  0  0  0  0  0  0  0  0  0  0
    0.0094    2.9061    0.0257 C   0  0  0  0  0  0  0  0  0  0  0  0
   -0.8686    3.2257   -0.2914 H   0  0  0  0  0  0  0  0  0  0  0  0
    0.7434    3.2227   -0.5521 H   0  0  0  0  0  0  0  0  0  0  0  0
    0.1709    3.3272    1.0180 H   0  0  0  0  0  0  0  0  0  0  0  0
    0.0014    1.3978   -0.0046 C   0  0  0  0  0  0  0  0  0  0  0  0
   -1.1902    0.6991    0.0034 C   0  0  0  0  0  0  0  0  0  0  0  0
   -2.0575    1.1896    0.0099 H   0  0  0  0  0  0  0  0  0  0  0  0
   -1.1951   -0.6865   -0.0000 C   0  0  0  0  0  0  0  0  0  0  0  0
   -2.0768   -1.1785   -0.0112 H   0  0  0  0  0  0  0  0  0  0  0  0
   -0.0053   -1.3834    0.0134 C   0  0  0  0  0  0  0  0  0  0  0  0
   -0.0179   -2.3875    0.0321 H   0  0  0  0  0  0  0  0  0  0  0  0
    1.1951   -0.7059    0.0000 C   0  0  0  0  0  0  0  0  0  0  0  0
    2.0728   -1.2080   -0.0000 H   0  0  0  0  0  0  0  0  0  0  0  0
    1.1940    0.6788   -0.0122 C   0  0  0  0  0  0  0  0  0  0  0  0
    2.0651    1.1752   -0.0281 H   0  0  0  0  0  0  0  0  0  0  0  0
  1  5  1  0
  5  6  1  0
  5  7  2  0
  1  2  1  0
  1  3  1  0
  1  4  1  0
  8 12  1  0
 12 13  2  0
 13 15  1  0
 15 17  2  0
 17 19  1  0
 19 21  2  0
 21 12  1  0
  8  9  1  0
  8 10  1  0
  8 11  1  0
 13 14  1  0
 15 16  1  0
 17 18  1  0
 19 20  1  0
 21 22  1  0
M  CHG  1   6  -1
M  END
>  <PDB_ID>  (1580) 
pdb3lg6

>  <RESIDUE_NAME>  (1580) 
ASP   PHE

>  <FRAG_NAME>  (1580) 
ACET   MBZ

>  <FRAG_ATOM_NUM>  (1580) 
fragi: 7  fragj: 15

>  <atom.prop.CHAIN_ID>  (1580) 
A A A A A A A Z Z Z Z Z Z Z Z Z Z Z Z Z Z Z

>  <atom.prop.IS_HEAVY_ATOM>  (1580) 
1 0 0 0 1 1 1 1 0 0 0 1 1 0 1 0 1 0 1 0 1 0

>  <DIFUSE_FUNC_ATOM>  (1580) 
atom 6   atom 7   

>  <FINAL_SINGLE_POINT_ENERGY>  (1580) 
0

>  <NONCOV_INTER_ENERGY_QM>  (1580) 
0

>  <FF_Energy>  (1580) 
-2.0

>  <QM_Energy>  (1580) 
-7.82

>  <source>  (1580) 
ACET_MBZ_01

>  <Index>  (1580) 
28259

$$$$
ACET-pdb3lg6-D-ASP-224:MBZ-pdb3lg6-D-PHE-12
     RDKit          3D

 22 21  0  0  0  0  0  0  0  0999 V2000
    3.9658    3.2091   -3.0595 C   0  0  0  0  0  0  0  0  0  0  0  0
    4.3724    2.3190   -2.8937 H   0  0  0  0  0  0  0  0  0  0  0  0
    4.6513    3.8524   -3.3769 H   0  0  0  0  0  0  0  0  0  0  0  0
    3.2308    3.0913   -3.8557 H   0  0  0  0  0  0  0  0  0  0  0  0
    3.3682    3.7298   -1.7519 C   0  0  0  0  0  0  0  0  0  0  0  0
    2.5354    4.6704   -1.8144 O   0  0  0  0  0  1  0  0  0  0  0  0
    3.7562    3.2013   -0.6561 O   0  0  0  0  0  0  0  0  0  0  0  0
   -0.0136    2.9254   -0.0309 C   0  0  0  0  0  0  0  0  0  0  0  0
   -0.9103    3.2187   -0.3236 H   0  0  0  0  0  0  0  0  0  0  0  0
    0.6881    3.2259   -0.6582 H   0  0  0  0  0  0  0  0  0  0  0  0
    0.1882    3.3746    0.9415 H   0  0  0  0  0  0  0  0  0  0  0  0
   -0.0048    1.4121   -0.0196 C   0  0  0  0  0  0  0  0  0  0  0  0
   -1.2053    0.6983    0.0030 C   0  0  0  0  0  0  0  0  0  0  0  0
   -2.0708    1.1824    0.0203 H   0  0  0  0  0  0  0  0  0  0  0  0
   -1.2062   -0.7038   -0.0000 C   0  0  0  0  0  0  0  0  0  0  0  0
   -2.0802   -1.1968   -0.0239 H   0  0  0  0  0  0  0  0  0  0  0  0
    0.0020   -1.4010    0.0319 C   0  0  0  0  0  0  0  0  0  0  0  0
   -0.0030   -2.3972    0.0770 H   0  0  0  0  0  0  0  0  0  0  0  0
    1.2062   -0.7036   -0.0000 C   0  0  0  0  0  0  0  0  0  0  0  0
    2.0872   -1.1999   -0.0107 H   0  0  0  0  0  0  0  0  0  0  0  0
    1.2081    0.6980   -0.0152 C   0  0  0  0  0  0  0  0  0  0  0  0
    2.0687    1.1925   -0.0236 H   0  0  0  0  0  0  0  0  0  0  0  0
  1  5  1  0
  5  6  1  0
  5  7  2  0
  1  2  1  0
  1  3  1  0
  1  4  1  0
  8 12  1  0
 12 13  2  0
 13 15  1  0
 15 17  2  0
 17 19  1  0
 19 21  2  0
 21 12  1  0
  8  9  1  0
  8 10  1  0
  8 11  1  0
 13 14  1  0
 15 16  1  0
 17 18  1  0
 19 20  1  0
 21 22  1  0
M  CHG  1   6  -1
M  END
>  <PDB_ID>  (1581) 
pdb3lg6

>  <RESIDUE_NAME>  (1581) 
ASP   PHE

>  <FRAG_NAME>  (1581) 
ACET   MBZ

>  <FRAG_ATOM_NUM>  (1581) 
fragi: 7  fragj: 15

>  <atom.prop.CHAIN_ID>  (1581) 
A A A A A A A Z Z Z Z Z Z Z Z Z Z Z Z Z Z Z

>  <atom.prop.IS_HEAVY_ATOM>  (1581) 
1 0 0 0 1 1 1 1 0 0 0 1 1 0 1 0 1 0 1 0 1 0

>  <DIFUSE_FUNC_ATOM>  (1581) 
atom 6   atom 7   

>  <FINAL_SINGLE_POINT_ENERGY>  (1581) 
0

>  <NONCOV_INTER_ENERGY_QM>  (1581) 
0

>  <FF_Energy>  (1581) 
-2.67

>  <QM_Energy>  (1581) 
-8.27

>  <source>  (1581) 
ACET_MBZ_01

>  <Index>  (1581) 
28265

$$$$
ACET-pdb4iel-A-ASP-162:MBZ-pdb4iel-A-PHE-152
     RDKit          3D

 22 21  0  0  0  0  0  0  0  0999 V2000
    4.8096    2.9605   -1.7980 C   0  0  0  0  0  0  0  0  0  0  0  0
    4.7590    2.4724   -2.6609 H   0  0  0  0  0  0  0  0  0  0  0  0
    5.1525    2.3666   -1.0805 H   0  0  0  0  0  0  0  0  0  0  0  0
    5.5160    3.7816   -1.9195 H   0  0  0  0  0  0  0  0  0  0  0  0
    3.4343    3.4424   -1.4235 C   0  0  0  0  0  0  0  0  0  0  0  0
    3.2755    4.0129   -0.3206 O   0  0  0  0  0  1  0  0  0  0  0  0
    2.5071    3.2536   -2.2292 O   0  0  0  0  0  0  0  0  0  0  0  0
    0.0060    2.9222    0.0029 C   0  0  0  0  0  0  0  0  0  0  0  0
   -0.7634    3.2278   -0.5318 H   0  0  0  0  0  0  0  0  0  0  0  0
    0.8625    3.2239   -0.3792 H   0  0  0  0  0  0  0  0  0  0  0  0
   -0.0863    3.3563    0.9984 H   0  0  0  0  0  0  0  0  0  0  0  0
    0.0032    1.4056   -0.0007 C   0  0  0  0  0  0  0  0  0  0  0  0
   -1.1940    0.6947    0.0032 C   0  0  0  0  0  0  0  0  0  0  0  0
   -2.0615    1.1850    0.0072 H   0  0  0  0  0  0  0  0  0  0  0  0
   -1.1995   -0.6963    0.0000 C   0  0  0  0  0  0  0  0  0  0  0  0
   -2.0798   -1.1878    0.0028 H   0  0  0  0  0  0  0  0  0  0  0  0
   -0.0033   -1.3972   -0.0050 C   0  0  0  0  0  0  0  0  0  0  0  0
   -0.0077   -2.3937   -0.0129 H   0  0  0  0  0  0  0  0  0  0  0  0
    1.1995   -0.6996    0.0000 C   0  0  0  0  0  0  0  0  0  0  0  0
    2.0798   -1.1968    0.0033 H   0  0  0  0  0  0  0  0  0  0  0  0
    1.1942    0.6927    0.0025 C   0  0  0  0  0  0  0  0  0  0  0  0
    2.0662    1.1868    0.0064 H   0  0  0  0  0  0  0  0  0  0  0  0
  1  5  1  0
  5  6  1  0
  5  7  2  0
  1  2  1  0
  1  3  1  0
  1  4  1  0
  8 12  1  0
 12 13  2  0
 13 15  1  0
 15 17  2  0
 17 19  1  0
 19 21  2  0
 21 12  1  0
  8  9  1  0
  8 10  1  0
  8 11  1  0
 13 14  1  0
 15 16  1  0
 17 18  1  0
 19 20  1  0
 21 22  1  0
M  CHG  1   6  -1
M  END
>  <PDB_ID>  (1582) 
pdb4iel

>  <RESIDUE_NAME>  (1582) 
ASP   PHE

>  <FRAG_NAME>  (1582) 
ACET   MBZ

>  <FRAG_ATOM_NUM>  (1582) 
fragi: 7  fragj: 15

>  <atom.prop.CHAIN_ID>  (1582) 
A A A A A A A Z Z Z Z Z Z Z Z Z Z Z Z Z Z Z

>  <atom.prop.IS_HEAVY_ATOM>  (1582) 
1 0 0 0 1 1 1 1 0 0 0 1 1 0 1 0 1 0 1 0 1 0

>  <DIFUSE_FUNC_ATOM>  (1582) 
atom 6   atom 7   

>  <FINAL_SINGLE_POINT_ENERGY>  (1582) 
0

>  <NONCOV_INTER_ENERGY_QM>  (1582) 
0

>  <FF_Energy>  (1582) 
-1.38

>  <QM_Energy>  (1582) 
-8.13

>  <source>  (1582) 
ACET_MBZ_01

>  <Index>  (1582) 
28270

$$$$
ACET-pdb4ied-C-GLU-69:MBZ-pdb4ied-C-PHE-171
     RDKit          3D

 22 21  0  0  0  0  0  0  0  0999 V2000
    4.0103    1.2617    2.0988 C   0  0  0  0  0  0  0  0  0  0  0  0
    3.2752    0.5937    2.1590 H   0  0  0  0  0  0  0  0  0  0  0  0
    4.6119    1.1847    2.8878 H   0  0  0  0  0  0  0  0  0  0  0  0
    4.5902    1.0575    1.1987 H   0  0  0  0  0  0  0  0  0  0  0  0
    3.3753    2.6320    2.1536 C   0  0  0  0  0  0  0  0  0  0  0  0
    3.3489    3.4000    1.1592 O   0  0  0  0  0  1  0  0  0  0  0  0
    2.7746    2.9269    3.1928 O   0  0  0  0  0  0  0  0  0  0  0  0
   -0.0303    2.9043   -0.0474 C   0  0  0  0  0  0  0  0  0  0  0  0
   -0.7440    3.2242   -0.6368 H   0  0  0  0  0  0  0  0  0  0  0  0
    0.8561    3.2296   -0.3084 H   0  0  0  0  0  0  0  0  0  0  0  0
   -0.2354    3.3033    0.9459 H   0  0  0  0  0  0  0  0  0  0  0  0
   -0.0209    1.4046   -0.0675 C   0  0  0  0  0  0  0  0  0  0  0  0
   -1.1923    0.6920   -0.0292 C   0  0  0  0  0  0  0  0  0  0  0  0
   -2.0754    1.1534   -0.0225 H   0  0  0  0  0  0  0  0  0  0  0  0
   -1.1888   -0.7323   -0.0000 C   0  0  0  0  0  0  0  0  0  0  0  0
   -2.0468   -1.2220   -0.0392 H   0  0  0  0  0  0  0  0  0  0  0  0
    0.0345   -1.3832    0.0859 C   0  0  0  0  0  0  0  0  0  0  0  0
    0.0383   -2.3855    0.2134 H   0  0  0  0  0  0  0  0  0  0  0  0
    1.1888   -0.6894    0.0000 C   0  0  0  0  0  0  0  0  0  0  0  0
    2.0904   -1.1638   -0.0727 H   0  0  0  0  0  0  0  0  0  0  0  0
    1.1787    0.7083    0.0107 C   0  0  0  0  0  0  0  0  0  0  0  0
    2.0408    1.2052    0.0740 H   0  0  0  0  0  0  0  0  0  0  0  0
  1  5  1  0
  5  6  1  0
  5  7  2  0
  1  2  1  0
  1  3  1  0
  1  4  1  0
  8 12  1  0
 12 13  2  0
 13 15  1  0
 15 17  2  0
 17 19  1  0
 19 21  2  0
 21 12  1  0
  8  9  1  0
  8 10  1  0
  8 11  1  0
 13 14  1  0
 15 16  1  0
 17 18  1  0
 19 20  1  0
 21 22  1  0
M  CHG  1   6  -1
M  END
>  <PDB_ID>  (1583) 
pdb4ied

>  <RESIDUE_NAME>  (1583) 
GLU   PHE

>  <FRAG_NAME>  (1583) 
ACET   MBZ

>  <FRAG_ATOM_NUM>  (1583) 
fragi: 7  fragj: 15

>  <atom.prop.CHAIN_ID>  (1583) 
A A A A A A A Z Z Z Z Z Z Z Z Z Z Z Z Z Z Z

>  <atom.prop.IS_HEAVY_ATOM>  (1583) 
1 0 0 0 1 1 1 1 0 0 0 1 1 0 1 0 1 0 1 0 1 0

>  <DIFUSE_FUNC_ATOM>  (1583) 
atom 6   atom 7   

>  <FINAL_SINGLE_POINT_ENERGY>  (1583) 
0

>  <NONCOV_INTER_ENERGY_QM>  (1583) 
0

>  <FF_Energy>  (1583) 
-1.92

>  <QM_Energy>  (1583) 
-6.96

>  <source>  (1583) 
ACET_MBZ_01

>  <Index>  (1583) 
28299

$$$$
ACET-pdb4ied-B-GLU-20:MBZ-pdb4ied-B-PHE-17
     RDKit          3D

 22 21  0  0  0  0  0  0  0  0999 V2000
   -2.3369    1.4591    3.3311 C   0  0  0  0  0  0  0  0  0  0  0  0
   -2.8570    1.5816    2.5113 H   0  0  0  0  0  0  0  0  0  0  0  0
   -1.5218    1.9997    3.3517 H   0  0  0  0  0  0  0  0  0  0  0  0
   -2.9589    1.7218    4.1868 H   0  0  0  0  0  0  0  0  0  0  0  0
   -1.9291    0.0171    3.4022 C   0  0  0  0  0  0  0  0  0  0  0  0
   -1.0970   -0.3796    2.5673 O   0  0  0  0  0  1  0  0  0  0  0  0
   -2.4895   -0.7207    4.2755 O   0  0  0  0  0  0  0  0  0  0  0  0
   -0.0179    2.8859   -0.0703 C   0  0  0  0  0  0  0  0  0  0  0  0
   -0.6374    3.1655   -0.7891 H   0  0  0  0  0  0  0  0  0  0  0  0
    0.9019    3.2039   -0.2451 H   0  0  0  0  0  0  0  0  0  0  0  0
   -0.3573    3.3406    0.8603 H   0  0  0  0  0  0  0  0  0  0  0  0
    0.0023    1.4004   -0.0234 C   0  0  0  0  0  0  0  0  0  0  0  0
   -1.1941    0.6958   -0.0389 C   0  0  0  0  0  0  0  0  0  0  0  0
   -2.0591    1.1761   -0.0790 H   0  0  0  0  0  0  0  0  0  0  0  0
   -1.1854   -0.7001   -0.0000 C   0  0  0  0  0  0  0  0  0  0  0  0
   -2.0648   -1.1965    0.0171 H   0  0  0  0  0  0  0  0  0  0  0  0
    0.0143   -1.3976    0.0166 C   0  0  0  0  0  0  0  0  0  0  0  0
    0.0035   -2.3955    0.0396 H   0  0  0  0  0  0  0  0  0  0  0  0
    1.1854   -0.7012    0.0000 C   0  0  0  0  0  0  0  0  0  0  0  0
    2.0826   -1.1782   -0.0439 H   0  0  0  0  0  0  0  0  0  0  0  0
    1.1775    0.7026    0.0457 C   0  0  0  0  0  0  0  0  0  0  0  0
    2.0513    1.1843    0.1295 H   0  0  0  0  0  0  0  0  0  0  0  0
  1  5  1  0
  5  6  1  0
  5  7  2  0
  1  2  1  0
  1  3  1  0
  1  4  1  0
  8 12  1  0
 12 13  2  0
 13 15  1  0
 15 17  2  0
 17 19  1  0
 19 21  2  0
 21 12  1  0
  8  9  1  0
  8 10  1  0
  8 11  1  0
 13 14  1  0
 15 16  1  0
 17 18  1  0
 19 20  1  0
 21 22  1  0
M  CHG  1   6  -1
M  END
>  <PDB_ID>  (1584) 
pdb4ied

>  <RESIDUE_NAME>  (1584) 
GLU   PHE

>  <FRAG_NAME>  (1584) 
ACET   MBZ

>  <FRAG_ATOM_NUM>  (1584) 
fragi: 7  fragj: 15

>  <atom.prop.CHAIN_ID>  (1584) 
A A A A A A A Z Z Z Z Z Z Z Z Z Z Z Z Z Z Z

>  <atom.prop.IS_HEAVY_ATOM>  (1584) 
1 0 0 0 1 1 1 1 0 0 0 1 1 0 1 0 1 0 1 0 1 0

>  <DIFUSE_FUNC_ATOM>  (1584) 
atom 6   atom 7   

>  <FINAL_SINGLE_POINT_ENERGY>  (1584) 
0

>  <NONCOV_INTER_ENERGY_QM>  (1584) 
0

>  <FF_Energy>  (1584) 
11.86

>  <QM_Energy>  (1584) 
3.91

>  <source>  (1584) 
ACET_MBZ_01

>  <Index>  (1584) 
28331

$$$$
ACET-pdb4ihf-A-ASP-232:MBZ-pdb4ihf-B-PHE-183
     RDKit          3D

 22 21  0  0  0  0  0  0  0  0999 V2000
   -0.8923    0.3422   -3.4858 C   0  0  0  0  0  0  0  0  0  0  0  0
   -0.3902   -0.1390   -2.7730 H   0  0  0  0  0  0  0  0  0  0  0  0
   -0.5666    0.0613   -4.3833 H   0  0  0  0  0  0  0  0  0  0  0  0
   -1.9437    0.0660   -3.4049 H   0  0  0  0  0  0  0  0  0  0  0  0
   -0.6503    1.8327   -3.3271 C   0  0  0  0  0  0  0  0  0  0  0  0
   -1.6057    2.5940   -3.0334 O   0  0  0  0  0  1  0  0  0  0  0  0
    0.5214    2.2362   -3.4941 O   0  0  0  0  0  0  0  0  0  0  0  0
    0.0177    2.9253   -0.0180 C   0  0  0  0  0  0  0  0  0  0  0  0
   -0.4055    3.2147   -0.8658 H   0  0  0  0  0  0  0  0  0  0  0  0
    0.9646    3.2126    0.0218 H   0  0  0  0  0  0  0  0  0  0  0  0
   -0.5149    3.4011    0.8054 H   0  0  0  0  0  0  0  0  0  0  0  0
   -0.0005    1.4069    0.0085 C   0  0  0  0  0  0  0  0  0  0  0  0
   -1.1970    0.6987    0.0010 C   0  0  0  0  0  0  0  0  0  0  0  0
   -2.0647    1.1837   -0.0046 H   0  0  0  0  0  0  0  0  0  0  0  0
   -1.1992   -0.7004   -0.0000 C   0  0  0  0  0  0  0  0  0  0  0  0
   -2.0760   -1.1920    0.0039 H   0  0  0  0  0  0  0  0  0  0  0  0
    0.0038   -1.3969   -0.0044 C   0  0  0  0  0  0  0  0  0  0  0  0
   -0.0034   -2.3968   -0.0111 H   0  0  0  0  0  0  0  0  0  0  0  0
    1.1992   -0.7028   -0.0000 C   0  0  0  0  0  0  0  0  0  0  0  0
    2.0837   -1.1944    0.0080 H   0  0  0  0  0  0  0  0  0  0  0  0
    1.1937    0.6946   -0.0052 C   0  0  0  0  0  0  0  0  0  0  0  0
    2.0646    1.1877   -0.0202 H   0  0  0  0  0  0  0  0  0  0  0  0
  1  5  1  0
  5  6  1  0
  5  7  2  0
  1  2  1  0
  1  3  1  0
  1  4  1  0
  8 12  1  0
 12 13  2  0
 13 15  1  0
 15 17  2  0
 17 19  1  0
 19 21  2  0
 21 12  1  0
  8  9  1  0
  8 10  1  0
  8 11  1  0
 13 14  1  0
 15 16  1  0
 17 18  1  0
 19 20  1  0
 21 22  1  0
M  CHG  1   6  -1
M  END
>  <PDB_ID>  (1585) 
pdb4ihf

>  <RESIDUE_NAME>  (1585) 
ASP   PHE

>  <FRAG_NAME>  (1585) 
ACET   MBZ

>  <FRAG_ATOM_NUM>  (1585) 
fragi: 7  fragj: 15

>  <atom.prop.CHAIN_ID>  (1585) 
A A A A A A A Z Z Z Z Z Z Z Z Z Z Z Z Z Z Z

>  <atom.prop.IS_HEAVY_ATOM>  (1585) 
1 0 0 0 1 1 1 1 0 0 0 1 1 0 1 0 1 0 1 0 1 0

>  <DIFUSE_FUNC_ATOM>  (1585) 
atom 6   atom 7   

>  <FINAL_SINGLE_POINT_ENERGY>  (1585) 
0

>  <NONCOV_INTER_ENERGY_QM>  (1585) 
0

>  <FF_Energy>  (1585) 
0.17

>  <QM_Energy>  (1585) 
-6.99

>  <source>  (1585) 
ACET_MBZ_01

>  <Index>  (1585) 
28478

$$$$
ACET-pdb4ihf-E-ASP-232:MBZ-pdb4ihf-F-PHE-183
     RDKit          3D

 22 21  0  0  0  0  0  0  0  0999 V2000
   -0.7204    0.3049   -3.5372 C   0  0  0  0  0  0  0  0  0  0  0  0
   -0.2789   -0.1704   -2.7862 H   0  0  0  0  0  0  0  0  0  0  0  0
   -0.3472    0.0076   -4.4069 H   0  0  0  0  0  0  0  0  0  0  0  0
   -1.7799    0.0496   -3.5206 H   0  0  0  0  0  0  0  0  0  0  0  0
   -0.4534    1.8112   -3.3822 C   0  0  0  0  0  0  0  0  0  0  0  0
   -1.3875    2.5875   -3.0911 O   0  0  0  0  0  1  0  0  0  0  0  0
    0.7196    2.2214   -3.5243 O   0  0  0  0  0  0  0  0  0  0  0  0
    0.0237    2.9135   -0.0295 C   0  0  0  0  0  0  0  0  0  0  0  0
   -0.3584    3.2017   -0.8989 H   0  0  0  0  0  0  0  0  0  0  0  0
    0.9684    3.2046    0.0531 H   0  0  0  0  0  0  0  0  0  0  0  0
   -0.5481    3.3912    0.7660 H   0  0  0  0  0  0  0  0  0  0  0  0
    0.0019    1.4087    0.0059 C   0  0  0  0  0  0  0  0  0  0  0  0
   -1.1967    0.7110   -0.0035 C   0  0  0  0  0  0  0  0  0  0  0  0
   -2.0632    1.1875   -0.0143 H   0  0  0  0  0  0  0  0  0  0  0  0
   -1.2023   -0.7094    0.0000 C   0  0  0  0  0  0  0  0  0  0  0  0
   -2.0796   -1.1890    0.0004 H   0  0  0  0  0  0  0  0  0  0  0  0
    0.0006   -1.4029    0.0045 C   0  0  0  0  0  0  0  0  0  0  0  0
   -0.0002   -2.4007    0.0101 H   0  0  0  0  0  0  0  0  0  0  0  0
    1.2023   -0.7029   -0.0000 C   0  0  0  0  0  0  0  0  0  0  0  0
    2.0845   -1.1960    0.0032 H   0  0  0  0  0  0  0  0  0  0  0  0
    1.1941    0.6955   -0.0069 C   0  0  0  0  0  0  0  0  0  0  0  0
    2.0665    1.1876   -0.0220 H   0  0  0  0  0  0  0  0  0  0  0  0
  1  5  1  0
  5  6  1  0
  5  7  2  0
  1  2  1  0
  1  3  1  0
  1  4  1  0
  8 12  1  0
 12 13  2  0
 13 15  1  0
 15 17  2  0
 17 19  1  0
 19 21  2  0
 21 12  1  0
  8  9  1  0
  8 10  1  0
  8 11  1  0
 13 14  1  0
 15 16  1  0
 17 18  1  0
 19 20  1  0
 21 22  1  0
M  CHG  1   6  -1
M  END
>  <PDB_ID>  (1586) 
pdb4ihf

>  <RESIDUE_NAME>  (1586) 
ASP   PHE

>  <FRAG_NAME>  (1586) 
ACET   MBZ

>  <FRAG_ATOM_NUM>  (1586) 
fragi: 7  fragj: 15

>  <atom.prop.CHAIN_ID>  (1586) 
A A A A A A A Z Z Z Z Z Z Z Z Z Z Z Z Z Z Z

>  <atom.prop.IS_HEAVY_ATOM>  (1586) 
1 0 0 0 1 1 1 1 0 0 0 1 1 0 1 0 1 0 1 0 1 0

>  <DIFUSE_FUNC_ATOM>  (1586) 
atom 6   atom 7   

>  <FINAL_SINGLE_POINT_ENERGY>  (1586) 
0

>  <NONCOV_INTER_ENERGY_QM>  (1586) 
0

>  <FF_Energy>  (1586) 
0.14

>  <QM_Energy>  (1586) 
-7.08

>  <source>  (1586) 
ACET_MBZ_01

>  <Index>  (1586) 
28485

$$$$
ACET-pdb4igl-A-ASP-781:MBZ-pdb4igl-A-PHE-872
     RDKit          3D

 22 21  0  0  0  0  0  0  0  0999 V2000
   -2.5848   -5.5019    1.3978 C   0  0  0  0  0  0  0  0  0  0  0  0
   -2.8347   -4.9655    2.1936 H   0  0  0  0  0  0  0  0  0  0  0  0
   -1.8243   -6.1034    1.6020 H   0  0  0  0  0  0  0  0  0  0  0  0
   -3.4407   -6.1187    1.1240 H   0  0  0  0  0  0  0  0  0  0  0  0
   -2.1745   -4.5565    0.2817 C   0  0  0  0  0  0  0  0  0  0  0  0
   -3.0641   -4.0405   -0.4276 O   0  0  0  0  0  1  0  0  0  0  0  0
   -0.9609   -4.3324    0.1049 O   0  0  0  0  0  0  0  0  0  0  0  0
   -0.0063    2.9083    0.0110 C   0  0  0  0  0  0  0  0  0  0  0  0
   -0.7749    3.2141   -0.5259 H   0  0  0  0  0  0  0  0  0  0  0  0
    0.8498    3.2175   -0.3690 H   0  0  0  0  0  0  0  0  0  0  0  0
   -0.1035    3.3352    1.0092 H   0  0  0  0  0  0  0  0  0  0  0  0
   -0.0021    1.3999    0.0001 C   0  0  0  0  0  0  0  0  0  0  0  0
   -1.1946    0.6947   -0.0007 C   0  0  0  0  0  0  0  0  0  0  0  0
   -2.0628    1.1825   -0.0033 H   0  0  0  0  0  0  0  0  0  0  0  0
   -1.1986   -0.6965   -0.0000 C   0  0  0  0  0  0  0  0  0  0  0  0
   -2.0749   -1.1904    0.0024 H   0  0  0  0  0  0  0  0  0  0  0  0
    0.0028   -1.3898   -0.0009 C   0  0  0  0  0  0  0  0  0  0  0  0
   -0.0026   -2.3911   -0.0027 H   0  0  0  0  0  0  0  0  0  0  0  0
    1.1986   -0.6972    0.0000 C   0  0  0  0  0  0  0  0  0  0  0  0
    2.0813   -1.1952    0.0009 H   0  0  0  0  0  0  0  0  0  0  0  0
    1.1939    0.6889    0.0014 C   0  0  0  0  0  0  0  0  0  0  0  0
    2.0621    1.1874    0.0026 H   0  0  0  0  0  0  0  0  0  0  0  0
  1  5  1  0
  5  6  1  0
  5  7  2  0
  1  2  1  0
  1  3  1  0
  1  4  1  0
  8 12  1  0
 12 13  2  0
 13 15  1  0
 15 17  2  0
 17 19  1  0
 19 21  2  0
 21 12  1  0
  8  9  1  0
  8 10  1  0
  8 11  1  0
 13 14  1  0
 15 16  1  0
 17 18  1  0
 19 20  1  0
 21 22  1  0
M  CHG  1   6  -1
M  END
>  <PDB_ID>  (1587) 
pdb4igl

>  <RESIDUE_NAME>  (1587) 
ASP   PHE

>  <FRAG_NAME>  (1587) 
ACET   MBZ

>  <FRAG_ATOM_NUM>  (1587) 
fragi: 7  fragj: 15

>  <atom.prop.CHAIN_ID>  (1587) 
A A A A A A A Z Z Z Z Z Z Z Z Z Z Z Z Z Z Z

>  <atom.prop.IS_HEAVY_ATOM>  (1587) 
1 0 0 0 1 1 1 1 0 0 0 1 1 0 1 0 1 0 1 0 1 0

>  <DIFUSE_FUNC_ATOM>  (1587) 
atom 6   atom 7   

>  <FINAL_SINGLE_POINT_ENERGY>  (1587) 
0

>  <NONCOV_INTER_ENERGY_QM>  (1587) 
0

>  <FF_Energy>  (1587) 
-1.2

>  <QM_Energy>  (1587) 
-7.19

>  <source>  (1587) 
ACET_MBZ_01

>  <Index>  (1587) 
28499

$$$$
ACET-pdb4ija-B-ASP-373:MBZ-pdb4ija-B-PHE-190
     RDKit          3D

 22 21  0  0  0  0  0  0  0  0999 V2000
   -2.5592    3.1576    4.3865 C   0  0  0  0  0  0  0  0  0  0  0  0
   -2.0569    4.0121    4.2216 H   0  0  0  0  0  0  0  0  0  0  0  0
   -2.2612    2.7737    5.2649 H   0  0  0  0  0  0  0  0  0  0  0  0
   -3.6139    3.4147    4.4853 H   0  0  0  0  0  0  0  0  0  0  0  0
   -2.2015    2.1621    3.2744 C   0  0  0  0  0  0  0  0  0  0  0  0
   -1.1883    1.4443    3.4227 O   0  0  0  0  0  1  0  0  0  0  0  0
   -2.9029    2.1431    2.2339 O   0  0  0  0  0  0  0  0  0  0  0  0
   -0.0044    2.9222   -0.0438 C   0  0  0  0  0  0  0  0  0  0  0  0
   -0.9328    3.2159   -0.2883 H   0  0  0  0  0  0  0  0  0  0  0  0
    0.6268    3.2036   -0.7720 H   0  0  0  0  0  0  0  0  0  0  0  0
    0.2786    3.4686    0.8559 H   0  0  0  0  0  0  0  0  0  0  0  0
    0.0003    1.4088    0.0100 C   0  0  0  0  0  0  0  0  0  0  0  0
   -1.1947    0.6926   -0.0029 C   0  0  0  0  0  0  0  0  0  0  0  0
   -2.0629    1.1779   -0.0159 H   0  0  0  0  0  0  0  0  0  0  0  0
   -1.1943   -0.7020   -0.0000 C   0  0  0  0  0  0  0  0  0  0  0  0
   -2.0742   -1.1933   -0.0145 H   0  0  0  0  0  0  0  0  0  0  0  0
   -0.0015   -1.3906    0.0241 C   0  0  0  0  0  0  0  0  0  0  0  0
   -0.0054   -2.3939    0.0584 H   0  0  0  0  0  0  0  0  0  0  0  0
    1.1943   -0.7036    0.0000 C   0  0  0  0  0  0  0  0  0  0  0  0
    2.0775   -1.1983    0.0058 H   0  0  0  0  0  0  0  0  0  0  0  0
    1.1959    0.6947   -0.0312 C   0  0  0  0  0  0  0  0  0  0  0  0
    2.0640    1.1837   -0.0843 H   0  0  0  0  0  0  0  0  0  0  0  0
  1  5  1  0
  5  6  1  0
  5  7  2  0
  1  2  1  0
  1  3  1  0
  1  4  1  0
  8 12  1  0
 12 13  2  0
 13 15  1  0
 15 17  2  0
 17 19  1  0
 19 21  2  0
 21 12  1  0
  8  9  1  0
  8 10  1  0
  8 11  1  0
 13 14  1  0
 15 16  1  0
 17 18  1  0
 19 20  1  0
 21 22  1  0
M  CHG  1   6  -1
M  END
>  <PDB_ID>  (1588) 
pdb4ija

>  <RESIDUE_NAME>  (1588) 
ASP   PHE

>  <FRAG_NAME>  (1588) 
ACET   MBZ

>  <FRAG_ATOM_NUM>  (1588) 
fragi: 7  fragj: 15

>  <atom.prop.CHAIN_ID>  (1588) 
A A A A A A A Z Z Z Z Z Z Z Z Z Z Z Z Z Z Z

>  <atom.prop.IS_HEAVY_ATOM>  (1588) 
1 0 0 0 1 1 1 1 0 0 0 1 1 0 1 0 1 0 1 0 1 0

>  <DIFUSE_FUNC_ATOM>  (1588) 
atom 6   atom 7   

>  <FINAL_SINGLE_POINT_ENERGY>  (1588) 
0

>  <NONCOV_INTER_ENERGY_QM>  (1588) 
0

>  <FF_Energy>  (1588) 
1.75

>  <QM_Energy>  (1588) 
-3.52

>  <source>  (1588) 
ACET_MBZ_01

>  <Index>  (1588) 
28617

$$$$
ACET-pdb3lkk-B-GLU-36:MBZ-pdb3lkk-B-PHE--1
     RDKit          3D

 22 21  0  0  0  0  0  0  0  0999 V2000
   -1.8242   -0.0397    3.9635 C   0  0  0  0  0  0  0  0  0  0  0  0
   -1.9754   -0.9687    4.2211 H   0  0  0  0  0  0  0  0  0  0  0  0
   -2.1197    0.6041    4.6346 H   0  0  0  0  0  0  0  0  0  0  0  0
   -0.7594    0.1049    3.7807 H   0  0  0  0  0  0  0  0  0  0  0  0
   -2.6429    0.2182    2.6963 C   0  0  0  0  0  0  0  0  0  0  0  0
   -2.6945    1.3921    2.2004 O   0  0  0  0  0  1  0  0  0  0  0  0
   -3.2121   -0.7779    2.1870 O   0  0  0  0  0  0  0  0  0  0  0  0
    0.0308    2.8899    0.0027 C   0  0  0  0  0  0  0  0  0  0  0  0
    0.5915    3.1907   -0.7616 H   0  0  0  0  0  0  0  0  0  0  0  0
    0.4307    3.1889    0.8635 H   0  0  0  0  0  0  0  0  0  0  0  0
   -0.9406    3.3750   -0.0925 H   0  0  0  0  0  0  0  0  0  0  0  0
    0.0003    1.3932   -0.0023 C   0  0  0  0  0  0  0  0  0  0  0  0
   -1.1883    0.6898    0.0056 C   0  0  0  0  0  0  0  0  0  0  0  0
   -2.0574    1.1795    0.0141 H   0  0  0  0  0  0  0  0  0  0  0  0
   -1.1902   -0.6929   -0.0000 C   0  0  0  0  0  0  0  0  0  0  0  0
   -2.0735   -1.1861   -0.0101 H   0  0  0  0  0  0  0  0  0  0  0  0
   -0.0046   -1.3813    0.0097 C   0  0  0  0  0  0  0  0  0  0  0  0
   -0.0048   -2.3843    0.0234 H   0  0  0  0  0  0  0  0  0  0  0  0
    1.1902   -0.6902    0.0000 C   0  0  0  0  0  0  0  0  0  0  0  0
    2.0727   -1.1983    0.0039 H   0  0  0  0  0  0  0  0  0  0  0  0
    1.1926    0.6814   -0.0130 C   0  0  0  0  0  0  0  0  0  0  0  0
    2.0608    1.1827   -0.0315 H   0  0  0  0  0  0  0  0  0  0  0  0
  1  5  1  0
  5  6  1  0
  5  7  2  0
  1  2  1  0
  1  3  1  0
  1  4  1  0
  8 12  1  0
 12 13  2  0
 13 15  1  0
 15 17  2  0
 17 19  1  0
 19 21  2  0
 21 12  1  0
  8  9  1  0
  8 10  1  0
  8 11  1  0
 13 14  1  0
 15 16  1  0
 17 18  1  0
 19 20  1  0
 21 22  1  0
M  CHG  1   6  -1
M  END
>  <PDB_ID>  (1589) 
pdb3lkk

>  <RESIDUE_NAME>  (1589) 
GLU   PHE

>  <FRAG_NAME>  (1589) 
ACET   MBZ

>  <FRAG_ATOM_NUM>  (1589) 
fragi: 7  fragj: 15

>  <atom.prop.CHAIN_ID>  (1589) 
A A A A A A A Z Z Z Z Z Z Z Z Z Z Z Z Z Z Z

>  <atom.prop.IS_HEAVY_ATOM>  (1589) 
1 0 0 0 1 1 1 1 0 0 0 1 1 0 1 0 1 0 1 0 1 0

>  <DIFUSE_FUNC_ATOM>  (1589) 
atom 6   atom 7   

>  <FINAL_SINGLE_POINT_ENERGY>  (1589) 
0

>  <NONCOV_INTER_ENERGY_QM>  (1589) 
0

>  <FF_Energy>  (1589) 
4.01

>  <QM_Energy>  (1589) 
-4.74

>  <source>  (1589) 
ACET_MBZ_01

>  <Index>  (1589) 
28621

$$$$
ACET-pdb3lli-A-ASP-495:MBZ-pdb3lli-A-PHE-498
     RDKit          3D

 22 21  0  0  0  0  0  0  0  0999 V2000
    3.8284    4.0429    0.3914 C   0  0  0  0  0  0  0  0  0  0  0  0
    4.1746    4.2109    1.3058 H   0  0  0  0  0  0  0  0  0  0  0  0
    2.8479    4.1853    0.3554 H   0  0  0  0  0  0  0  0  0  0  0  0
    4.3000    4.7558   -0.2848 H   0  0  0  0  0  0  0  0  0  0  0  0
    4.1241    2.5913    0.0184 C   0  0  0  0  0  0  0  0  0  0  0  0
    4.1228    2.2671   -1.1904 O   0  0  0  0  0  1  0  0  0  0  0  0
    4.3456    1.7725    0.9367 O   0  0  0  0  0  0  0  0  0  0  0  0
   -0.0017    2.8898   -0.0351 C   0  0  0  0  0  0  0  0  0  0  0  0
    0.8836    3.2080    0.2683 H   0  0  0  0  0  0  0  0  0  0  0  0
   -0.7234    3.2127    0.5586 H   0  0  0  0  0  0  0  0  0  0  0  0
   -0.1799    3.3006   -1.0288 H   0  0  0  0  0  0  0  0  0  0  0  0
   -0.0003    1.3973   -0.0005 C   0  0  0  0  0  0  0  0  0  0  0  0
   -1.1955    0.6919    0.0001 C   0  0  0  0  0  0  0  0  0  0  0  0
   -2.0624    1.1861   -0.0006 H   0  0  0  0  0  0  0  0  0  0  0  0
   -1.2050   -0.6938   -0.0000 C   0  0  0  0  0  0  0  0  0  0  0  0
   -2.0804   -1.1879    0.0017 H   0  0  0  0  0  0  0  0  0  0  0  0
   -0.0018   -1.3935   -0.0007 C   0  0  0  0  0  0  0  0  0  0  0  0
   -0.0057   -2.3904   -0.0022 H   0  0  0  0  0  0  0  0  0  0  0  0
    1.2050   -0.6954    0.0000 C   0  0  0  0  0  0  0  0  0  0  0  0
    2.0830   -1.1950    0.0007 H   0  0  0  0  0  0  0  0  0  0  0  0
    1.1976    0.6935    0.0011 C   0  0  0  0  0  0  0  0  0  0  0  0
    2.0640    1.1928    0.0020 H   0  0  0  0  0  0  0  0  0  0  0  0
  1  5  1  0
  5  6  1  0
  5  7  2  0
  1  2  1  0
  1  3  1  0
  1  4  1  0
  8 12  1  0
 12 13  2  0
 13 15  1  0
 15 17  2  0
 17 19  1  0
 19 21  2  0
 21 12  1  0
  8  9  1  0
  8 10  1  0
  8 11  1  0
 13 14  1  0
 15 16  1  0
 17 18  1  0
 19 20  1  0
 21 22  1  0
M  CHG  1   6  -1
M  END
>  <PDB_ID>  (1590) 
pdb3lli

>  <RESIDUE_NAME>  (1590) 
ASP   PHE

>  <FRAG_NAME>  (1590) 
ACET   MBZ

>  <FRAG_ATOM_NUM>  (1590) 
fragi: 7  fragj: 15

>  <atom.prop.CHAIN_ID>  (1590) 
A A A A A A A Z Z Z Z Z Z Z Z Z Z Z Z Z Z Z

>  <atom.prop.IS_HEAVY_ATOM>  (1590) 
1 0 0 0 1 1 1 1 0 0 0 1 1 0 1 0 1 0 1 0 1 0

>  <DIFUSE_FUNC_ATOM>  (1590) 
atom 6   atom 7   

>  <FINAL_SINGLE_POINT_ENERGY>  (1590) 
0

>  <NONCOV_INTER_ENERGY_QM>  (1590) 
0

>  <FF_Energy>  (1590) 
-1.51

>  <QM_Energy>  (1590) 
-6.66

>  <source>  (1590) 
ACET_MBZ_01

>  <Index>  (1590) 
28678

$$$$
ACET-pdb3llt-A-ASP-729:MBZ-pdb3llt-A-PHE-726
     RDKit          3D

 22 21  0  0  0  0  0  0  0  0999 V2000
   -3.2792    5.8331    0.1160 C   0  0  0  0  0  0  0  0  0  0  0  0
   -2.6696    5.7309    0.8933 H   0  0  0  0  0  0  0  0  0  0  0  0
   -4.2165    5.9519    0.4217 H   0  0  0  0  0  0  0  0  0  0  0  0
   -2.9848    6.7318   -0.4260 H   0  0  0  0  0  0  0  0  0  0  0  0
   -3.1995    4.5728   -0.7356 C   0  0  0  0  0  0  0  0  0  0  0  0
   -2.9876    4.6745   -1.9645 O   0  0  0  0  0  1  0  0  0  0  0  0
   -3.3542    3.4724   -0.1632 O   0  0  0  0  0  0  0  0  0  0  0  0
   -0.0001    2.9077    0.0028 C   0  0  0  0  0  0  0  0  0  0  0  0
   -0.8846    3.2152   -0.3147 H   0  0  0  0  0  0  0  0  0  0  0  0
    0.7249    3.2153   -0.5945 H   0  0  0  0  0  0  0  0  0  0  0  0
    0.1710    3.3455    0.9862 H   0  0  0  0  0  0  0  0  0  0  0  0
   -0.0007    1.4042   -0.0003 C   0  0  0  0  0  0  0  0  0  0  0  0
   -1.1969    0.6959    0.0012 C   0  0  0  0  0  0  0  0  0  0  0  0
   -2.0640    1.1849    0.0017 H   0  0  0  0  0  0  0  0  0  0  0  0
   -1.2037   -0.6982    0.0000 C   0  0  0  0  0  0  0  0  0  0  0  0
   -2.0797   -1.1899    0.0008 H   0  0  0  0  0  0  0  0  0  0  0  0
   -0.0003   -1.3970    0.0001 C   0  0  0  0  0  0  0  0  0  0  0  0
   -0.0053   -2.3945   -0.0001 H   0  0  0  0  0  0  0  0  0  0  0  0
    1.2037   -0.6998   -0.0000 C   0  0  0  0  0  0  0  0  0  0  0  0
    2.0840   -1.1962    0.0018 H   0  0  0  0  0  0  0  0  0  0  0  0
    1.1979    0.6949   -0.0011 C   0  0  0  0  0  0  0  0  0  0  0  0
    2.0655    1.1913   -0.0031 H   0  0  0  0  0  0  0  0  0  0  0  0
  1  5  1  0
  5  6  1  0
  5  7  2  0
  1  2  1  0
  1  3  1  0
  1  4  1  0
  8 12  1  0
 12 13  2  0
 13 15  1  0
 15 17  2  0
 17 19  1  0
 19 21  2  0
 21 12  1  0
  8  9  1  0
  8 10  1  0
  8 11  1  0
 13 14  1  0
 15 16  1  0
 17 18  1  0
 19 20  1  0
 21 22  1  0
M  CHG  1   6  -1
M  END
>  <PDB_ID>  (1591) 
pdb3llt

>  <RESIDUE_NAME>  (1591) 
ASP   PHE

>  <FRAG_NAME>  (1591) 
ACET   MBZ

>  <FRAG_ATOM_NUM>  (1591) 
fragi: 7  fragj: 15

>  <atom.prop.CHAIN_ID>  (1591) 
A A A A A A A Z Z Z Z Z Z Z Z Z Z Z Z Z Z Z

>  <atom.prop.IS_HEAVY_ATOM>  (1591) 
1 0 0 0 1 1 1 1 0 0 0 1 1 0 1 0 1 0 1 0 1 0

>  <DIFUSE_FUNC_ATOM>  (1591) 
atom 6   atom 7   

>  <FINAL_SINGLE_POINT_ENERGY>  (1591) 
0

>  <NONCOV_INTER_ENERGY_QM>  (1591) 
0

>  <FF_Energy>  (1591) 
-2.04

>  <QM_Energy>  (1591) 
-7.98

>  <source>  (1591) 
ACET_MBZ_01

>  <Index>  (1591) 
28696

$$$$
ACET-pdb4il2-A-GLU-288:MBZ-pdb4il2-A-PHE-314
     RDKit          3D

 22 21  0  0  0  0  0  0  0  0999 V2000
    0.2367   -4.5646    0.9058 C   0  0  0  0  0  0  0  0  0  0  0  0
   -0.2777   -4.9797    1.6414 H   0  0  0  0  0  0  0  0  0  0  0  0
    0.3128   -3.5865    1.0282 H   0  0  0  0  0  0  0  0  0  0  0  0
    1.2387   -4.9936    0.8982 H   0  0  0  0  0  0  0  0  0  0  0  0
   -0.5476   -4.7970   -0.3784 C   0  0  0  0  0  0  0  0  0  0  0  0
   -0.0352   -5.4916   -1.3024 O   0  0  0  0  0  1  0  0  0  0  0  0
   -1.7009   -4.2882   -0.4453 O   0  0  0  0  0  0  0  0  0  0  0  0
    0.0075    2.9013    0.0170 C   0  0  0  0  0  0  0  0  0  0  0  0
   -0.7321    3.2167   -0.5525 H   0  0  0  0  0  0  0  0  0  0  0  0
    0.8835    3.2091   -0.3138 H   0  0  0  0  0  0  0  0  0  0  0  0
   -0.1371    3.3225    1.0118 H   0  0  0  0  0  0  0  0  0  0  0  0
    0.0027    1.3934   -0.0012 C   0  0  0  0  0  0  0  0  0  0  0  0
   -1.1897    0.6850   -0.0022 C   0  0  0  0  0  0  0  0  0  0  0  0
   -2.0577    1.1731   -0.0059 H   0  0  0  0  0  0  0  0  0  0  0  0
   -1.1870   -0.6994   -0.0000 C   0  0  0  0  0  0  0  0  0  0  0  0
   -2.0653   -1.1949    0.0003 H   0  0  0  0  0  0  0  0  0  0  0  0
    0.0030   -1.3749    0.0036 C   0  0  0  0  0  0  0  0  0  0  0  0
    0.0025   -2.3845    0.0085 H   0  0  0  0  0  0  0  0  0  0  0  0
    1.1870   -0.6912    0.0000 C   0  0  0  0  0  0  0  0  0  0  0  0
    2.0740   -1.1892   -0.0011 H   0  0  0  0  0  0  0  0  0  0  0  0
    1.1840    0.6872   -0.0002 C   0  0  0  0  0  0  0  0  0  0  0  0
    2.0586    1.1832   -0.0004 H   0  0  0  0  0  0  0  0  0  0  0  0
  1  5  1  0
  5  6  1  0
  5  7  2  0
  1  2  1  0
  1  3  1  0
  1  4  1  0
  8 12  1  0
 12 13  2  0
 13 15  1  0
 15 17  2  0
 17 19  1  0
 19 21  2  0
 21 12  1  0
  8  9  1  0
  8 10  1  0
  8 11  1  0
 13 14  1  0
 15 16  1  0
 17 18  1  0
 19 20  1  0
 21 22  1  0
M  CHG  1   6  -1
M  END
>  <PDB_ID>  (1592) 
pdb4il2

>  <RESIDUE_NAME>  (1592) 
GLU   PHE

>  <FRAG_NAME>  (1592) 
ACET   MBZ

>  <FRAG_ATOM_NUM>  (1592) 
fragi: 7  fragj: 15

>  <atom.prop.CHAIN_ID>  (1592) 
A A A A A A A Z Z Z Z Z Z Z Z Z Z Z Z Z Z Z

>  <atom.prop.IS_HEAVY_ATOM>  (1592) 
1 0 0 0 1 1 1 1 0 0 0 1 1 0 1 0 1 0 1 0 1 0

>  <DIFUSE_FUNC_ATOM>  (1592) 
atom 6   atom 7   

>  <FINAL_SINGLE_POINT_ENERGY>  (1592) 
0

>  <NONCOV_INTER_ENERGY_QM>  (1592) 
0

>  <FF_Energy>  (1592) 
14.85

>  <QM_Energy>  (1592) 
-1.15

>  <source>  (1592) 
ACET_MBZ_01

>  <Index>  (1592) 
28701

$$$$
ACET-pdb4il2-C-GLU-288:MBZ-pdb4il2-C-PHE-314
     RDKit          3D

 22 21  0  0  0  0  0  0  0  0999 V2000
    0.7674   -4.4148    0.6474 C   0  0  0  0  0  0  0  0  0  0  0  0
    0.2183   -4.0516    1.3825 H   0  0  0  0  0  0  0  0  0  0  0  0
    1.1840   -3.6951    0.1147 H   0  0  0  0  0  0  0  0  0  0  0  0
    1.5535   -5.0388    1.0725 H   0  0  0  0  0  0  0  0  0  0  0  0
   -0.1397   -5.1810   -0.2600 C   0  0  0  0  0  0  0  0  0  0  0  0
    0.3344   -6.1574   -0.8833 O   0  0  0  0  0  1  0  0  0  0  0  0
   -1.3370   -4.7916   -0.3320 O   0  0  0  0  0  0  0  0  0  0  0  0
    0.0078    2.9110   -0.0047 C   0  0  0  0  0  0  0  0  0  0  0  0
   -0.7203    3.2086   -0.6042 H   0  0  0  0  0  0  0  0  0  0  0  0
    0.8911    3.2035   -0.3399 H   0  0  0  0  0  0  0  0  0  0  0  0
   -0.1509    3.3651    0.9734 H   0  0  0  0  0  0  0  0  0  0  0  0
    0.0010    1.3931    0.0067 C   0  0  0  0  0  0  0  0  0  0  0  0
   -1.1907    0.6896   -0.0021 C   0  0  0  0  0  0  0  0  0  0  0  0
   -2.0580    1.1824   -0.0110 H   0  0  0  0  0  0  0  0  0  0  0  0
   -1.1920   -0.6892   -0.0000 C   0  0  0  0  0  0  0  0  0  0  0  0
   -2.0716   -1.1861    0.0045 H   0  0  0  0  0  0  0  0  0  0  0  0
   -0.0021   -1.3738   -0.0023 C   0  0  0  0  0  0  0  0  0  0  0  0
   -0.0093   -2.3832   -0.0061 H   0  0  0  0  0  0  0  0  0  0  0  0
    1.1920   -0.6970   -0.0000 C   0  0  0  0  0  0  0  0  0  0  0  0
    2.0725   -1.2021    0.0052 H   0  0  0  0  0  0  0  0  0  0  0  0
    1.1919    0.6773   -0.0022 C   0  0  0  0  0  0  0  0  0  0  0  0
    2.0624    1.1778   -0.0108 H   0  0  0  0  0  0  0  0  0  0  0  0
  1  5  1  0
  5  6  1  0
  5  7  2  0
  1  2  1  0
  1  3  1  0
  1  4  1  0
  8 12  1  0
 12 13  2  0
 13 15  1  0
 15 17  2  0
 17 19  1  0
 19 21  2  0
 21 12  1  0
  8  9  1  0
  8 10  1  0
  8 11  1  0
 13 14  1  0
 15 16  1  0
 17 18  1  0
 19 20  1  0
 21 22  1  0
M  CHG  1   6  -1
M  END
>  <PDB_ID>  (1593) 
pdb4il2

>  <RESIDUE_NAME>  (1593) 
GLU   PHE

>  <FRAG_NAME>  (1593) 
ACET   MBZ

>  <FRAG_ATOM_NUM>  (1593) 
fragi: 7  fragj: 15

>  <atom.prop.CHAIN_ID>  (1593) 
A A A A A A A Z Z Z Z Z Z Z Z Z Z Z Z Z Z Z

>  <atom.prop.IS_HEAVY_ATOM>  (1593) 
1 0 0 0 1 1 1 1 0 0 0 1 1 0 1 0 1 0 1 0 1 0

>  <DIFUSE_FUNC_ATOM>  (1593) 
atom 6   atom 7   

>  <FINAL_SINGLE_POINT_ENERGY>  (1593) 
0

>  <NONCOV_INTER_ENERGY_QM>  (1593) 
0

>  <FF_Energy>  (1593) 
6.89

>  <QM_Energy>  (1593) 
-1.5

>  <source>  (1593) 
ACET_MBZ_01

>  <Index>  (1593) 
28710

$$$$
ACET-pdb4il2-D-GLU-389:MBZ-pdb4il2-D-PHE-20
     RDKit          3D

 22 21  0  0  0  0  0  0  0  0999 V2000
   -2.7554   -1.2866    3.1136 C   0  0  0  0  0  0  0  0  0  0  0  0
   -3.6889   -1.4003    3.3987 H   0  0  0  0  0  0  0  0  0  0  0  0
   -2.6286   -0.4794    2.5673 H   0  0  0  0  0  0  0  0  0  0  0  0
   -2.1329   -1.2002    4.0042 H   0  0  0  0  0  0  0  0  0  0  0  0
   -2.3944   -2.4871    2.2445 C   0  0  0  0  0  0  0  0  0  0  0  0
   -1.4005   -3.2048    2.5659 O   0  0  0  0  0  1  0  0  0  0  0  0
   -3.0954   -2.6985    1.2205 O   0  0  0  0  0  0  0  0  0  0  0  0
   -0.0075    2.8910   -0.0022 C   0  0  0  0  0  0  0  0  0  0  0  0
    0.8755    3.2066    0.3128 H   0  0  0  0  0  0  0  0  0  0  0  0
   -0.7321    3.1963    0.5980 H   0  0  0  0  0  0  0  0  0  0  0  0
   -0.1847    3.3340   -0.9823 H   0  0  0  0  0  0  0  0  0  0  0  0
    0.0021    1.3949   -0.0039 C   0  0  0  0  0  0  0  0  0  0  0  0
   -1.1908    0.6932    0.0109 C   0  0  0  0  0  0  0  0  0  0  0  0
   -2.0567    1.1928    0.0290 H   0  0  0  0  0  0  0  0  0  0  0  0
   -1.1996   -0.6789    0.0000 C   0  0  0  0  0  0  0  0  0  0  0  0
   -2.0834   -1.1759   -0.0063 H   0  0  0  0  0  0  0  0  0  0  0  0
   -0.0104   -1.3892   -0.0004 C   0  0  0  0  0  0  0  0  0  0  0  0
   -0.0251   -2.3875   -0.0016 H   0  0  0  0  0  0  0  0  0  0  0  0
    1.1996   -0.7071    0.0000 C   0  0  0  0  0  0  0  0  0  0  0  0
    2.0736   -1.2083    0.0061 H   0  0  0  0  0  0  0  0  0  0  0  0
    1.1990    0.6870   -0.0066 C   0  0  0  0  0  0  0  0  0  0  0  0
    2.0671    1.1801   -0.0137 H   0  0  0  0  0  0  0  0  0  0  0  0
  1  5  1  0
  5  6  1  0
  5  7  2  0
  1  2  1  0
  1  3  1  0
  1  4  1  0
  8 12  1  0
 12 13  2  0
 13 15  1  0
 15 17  2  0
 17 19  1  0
 19 21  2  0
 21 12  1  0
  8  9  1  0
  8 10  1  0
  8 11  1  0
 13 14  1  0
 15 16  1  0
 17 18  1  0
 19 20  1  0
 21 22  1  0
M  CHG  1   6  -1
M  END
>  <PDB_ID>  (1594) 
pdb4il2

>  <RESIDUE_NAME>  (1594) 
GLU   PHE

>  <FRAG_NAME>  (1594) 
ACET   MBZ

>  <FRAG_ATOM_NUM>  (1594) 
fragi: 7  fragj: 15

>  <atom.prop.CHAIN_ID>  (1594) 
A A A A A A A Z Z Z Z Z Z Z Z Z Z Z Z Z Z Z

>  <atom.prop.IS_HEAVY_ATOM>  (1594) 
1 0 0 0 1 1 1 1 0 0 0 1 1 0 1 0 1 0 1 0 1 0

>  <DIFUSE_FUNC_ATOM>  (1594) 
atom 6   atom 7   

>  <FINAL_SINGLE_POINT_ENERGY>  (1594) 
0

>  <NONCOV_INTER_ENERGY_QM>  (1594) 
0

>  <FF_Energy>  (1594) 
0.75

>  <QM_Energy>  (1594) 
-5.45

>  <source>  (1594) 
ACET_MBZ_01

>  <Index>  (1594) 
28715

$$$$
ACET-pdb4il2-D-GLU-288:MBZ-pdb4il2-D-PHE-314
     RDKit          3D

 22 21  0  0  0  0  0  0  0  0999 V2000
    0.8496   -4.4598    1.0115 C   0  0  0  0  0  0  0  0  0  0  0  0
    0.0996   -4.6033    1.6270 H   0  0  0  0  0  0  0  0  0  0  0  0
    1.0262   -3.5101    0.8447 H   0  0  0  0  0  0  0  0  0  0  0  0
    1.7438   -4.9146    1.4374 H   0  0  0  0  0  0  0  0  0  0  0  0
    0.4863   -5.0933   -0.3056 C   0  0  0  0  0  0  0  0  0  0  0  0
    1.3999   -5.5907   -0.9844 O   0  0  0  0  0  1  0  0  0  0  0  0
   -0.7147   -5.1069   -0.6486 O   0  0  0  0  0  0  0  0  0  0  0  0
   -0.0123    2.8944    0.0027 C   0  0  0  0  0  0  0  0  0  0  0  0
   -0.6192    3.2021   -0.7126 H   0  0  0  0  0  0  0  0  0  0  0  0
    0.9112    3.2107   -0.1451 H   0  0  0  0  0  0  0  0  0  0  0  0
   -0.3637    3.3187    0.9432 H   0  0  0  0  0  0  0  0  0  0  0  0
   -0.0004    1.3966   -0.0064 C   0  0  0  0  0  0  0  0  0  0  0  0
   -1.1930    0.6850    0.0017 C   0  0  0  0  0  0  0  0  0  0  0  0
   -2.0617    1.1789    0.0077 H   0  0  0  0  0  0  0  0  0  0  0  0
   -1.1987   -0.6957   -0.0000 C   0  0  0  0  0  0  0  0  0  0  0  0
   -2.0745   -1.1924   -0.0034 H   0  0  0  0  0  0  0  0  0  0  0  0
    0.0007   -1.3866    0.0048 C   0  0  0  0  0  0  0  0  0  0  0  0
   -0.0036   -2.3885    0.0108 H   0  0  0  0  0  0  0  0  0  0  0  0
    1.1987   -0.6953    0.0000 C   0  0  0  0  0  0  0  0  0  0  0  0
    2.0806   -1.1904   -0.0017 H   0  0  0  0  0  0  0  0  0  0  0  0
    1.1927    0.6960   -0.0000 C   0  0  0  0  0  0  0  0  0  0  0  0
    2.0615    1.1916    0.0038 H   0  0  0  0  0  0  0  0  0  0  0  0
  1  5  1  0
  5  6  1  0
  5  7  2  0
  1  2  1  0
  1  3  1  0
  1  4  1  0
  8 12  1  0
 12 13  2  0
 13 15  1  0
 15 17  2  0
 17 19  1  0
 19 21  2  0
 21 12  1  0
  8  9  1  0
  8 10  1  0
  8 11  1  0
 13 14  1  0
 15 16  1  0
 17 18  1  0
 19 20  1  0
 21 22  1  0
M  CHG  1   6  -1
M  END
>  <PDB_ID>  (1595) 
pdb4il2

>  <RESIDUE_NAME>  (1595) 
GLU   PHE

>  <FRAG_NAME>  (1595) 
ACET   MBZ

>  <FRAG_ATOM_NUM>  (1595) 
fragi: 7  fragj: 15

>  <atom.prop.CHAIN_ID>  (1595) 
A A A A A A A Z Z Z Z Z Z Z Z Z Z Z Z Z Z Z

>  <atom.prop.IS_HEAVY_ATOM>  (1595) 
1 0 0 0 1 1 1 1 0 0 0 1 1 0 1 0 1 0 1 0 1 0

>  <DIFUSE_FUNC_ATOM>  (1595) 
atom 6   atom 7   

>  <FINAL_SINGLE_POINT_ENERGY>  (1595) 
0

>  <NONCOV_INTER_ENERGY_QM>  (1595) 
0

>  <FF_Energy>  (1595) 
5.0

>  <QM_Energy>  (1595) 
-1.43

>  <source>  (1595) 
ACET_MBZ_01

>  <Index>  (1595) 
28718

$$$$
ACET-pdb4imh-B-ASP-241:MBZ-pdb4imh-B-PHE-351
     RDKit          3D

 22 21  0  0  0  0  0  0  0  0999 V2000
    2.7558    1.5738   -3.5200 C   0  0  0  0  0  0  0  0  0  0  0  0
    2.7838    2.3114   -4.1502 H   0  0  0  0  0  0  0  0  0  0  0  0
    1.8400    1.4056   -3.2478 H   0  0  0  0  0  0  0  0  0  0  0  0
    3.1525    0.6803   -4.0020 H   0  0  0  0  0  0  0  0  0  0  0  0
    3.5533    1.9857   -2.2737 C   0  0  0  0  0  0  0  0  0  0  0  0
    4.5573    1.3197   -1.9540 O   0  0  0  0  0  1  0  0  0  0  0  0
    3.1799    2.9843   -1.6206 O   0  0  0  0  0  0  0  0  0  0  0  0
    0.0047    2.9036   -0.0071 C   0  0  0  0  0  0  0  0  0  0  0  0
   -0.7457    3.2084   -0.5420 H   0  0  0  0  0  0  0  0  0  0  0  0
    0.8374    3.1995   -0.4069 H   0  0  0  0  0  0  0  0  0  0  0  0
   -0.0782    3.3268    0.9940 H   0  0  0  0  0  0  0  0  0  0  0  0
   -0.0041    1.4029   -0.0096 C   0  0  0  0  0  0  0  0  0  0  0  0
   -1.1975    0.6988    0.0176 C   0  0  0  0  0  0  0  0  0  0  0  0
   -2.0043    1.1611    0.0121 H   0  0  0  0  0  0  0  0  0  0  0  0
   -1.2014   -0.6984   -0.0000 C   0  0  0  0  0  0  0  0  0  0  0  0
   -2.0078   -1.1613    0.0180 H   0  0  0  0  0  0  0  0  0  0  0  0
    0.0051   -1.3950    0.0060 C   0  0  0  0  0  0  0  0  0  0  0  0
    0.0063   -2.3249    0.0056 H   0  0  0  0  0  0  0  0  0  0  0  0
    1.2014   -0.6976    0.0000 C   0  0  0  0  0  0  0  0  0  0  0  0
    2.0095   -1.1593   -0.0108 H   0  0  0  0  0  0  0  0  0  0  0  0
    1.1965    0.6892   -0.0141 C   0  0  0  0  0  0  0  0  0  0  0  0
    2.0033    1.1510   -0.0182 H   0  0  0  0  0  0  0  0  0  0  0  0
  1  5  1  0
  5  6  1  0
  5  7  2  0
  1  2  1  0
  1  3  1  0
  1  4  1  0
  8 12  1  0
 12 13  2  0
 13 15  1  0
 15 17  2  0
 17 19  1  0
 19 21  2  0
 21 12  1  0
  8  9  1  0
  8 10  1  0
  8 11  1  0
 13 14  1  0
 15 16  1  0
 17 18  1  0
 19 20  1  0
 21 22  1  0
M  CHG  1   6  -1
M  END
>  <PDB_ID>  (1596) 
pdb4imh

>  <RESIDUE_NAME>  (1596) 
ASP   PHE

>  <FRAG_NAME>  (1596) 
ACET   MBZ

>  <FRAG_ATOM_NUM>  (1596) 
fragi: 7  fragj: 15

>  <atom.prop.CHAIN_ID>  (1596) 
A A A A A A A Z Z Z Z Z Z Z Z Z Z Z Z Z Z Z

>  <atom.prop.IS_HEAVY_ATOM>  (1596) 
1 0 0 0 1 1 1 1 0 0 0 1 1 0 1 0 1 0 1 0 1 0

>  <DIFUSE_FUNC_ATOM>  (1596) 
atom 6   atom 7   

>  <FINAL_SINGLE_POINT_ENERGY>  (1596) 
0

>  <NONCOV_INTER_ENERGY_QM>  (1596) 
0

>  <FF_Energy>  (1596) 
-2.74

>  <QM_Energy>  (1596) 
-7.8

>  <source>  (1596) 
ACET_MBZ_01

>  <Index>  (1596) 
28801

$$$$
ACET-pdb4ina-B-GLU-110:MBZ-pdb4ina-B-PHE-117
     RDKit          3D

 22 21  0  0  0  0  0  0  0  0999 V2000
    3.2499    4.9534   -1.5995 C   0  0  0  0  0  0  0  0  0  0  0  0
    3.5672    4.3831   -2.3348 H   0  0  0  0  0  0  0  0  0  0  0  0
    3.8817    5.6786   -1.3919 H   0  0  0  0  0  0  0  0  0  0  0  0
    2.3006    5.3989   -1.8972 H   0  0  0  0  0  0  0  0  0  0  0  0
    3.1298    4.0837   -0.3645 C   0  0  0  0  0  0  0  0  0  0  0  0
    2.7424    4.6069    0.7029 O   0  0  0  0  0  1  0  0  0  0  0  0
    3.4189    2.8709   -0.4676 O   0  0  0  0  0  0  0  0  0  0  0  0
    0.0057    2.9092    0.0058 C   0  0  0  0  0  0  0  0  0  0  0  0
   -0.8235    3.2209   -0.4332 H   0  0  0  0  0  0  0  0  0  0  0  0
    0.8084    3.2149   -0.4842 H   0  0  0  0  0  0  0  0  0  0  0  0
    0.0383    3.3479    1.0030 H   0  0  0  0  0  0  0  0  0  0  0  0
    0.0005    1.4062   -0.0001 C   0  0  0  0  0  0  0  0  0  0  0  0
   -1.1984    0.6958    0.0000 C   0  0  0  0  0  0  0  0  0  0  0  0
   -2.0646    1.1839   -0.0012 H   0  0  0  0  0  0  0  0  0  0  0  0
   -1.2044   -0.7014    0.0000 C   0  0  0  0  0  0  0  0  0  0  0  0
   -2.0792   -1.1929    0.0012 H   0  0  0  0  0  0  0  0  0  0  0  0
    0.0008   -1.3992    0.0007 C   0  0  0  0  0  0  0  0  0  0  0  0
   -0.0021   -2.3958    0.0012 H   0  0  0  0  0  0  0  0  0  0  0  0
    1.2044   -0.6985   -0.0000 C   0  0  0  0  0  0  0  0  0  0  0  0
    2.0849   -1.1942    0.0011 H   0  0  0  0  0  0  0  0  0  0  0  0
    1.1970    0.6969   -0.0007 C   0  0  0  0  0  0  0  0  0  0  0  0
    2.0661    1.1919   -0.0025 H   0  0  0  0  0  0  0  0  0  0  0  0
  1  5  1  0
  5  6  1  0
  5  7  2  0
  1  2  1  0
  1  3  1  0
  1  4  1  0
  8 12  1  0
 12 13  2  0
 13 15  1  0
 15 17  2  0
 17 19  1  0
 19 21  2  0
 21 12  1  0
  8  9  1  0
  8 10  1  0
  8 11  1  0
 13 14  1  0
 15 16  1  0
 17 18  1  0
 19 20  1  0
 21 22  1  0
M  CHG  1   6  -1
M  END
>  <PDB_ID>  (1597) 
pdb4ina

>  <RESIDUE_NAME>  (1597) 
GLU   PHE

>  <FRAG_NAME>  (1597) 
ACET   MBZ

>  <FRAG_ATOM_NUM>  (1597) 
fragi: 7  fragj: 15

>  <atom.prop.CHAIN_ID>  (1597) 
A A A A A A A Z Z Z Z Z Z Z Z Z Z Z Z Z Z Z

>  <atom.prop.IS_HEAVY_ATOM>  (1597) 
1 0 0 0 1 1 1 1 0 0 0 1 1 0 1 0 1 0 1 0 1 0

>  <DIFUSE_FUNC_ATOM>  (1597) 
atom 6   atom 7   

>  <FINAL_SINGLE_POINT_ENERGY>  (1597) 
0

>  <NONCOV_INTER_ENERGY_QM>  (1597) 
0

>  <FF_Energy>  (1597) 
0.24

>  <QM_Energy>  (1597) 
-8.56

>  <source>  (1597) 
ACET_MBZ_01

>  <Index>  (1597) 
28834

$$$$
ACET-pdb4ine-A-GLU-404:MBZ-pdb4ine-A-PHE-400
     RDKit          3D

 22 21  0  0  0  0  0  0  0  0999 V2000
   -4.1052    3.9448    2.3918 C   0  0  0  0  0  0  0  0  0  0  0  0
   -4.6150    3.3629    3.0042 H   0  0  0  0  0  0  0  0  0  0  0  0
   -4.5240    4.8333    2.3009 H   0  0  0  0  0  0  0  0  0  0  0  0
   -3.1064    4.0807    2.8064 H   0  0  0  0  0  0  0  0  0  0  0  0
   -4.1191    3.2900    1.0209 C   0  0  0  0  0  0  0  0  0  0  0  0
   -3.2055    3.5600    0.2071 O   0  0  0  0  0  1  0  0  0  0  0  0
   -5.0731    2.5203    0.7527 O   0  0  0  0  0  0  0  0  0  0  0  0
    0.0082    2.9142    0.0070 C   0  0  0  0  0  0  0  0  0  0  0  0
    0.8476    3.2137    0.4316 H   0  0  0  0  0  0  0  0  0  0  0  0
   -0.7835    3.2190    0.5113 H   0  0  0  0  0  0  0  0  0  0  0  0
   -0.0394    3.3611   -0.9860 H   0  0  0  0  0  0  0  0  0  0  0  0
    0.0029    1.4030   -0.0002 C   0  0  0  0  0  0  0  0  0  0  0  0
   -1.1948    0.7014    0.0028 C   0  0  0  0  0  0  0  0  0  0  0  0
   -2.0599    1.1910    0.0053 H   0  0  0  0  0  0  0  0  0  0  0  0
   -1.1997   -0.6912   -0.0000 C   0  0  0  0  0  0  0  0  0  0  0  0
   -2.0803   -1.1819    0.0051 H   0  0  0  0  0  0  0  0  0  0  0  0
   -0.0040   -1.3921   -0.0073 C   0  0  0  0  0  0  0  0  0  0  0  0
   -0.0153   -2.3930   -0.0188 H   0  0  0  0  0  0  0  0  0  0  0  0
    1.1997   -0.7076    0.0000 C   0  0  0  0  0  0  0  0  0  0  0  0
    2.0776   -1.2047    0.0030 H   0  0  0  0  0  0  0  0  0  0  0  0
    1.1959    0.6865    0.0048 C   0  0  0  0  0  0  0  0  0  0  0  0
    2.0676    1.1800    0.0112 H   0  0  0  0  0  0  0  0  0  0  0  0
  1  5  1  0
  5  6  1  0
  5  7  2  0
  1  2  1  0
  1  3  1  0
  1  4  1  0
  8 12  1  0
 12 13  2  0
 13 15  1  0
 15 17  2  0
 17 19  1  0
 19 21  2  0
 21 12  1  0
  8  9  1  0
  8 10  1  0
  8 11  1  0
 13 14  1  0
 15 16  1  0
 17 18  1  0
 19 20  1  0
 21 22  1  0
M  CHG  1   6  -1
M  END
>  <PDB_ID>  (1598) 
pdb4ine

>  <RESIDUE_NAME>  (1598) 
GLU   PHE

>  <FRAG_NAME>  (1598) 
ACET   MBZ

>  <FRAG_ATOM_NUM>  (1598) 
fragi: 7  fragj: 15

>  <atom.prop.CHAIN_ID>  (1598) 
A A A A A A A Z Z Z Z Z Z Z Z Z Z Z Z Z Z Z

>  <atom.prop.IS_HEAVY_ATOM>  (1598) 
1 0 0 0 1 1 1 1 0 0 0 1 1 0 1 0 1 0 1 0 1 0

>  <DIFUSE_FUNC_ATOM>  (1598) 
atom 6   atom 7   

>  <FINAL_SINGLE_POINT_ENERGY>  (1598) 
0

>  <NONCOV_INTER_ENERGY_QM>  (1598) 
0

>  <FF_Energy>  (1598) 
-2.42

>  <QM_Energy>  (1598) 
-8.1

>  <source>  (1598) 
ACET_MBZ_01

>  <Index>  (1598) 
28843

$$$$
ACET-pdb4ine-B-GLU-404:MBZ-pdb4ine-B-PHE-400
     RDKit          3D

 22 21  0  0  0  0  0  0  0  0999 V2000
   -4.2059    3.8139    2.3690 C   0  0  0  0  0  0  0  0  0  0  0  0
   -4.6639    3.2054    2.9954 H   0  0  0  0  0  0  0  0  0  0  0  0
   -4.6591    4.6885    2.3115 H   0  0  0  0  0  0  0  0  0  0  0  0
   -3.1940    3.9800    2.7387 H   0  0  0  0  0  0  0  0  0  0  0  0
   -4.2492    3.1819    0.9970 C   0  0  0  0  0  0  0  0  0  0  0  0
   -3.3106    3.4105    0.2000 O   0  0  0  0  0  1  0  0  0  0  0  0
   -5.2419    2.4642    0.7229 O   0  0  0  0  0  0  0  0  0  0  0  0
   -0.0022    2.8976    0.0003 C   0  0  0  0  0  0  0  0  0  0  0  0
    0.8526    3.2082    0.3845 H   0  0  0  0  0  0  0  0  0  0  0  0
   -0.7740    3.2061    0.5340 H   0  0  0  0  0  0  0  0  0  0  0  0
   -0.0943    3.3302   -0.9959 H   0  0  0  0  0  0  0  0  0  0  0  0
    0.0000    1.3972    0.0049 C   0  0  0  0  0  0  0  0  0  0  0  0
   -1.1946    0.6923   -0.0011 C   0  0  0  0  0  0  0  0  0  0  0  0
   -2.0614    1.1835   -0.0080 H   0  0  0  0  0  0  0  0  0  0  0  0
   -1.1988   -0.6944    0.0000 C   0  0  0  0  0  0  0  0  0  0  0  0
   -2.0770   -1.1882    0.0052 H   0  0  0  0  0  0  0  0  0  0  0  0
   -0.0017   -1.3872   -0.0040 C   0  0  0  0  0  0  0  0  0  0  0  0
   -0.0065   -2.3889   -0.0101 H   0  0  0  0  0  0  0  0  0  0  0  0
    1.1988   -0.6967   -0.0000 C   0  0  0  0  0  0  0  0  0  0  0  0
    2.0787   -1.1978    0.0045 H   0  0  0  0  0  0  0  0  0  0  0  0
    1.1963    0.6888    0.0002 C   0  0  0  0  0  0  0  0  0  0  0  0
    2.0640    1.1870   -0.0037 H   0  0  0  0  0  0  0  0  0  0  0  0
  1  5  1  0
  5  6  1  0
  5  7  2  0
  1  2  1  0
  1  3  1  0
  1  4  1  0
  8 12  1  0
 12 13  2  0
 13 15  1  0
 15 17  2  0
 17 19  1  0
 19 21  2  0
 21 12  1  0
  8  9  1  0
  8 10  1  0
  8 11  1  0
 13 14  1  0
 15 16  1  0
 17 18  1  0
 19 20  1  0
 21 22  1  0
M  CHG  1   6  -1
M  END
>  <PDB_ID>  (1599) 
pdb4ine

>  <RESIDUE_NAME>  (1599) 
GLU   PHE

>  <FRAG_NAME>  (1599) 
ACET   MBZ

>  <FRAG_ATOM_NUM>  (1599) 
fragi: 7  fragj: 15

>  <atom.prop.CHAIN_ID>  (1599) 
A A A A A A A Z Z Z Z Z Z Z Z Z Z Z Z Z Z Z

>  <atom.prop.IS_HEAVY_ATOM>  (1599) 
1 0 0 0 1 1 1 1 0 0 0 1 1 0 1 0 1 0 1 0 1 0

>  <DIFUSE_FUNC_ATOM>  (1599) 
atom 6   atom 7   

>  <FINAL_SINGLE_POINT_ENERGY>  (1599) 
0

>  <NONCOV_INTER_ENERGY_QM>  (1599) 
0

>  <FF_Energy>  (1599) 
-2.51

>  <QM_Energy>  (1599) 
-7.96

>  <source>  (1599) 
ACET_MBZ_01

>  <Index>  (1599) 
28844

$$$$
ACET-pdb4inz-B-ASP-239:MBZ-pdb4inz-B-PHE-242
     RDKit          3D

 22 21  0  0  0  0  0  0  0  0999 V2000
    4.1320    5.4021   -0.9086 C   0  0  0  0  0  0  0  0  0  0  0  0
    4.6471    5.6173   -0.0838 H   0  0  0  0  0  0  0  0  0  0  0  0
    3.2210    5.8009   -0.8565 H   0  0  0  0  0  0  0  0  0  0  0  0
    4.6493    5.8554   -1.7542 H   0  0  0  0  0  0  0  0  0  0  0  0
    4.0036    3.9033   -1.0271 C   0  0  0  0  0  0  0  0  0  0  0  0
    4.4155    3.3271   -2.0585 O   0  0  0  0  0  1  0  0  0  0  0  0
    3.4771    3.3056   -0.0726 O   0  0  0  0  0  0  0  0  0  0  0  0
   -0.0024    2.9009   -0.0296 C   0  0  0  0  0  0  0  0  0  0  0  0
    0.8712    3.2167    0.2977 H   0  0  0  0  0  0  0  0  0  0  0  0
   -0.7433    3.2174    0.5368 H   0  0  0  0  0  0  0  0  0  0  0  0
   -0.1502    3.3096   -1.0292 H   0  0  0  0  0  0  0  0  0  0  0  0
    0.0008    1.3976    0.0003 C   0  0  0  0  0  0  0  0  0  0  0  0
   -1.1930    0.6878   -0.0034 C   0  0  0  0  0  0  0  0  0  0  0  0
   -2.0609    1.1799   -0.0102 H   0  0  0  0  0  0  0  0  0  0  0  0
   -1.1957   -0.6955   -0.0000 C   0  0  0  0  0  0  0  0  0  0  0  0
   -2.0744   -1.1915    0.0010 H   0  0  0  0  0  0  0  0  0  0  0  0
   -0.0007   -1.3880    0.0032 C   0  0  0  0  0  0  0  0  0  0  0  0
   -0.0033   -2.3884    0.0077 H   0  0  0  0  0  0  0  0  0  0  0  0
    1.1957   -0.6942    0.0000 C   0  0  0  0  0  0  0  0  0  0  0  0
    2.0789   -1.1931   -0.0009 H   0  0  0  0  0  0  0  0  0  0  0  0
    1.1928    0.6924   -0.0001 C   0  0  0  0  0  0  0  0  0  0  0  0
    2.0625    1.1885   -0.0018 H   0  0  0  0  0  0  0  0  0  0  0  0
  1  5  1  0
  5  6  1  0
  5  7  2  0
  1  2  1  0
  1  3  1  0
  1  4  1  0
  8 12  1  0
 12 13  2  0
 13 15  1  0
 15 17  2  0
 17 19  1  0
 19 21  2  0
 21 12  1  0
  8  9  1  0
  8 10  1  0
  8 11  1  0
 13 14  1  0
 15 16  1  0
 17 18  1  0
 19 20  1  0
 21 22  1  0
M  CHG  1   6  -1
M  END
>  <PDB_ID>  (1600) 
pdb4inz

>  <RESIDUE_NAME>  (1600) 
ASP   PHE

>  <FRAG_NAME>  (1600) 
ACET   MBZ

>  <FRAG_ATOM_NUM>  (1600) 
fragi: 7  fragj: 15

>  <atom.prop.CHAIN_ID>  (1600) 
A A A A A A A Z Z Z Z Z Z Z Z Z Z Z Z Z Z Z

>  <atom.prop.IS_HEAVY_ATOM>  (1600) 
1 0 0 0 1 1 1 1 0 0 0 1 1 0 1 0 1 0 1 0 1 0

>  <DIFUSE_FUNC_ATOM>  (1600) 
atom 6   atom 7   

>  <FINAL_SINGLE_POINT_ENERGY>  (1600) 
0

>  <NONCOV_INTER_ENERGY_QM>  (1600) 
0

>  <FF_Energy>  (1600) 
-2.34

>  <QM_Energy>  (1600) 
-7.78

>  <source>  (1600) 
ACET_MBZ_01

>  <Index>  (1600) 
28872

$$$$
ACET-pdb4ipl-A-ASP-67:MBZ-pdb4ipl-A-PHE-60
     RDKit          3D

 22 21  0  0  0  0  0  0  0  0999 V2000
   -4.9400   -0.4416    1.1628 C   0  0  0  0  0  0  0  0  0  0  0  0
   -4.0772   -0.7577    1.5381 H   0  0  0  0  0  0  0  0  0  0  0  0
   -5.0103   -0.6765    0.2021 H   0  0  0  0  0  0  0  0  0  0  0  0
   -5.7472   -0.9439    1.6959 H   0  0  0  0  0  0  0  0  0  0  0  0
   -5.0001    1.0762    1.2979 C   0  0  0  0  0  0  0  0  0  0  0  0
   -6.0691    1.6242    1.6665 O   0  0  0  0  0  1  0  0  0  0  0  0
   -3.9671    1.7276    1.0275 O   0  0  0  0  0  0  0  0  0  0  0  0
    0.0002    2.8901   -0.0119 C   0  0  0  0  0  0  0  0  0  0  0  0
   -0.7241    3.1943   -0.6151 H   0  0  0  0  0  0  0  0  0  0  0  0
    0.8849    3.1973   -0.3366 H   0  0  0  0  0  0  0  0  0  0  0  0
   -0.1692    3.3512    0.9612 H   0  0  0  0  0  0  0  0  0  0  0  0
    0.0001    1.3942    0.0047 C   0  0  0  0  0  0  0  0  0  0  0  0
   -1.1886    0.6892   -0.0071 C   0  0  0  0  0  0  0  0  0  0  0  0
   -2.0579    1.1802   -0.0223 H   0  0  0  0  0  0  0  0  0  0  0  0
   -1.1946   -0.6940   -0.0000 C   0  0  0  0  0  0  0  0  0  0  0  0
   -2.0753   -1.1864    0.0097 H   0  0  0  0  0  0  0  0  0  0  0  0
   -0.0032   -1.3873   -0.0041 C   0  0  0  0  0  0  0  0  0  0  0  0
   -0.0048   -2.3879   -0.0107 H   0  0  0  0  0  0  0  0  0  0  0  0
    1.1946   -0.6923   -0.0000 C   0  0  0  0  0  0  0  0  0  0  0  0
    2.0767   -1.1929   -0.0002 H   0  0  0  0  0  0  0  0  0  0  0  0
    1.1917    0.6902    0.0065 C   0  0  0  0  0  0  0  0  0  0  0  0
    2.0607    1.1877    0.0121 H   0  0  0  0  0  0  0  0  0  0  0  0
  1  5  1  0
  5  6  1  0
  5  7  2  0
  1  2  1  0
  1  3  1  0
  1  4  1  0
  8 12  1  0
 12 13  2  0
 13 15  1  0
 15 17  2  0
 17 19  1  0
 19 21  2  0
 21 12  1  0
  8  9  1  0
  8 10  1  0
  8 11  1  0
 13 14  1  0
 15 16  1  0
 17 18  1  0
 19 20  1  0
 21 22  1  0
M  CHG  1   6  -1
M  END
>  <PDB_ID>  (1601) 
pdb4ipl

>  <RESIDUE_NAME>  (1601) 
ASP   PHE

>  <FRAG_NAME>  (1601) 
ACET   MBZ

>  <FRAG_ATOM_NUM>  (1601) 
fragi: 7  fragj: 15

>  <atom.prop.CHAIN_ID>  (1601) 
A A A A A A A Z Z Z Z Z Z Z Z Z Z Z Z Z Z Z

>  <atom.prop.IS_HEAVY_ATOM>  (1601) 
1 0 0 0 1 1 1 1 0 0 0 1 1 0 1 0 1 0 1 0 1 0

>  <DIFUSE_FUNC_ATOM>  (1601) 
atom 6   atom 7   

>  <FINAL_SINGLE_POINT_ENERGY>  (1601) 
0

>  <NONCOV_INTER_ENERGY_QM>  (1601) 
0

>  <FF_Energy>  (1601) 
-1.08

>  <QM_Energy>  (1601) 
-6.24

>  <source>  (1601) 
ACET_MBZ_01

>  <Index>  (1601) 
28986

$$$$
ACET-pdb3lov-A-GLU-461:MBZ-pdb3lov-A-PHE-26
     RDKit          3D

 22 21  0  0  0  0  0  0  0  0999 V2000
   -1.0406   -2.9041   -2.1063 C   0  0  0  0  0  0  0  0  0  0  0  0
   -0.8705   -2.0181   -1.6775 H   0  0  0  0  0  0  0  0  0  0  0  0
   -0.3125   -3.5420   -1.8615 H   0  0  0  0  0  0  0  0  0  0  0  0
   -1.9770   -3.2939   -1.7072 H   0  0  0  0  0  0  0  0  0  0  0  0
   -0.9912   -2.7069   -3.5931 C   0  0  0  0  0  0  0  0  0  0  0  0
   -1.9169   -2.9536   -4.3494 O   0  0  0  0  0  1  0  0  0  0  0  0
    0.1180   -2.2711   -3.9733 O   0  0  0  0  0  0  0  0  0  0  0  0
   -0.0151    2.8452    0.0102 C   0  0  0  0  0  0  0  0  0  0  0  0
    0.9199    3.1734   -0.0337 H   0  0  0  0  0  0  0  0  0  0  0  0
   -0.4579    3.1564    0.8420 H   0  0  0  0  0  0  0  0  0  0  0  0
   -0.5553    3.2783   -0.8316 H   0  0  0  0  0  0  0  0  0  0  0  0
   -0.0024    1.3792    0.0020 C   0  0  0  0  0  0  0  0  0  0  0  0
   -1.1883    0.6903    0.0062 C   0  0  0  0  0  0  0  0  0  0  0  0
   -2.0553    1.1875    0.0123 H   0  0  0  0  0  0  0  0  0  0  0  0
   -1.1937   -0.6787    0.0000 C   0  0  0  0  0  0  0  0  0  0  0  0
   -2.0719   -1.1808    0.0053 H   0  0  0  0  0  0  0  0  0  0  0  0
    0.0018   -1.3787   -0.0121 C   0  0  0  0  0  0  0  0  0  0  0  0
   -0.0102   -2.3787   -0.0303 H   0  0  0  0  0  0  0  0  0  0  0  0
    1.1937   -0.6918   -0.0000 C   0  0  0  0  0  0  0  0  0  0  0  0
    2.0767   -1.1951    0.0076 H   0  0  0  0  0  0  0  0  0  0  0  0
    1.1888    0.6797    0.0039 C   0  0  0  0  0  0  0  0  0  0  0  0
    2.0563    1.1842    0.0073 H   0  0  0  0  0  0  0  0  0  0  0  0
  1  5  1  0
  5  6  1  0
  5  7  2  0
  1  2  1  0
  1  3  1  0
  1  4  1  0
  8 12  1  0
 12 13  2  0
 13 15  1  0
 15 17  2  0
 17 19  1  0
 19 21  2  0
 21 12  1  0
  8  9  1  0
  8 10  1  0
  8 11  1  0
 13 14  1  0
 15 16  1  0
 17 18  1  0
 19 20  1  0
 21 22  1  0
M  CHG  1   6  -1
M  END
>  <PDB_ID>  (1602) 
pdb3lov

>  <RESIDUE_NAME>  (1602) 
GLU   PHE

>  <FRAG_NAME>  (1602) 
ACET   MBZ

>  <FRAG_ATOM_NUM>  (1602) 
fragi: 7  fragj: 15

>  <atom.prop.CHAIN_ID>  (1602) 
A A A A A A A Z Z Z Z Z Z Z Z Z Z Z Z Z Z Z

>  <atom.prop.IS_HEAVY_ATOM>  (1602) 
1 0 0 0 1 1 1 1 0 0 0 1 1 0 1 0 1 0 1 0 1 0

>  <DIFUSE_FUNC_ATOM>  (1602) 
atom 6   atom 7   

>  <FINAL_SINGLE_POINT_ENERGY>  (1602) 
0

>  <NONCOV_INTER_ENERGY_QM>  (1602) 
0

>  <FF_Energy>  (1602) 
35.05

>  <QM_Energy>  (1602) 
10.16

>  <source>  (1602) 
ACET_MBZ_01

>  <Index>  (1602) 
28998

$$$$
ACET-pdb3ls2-C-GLU-93:MBZ-pdb3ls2-C-PHE-98
     RDKit          3D

 22 21  0  0  0  0  0  0  0  0999 V2000
    4.5944    2.3495    0.4412 C   0  0  0  0  0  0  0  0  0  0  0  0
    4.1878    1.7179    1.0686 H   0  0  0  0  0  0  0  0  0  0  0  0
    4.3097    3.2740    0.5901 H   0  0  0  0  0  0  0  0  0  0  0  0
    5.6780    2.2958    0.5466 H   0  0  0  0  0  0  0  0  0  0  0  0
    4.1503    1.9559   -0.9562 C   0  0  0  0  0  0  0  0  0  0  0  0
    4.5637    0.8722   -1.4238 O   0  0  0  0  0  1  0  0  0  0  0  0
    3.3944    2.7266   -1.5895 O   0  0  0  0  0  0  0  0  0  0  0  0
   -0.0002    2.9141    0.0383 C   0  0  0  0  0  0  0  0  0  0  0  0
   -0.6025    3.2341   -0.6747 H   0  0  0  0  0  0  0  0  0  0  0  0
    0.9264    3.2219   -0.1009 H   0  0  0  0  0  0  0  0  0  0  0  0
   -0.3519    3.3245    0.9849 H   0  0  0  0  0  0  0  0  0  0  0  0
    0.0015    1.4044    0.0006 C   0  0  0  0  0  0  0  0  0  0  0  0
   -1.1953    0.6957   -0.0003 C   0  0  0  0  0  0  0  0  0  0  0  0
   -2.0618    1.1859   -0.0022 H   0  0  0  0  0  0  0  0  0  0  0  0
   -1.2007   -0.6958    0.0000 C   0  0  0  0  0  0  0  0  0  0  0  0
   -2.0806   -1.1866    0.0012 H   0  0  0  0  0  0  0  0  0  0  0  0
   -0.0041   -1.3937    0.0002 C   0  0  0  0  0  0  0  0  0  0  0  0
   -0.0096   -2.3937   -0.0001 H   0  0  0  0  0  0  0  0  0  0  0  0
    1.2007   -0.7017   -0.0000 C   0  0  0  0  0  0  0  0  0  0  0  0
    2.0796   -1.2010    0.0015 H   0  0  0  0  0  0  0  0  0  0  0  0
    1.1979    0.6911   -0.0005 C   0  0  0  0  0  0  0  0  0  0  0  0
    2.0669    1.1854   -0.0025 H   0  0  0  0  0  0  0  0  0  0  0  0
  1  5  1  0
  5  6  1  0
  5  7  2  0
  1  2  1  0
  1  3  1  0
  1  4  1  0
  8 12  1  0
 12 13  2  0
 13 15  1  0
 15 17  2  0
 17 19  1  0
 19 21  2  0
 21 12  1  0
  8  9  1  0
  8 10  1  0
  8 11  1  0
 13 14  1  0
 15 16  1  0
 17 18  1  0
 19 20  1  0
 21 22  1  0
M  CHG  1   6  -1
M  END
>  <PDB_ID>  (1603) 
pdb3ls2

>  <RESIDUE_NAME>  (1603) 
GLU   PHE

>  <FRAG_NAME>  (1603) 
ACET   MBZ

>  <FRAG_ATOM_NUM>  (1603) 
fragi: 7  fragj: 15

>  <atom.prop.CHAIN_ID>  (1603) 
A A A A A A A Z Z Z Z Z Z Z Z Z Z Z Z Z Z Z

>  <atom.prop.IS_HEAVY_ATOM>  (1603) 
1 0 0 0 1 1 1 1 0 0 0 1 1 0 1 0 1 0 1 0 1 0

>  <DIFUSE_FUNC_ATOM>  (1603) 
atom 6   atom 7   

>  <FINAL_SINGLE_POINT_ENERGY>  (1603) 
0

>  <NONCOV_INTER_ENERGY_QM>  (1603) 
0

>  <FF_Energy>  (1603) 
-0.23

>  <QM_Energy>  (1603) 
-6.23

>  <source>  (1603) 
ACET_MBZ_01

>  <Index>  (1603) 
29194

$$$$
ACET-pdb3ls6-A-GLU-48:MBZ-pdb3ls6-A-PHE-166
     RDKit          3D

 22 21  0  0  0  0  0  0  0  0999 V2000
   -4.9364    2.5057    2.2855 C   0  0  0  0  0  0  0  0  0  0  0  0
   -5.8893    2.6675    2.1552 H   0  0  0  0  0  0  0  0  0  0  0  0
   -4.5229    3.1051    2.9348 H   0  0  0  0  0  0  0  0  0  0  0  0
   -4.8099    1.4816    2.6368 H   0  0  0  0  0  0  0  0  0  0  0  0
   -4.2462    2.6900    0.9722 C   0  0  0  0  0  0  0  0  0  0  0  0
   -4.8159    2.2443   -0.0537 O   0  0  0  0  0  1  0  0  0  0  0  0
   -3.1363    3.2544    0.9531 O   0  0  0  0  0  0  0  0  0  0  0  0
   -0.0104    2.9145    0.0167 C   0  0  0  0  0  0  0  0  0  0  0  0
    0.8920    3.2253    0.2743 H   0  0  0  0  0  0  0  0  0  0  0  0
   -0.6927    3.2137    0.6662 H   0  0  0  0  0  0  0  0  0  0  0  0
   -0.2511    3.3729   -0.9424 H   0  0  0  0  0  0  0  0  0  0  0  0
   -0.0049    1.4143   -0.0054 C   0  0  0  0  0  0  0  0  0  0  0  0
   -1.1969    0.6997    0.0205 C   0  0  0  0  0  0  0  0  0  0  0  0
   -2.0687    1.1773    0.0526 H   0  0  0  0  0  0  0  0  0  0  0  0
   -1.2055   -0.7175   -0.0000 C   0  0  0  0  0  0  0  0  0  0  0  0
   -2.0801   -1.1990    0.0065 H   0  0  0  0  0  0  0  0  0  0  0  0
    0.0028   -1.4106   -0.0265 C   0  0  0  0  0  0  0  0  0  0  0  0
    0.0087   -2.4040   -0.0647 H   0  0  0  0  0  0  0  0  0  0  0  0
    1.2055   -0.6978   -0.0000 C   0  0  0  0  0  0  0  0  0  0  0  0
    2.0902   -1.1861    0.0125 H   0  0  0  0  0  0  0  0  0  0  0  0
    1.1990    0.7118    0.0114 C   0  0  0  0  0  0  0  0  0  0  0  0
    2.0638    1.2027    0.0307 H   0  0  0  0  0  0  0  0  0  0  0  0
  1  5  1  0
  5  6  1  0
  5  7  2  0
  1  2  1  0
  1  3  1  0
  1  4  1  0
  8 12  1  0
 12 13  2  0
 13 15  1  0
 15 17  2  0
 17 19  1  0
 19 21  2  0
 21 12  1  0
  8  9  1  0
  8 10  1  0
  8 11  1  0
 13 14  1  0
 15 16  1  0
 17 18  1  0
 19 20  1  0
 21 22  1  0
M  CHG  1   6  -1
M  END
>  <PDB_ID>  (1604) 
pdb3ls6

>  <RESIDUE_NAME>  (1604) 
GLU   PHE

>  <FRAG_NAME>  (1604) 
ACET   MBZ

>  <FRAG_ATOM_NUM>  (1604) 
fragi: 7  fragj: 15

>  <atom.prop.CHAIN_ID>  (1604) 
A A A A A A A Z Z Z Z Z Z Z Z Z Z Z Z Z Z Z

>  <atom.prop.IS_HEAVY_ATOM>  (1604) 
1 0 0 0 1 1 1 1 0 0 0 1 1 0 1 0 1 0 1 0 1 0

>  <DIFUSE_FUNC_ATOM>  (1604) 
atom 6   atom 7   

>  <FINAL_SINGLE_POINT_ENERGY>  (1604) 
0

>  <NONCOV_INTER_ENERGY_QM>  (1604) 
0

>  <FF_Energy>  (1604) 
-2.19

>  <QM_Energy>  (1604) 
-8.76

>  <source>  (1604) 
ACET_MBZ_01

>  <Index>  (1604) 
29196

$$$$
ACET-pdb3lsq-B-GLU-438:MBZ-pdb3lsq-B-PHE-376
     RDKit          3D

 22 21  0  0  0  0  0  0  0  0999 V2000
    4.0459    2.4293    2.5999 C   0  0  0  0  0  0  0  0  0  0  0  0
    4.9754    2.7061    2.8168 H   0  0  0  0  0  0  0  0  0  0  0  0
    4.0100    1.4528    2.4151 H   0  0  0  0  0  0  0  0  0  0  0  0
    3.4121    2.6428    3.4606 H   0  0  0  0  0  0  0  0  0  0  0  0
    3.6458    3.1404    1.3428 C   0  0  0  0  0  0  0  0  0  0  0  0
    2.7190    3.9759    1.3340 O   0  0  0  0  0  1  0  0  0  0  0  0
    4.3283    2.9122    0.3295 O   0  0  0  0  0  0  0  0  0  0  0  0
    0.0096    2.9208    0.0202 C   0  0  0  0  0  0  0  0  0  0  0  0
   -0.4236    3.2262   -0.8140 H   0  0  0  0  0  0  0  0  0  0  0  0
    0.9518    3.2146    0.0651 H   0  0  0  0  0  0  0  0  0  0  0  0
   -0.5247    3.3594    0.8629 H   0  0  0  0  0  0  0  0  0  0  0  0
    0.0039    1.4030    0.0092 C   0  0  0  0  0  0  0  0  0  0  0  0
   -1.1845    0.6990   -0.0014 C   0  0  0  0  0  0  0  0  0  0  0  0
   -2.0554    1.1867   -0.0115 H   0  0  0  0  0  0  0  0  0  0  0  0
   -1.1975   -0.6975   -0.0000 C   0  0  0  0  0  0  0  0  0  0  0  0
   -2.0827   -1.1782    0.0128 H   0  0  0  0  0  0  0  0  0  0  0  0
   -0.0119   -1.3954   -0.0135 C   0  0  0  0  0  0  0  0  0  0  0  0
   -0.0127   -2.3941   -0.0336 H   0  0  0  0  0  0  0  0  0  0  0  0
    1.1975   -0.7020   -0.0000 C   0  0  0  0  0  0  0  0  0  0  0  0
    2.0736   -1.2005    0.0070 H   0  0  0  0  0  0  0  0  0  0  0  0
    1.1926    0.6930    0.0057 C   0  0  0  0  0  0  0  0  0  0  0  0
    2.0656    1.1843    0.0061 H   0  0  0  0  0  0  0  0  0  0  0  0
  1  5  1  0
  5  6  1  0
  5  7  2  0
  1  2  1  0
  1  3  1  0
  1  4  1  0
  8 12  1  0
 12 13  2  0
 13 15  1  0
 15 17  2  0
 17 19  1  0
 19 21  2  0
 21 12  1  0
  8  9  1  0
  8 10  1  0
  8 11  1  0
 13 14  1  0
 15 16  1  0
 17 18  1  0
 19 20  1  0
 21 22  1  0
M  CHG  1   6  -1
M  END
>  <PDB_ID>  (1605) 
pdb3lsq

>  <RESIDUE_NAME>  (1605) 
GLU   PHE

>  <FRAG_NAME>  (1605) 
ACET   MBZ

>  <FRAG_ATOM_NUM>  (1605) 
fragi: 7  fragj: 15

>  <atom.prop.CHAIN_ID>  (1605) 
A A A A A A A Z Z Z Z Z Z Z Z Z Z Z Z Z Z Z

>  <atom.prop.IS_HEAVY_ATOM>  (1605) 
1 0 0 0 1 1 1 1 0 0 0 1 1 0 1 0 1 0 1 0 1 0

>  <DIFUSE_FUNC_ATOM>  (1605) 
atom 6   atom 7   

>  <FINAL_SINGLE_POINT_ENERGY>  (1605) 
0

>  <NONCOV_INTER_ENERGY_QM>  (1605) 
0

>  <FF_Energy>  (1605) 
-1.89

>  <QM_Energy>  (1605) 
-7.94

>  <source>  (1605) 
ACET_MBZ_01

>  <Index>  (1605) 
29223

$$$$
ACET-pdb4isb-A-ASP-460:MBZ-pdb4isb-A-PHE-463
     RDKit          3D

 22 21  0  0  0  0  0  0  0  0999 V2000
    3.4203    5.5055    0.4436 C   0  0  0  0  0  0  0  0  0  0  0  0
    3.6338    5.5901    1.4063 H   0  0  0  0  0  0  0  0  0  0  0  0
    2.4570    5.6561    0.2770 H   0  0  0  0  0  0  0  0  0  0  0  0
    3.9833    6.2653   -0.0984 H   0  0  0  0  0  0  0  0  0  0  0  0
    3.7859    4.1170   -0.0187 C   0  0  0  0  0  0  0  0  0  0  0  0
    4.8585    3.6316    0.3984 O   0  0  0  0  0  1  0  0  0  0  0  0
    3.0365    3.5272   -0.8325 O   0  0  0  0  0  0  0  0  0  0  0  0
    0.0032    2.9224   -0.0139 C   0  0  0  0  0  0  0  0  0  0  0  0
    0.8546    3.2277    0.3794 H   0  0  0  0  0  0  0  0  0  0  0  0
   -0.7732    3.2325    0.5090 H   0  0  0  0  0  0  0  0  0  0  0  0
   -0.0757    3.3467   -1.0148 H   0  0  0  0  0  0  0  0  0  0  0  0
   -0.0000    1.4134    0.0002 C   0  0  0  0  0  0  0  0  0  0  0  0
   -1.1976    0.7050    0.0001 C   0  0  0  0  0  0  0  0  0  0  0  0
   -2.0649    1.1859   -0.0015 H   0  0  0  0  0  0  0  0  0  0  0  0
   -1.1997   -0.7027   -0.0000 C   0  0  0  0  0  0  0  0  0  0  0  0
   -2.0767   -1.1906   -0.0007 H   0  0  0  0  0  0  0  0  0  0  0  0
    0.0057   -1.4073    0.0027 C   0  0  0  0  0  0  0  0  0  0  0  0
   -0.0040   -2.4025    0.0058 H   0  0  0  0  0  0  0  0  0  0  0  0
    1.1997   -0.7082   -0.0000 C   0  0  0  0  0  0  0  0  0  0  0  0
    2.0869   -1.1934    0.0018 H   0  0  0  0  0  0  0  0  0  0  0  0
    1.1919    0.6998   -0.0030 C   0  0  0  0  0  0  0  0  0  0  0  0
    2.0650    1.1874   -0.0083 H   0  0  0  0  0  0  0  0  0  0  0  0
  1  5  1  0
  5  6  1  0
  5  7  2  0
  1  2  1  0
  1  3  1  0
  1  4  1  0
  8 12  1  0
 12 13  2  0
 13 15  1  0
 15 17  2  0
 17 19  1  0
 19 21  2  0
 21 12  1  0
  8  9  1  0
  8 10  1  0
  8 11  1  0
 13 14  1  0
 15 16  1  0
 17 18  1  0
 19 20  1  0
 21 22  1  0
M  CHG  1   6  -1
M  END
>  <PDB_ID>  (1606) 
pdb4isb

>  <RESIDUE_NAME>  (1606) 
ASP   PHE

>  <FRAG_NAME>  (1606) 
ACET   MBZ

>  <FRAG_ATOM_NUM>  (1606) 
fragi: 7  fragj: 15

>  <atom.prop.CHAIN_ID>  (1606) 
A A A A A A A Z Z Z Z Z Z Z Z Z Z Z Z Z Z Z

>  <atom.prop.IS_HEAVY_ATOM>  (1606) 
1 0 0 0 1 1 1 1 0 0 0 1 1 0 1 0 1 0 1 0 1 0

>  <DIFUSE_FUNC_ATOM>  (1606) 
atom 6   atom 7   

>  <FINAL_SINGLE_POINT_ENERGY>  (1606) 
0

>  <NONCOV_INTER_ENERGY_QM>  (1606) 
0

>  <FF_Energy>  (1606) 
-2.02

>  <QM_Energy>  (1606) 
-7.1

>  <source>  (1606) 
ACET_MBZ_01

>  <Index>  (1606) 
29256

$$$$
ACET-pdb4isb-B-ASP-199:MBZ-pdb4isb-B-PHE-195
     RDKit          3D

 22 21  0  0  0  0  0  0  0  0999 V2000
   -4.9765    3.6941   -1.2304 C   0  0  0  0  0  0  0  0  0  0  0  0
   -5.0531    3.2830   -0.3342 H   0  0  0  0  0  0  0  0  0  0  0  0
   -5.6502    3.3279   -1.8525 H   0  0  0  0  0  0  0  0  0  0  0  0
   -5.1559    4.7643   -1.1279 H   0  0  0  0  0  0  0  0  0  0  0  0
   -3.5736    3.3785   -1.7913 C   0  0  0  0  0  0  0  0  0  0  0  0
   -2.9594    4.2771   -2.4167 O   0  0  0  0  0  1  0  0  0  0  0  0
   -3.0769    2.2392   -1.5960 O   0  0  0  0  0  0  0  0  0  0  0  0
    0.0034    2.9056    0.0104 C   0  0  0  0  0  0  0  0  0  0  0  0
   -0.6574    3.2178   -0.6555 H   0  0  0  0  0  0  0  0  0  0  0  0
    0.9158    3.2125   -0.2169 H   0  0  0  0  0  0  0  0  0  0  0  0
   -0.2615    3.3549    0.9675 H   0  0  0  0  0  0  0  0  0  0  0  0
   -0.0012    1.4009    0.0100 C   0  0  0  0  0  0  0  0  0  0  0  0
   -1.1886    0.6984   -0.0015 C   0  0  0  0  0  0  0  0  0  0  0  0
   -2.0591    1.1845   -0.0120 H   0  0  0  0  0  0  0  0  0  0  0  0
   -1.1935   -0.6937   -0.0000 C   0  0  0  0  0  0  0  0  0  0  0  0
   -2.0763   -1.1833    0.0081 H   0  0  0  0  0  0  0  0  0  0  0  0
   -0.0020   -1.3937   -0.0073 C   0  0  0  0  0  0  0  0  0  0  0  0
   -0.0084   -2.3920   -0.0185 H   0  0  0  0  0  0  0  0  0  0  0  0
    1.1935   -0.7008    0.0000 C   0  0  0  0  0  0  0  0  0  0  0  0
    2.0768   -1.1981    0.0075 H   0  0  0  0  0  0  0  0  0  0  0  0
    1.1918    0.6889   -0.0012 C   0  0  0  0  0  0  0  0  0  0  0  0
    2.0623    1.1837   -0.0108 H   0  0  0  0  0  0  0  0  0  0  0  0
  1  5  1  0
  5  6  1  0
  5  7  2  0
  1  2  1  0
  1  3  1  0
  1  4  1  0
  8 12  1  0
 12 13  2  0
 13 15  1  0
 15 17  2  0
 17 19  1  0
 19 21  2  0
 21 12  1  0
  8  9  1  0
  8 10  1  0
  8 11  1  0
 13 14  1  0
 15 16  1  0
 17 18  1  0
 19 20  1  0
 21 22  1  0
M  CHG  1   6  -1
M  END
>  <PDB_ID>  (1607) 
pdb4isb

>  <RESIDUE_NAME>  (1607) 
ASP   PHE

>  <FRAG_NAME>  (1607) 
ACET   MBZ

>  <FRAG_ATOM_NUM>  (1607) 
fragi: 7  fragj: 15

>  <atom.prop.CHAIN_ID>  (1607) 
A A A A A A A Z Z Z Z Z Z Z Z Z Z Z Z Z Z Z

>  <atom.prop.IS_HEAVY_ATOM>  (1607) 
1 0 0 0 1 1 1 1 0 0 0 1 1 0 1 0 1 0 1 0 1 0

>  <DIFUSE_FUNC_ATOM>  (1607) 
atom 6   atom 7   

>  <FINAL_SINGLE_POINT_ENERGY>  (1607) 
0

>  <NONCOV_INTER_ENERGY_QM>  (1607) 
0

>  <FF_Energy>  (1607) 
1.67

>  <QM_Energy>  (1607) 
-7.14

>  <source>  (1607) 
ACET_MBZ_01

>  <Index>  (1607) 
29258

$$$$
ACET-pdb4it4-F-GLU-94:MBZ-pdb4it4-F-PHE-90
     RDKit          3D

 22 21  0  0  0  0  0  0  0  0999 V2000
    2.2050    1.4100    3.1239 C   0  0  0  0  0  0  0  0  0  0  0  0
    2.1286    1.3994    2.1430 H   0  0  0  0  0  0  0  0  0  0  0  0
    2.5880    0.5727    3.4737 H   0  0  0  0  0  0  0  0  0  0  0  0
    2.8756    2.2248    3.3970 H   0  0  0  0  0  0  0  0  0  0  0  0
    0.7993    1.5498    3.6967 C   0  0  0  0  0  0  0  0  0  0  0  0
    0.5581    1.0782    4.8290 O   0  0  0  0  0  1  0  0  0  0  0  0
   -0.0663    2.1336    3.0065 O   0  0  0  0  0  0  0  0  0  0  0  0
    0.0163    2.9095   -0.0116 C   0  0  0  0  0  0  0  0  0  0  0  0
   -0.2953    3.2076   -0.9030 H   0  0  0  0  0  0  0  0  0  0  0  0
    0.9451    3.2079    0.1598 H   0  0  0  0  0  0  0  0  0  0  0  0
   -0.6253    3.3753    0.7363 H   0  0  0  0  0  0  0  0  0  0  0  0
    0.0021    1.4013    0.0059 C   0  0  0  0  0  0  0  0  0  0  0  0
   -1.1917    0.6930   -0.0045 C   0  0  0  0  0  0  0  0  0  0  0  0
   -2.0596    1.1831   -0.0168 H   0  0  0  0  0  0  0  0  0  0  0  0
   -1.1955   -0.6960   -0.0000 C   0  0  0  0  0  0  0  0  0  0  0  0
   -2.0754   -1.1873    0.0037 H   0  0  0  0  0  0  0  0  0  0  0  0
   -0.0022   -1.3897    0.0011 C   0  0  0  0  0  0  0  0  0  0  0  0
   -0.0063   -2.3913    0.0027 H   0  0  0  0  0  0  0  0  0  0  0  0
    1.1955   -0.6988   -0.0000 C   0  0  0  0  0  0  0  0  0  0  0  0
    2.0777   -1.1963    0.0027 H   0  0  0  0  0  0  0  0  0  0  0  0
    1.1918    0.6901   -0.0025 C   0  0  0  0  0  0  0  0  0  0  0  0
    2.0636    1.1846   -0.0110 H   0  0  0  0  0  0  0  0  0  0  0  0
  1  5  1  0
  5  6  1  0
  5  7  2  0
  1  2  1  0
  1  3  1  0
  1  4  1  0
  8 12  1  0
 12 13  2  0
 13 15  1  0
 15 17  2  0
 17 19  1  0
 19 21  2  0
 21 12  1  0
  8  9  1  0
  8 10  1  0
  8 11  1  0
 13 14  1  0
 15 16  1  0
 17 18  1  0
 19 20  1  0
 21 22  1  0
M  CHG  1   6  -1
M  END
>  <PDB_ID>  (1608) 
pdb4it4

>  <RESIDUE_NAME>  (1608) 
GLU   PHE

>  <FRAG_NAME>  (1608) 
ACET   MBZ

>  <FRAG_ATOM_NUM>  (1608) 
fragi: 7  fragj: 15

>  <atom.prop.CHAIN_ID>  (1608) 
A A A A A A A Z Z Z Z Z Z Z Z Z Z Z Z Z Z Z

>  <atom.prop.IS_HEAVY_ATOM>  (1608) 
1 0 0 0 1 1 1 1 0 0 0 1 1 0 1 0 1 0 1 0 1 0

>  <DIFUSE_FUNC_ATOM>  (1608) 
atom 6   atom 7   

>  <FINAL_SINGLE_POINT_ENERGY>  (1608) 
0

>  <NONCOV_INTER_ENERGY_QM>  (1608) 
0

>  <FF_Energy>  (1608) 
4.17

>  <QM_Energy>  (1608) 
-1.56

>  <source>  (1608) 
ACET_MBZ_01

>  <Index>  (1608) 
29291

$$$$
ACET-pdb4it4-F-GLU-186:MBZ-pdb4it4-F-PHE-170
     RDKit          3D

 22 21  0  0  0  0  0  0  0  0999 V2000
    5.0569    2.2678    1.8423 C   0  0  0  0  0  0  0  0  0  0  0  0
    5.3209    3.1759    1.5670 H   0  0  0  0  0  0  0  0  0  0  0  0
    5.6798    1.8897    2.5060 H   0  0  0  0  0  0  0  0  0  0  0  0
    4.0684    2.3260    2.2980 H   0  0  0  0  0  0  0  0  0  0  0  0
    5.1168    1.3780    0.6006 C   0  0  0  0  0  0  0  0  0  0  0  0
    4.2188    0.5327    0.4048 O   0  0  0  0  0  1  0  0  0  0  0  0
    6.0778    1.5230   -0.1878 O   0  0  0  0  0  0  0  0  0  0  0  0
   -0.0006    2.8968   -0.0030 C   0  0  0  0  0  0  0  0  0  0  0  0
    0.8393    3.2038   -0.4235 H   0  0  0  0  0  0  0  0  0  0  0  0
   -0.0701    3.2055    0.9333 H   0  0  0  0  0  0  0  0  0  0  0  0
   -0.8303    3.3323   -0.5596 H   0  0  0  0  0  0  0  0  0  0  0  0
    0.0015    1.3951   -0.0003 C   0  0  0  0  0  0  0  0  0  0  0  0
   -1.1909    0.6906   -0.0023 C   0  0  0  0  0  0  0  0  0  0  0  0
   -2.0590    1.1817   -0.0067 H   0  0  0  0  0  0  0  0  0  0  0  0
   -1.1974   -0.6961   -0.0000 C   0  0  0  0  0  0  0  0  0  0  0  0
   -2.0762   -1.1888    0.0010 H   0  0  0  0  0  0  0  0  0  0  0  0
   -0.0027   -1.3875    0.0027 C   0  0  0  0  0  0  0  0  0  0  0  0
   -0.0027   -2.3881    0.0059 H   0  0  0  0  0  0  0  0  0  0  0  0
    1.1974   -0.6915   -0.0000 C   0  0  0  0  0  0  0  0  0  0  0  0
    2.0780   -1.1938   -0.0002 H   0  0  0  0  0  0  0  0  0  0  0  0
    1.1922    0.6894   -0.0001 C   0  0  0  0  0  0  0  0  0  0  0  0
    2.0618    1.1886   -0.0008 H   0  0  0  0  0  0  0  0  0  0  0  0
  1  5  1  0
  5  6  1  0
  5  7  2  0
  1  2  1  0
  1  3  1  0
  1  4  1  0
  8 12  1  0
 12 13  2  0
 13 15  1  0
 15 17  2  0
 17 19  1  0
 19 21  2  0
 21 12  1  0
  8  9  1  0
  8 10  1  0
  8 11  1  0
 13 14  1  0
 15 16  1  0
 17 18  1  0
 19 20  1  0
 21 22  1  0
M  CHG  1   6  -1
M  END
>  <PDB_ID>  (1609) 
pdb4it4

>  <RESIDUE_NAME>  (1609) 
GLU   PHE

>  <FRAG_NAME>  (1609) 
ACET   MBZ

>  <FRAG_ATOM_NUM>  (1609) 
fragi: 7  fragj: 15

>  <atom.prop.CHAIN_ID>  (1609) 
A A A A A A A Z Z Z Z Z Z Z Z Z Z Z Z Z Z Z

>  <atom.prop.IS_HEAVY_ATOM>  (1609) 
1 0 0 0 1 1 1 1 0 0 0 1 1 0 1 0 1 0 1 0 1 0

>  <DIFUSE_FUNC_ATOM>  (1609) 
atom 6   atom 7   

>  <FINAL_SINGLE_POINT_ENERGY>  (1609) 
0

>  <NONCOV_INTER_ENERGY_QM>  (1609) 
0

>  <FF_Energy>  (1609) 
-1.45

>  <QM_Energy>  (1609) 
-6.58

>  <source>  (1609) 
ACET_MBZ_01

>  <Index>  (1609) 
29293

$$$$
ACET-pdb3lte-B-GLU-95:MBZ-pdb3lte-B-PHE-110
     RDKit          3D

 22 21  0  0  0  0  0  0  0  0999 V2000
   -0.6602   -0.0150   -3.7650 C   0  0  0  0  0  0  0  0  0  0  0  0
   -1.0837   -0.3590   -4.5909 H   0  0  0  0  0  0  0  0  0  0  0  0
   -0.8246   -0.6226   -3.0014 H   0  0  0  0  0  0  0  0  0  0  0  0
    0.4156    0.0305   -3.9338 H   0  0  0  0  0  0  0  0  0  0  0  0
   -1.3093    1.3184   -3.4379 C   0  0  0  0  0  0  0  0  0  0  0  0
   -2.4744    1.2957   -2.9805 O   0  0  0  0  0  1  0  0  0  0  0  0
   -0.6805    2.3827   -3.6329 O   0  0  0  0  0  0  0  0  0  0  0  0
    0.0151    2.9120   -0.0339 C   0  0  0  0  0  0  0  0  0  0  0  0
   -0.4686    3.1995   -0.8523 H   0  0  0  0  0  0  0  0  0  0  0  0
    0.9623    3.2069   -0.0661 H   0  0  0  0  0  0  0  0  0  0  0  0
   -0.4558    3.4021    0.8183 H   0  0  0  0  0  0  0  0  0  0  0  0
    0.0004    1.4056    0.0078 C   0  0  0  0  0  0  0  0  0  0  0  0
   -1.1972    0.6953   -0.0050 C   0  0  0  0  0  0  0  0  0  0  0  0
   -2.0644    1.1803   -0.0192 H   0  0  0  0  0  0  0  0  0  0  0  0
   -1.1994   -0.7048    0.0000 C   0  0  0  0  0  0  0  0  0  0  0  0
   -2.0756   -1.1952    0.0037 H   0  0  0  0  0  0  0  0  0  0  0  0
    0.0022   -1.3944    0.0014 C   0  0  0  0  0  0  0  0  0  0  0  0
    0.0024   -2.3941    0.0026 H   0  0  0  0  0  0  0  0  0  0  0  0
    1.1994   -0.6955    0.0000 C   0  0  0  0  0  0  0  0  0  0  0  0
    2.0834   -1.1919    0.0038 H   0  0  0  0  0  0  0  0  0  0  0  0
    1.1946    0.6938   -0.0042 C   0  0  0  0  0  0  0  0  0  0  0  0
    2.0643    1.1900   -0.0172 H   0  0  0  0  0  0  0  0  0  0  0  0
  1  5  1  0
  5  6  1  0
  5  7  2  0
  1  2  1  0
  1  3  1  0
  1  4  1  0
  8 12  1  0
 12 13  2  0
 13 15  1  0
 15 17  2  0
 17 19  1  0
 19 21  2  0
 21 12  1  0
  8  9  1  0
  8 10  1  0
  8 11  1  0
 13 14  1  0
 15 16  1  0
 17 18  1  0
 19 20  1  0
 21 22  1  0
M  CHG  1   6  -1
M  END
>  <PDB_ID>  (1610) 
pdb3lte

>  <RESIDUE_NAME>  (1610) 
GLU   PHE

>  <FRAG_NAME>  (1610) 
ACET   MBZ

>  <FRAG_ATOM_NUM>  (1610) 
fragi: 7  fragj: 15

>  <atom.prop.CHAIN_ID>  (1610) 
A A A A A A A Z Z Z Z Z Z Z Z Z Z Z Z Z Z Z

>  <atom.prop.IS_HEAVY_ATOM>  (1610) 
1 0 0 0 1 1 1 1 0 0 0 1 1 0 1 0 1 0 1 0 1 0

>  <DIFUSE_FUNC_ATOM>  (1610) 
atom 6   atom 7   

>  <FINAL_SINGLE_POINT_ENERGY>  (1610) 
0

>  <NONCOV_INTER_ENERGY_QM>  (1610) 
0

>  <FF_Energy>  (1610) 
-0.41

>  <QM_Energy>  (1610) 
-5.76

>  <source>  (1610) 
ACET_MBZ_01

>  <Index>  (1610) 
29308

$$$$
ACET-pdb3lte-E-GLU-95:MBZ-pdb3lte-E-PHE-110
     RDKit          3D

 22 21  0  0  0  0  0  0  0  0999 V2000
   -0.0822    0.0040   -3.4694 C   0  0  0  0  0  0  0  0  0  0  0  0
   -0.4404   -0.7156   -4.0353 H   0  0  0  0  0  0  0  0  0  0  0  0
   -0.2019   -0.1813   -2.5110 H   0  0  0  0  0  0  0  0  0  0  0  0
    0.9872    0.0815   -3.6652 H   0  0  0  0  0  0  0  0  0  0  0  0
   -0.8451    1.2753   -3.7953 C   0  0  0  0  0  0  0  0  0  0  0  0
   -0.4667    2.3637   -3.3081 O   0  0  0  0  0  1  0  0  0  0  0  0
   -1.8410    1.1801   -4.5413 O   0  0  0  0  0  0  0  0  0  0  0  0
    0.0186    2.9291   -0.0206 C   0  0  0  0  0  0  0  0  0  0  0  0
   -0.2488    3.2166   -0.9307 H   0  0  0  0  0  0  0  0  0  0  0  0
    0.9426    3.2246    0.1862 H   0  0  0  0  0  0  0  0  0  0  0  0
   -0.6506    3.4145    0.6898 H   0  0  0  0  0  0  0  0  0  0  0  0
    0.0002    1.4121    0.0102 C   0  0  0  0  0  0  0  0  0  0  0  0
   -1.1992    0.7006   -0.0067 C   0  0  0  0  0  0  0  0  0  0  0  0
   -2.0658    1.1865   -0.0248 H   0  0  0  0  0  0  0  0  0  0  0  0
   -1.2035   -0.7000   -0.0000 C   0  0  0  0  0  0  0  0  0  0  0  0
   -2.0811   -1.1897    0.0070 H   0  0  0  0  0  0  0  0  0  0  0  0
   -0.0007   -1.4017   -0.0014 C   0  0  0  0  0  0  0  0  0  0  0  0
   -0.0073   -2.3991   -0.0038 H   0  0  0  0  0  0  0  0  0  0  0  0
    1.2035   -0.7068   -0.0000 C   0  0  0  0  0  0  0  0  0  0  0  0
    2.0836   -1.2008    0.0042 H   0  0  0  0  0  0  0  0  0  0  0  0
    1.1998    0.6957   -0.0021 C   0  0  0  0  0  0  0  0  0  0  0  0
    2.0685    1.1869   -0.0129 H   0  0  0  0  0  0  0  0  0  0  0  0
  1  5  1  0
  5  6  1  0
  5  7  2  0
  1  2  1  0
  1  3  1  0
  1  4  1  0
  8 12  1  0
 12 13  2  0
 13 15  1  0
 15 17  2  0
 17 19  1  0
 19 21  2  0
 21 12  1  0
  8  9  1  0
  8 10  1  0
  8 11  1  0
 13 14  1  0
 15 16  1  0
 17 18  1  0
 19 20  1  0
 21 22  1  0
M  CHG  1   6  -1
M  END
>  <PDB_ID>  (1611) 
pdb3lte

>  <RESIDUE_NAME>  (1611) 
GLU   PHE

>  <FRAG_NAME>  (1611) 
ACET   MBZ

>  <FRAG_ATOM_NUM>  (1611) 
fragi: 7  fragj: 15

>  <atom.prop.CHAIN_ID>  (1611) 
A A A A A A A Z Z Z Z Z Z Z Z Z Z Z Z Z Z Z

>  <atom.prop.IS_HEAVY_ATOM>  (1611) 
1 0 0 0 1 1 1 1 0 0 0 1 1 0 1 0 1 0 1 0 1 0

>  <DIFUSE_FUNC_ATOM>  (1611) 
atom 6   atom 7   

>  <FINAL_SINGLE_POINT_ENERGY>  (1611) 
0

>  <NONCOV_INTER_ENERGY_QM>  (1611) 
0

>  <FF_Energy>  (1611) 
0.62

>  <QM_Energy>  (1611) 
-4.96

>  <source>  (1611) 
ACET_MBZ_01

>  <Index>  (1611) 
29311

$$$$
ACET-pdb3lte-J-GLU-95:MBZ-pdb3lte-J-PHE-110
     RDKit          3D

 22 21  0  0  0  0  0  0  0  0999 V2000
   -0.1602    0.0478   -3.7374 C   0  0  0  0  0  0  0  0  0  0  0  0
   -0.4096   -0.5351   -4.4856 H   0  0  0  0  0  0  0  0  0  0  0  0
   -0.4618   -0.3006   -2.8710 H   0  0  0  0  0  0  0  0  0  0  0  0
    0.9268    0.1264   -3.7152 H   0  0  0  0  0  0  0  0  0  0  0  0
   -0.8479    1.3939   -3.9544 C   0  0  0  0  0  0  0  0  0  0  0  0
   -1.2772    2.0230   -2.9708 O   0  0  0  0  0  1  0  0  0  0  0  0
   -0.9600    1.8262   -5.1197 O   0  0  0  0  0  0  0  0  0  0  0  0
    0.0204    2.9055   -0.0136 C   0  0  0  0  0  0  0  0  0  0  0  0
   -0.2616    3.2069   -0.9147 H   0  0  0  0  0  0  0  0  0  0  0  0
    0.9437    3.2053    0.1867 H   0  0  0  0  0  0  0  0  0  0  0  0
   -0.6426    3.3754    0.7130 H   0  0  0  0  0  0  0  0  0  0  0  0
    0.0024    1.4040    0.0033 C   0  0  0  0  0  0  0  0  0  0  0  0
   -1.2005    0.6959   -0.0003 C   0  0  0  0  0  0  0  0  0  0  0  0
   -2.0633    1.1857   -0.0045 H   0  0  0  0  0  0  0  0  0  0  0  0
   -1.2025   -0.6979   -0.0000 C   0  0  0  0  0  0  0  0  0  0  0  0
   -2.0782   -1.1919    0.0004 H   0  0  0  0  0  0  0  0  0  0  0  0
    0.0014   -1.3952    0.0008 C   0  0  0  0  0  0  0  0  0  0  0  0
   -0.0041   -2.3936    0.0010 H   0  0  0  0  0  0  0  0  0  0  0  0
    1.2025   -0.6997    0.0000 C   0  0  0  0  0  0  0  0  0  0  0  0
    2.0833   -1.1960    0.0037 H   0  0  0  0  0  0  0  0  0  0  0  0
    1.1968    0.6929   -0.0038 C   0  0  0  0  0  0  0  0  0  0  0  0
    2.0663    1.1881   -0.0130 H   0  0  0  0  0  0  0  0  0  0  0  0
  1  5  1  0
  5  6  1  0
  5  7  2  0
  1  2  1  0
  1  3  1  0
  1  4  1  0
  8 12  1  0
 12 13  2  0
 13 15  1  0
 15 17  2  0
 17 19  1  0
 19 21  2  0
 21 12  1  0
  8  9  1  0
  8 10  1  0
  8 11  1  0
 13 14  1  0
 15 16  1  0
 17 18  1  0
 19 20  1  0
 21 22  1  0
M  CHG  1   6  -1
M  END
>  <PDB_ID>  (1612) 
pdb3lte

>  <RESIDUE_NAME>  (1612) 
GLU   PHE

>  <FRAG_NAME>  (1612) 
ACET   MBZ

>  <FRAG_ATOM_NUM>  (1612) 
fragi: 7  fragj: 15

>  <atom.prop.CHAIN_ID>  (1612) 
A A A A A A A Z Z Z Z Z Z Z Z Z Z Z Z Z Z Z

>  <atom.prop.IS_HEAVY_ATOM>  (1612) 
1 0 0 0 1 1 1 1 0 0 0 1 1 0 1 0 1 0 1 0 1 0

>  <DIFUSE_FUNC_ATOM>  (1612) 
atom 6   atom 7   

>  <FINAL_SINGLE_POINT_ENERGY>  (1612) 
0

>  <NONCOV_INTER_ENERGY_QM>  (1612) 
0

>  <FF_Energy>  (1612) 
0.76

>  <QM_Energy>  (1612) 
-4.67

>  <source>  (1612) 
ACET_MBZ_01

>  <Index>  (1612) 
29317

$$$$
ACET-pdb3lte-W-GLU-95:MBZ-pdb3lte-W-PHE-110
     RDKit          3D

 22 21  0  0  0  0  0  0  0  0999 V2000
   -0.1331   -0.2589   -3.5544 C   0  0  0  0  0  0  0  0  0  0  0  0
   -0.4812   -0.7020   -4.3619 H   0  0  0  0  0  0  0  0  0  0  0  0
   -0.3580   -0.7568   -2.7344 H   0  0  0  0  0  0  0  0  0  0  0  0
    0.9529   -0.2141   -3.6359 H   0  0  0  0  0  0  0  0  0  0  0  0
   -0.7908    1.1067   -3.4584 C   0  0  0  0  0  0  0  0  0  0  0  0
   -0.1198    2.1341   -3.6947 O   0  0  0  0  0  1  0  0  0  0  0  0
   -1.9932    1.1525   -3.1332 O   0  0  0  0  0  0  0  0  0  0  0  0
    0.0288    2.9099   -0.0243 C   0  0  0  0  0  0  0  0  0  0  0  0
   -0.2995    3.2010   -0.9154 H   0  0  0  0  0  0  0  0  0  0  0  0
    0.9678    3.2034    0.1139 H   0  0  0  0  0  0  0  0  0  0  0  0
   -0.5841    3.4045    0.7293 H   0  0  0  0  0  0  0  0  0  0  0  0
    0.0024    1.4037    0.0119 C   0  0  0  0  0  0  0  0  0  0  0  0
   -1.1977    0.6961   -0.0047 C   0  0  0  0  0  0  0  0  0  0  0  0
   -2.0614    1.1892   -0.0211 H   0  0  0  0  0  0  0  0  0  0  0  0
   -1.2000   -0.6899    0.0000 C   0  0  0  0  0  0  0  0  0  0  0  0
   -2.0795   -1.1858    0.0052 H   0  0  0  0  0  0  0  0  0  0  0  0
   -0.0022   -1.3926   -0.0011 C   0  0  0  0  0  0  0  0  0  0  0  0
   -0.0140   -2.3926   -0.0032 H   0  0  0  0  0  0  0  0  0  0  0  0
    1.2000   -0.7060    0.0000 C   0  0  0  0  0  0  0  0  0  0  0  0
    2.0788   -1.2032    0.0063 H   0  0  0  0  0  0  0  0  0  0  0  0
    1.1976    0.6887   -0.0060 C   0  0  0  0  0  0  0  0  0  0  0  0
    2.0673    1.1821   -0.0238 H   0  0  0  0  0  0  0  0  0  0  0  0
  1  5  1  0
  5  6  1  0
  5  7  2  0
  1  2  1  0
  1  3  1  0
  1  4  1  0
  8 12  1  0
 12 13  2  0
 13 15  1  0
 15 17  2  0
 17 19  1  0
 19 21  2  0
 21 12  1  0
  8  9  1  0
  8 10  1  0
  8 11  1  0
 13 14  1  0
 15 16  1  0
 17 18  1  0
 19 20  1  0
 21 22  1  0
M  CHG  1   6  -1
M  END
>  <PDB_ID>  (1613) 
pdb3lte

>  <RESIDUE_NAME>  (1613) 
GLU   PHE

>  <FRAG_NAME>  (1613) 
ACET   MBZ

>  <FRAG_ATOM_NUM>  (1613) 
fragi: 7  fragj: 15

>  <atom.prop.CHAIN_ID>  (1613) 
A A A A A A A Z Z Z Z Z Z Z Z Z Z Z Z Z Z Z

>  <atom.prop.IS_HEAVY_ATOM>  (1613) 
1 0 0 0 1 1 1 1 0 0 0 1 1 0 1 0 1 0 1 0 1 0

>  <DIFUSE_FUNC_ATOM>  (1613) 
atom 6   atom 7   

>  <FINAL_SINGLE_POINT_ENERGY>  (1613) 
0

>  <NONCOV_INTER_ENERGY_QM>  (1613) 
0

>  <FF_Energy>  (1613) 
0.45

>  <QM_Energy>  (1613) 
-5.09

>  <source>  (1613) 
ACET_MBZ_01

>  <Index>  (1613) 
29323

$$$$
ACET-pdb4ith-B-GLU-63:MBZ-pdb4ith-B-PHE-162
     RDKit          3D

 22 21  0  0  0  0  0  0  0  0999 V2000
   -4.2678    1.5840   -2.6754 C   0  0  0  0  0  0  0  0  0  0  0  0
   -3.8408    0.7585   -2.3428 H   0  0  0  0  0  0  0  0  0  0  0  0
   -4.0491    1.7474   -3.6246 H   0  0  0  0  0  0  0  0  0  0  0  0
   -5.3478    1.4629   -2.5913 H   0  0  0  0  0  0  0  0  0  0  0  0
   -3.7220    2.7398   -1.8729 C   0  0  0  0  0  0  0  0  0  0  0  0
   -3.8475    2.7301   -0.6277 O   0  0  0  0  0  1  0  0  0  0  0  0
   -3.1469    3.6567   -2.4971 O   0  0  0  0  0  0  0  0  0  0  0  0
   -0.0120    2.8913    0.0235 C   0  0  0  0  0  0  0  0  0  0  0  0
    0.5941    3.1911    0.7506 H   0  0  0  0  0  0  0  0  0  0  0  0
   -0.9424    3.1922    0.1958 H   0  0  0  0  0  0  0  0  0  0  0  0
    0.3214    3.3657   -0.8994 H   0  0  0  0  0  0  0  0  0  0  0  0
   -0.0025    1.3969   -0.0064 C   0  0  0  0  0  0  0  0  0  0  0  0
   -1.1922    0.6897    0.0001 C   0  0  0  0  0  0  0  0  0  0  0  0
   -2.0620    1.1776    0.0035 H   0  0  0  0  0  0  0  0  0  0  0  0
   -1.1928   -0.6959   -0.0000 C   0  0  0  0  0  0  0  0  0  0  0  0
   -2.0729   -1.1897   -0.0013 H   0  0  0  0  0  0  0  0  0  0  0  0
   -0.0011   -1.3834    0.0035 C   0  0  0  0  0  0  0  0  0  0  0  0
   -0.0041   -2.3879    0.0079 H   0  0  0  0  0  0  0  0  0  0  0  0
    1.1928   -0.6952    0.0000 C   0  0  0  0  0  0  0  0  0  0  0  0
    2.0758   -1.1975   -0.0033 H   0  0  0  0  0  0  0  0  0  0  0  0
    1.1958    0.6879    0.0028 C   0  0  0  0  0  0  0  0  0  0  0  0
    2.0620    1.1854    0.0103 H   0  0  0  0  0  0  0  0  0  0  0  0
  1  5  1  0
  5  6  1  0
  5  7  2  0
  1  2  1  0
  1  3  1  0
  1  4  1  0
  8 12  1  0
 12 13  2  0
 13 15  1  0
 15 17  2  0
 17 19  1  0
 19 21  2  0
 21 12  1  0
  8  9  1  0
  8 10  1  0
  8 11  1  0
 13 14  1  0
 15 16  1  0
 17 18  1  0
 19 20  1  0
 21 22  1  0
M  CHG  1   6  -1
M  END
>  <PDB_ID>  (1614) 
pdb4ith

>  <RESIDUE_NAME>  (1614) 
GLU   PHE

>  <FRAG_NAME>  (1614) 
ACET   MBZ

>  <FRAG_ATOM_NUM>  (1614) 
fragi: 7  fragj: 15

>  <atom.prop.CHAIN_ID>  (1614) 
A A A A A A A Z Z Z Z Z Z Z Z Z Z Z Z Z Z Z

>  <atom.prop.IS_HEAVY_ATOM>  (1614) 
1 0 0 0 1 1 1 1 0 0 0 1 1 0 1 0 1 0 1 0 1 0

>  <DIFUSE_FUNC_ATOM>  (1614) 
atom 6   atom 7   

>  <FINAL_SINGLE_POINT_ENERGY>  (1614) 
0

>  <NONCOV_INTER_ENERGY_QM>  (1614) 
0

>  <FF_Energy>  (1614) 
-2.46

>  <QM_Energy>  (1614) 
-7.72

>  <source>  (1614) 
ACET_MBZ_01

>  <Index>  (1614) 
29332

$$$$
ACET-pdb3lte-R-GLU-95:MBZ-pdb3lte-R-PHE-110
     RDKit          3D

 22 21  0  0  0  0  0  0  0  0999 V2000
    0.1411   -0.0591   -4.0034 C   0  0  0  0  0  0  0  0  0  0  0  0
    0.0180   -0.1825   -4.9709 H   0  0  0  0  0  0  0  0  0  0  0  0
   -0.2674   -0.7842   -3.4804 H   0  0  0  0  0  0  0  0  0  0  0  0
    1.2106   -0.0440   -3.7933 H   0  0  0  0  0  0  0  0  0  0  0  0
   -0.5635    1.2361   -3.6153 C   0  0  0  0  0  0  0  0  0  0  0  0
   -1.7323    1.1593   -3.1869 O   0  0  0  0  0  1  0  0  0  0  0  0
    0.0360    2.3285   -3.7435 O   0  0  0  0  0  0  0  0  0  0  0  0
    0.0177    2.9049   -0.0230 C   0  0  0  0  0  0  0  0  0  0  0  0
   -0.2153    3.1969   -0.9423 H   0  0  0  0  0  0  0  0  0  0  0  0
    0.9306    3.2078    0.2211 H   0  0  0  0  0  0  0  0  0  0  0  0
   -0.6814    3.3847    0.6620 H   0  0  0  0  0  0  0  0  0  0  0  0
    0.0005    1.4032    0.0078 C   0  0  0  0  0  0  0  0  0  0  0  0
   -1.2003    0.6949   -0.0063 C   0  0  0  0  0  0  0  0  0  0  0  0
   -2.0647    1.1847   -0.0217 H   0  0  0  0  0  0  0  0  0  0  0  0
   -1.2036   -0.6992   -0.0000 C   0  0  0  0  0  0  0  0  0  0  0  0
   -2.0776   -1.1934    0.0039 H   0  0  0  0  0  0  0  0  0  0  0  0
    0.0012   -1.3936    0.0026 C   0  0  0  0  0  0  0  0  0  0  0  0
   -0.0021   -2.3927    0.0056 H   0  0  0  0  0  0  0  0  0  0  0  0
    1.2036   -0.6970   -0.0000 C   0  0  0  0  0  0  0  0  0  0  0  0
    2.0845   -1.1962    0.0024 H   0  0  0  0  0  0  0  0  0  0  0  0
    1.1985    0.6916   -0.0040 C   0  0  0  0  0  0  0  0  0  0  0  0
    2.0665    1.1900   -0.0164 H   0  0  0  0  0  0  0  0  0  0  0  0
  1  5  1  0
  5  6  1  0
  5  7  2  0
  1  2  1  0
  1  3  1  0
  1  4  1  0
  8 12  1  0
 12 13  2  0
 13 15  1  0
 15 17  2  0
 17 19  1  0
 19 21  2  0
 21 12  1  0
  8  9  1  0
  8 10  1  0
  8 11  1  0
 13 14  1  0
 15 16  1  0
 17 18  1  0
 19 20  1  0
 21 22  1  0
M  CHG  1   6  -1
M  END
>  <PDB_ID>  (1615) 
pdb3lte

>  <RESIDUE_NAME>  (1615) 
GLU   PHE

>  <FRAG_NAME>  (1615) 
ACET   MBZ

>  <FRAG_ATOM_NUM>  (1615) 
fragi: 7  fragj: 15

>  <atom.prop.CHAIN_ID>  (1615) 
A A A A A A A Z Z Z Z Z Z Z Z Z Z Z Z Z Z Z

>  <atom.prop.IS_HEAVY_ATOM>  (1615) 
1 0 0 0 1 1 1 1 0 0 0 1 1 0 1 0 1 0 1 0 1 0

>  <DIFUSE_FUNC_ATOM>  (1615) 
atom 6   atom 7   

>  <FINAL_SINGLE_POINT_ENERGY>  (1615) 
0

>  <NONCOV_INTER_ENERGY_QM>  (1615) 
0

>  <FF_Energy>  (1615) 
0.67

>  <QM_Energy>  (1615) 
-4.66

>  <source>  (1615) 
ACET_MBZ_01

>  <Index>  (1615) 
29353

$$$$
ACET-pdb3lte-T-GLU-95:MBZ-pdb3lte-T-PHE-110
     RDKit          3D

 22 21  0  0  0  0  0  0  0  0999 V2000
   -0.1232    0.1507   -3.7907 C   0  0  0  0  0  0  0  0  0  0  0  0
   -0.4498   -0.1206   -4.6753 H   0  0  0  0  0  0  0  0  0  0  0  0
   -0.3474   -0.5005   -3.0913 H   0  0  0  0  0  0  0  0  0  0  0  0
    0.9621    0.2397   -3.8400 H   0  0  0  0  0  0  0  0  0  0  0  0
   -0.8086    1.4643   -3.4316 C   0  0  0  0  0  0  0  0  0  0  0  0
   -2.0361    1.4630   -3.1813 O   0  0  0  0  0  1  0  0  0  0  0  0
   -0.1191    2.5050   -3.3878 O   0  0  0  0  0  0  0  0  0  0  0  0
    0.0085    2.9072   -0.0201 C   0  0  0  0  0  0  0  0  0  0  0  0
   -0.2254    3.1993   -0.9368 H   0  0  0  0  0  0  0  0  0  0  0  0
    0.9167    3.2147    0.2292 H   0  0  0  0  0  0  0  0  0  0  0  0
   -0.6970    3.3774    0.6649 H   0  0  0  0  0  0  0  0  0  0  0  0
   -0.0003    1.4050    0.0086 C   0  0  0  0  0  0  0  0  0  0  0  0
   -1.1996    0.6919   -0.0039 C   0  0  0  0  0  0  0  0  0  0  0  0
   -2.0655    1.1799   -0.0169 H   0  0  0  0  0  0  0  0  0  0  0  0
   -1.2021   -0.7034   -0.0000 C   0  0  0  0  0  0  0  0  0  0  0  0
   -2.0771   -1.1965    0.0068 H   0  0  0  0  0  0  0  0  0  0  0  0
    0.0016   -1.3943   -0.0044 C   0  0  0  0  0  0  0  0  0  0  0  0
    0.0004   -2.3939   -0.0111 H   0  0  0  0  0  0  0  0  0  0  0  0
    1.2021   -0.6964    0.0000 C   0  0  0  0  0  0  0  0  0  0  0  0
    2.0842   -1.1926    0.0053 H   0  0  0  0  0  0  0  0  0  0  0  0
    1.1983    0.6971   -0.0003 C   0  0  0  0  0  0  0  0  0  0  0  0
    2.0654    1.1925   -0.0079 H   0  0  0  0  0  0  0  0  0  0  0  0
  1  5  1  0
  5  6  1  0
  5  7  2  0
  1  2  1  0
  1  3  1  0
  1  4  1  0
  8 12  1  0
 12 13  2  0
 13 15  1  0
 15 17  2  0
 17 19  1  0
 19 21  2  0
 21 12  1  0
  8  9  1  0
  8 10  1  0
  8 11  1  0
 13 14  1  0
 15 16  1  0
 17 18  1  0
 19 20  1  0
 21 22  1  0
M  CHG  1   6  -1
M  END
>  <PDB_ID>  (1616) 
pdb3lte

>  <RESIDUE_NAME>  (1616) 
GLU   PHE

>  <FRAG_NAME>  (1616) 
ACET   MBZ

>  <FRAG_ATOM_NUM>  (1616) 
fragi: 7  fragj: 15

>  <atom.prop.CHAIN_ID>  (1616) 
A A A A A A A Z Z Z Z Z Z Z Z Z Z Z Z Z Z Z

>  <atom.prop.IS_HEAVY_ATOM>  (1616) 
1 0 0 0 1 1 1 1 0 0 0 1 1 0 1 0 1 0 1 0 1 0

>  <DIFUSE_FUNC_ATOM>  (1616) 
atom 6   atom 7   

>  <FINAL_SINGLE_POINT_ENERGY>  (1616) 
0

>  <NONCOV_INTER_ENERGY_QM>  (1616) 
0

>  <FF_Energy>  (1616) 
0.1

>  <QM_Energy>  (1616) 
-6.36

>  <source>  (1616) 
ACET_MBZ_01

>  <Index>  (1616) 
29358

$$$$
ACET-pdb3lur-B-GLU-18:MBZ-pdb3lur-B-PHE-33
     RDKit          3D

 22 21  0  0  0  0  0  0  0  0999 V2000
   -1.1653   -1.1980   -3.6328 C   0  0  0  0  0  0  0  0  0  0  0  0
   -1.7925   -1.7880   -4.1248 H   0  0  0  0  0  0  0  0  0  0  0  0
   -0.8970   -1.6098   -2.7714 H   0  0  0  0  0  0  0  0  0  0  0  0
   -0.2732   -1.0555   -4.2425 H   0  0  0  0  0  0  0  0  0  0  0  0
   -1.9572    0.0907   -3.2790 C   0  0  0  0  0  0  0  0  0  0  0  0
   -1.4370    1.2391   -3.4151 O   0  0  0  0  0  1  0  0  0  0  0  0
   -3.1000   -0.0678   -2.7800 O   0  0  0  0  0  0  0  0  0  0  0  0
    0.0154    2.8761   -0.0056 C   0  0  0  0  0  0  0  0  0  0  0  0
   -0.1328    3.1699   -0.9418 H   0  0  0  0  0  0  0  0  0  0  0  0
    0.8980    3.1870    0.3248 H   0  0  0  0  0  0  0  0  0  0  0  0
   -0.7527    3.3397    0.6136 H   0  0  0  0  0  0  0  0  0  0  0  0
    0.0070    1.3844    0.0213 C   0  0  0  0  0  0  0  0  0  0  0  0
   -1.1846    0.6745   -0.0208 C   0  0  0  0  0  0  0  0  0  0  0  0
   -2.0505    1.1690   -0.0679 H   0  0  0  0  0  0  0  0  0  0  0  0
   -1.1842   -0.6991   -0.0000 C   0  0  0  0  0  0  0  0  0  0  0  0
   -2.0645   -1.1967    0.0177 H   0  0  0  0  0  0  0  0  0  0  0  0
    0.0012   -1.3749   -0.0019 C   0  0  0  0  0  0  0  0  0  0  0  0
    0.0049   -2.3827   -0.0052 H   0  0  0  0  0  0  0  0  0  0  0  0
    1.1842   -0.6849   -0.0000 C   0  0  0  0  0  0  0  0  0  0  0  0
    2.0732   -1.1776    0.0019 H   0  0  0  0  0  0  0  0  0  0  0  0
    1.1764    0.7001    0.0014 C   0  0  0  0  0  0  0  0  0  0  0  0
    2.0544    1.1908   -0.0133 H   0  0  0  0  0  0  0  0  0  0  0  0
  1  5  1  0
  5  6  1  0
  5  7  2  0
  1  2  1  0
  1  3  1  0
  1  4  1  0
  8 12  1  0
 12 13  2  0
 13 15  1  0
 15 17  2  0
 17 19  1  0
 19 21  2  0
 21 12  1  0
  8  9  1  0
  8 10  1  0
  8 11  1  0
 13 14  1  0
 15 16  1  0
 17 18  1  0
 19 20  1  0
 21 22  1  0
M  CHG  1   6  -1
M  END
>  <PDB_ID>  (1617) 
pdb3lur

>  <RESIDUE_NAME>  (1617) 
GLU   PHE

>  <FRAG_NAME>  (1617) 
ACET   MBZ

>  <FRAG_ATOM_NUM>  (1617) 
fragi: 7  fragj: 15

>  <atom.prop.CHAIN_ID>  (1617) 
A A A A A A A Z Z Z Z Z Z Z Z Z Z Z Z Z Z Z

>  <atom.prop.IS_HEAVY_ATOM>  (1617) 
1 0 0 0 1 1 1 1 0 0 0 1 1 0 1 0 1 0 1 0 1 0

>  <DIFUSE_FUNC_ATOM>  (1617) 
atom 6   atom 7   

>  <FINAL_SINGLE_POINT_ENERGY>  (1617) 
0

>  <NONCOV_INTER_ENERGY_QM>  (1617) 
0

>  <FF_Energy>  (1617) 
0.38

>  <QM_Energy>  (1617) 
-4.69

>  <source>  (1617) 
ACET_MBZ_01

>  <Index>  (1617) 
29388

$$$$
ACET-pdb3lvs-B-ASP-216:MBZ-pdb3lvs-B-PHE-242
     RDKit          3D

 22 21  0  0  0  0  0  0  0  0999 V2000
    4.3684    4.6545    0.1216 C   0  0  0  0  0  0  0  0  0  0  0  0
    3.6767    4.6136    0.8324 H   0  0  0  0  0  0  0  0  0  0  0  0
    4.0825    5.2583   -0.6111 H   0  0  0  0  0  0  0  0  0  0  0  0
    5.2818    5.0579    0.5585 H   0  0  0  0  0  0  0  0  0  0  0  0
    4.5562    3.2494   -0.4527 C   0  0  0  0  0  0  0  0  0  0  0  0
    5.7124    2.7922   -0.6075 O   0  0  0  0  0  1  0  0  0  0  0  0
    3.5408    2.5917   -0.7547 O   0  0  0  0  0  0  0  0  0  0  0  0
    0.0057    2.9126    0.0045 C   0  0  0  0  0  0  0  0  0  0  0  0
    0.8766    3.2176    0.3559 H   0  0  0  0  0  0  0  0  0  0  0  0
   -0.7424    3.2199    0.5702 H   0  0  0  0  0  0  0  0  0  0  0  0
   -0.1252    3.3497   -0.9854 H   0  0  0  0  0  0  0  0  0  0  0  0
    0.0040    1.4071    0.0052 C   0  0  0  0  0  0  0  0  0  0  0  0
   -1.2023    0.6938    0.0020 C   0  0  0  0  0  0  0  0  0  0  0  0
   -2.0646    1.1865    0.0003 H   0  0  0  0  0  0  0  0  0  0  0  0
   -1.2074   -0.6990   -0.0000 C   0  0  0  0  0  0  0  0  0  0  0  0
   -2.0838   -1.1916    0.0088 H   0  0  0  0  0  0  0  0  0  0  0  0
   -0.0049   -1.3983   -0.0123 C   0  0  0  0  0  0  0  0  0  0  0  0
   -0.0078   -2.3953   -0.0303 H   0  0  0  0  0  0  0  0  0  0  0  0
    1.2074   -0.7004    0.0000 C   0  0  0  0  0  0  0  0  0  0  0  0
    2.0833   -1.1990    0.0068 H   0  0  0  0  0  0  0  0  0  0  0  0
    1.2031    0.6969    0.0052 C   0  0  0  0  0  0  0  0  0  0  0  0
    2.0708    1.1904    0.0086 H   0  0  0  0  0  0  0  0  0  0  0  0
  1  5  1  0
  5  6  1  0
  5  7  2  0
  1  2  1  0
  1  3  1  0
  1  4  1  0
  8 12  1  0
 12 13  2  0
 13 15  1  0
 15 17  2  0
 17 19  1  0
 19 21  2  0
 21 12  1  0
  8  9  1  0
  8 10  1  0
  8 11  1  0
 13 14  1  0
 15 16  1  0
 17 18  1  0
 19 20  1  0
 21 22  1  0
M  CHG  1   6  -1
M  END
>  <PDB_ID>  (1618) 
pdb3lvs

>  <RESIDUE_NAME>  (1618) 
ASP   PHE

>  <FRAG_NAME>  (1618) 
ACET   MBZ

>  <FRAG_ATOM_NUM>  (1618) 
fragi: 7  fragj: 15

>  <atom.prop.CHAIN_ID>  (1618) 
A A A A A A A Z Z Z Z Z Z Z Z Z Z Z Z Z Z Z

>  <atom.prop.IS_HEAVY_ATOM>  (1618) 
1 0 0 0 1 1 1 1 0 0 0 1 1 0 1 0 1 0 1 0 1 0

>  <DIFUSE_FUNC_ATOM>  (1618) 
atom 6   atom 7   

>  <FINAL_SINGLE_POINT_ENERGY>  (1618) 
0

>  <NONCOV_INTER_ENERGY_QM>  (1618) 
0

>  <FF_Energy>  (1618) 
-0.06

>  <QM_Energy>  (1618) 
-7.41

>  <source>  (1618) 
ACET_MBZ_01

>  <Index>  (1618) 
29443

$$$$
ACET-pdb4iyj-A-GLU-217:MBZ-pdb4iyj-A-PHE-66
     RDKit          3D

 22 21  0  0  0  0  0  0  0  0999 V2000
   -0.3078    0.0692   -3.3790 C   0  0  0  0  0  0  0  0  0  0  0  0
    0.1185   -0.0868   -2.4846 H   0  0  0  0  0  0  0  0  0  0  0  0
    0.3762   -0.0810   -4.0973 H   0  0  0  0  0  0  0  0  0  0  0  0
   -1.0963   -0.6726   -3.5061 H   0  0  0  0  0  0  0  0  0  0  0  0
   -0.7168    1.5088   -3.4400 C   0  0  0  0  0  0  0  0  0  0  0  0
   -1.9368    1.7898   -3.4062 O   0  0  0  0  0  1  0  0  0  0  0  0
    0.2264    2.3439   -3.5194 O   0  0  0  0  0  0  0  0  0  0  0  0
   -0.0093    2.8927   -0.0155 C   0  0  0  0  0  0  0  0  0  0  0  0
   -0.5907    3.1869   -0.7619 H   0  0  0  0  0  0  0  0  0  0  0  0
    0.9221    3.2042   -0.1466 H   0  0  0  0  0  0  0  0  0  0  0  0
   -0.3881    3.3387    0.9041 H   0  0  0  0  0  0  0  0  0  0  0  0
    0.0008    1.4006    0.0030 C   0  0  0  0  0  0  0  0  0  0  0  0
   -1.1919    0.6972   -0.0126 C   0  0  0  0  0  0  0  0  0  0  0  0
   -2.0599    1.1889   -0.0345 H   0  0  0  0  0  0  0  0  0  0  0  0
   -1.2015   -0.6919   -0.0000 C   0  0  0  0  0  0  0  0  0  0  0  0
   -2.0843   -1.1792    0.0015 H   0  0  0  0  0  0  0  0  0  0  0  0
   -0.0129   -1.3898    0.0118 C   0  0  0  0  0  0  0  0  0  0  0  0
   -0.0196   -2.3924    0.0279 H   0  0  0  0  0  0  0  0  0  0  0  0
    1.2015   -0.7079    0.0000 C   0  0  0  0  0  0  0  0  0  0  0  0
    2.0741   -1.2097   -0.0055 H   0  0  0  0  0  0  0  0  0  0  0  0
    1.2040    0.6917   -0.0022 C   0  0  0  0  0  0  0  0  0  0  0  0
    2.0686    1.1832   -0.0087 H   0  0  0  0  0  0  0  0  0  0  0  0
  1  5  1  0
  5  6  1  0
  5  7  2  0
  1  2  1  0
  1  3  1  0
  1  4  1  0
  8 12  1  0
 12 13  2  0
 13 15  1  0
 15 17  2  0
 17 19  1  0
 19 21  2  0
 21 12  1  0
  8  9  1  0
  8 10  1  0
  8 11  1  0
 13 14  1  0
 15 16  1  0
 17 18  1  0
 19 20  1  0
 21 22  1  0
M  CHG  1   6  -1
M  END
>  <PDB_ID>  (1619) 
pdb4iyj

>  <RESIDUE_NAME>  (1619) 
GLU   PHE

>  <FRAG_NAME>  (1619) 
ACET   MBZ

>  <FRAG_ATOM_NUM>  (1619) 
fragi: 7  fragj: 15

>  <atom.prop.CHAIN_ID>  (1619) 
A A A A A A A Z Z Z Z Z Z Z Z Z Z Z Z Z Z Z

>  <atom.prop.IS_HEAVY_ATOM>  (1619) 
1 0 0 0 1 1 1 1 0 0 0 1 1 0 1 0 1 0 1 0 1 0

>  <DIFUSE_FUNC_ATOM>  (1619) 
atom 6   atom 7   

>  <FINAL_SINGLE_POINT_ENERGY>  (1619) 
0

>  <NONCOV_INTER_ENERGY_QM>  (1619) 
0

>  <FF_Energy>  (1619) 
0.47

>  <QM_Energy>  (1619) 
-5.45

>  <source>  (1619) 
ACET_MBZ_01

>  <Index>  (1619) 
29682

$$$$
ACET-pdb4iz6-B-ASP-406:MBZ-pdb4iz6-B-PHE-410
     RDKit          3D

 22 21  0  0  0  0  0  0  0  0999 V2000
   -3.4141    5.5951   -1.4063 C   0  0  0  0  0  0  0  0  0  0  0  0
   -4.2169    5.6216   -1.9950 H   0  0  0  0  0  0  0  0  0  0  0  0
   -2.6370    6.0104   -1.8696 H   0  0  0  0  0  0  0  0  0  0  0  0
   -3.6328    6.1981   -0.5250 H   0  0  0  0  0  0  0  0  0  0  0  0
   -3.0806    4.1399   -1.0959 C   0  0  0  0  0  0  0  0  0  0  0  0
   -2.4424    3.5099   -1.9553 O   0  0  0  0  0  1  0  0  0  0  0  0
   -3.4336    3.6067   -0.0308 O   0  0  0  0  0  0  0  0  0  0  0  0
   -0.0050    2.9112    0.0094 C   0  0  0  0  0  0  0  0  0  0  0  0
   -0.8604    3.2129   -0.3884 H   0  0  0  0  0  0  0  0  0  0  0  0
    0.7669    3.2166   -0.5304 H   0  0  0  0  0  0  0  0  0  0  0  0
    0.0810    3.3580    0.9999 H   0  0  0  0  0  0  0  0  0  0  0  0
   -0.0015    1.4045    0.0095 C   0  0  0  0  0  0  0  0  0  0  0  0
   -1.1929    0.6897   -0.0034 C   0  0  0  0  0  0  0  0  0  0  0  0
   -2.0634    1.1821   -0.0170 H   0  0  0  0  0  0  0  0  0  0  0  0
   -1.2022   -0.6972    0.0000 C   0  0  0  0  0  0  0  0  0  0  0  0
   -2.0792   -1.1897    0.0065 H   0  0  0  0  0  0  0  0  0  0  0  0
   -0.0026   -1.3952   -0.0033 C   0  0  0  0  0  0  0  0  0  0  0  0
   -0.0067   -2.3940   -0.0082 H   0  0  0  0  0  0  0  0  0  0  0  0
    1.2022   -0.7002    0.0000 C   0  0  0  0  0  0  0  0  0  0  0  0
    2.0821   -1.1947    0.0063 H   0  0  0  0  0  0  0  0  0  0  0  0
    1.1970    0.6985   -0.0028 C   0  0  0  0  0  0  0  0  0  0  0  0
    2.0641    1.1919   -0.0140 H   0  0  0  0  0  0  0  0  0  0  0  0
  1  5  1  0
  5  6  1  0
  5  7  2  0
  1  2  1  0
  1  3  1  0
  1  4  1  0
  8 12  1  0
 12 13  2  0
 13 15  1  0
 15 17  2  0
 17 19  1  0
 19 21  2  0
 21 12  1  0
  8  9  1  0
  8 10  1  0
  8 11  1  0
 13 14  1  0
 15 16  1  0
 17 18  1  0
 19 20  1  0
 21 22  1  0
M  CHG  1   6  -1
M  END
>  <PDB_ID>  (1620) 
pdb4iz6

>  <RESIDUE_NAME>  (1620) 
ASP   PHE

>  <FRAG_NAME>  (1620) 
ACET   MBZ

>  <FRAG_ATOM_NUM>  (1620) 
fragi: 7  fragj: 15

>  <atom.prop.CHAIN_ID>  (1620) 
A A A A A A A Z Z Z Z Z Z Z Z Z Z Z Z Z Z Z

>  <atom.prop.IS_HEAVY_ATOM>  (1620) 
1 0 0 0 1 1 1 1 0 0 0 1 1 0 1 0 1 0 1 0 1 0

>  <DIFUSE_FUNC_ATOM>  (1620) 
atom 6   atom 7   

>  <FINAL_SINGLE_POINT_ENERGY>  (1620) 
0

>  <NONCOV_INTER_ENERGY_QM>  (1620) 
0

>  <FF_Energy>  (1620) 
0.06

>  <QM_Energy>  (1620) 
-8.63

>  <source>  (1620) 
ACET_MBZ_01

>  <Index>  (1620) 
29713

$$$$
ACET-pdb4iz6-B-ASP-566:MBZ-pdb4iz6-B-PHE-563
     RDKit          3D

 22 21  0  0  0  0  0  0  0  0999 V2000
    3.1784    5.6935   -1.1882 C   0  0  0  0  0  0  0  0  0  0  0  0
    2.2799    5.7101   -1.6127 H   0  0  0  0  0  0  0  0  0  0  0  0
    3.8810    5.9211   -1.8516 H   0  0  0  0  0  0  0  0  0  0  0  0
    3.1946    6.4526   -0.4062 H   0  0  0  0  0  0  0  0  0  0  0  0
    3.4415    4.3014   -0.6551 C   0  0  0  0  0  0  0  0  0  0  0  0
    4.1659    4.1876    0.3588 O   0  0  0  0  0  1  0  0  0  0  0  0
    2.9363    3.3223   -1.2543 O   0  0  0  0  0  0  0  0  0  0  0  0
   -0.0044    2.9011    0.0000 C   0  0  0  0  0  0  0  0  0  0  0  0
    0.9231    3.2094    0.1436 H   0  0  0  0  0  0  0  0  0  0  0  0
   -0.6026    3.2046    0.7257 H   0  0  0  0  0  0  0  0  0  0  0  0
   -0.3615    3.3383   -0.9324 H   0  0  0  0  0  0  0  0  0  0  0  0
   -0.0001    1.3978   -0.0003 C   0  0  0  0  0  0  0  0  0  0  0  0
   -1.1944    0.6872    0.0021 C   0  0  0  0  0  0  0  0  0  0  0  0
   -2.0617    1.1781    0.0040 H   0  0  0  0  0  0  0  0  0  0  0  0
   -1.1951   -0.6959    0.0000 C   0  0  0  0  0  0  0  0  0  0  0  0
   -2.0729   -1.1933    0.0004 H   0  0  0  0  0  0  0  0  0  0  0  0
    0.0006   -1.3857   -0.0013 C   0  0  0  0  0  0  0  0  0  0  0  0
   -0.0027   -2.3881   -0.0039 H   0  0  0  0  0  0  0  0  0  0  0  0
    1.1951   -0.6949    0.0000 C   0  0  0  0  0  0  0  0  0  0  0  0
    2.0790   -1.1932    0.0028 H   0  0  0  0  0  0  0  0  0  0  0  0
    1.1938    0.6915   -0.0004 C   0  0  0  0  0  0  0  0  0  0  0  0
    2.0627    1.1875   -0.0013 H   0  0  0  0  0  0  0  0  0  0  0  0
  1  5  1  0
  5  6  1  0
  5  7  2  0
  1  2  1  0
  1  3  1  0
  1  4  1  0
  8 12  1  0
 12 13  2  0
 13 15  1  0
 15 17  2  0
 17 19  1  0
 19 21  2  0
 21 12  1  0
  8  9  1  0
  8 10  1  0
  8 11  1  0
 13 14  1  0
 15 16  1  0
 17 18  1  0
 19 20  1  0
 21 22  1  0
M  CHG  1   6  -1
M  END
>  <PDB_ID>  (1621) 
pdb4iz6

>  <RESIDUE_NAME>  (1621) 
ASP   PHE

>  <FRAG_NAME>  (1621) 
ACET   MBZ

>  <FRAG_ATOM_NUM>  (1621) 
fragi: 7  fragj: 15

>  <atom.prop.CHAIN_ID>  (1621) 
A A A A A A A Z Z Z Z Z Z Z Z Z Z Z Z Z Z Z

>  <atom.prop.IS_HEAVY_ATOM>  (1621) 
1 0 0 0 1 1 1 1 0 0 0 1 1 0 1 0 1 0 1 0 1 0

>  <DIFUSE_FUNC_ATOM>  (1621) 
atom 6   atom 7   

>  <FINAL_SINGLE_POINT_ENERGY>  (1621) 
0

>  <NONCOV_INTER_ENERGY_QM>  (1621) 
0

>  <FF_Energy>  (1621) 
-1.68

>  <QM_Energy>  (1621) 
-7.41

>  <source>  (1621) 
ACET_MBZ_01

>  <Index>  (1621) 
29721

$$$$
ACET-pdb3lyc-L-GLU-34:MBZ-pdb3lyc-L-PHE-73
     RDKit          3D

 22 21  0  0  0  0  0  0  0  0999 V2000
   -0.4308   -1.8897    3.2962 C   0  0  0  0  0  0  0  0  0  0  0  0
   -0.2515   -2.0024    4.2748 H   0  0  0  0  0  0  0  0  0  0  0  0
    0.3226   -2.2946    2.7747 H   0  0  0  0  0  0  0  0  0  0  0  0
   -1.3349   -2.4515    3.0613 H   0  0  0  0  0  0  0  0  0  0  0  0
   -0.4552   -0.4247    3.0007 C   0  0  0  0  0  0  0  0  0  0  0  0
   -1.4193    0.1574    2.5211 O   0  0  0  0  0  1  0  0  0  0  0  0
    0.6212    0.1367    3.2878 O   0  0  0  0  0  0  0  0  0  0  0  0
   -0.0008    2.8989    0.0369 C   0  0  0  0  0  0  0  0  0  0  0  0
    0.9156    3.2032    0.2516 H   0  0  0  0  0  0  0  0  0  0  0  0
   -0.6444    3.1853    0.7313 H   0  0  0  0  0  0  0  0  0  0  0  0
   -0.2944    3.3709   -0.9007 H   0  0  0  0  0  0  0  0  0  0  0  0
    0.0013    1.4022   -0.0111 C   0  0  0  0  0  0  0  0  0  0  0  0
   -1.1946    0.6936    0.0154 C   0  0  0  0  0  0  0  0  0  0  0  0
   -2.0614    1.1829    0.0444 H   0  0  0  0  0  0  0  0  0  0  0  0
   -1.1990   -0.6981    0.0000 C   0  0  0  0  0  0  0  0  0  0  0  0
   -2.0783   -1.1887   -0.0005 H   0  0  0  0  0  0  0  0  0  0  0  0
   -0.0046   -1.3918   -0.0122 C   0  0  0  0  0  0  0  0  0  0  0  0
   -0.0060   -2.3921   -0.0303 H   0  0  0  0  0  0  0  0  0  0  0  0
    1.1990   -0.6984   -0.0000 C   0  0  0  0  0  0  0  0  0  0  0  0
    2.0787   -1.1988    0.0047 H   0  0  0  0  0  0  0  0  0  0  0  0
    1.1979    0.6925    0.0079 C   0  0  0  0  0  0  0  0  0  0  0  0
    2.0654    1.1870    0.0265 H   0  0  0  0  0  0  0  0  0  0  0  0
  1  5  1  0
  5  6  1  0
  5  7  2  0
  1  2  1  0
  1  3  1  0
  1  4  1  0
  8 12  1  0
 12 13  2  0
 13 15  1  0
 15 17  2  0
 17 19  1  0
 19 21  2  0
 21 12  1  0
  8  9  1  0
  8 10  1  0
  8 11  1  0
 13 14  1  0
 15 16  1  0
 17 18  1  0
 19 20  1  0
 21 22  1  0
M  CHG  1   6  -1
M  END
>  <PDB_ID>  (1622) 
pdb3lyc

>  <RESIDUE_NAME>  (1622) 
GLU   PHE

>  <FRAG_NAME>  (1622) 
ACET   MBZ

>  <FRAG_ATOM_NUM>  (1622) 
fragi: 7  fragj: 15

>  <atom.prop.CHAIN_ID>  (1622) 
A A A A A A A Z Z Z Z Z Z Z Z Z Z Z Z Z Z Z

>  <atom.prop.IS_HEAVY_ATOM>  (1622) 
1 0 0 0 1 1 1 1 0 0 0 1 1 0 1 0 1 0 1 0 1 0

>  <DIFUSE_FUNC_ATOM>  (1622) 
atom 6   atom 7   

>  <FINAL_SINGLE_POINT_ENERGY>  (1622) 
0

>  <NONCOV_INTER_ENERGY_QM>  (1622) 
0

>  <FF_Energy>  (1622) 
16.18

>  <QM_Energy>  (1622) 
3.83

>  <source>  (1622) 
ACET_MBZ_01

>  <Index>  (1622) 
29775

$$$$
ACET-pdb3lyn-B-ASP-97:MBZ-pdb3lyn-B-PHE-100
     RDKit          3D

 22 21  0  0  0  0  0  0  0  0999 V2000
    2.0513    0.0047   -3.1108 C   0  0  0  0  0  0  0  0  0  0  0  0
    2.6342   -0.7529   -2.9742 H   0  0  0  0  0  0  0  0  0  0  0  0
    2.0855    0.6835   -2.4261 H   0  0  0  0  0  0  0  0  0  0  0  0
    2.2967    0.4638   -4.0685 H   0  0  0  0  0  0  0  0  0  0  0  0
    0.6133   -0.4964   -3.2405 C   0  0  0  0  0  0  0  0  0  0  0  0
    0.3954   -1.3954   -4.0825 O   0  0  0  0  0  1  0  0  0  0  0  0
   -0.2609    0.0239   -2.5311 O   0  0  0  0  0  0  0  0  0  0  0  0
   -0.0365    2.9127   -0.0209 C   0  0  0  0  0  0  0  0  0  0  0  0
    0.7723    3.2186   -0.4637 H   0  0  0  0  0  0  0  0  0  0  0  0
   -0.1290    3.2152    0.8979 H   0  0  0  0  0  0  0  0  0  0  0  0
   -0.8977    3.2637   -0.5894 H   0  0  0  0  0  0  0  0  0  0  0  0
   -0.0049    1.3861   -0.0041 C   0  0  0  0  0  0  0  0  0  0  0  0
   -1.1974    0.6752    0.0179 C   0  0  0  0  0  0  0  0  0  0  0  0
   -2.0652    1.1673    0.0460 H   0  0  0  0  0  0  0  0  0  0  0  0
   -1.2027   -0.7080    0.0000 C   0  0  0  0  0  0  0  0  0  0  0  0
   -2.0692   -1.2076   -0.0038 H   0  0  0  0  0  0  0  0  0  0  0  0
    0.0067   -1.3765   -0.0100 C   0  0  0  0  0  0  0  0  0  0  0  0
    0.0152   -2.3845   -0.0253 H   0  0  0  0  0  0  0  0  0  0  0  0
    1.2027   -0.6808   -0.0000 C   0  0  0  0  0  0  0  0  0  0  0  0
    2.0859   -1.1783    0.0118 H   0  0  0  0  0  0  0  0  0  0  0  0
    1.1957    0.7040   -0.0038 C   0  0  0  0  0  0  0  0  0  0  0  0
    2.0560    1.2056   -0.0074 H   0  0  0  0  0  0  0  0  0  0  0  0
  1  5  1  0
  5  6  1  0
  5  7  2  0
  1  2  1  0
  1  3  1  0
  1  4  1  0
  8 12  1  0
 12 13  2  0
 13 15  1  0
 15 17  2  0
 17 19  1  0
 19 21  2  0
 21 12  1  0
  8  9  1  0
  8 10  1  0
  8 11  1  0
 13 14  1  0
 15 16  1  0
 17 18  1  0
 19 20  1  0
 21 22  1  0
M  CHG  1   6  -1
M  END
>  <PDB_ID>  (1623) 
pdb3lyn

>  <RESIDUE_NAME>  (1623) 
ASP   PHE

>  <FRAG_NAME>  (1623) 
ACET   MBZ

>  <FRAG_ATOM_NUM>  (1623) 
fragi: 7  fragj: 15

>  <atom.prop.CHAIN_ID>  (1623) 
A A A A A A A Z Z Z Z Z Z Z Z Z Z Z Z Z Z Z

>  <atom.prop.IS_HEAVY_ATOM>  (1623) 
1 0 0 0 1 1 1 1 0 0 0 1 1 0 1 0 1 0 1 0 1 0

>  <DIFUSE_FUNC_ATOM>  (1623) 
atom 6   atom 7   

>  <FINAL_SINGLE_POINT_ENERGY>  (1623) 
0

>  <NONCOV_INTER_ENERGY_QM>  (1623) 
0

>  <FF_Energy>  (1623) 
14.34

>  <QM_Energy>  (1623) 
5.85

>  <source>  (1623) 
ACET_MBZ_01

>  <Index>  (1623) 
29818

$$$$
ACET-pdb4j0e-A-ASP-228:MBZ-pdb4j0e-A-PHE-242
     RDKit          3D

 22 21  0  0  0  0  0  0  0  0999 V2000
    5.2435    3.8608    0.2533 C   0  0  0  0  0  0  0  0  0  0  0  0
    5.3149    3.6887    1.2297 H   0  0  0  0  0  0  0  0  0  0  0  0
    5.6119    4.7558    0.0310 H   0  0  0  0  0  0  0  0  0  0  0  0
    5.8664    3.1213   -0.2500 H   0  0  0  0  0  0  0  0  0  0  0  0
    3.8205    3.7826   -0.1688 C   0  0  0  0  0  0  0  0  0  0  0  0
    3.5111    3.0102   -1.1307 O   0  0  0  0  0  1  0  0  0  0  0  0
    3.0297    4.5627    0.3747 O   0  0  0  0  0  0  0  0  0  0  0  0
   -0.0817    2.8852   -0.0698 C   0  0  0  0  0  0  0  0  0  0  0  0
    0.7870    3.2457    0.2093 H   0  0  0  0  0  0  0  0  0  0  0  0
   -0.8214    3.2063    0.4902 H   0  0  0  0  0  0  0  0  0  0  0  0
   -0.2668    3.2555   -1.0781 H   0  0  0  0  0  0  0  0  0  0  0  0
   -0.0337    1.3961   -0.0054 C   0  0  0  0  0  0  0  0  0  0  0  0
   -1.1905    0.6705    0.0054 C   0  0  0  0  0  0  0  0  0  0  0  0
   -2.0809    1.1591    0.0165 H   0  0  0  0  0  0  0  0  0  0  0  0
   -1.2027   -0.7015   -0.0000 C   0  0  0  0  0  0  0  0  0  0  0  0
   -2.0707   -1.2067   -0.0165 H   0  0  0  0  0  0  0  0  0  0  0  0
    0.0146   -1.4119    0.0201 C   0  0  0  0  0  0  0  0  0  0  0  0
    0.0149   -2.3939    0.0471 H   0  0  0  0  0  0  0  0  0  0  0  0
    1.2027   -0.6816    0.0000 C   0  0  0  0  0  0  0  0  0  0  0  0
    2.0994   -1.1707    0.0013 H   0  0  0  0  0  0  0  0  0  0  0  0
    1.2096    0.7285   -0.0200 C   0  0  0  0  0  0  0  0  0  0  0  0
    2.0458    1.2260   -0.0438 H   0  0  0  0  0  0  0  0  0  0  0  0
  1  5  1  0
  5  6  1  0
  5  7  2  0
  1  2  1  0
  1  3  1  0
  1  4  1  0
  8 12  1  0
 12 13  2  0
 13 15  1  0
 15 17  2  0
 17 19  1  0
 19 21  2  0
 21 12  1  0
  8  9  1  0
  8 10  1  0
  8 11  1  0
 13 14  1  0
 15 16  1  0
 17 18  1  0
 19 20  1  0
 21 22  1  0
M  CHG  1   6  -1
M  END
>  <PDB_ID>  (1624) 
pdb4j0e

>  <RESIDUE_NAME>  (1624) 
ASP   PHE

>  <FRAG_NAME>  (1624) 
ACET   MBZ

>  <FRAG_ATOM_NUM>  (1624) 
fragi: 7  fragj: 15

>  <atom.prop.CHAIN_ID>  (1624) 
A A A A A A A Z Z Z Z Z Z Z Z Z Z Z Z Z Z Z

>  <atom.prop.IS_HEAVY_ATOM>  (1624) 
1 0 0 0 1 1 1 1 0 0 0 1 1 0 1 0 1 0 1 0 1 0

>  <DIFUSE_FUNC_ATOM>  (1624) 
atom 6   atom 7   

>  <FINAL_SINGLE_POINT_ENERGY>  (1624) 
0

>  <NONCOV_INTER_ENERGY_QM>  (1624) 
0

>  <FF_Energy>  (1624) 
-2.44

>  <QM_Energy>  (1624) 
-8.84

>  <source>  (1624) 
ACET_MBZ_01

>  <Index>  (1624) 
29833

$$$$
ACET-pdb4j0e-A-ASP-246:MBZ-pdb4j0e-A-PHE-293
     RDKit          3D

 22 21  0  0  0  0  0  0  0  0999 V2000
    5.1105    3.7224   -1.7307 C   0  0  0  0  0  0  0  0  0  0  0  0
    5.5163    4.0270   -0.8631 H   0  0  0  0  0  0  0  0  0  0  0  0
    5.3241    4.4013   -2.4397 H   0  0  0  0  0  0  0  0  0  0  0  0
    5.6206    2.8010   -2.0117 H   0  0  0  0  0  0  0  0  0  0  0  0
    3.6874    3.5635   -1.5940 C   0  0  0  0  0  0  0  0  0  0  0  0
    3.0608    2.5577   -1.9129 O   0  0  0  0  0  1  0  0  0  0  0  0
    3.1031    4.4629   -0.9822 O   0  0  0  0  0  0  0  0  0  0  0  0
    0.0442    2.7967   -0.0654 C   0  0  0  0  0  0  0  0  0  0  0  0
    0.9764    3.1117   -0.1343 H   0  0  0  0  0  0  0  0  0  0  0  0
   -0.4189    3.1915    0.7107 H   0  0  0  0  0  0  0  0  0  0  0  0
   -0.4741    3.1564   -0.9543 H   0  0  0  0  0  0  0  0  0  0  0  0
    0.0102    1.3688    0.0142 C   0  0  0  0  0  0  0  0  0  0  0  0
   -1.1954    0.6994   -0.0257 C   0  0  0  0  0  0  0  0  0  0  0  0
   -2.0474    1.1907   -0.0728 H   0  0  0  0  0  0  0  0  0  0  0  0
   -1.1933   -0.6858   -0.0000 C   0  0  0  0  0  0  0  0  0  0  0  0
   -2.0764   -1.1789    0.0050 H   0  0  0  0  0  0  0  0  0  0  0  0
   -0.0075   -1.3687    0.0201 C   0  0  0  0  0  0  0  0  0  0  0  0
   -0.0061   -2.3745    0.0489 H   0  0  0  0  0  0  0  0  0  0  0  0
    1.1933   -0.6829   -0.0000 C   0  0  0  0  0  0  0  0  0  0  0  0
    2.0694   -1.2017   -0.0070 H   0  0  0  0  0  0  0  0  0  0  0  0
    1.1927    0.6692   -0.0087 C   0  0  0  0  0  0  0  0  0  0  0  0
    2.0623    1.1772   -0.0333 H   0  0  0  0  0  0  0  0  0  0  0  0
  1  5  1  0
  5  6  1  0
  5  7  2  0
  1  2  1  0
  1  3  1  0
  1  4  1  0
  8 12  1  0
 12 13  2  0
 13 15  1  0
 15 17  2  0
 17 19  1  0
 19 21  2  0
 21 12  1  0
  8  9  1  0
  8 10  1  0
  8 11  1  0
 13 14  1  0
 15 16  1  0
 17 18  1  0
 19 20  1  0
 21 22  1  0
M  CHG  1   6  -1
M  END
>  <PDB_ID>  (1625) 
pdb4j0e

>  <RESIDUE_NAME>  (1625) 
ASP   PHE

>  <FRAG_NAME>  (1625) 
ACET   MBZ

>  <FRAG_ATOM_NUM>  (1625) 
fragi: 7  fragj: 15

>  <atom.prop.CHAIN_ID>  (1625) 
A A A A A A A Z Z Z Z Z Z Z Z Z Z Z Z Z Z Z

>  <atom.prop.IS_HEAVY_ATOM>  (1625) 
1 0 0 0 1 1 1 1 0 0 0 1 1 0 1 0 1 0 1 0 1 0

>  <DIFUSE_FUNC_ATOM>  (1625) 
atom 6   atom 7   

>  <FINAL_SINGLE_POINT_ENERGY>  (1625) 
0

>  <NONCOV_INTER_ENERGY_QM>  (1625) 
0

>  <FF_Energy>  (1625) 
-1.93

>  <QM_Energy>  (1625) 
-8.26

>  <source>  (1625) 
ACET_MBZ_01

>  <Index>  (1625) 
29834

$$$$
ACET-pdb4j0e-B-ASP-228:MBZ-pdb4j0e-B-PHE-242
     RDKit          3D

 22 21  0  0  0  0  0  0  0  0999 V2000
    5.3080    3.8348    0.4002 C   0  0  0  0  0  0  0  0  0  0  0  0
    5.3980    3.6019    1.3585 H   0  0  0  0  0  0  0  0  0  0  0  0
    5.7184    4.7140    0.2073 H   0  0  0  0  0  0  0  0  0  0  0  0
    5.8901    3.0962   -0.1512 H   0  0  0  0  0  0  0  0  0  0  0  0
    3.8994    3.8157   -0.0097 C   0  0  0  0  0  0  0  0  0  0  0  0
    3.5147    3.0522   -0.9631 O   0  0  0  0  0  1  0  0  0  0  0  0
    3.1303    4.6431    0.5439 O   0  0  0  0  0  0  0  0  0  0  0  0
   -0.0066    2.8994   -0.0070 C   0  0  0  0  0  0  0  0  0  0  0  0
    0.8877    3.2171    0.2612 H   0  0  0  0  0  0  0  0  0  0  0  0
   -0.7110    3.2339    0.5973 H   0  0  0  0  0  0  0  0  0  0  0  0
   -0.2113    3.2991   -1.0002 H   0  0  0  0  0  0  0  0  0  0  0  0
   -0.0125    1.4046    0.0413 C   0  0  0  0  0  0  0  0  0  0  0  0
   -1.2040    0.6865   -0.0147 C   0  0  0  0  0  0  0  0  0  0  0  0
   -2.0730    1.1767   -0.0677 H   0  0  0  0  0  0  0  0  0  0  0  0
   -1.2111   -0.7034   -0.0000 C   0  0  0  0  0  0  0  0  0  0  0  0
   -2.0767   -1.2040    0.0361 H   0  0  0  0  0  0  0  0  0  0  0  0
    0.0115   -1.4071   -0.0346 C   0  0  0  0  0  0  0  0  0  0  0  0
    0.0157   -2.3905   -0.0827 H   0  0  0  0  0  0  0  0  0  0  0  0
    1.2111   -0.6779   -0.0000 C   0  0  0  0  0  0  0  0  0  0  0  0
    2.0970   -1.1823    0.0214 H   0  0  0  0  0  0  0  0  0  0  0  0
    1.2050    0.6973    0.0081 C   0  0  0  0  0  0  0  0  0  0  0  0
    2.0595    1.2101   -0.0102 H   0  0  0  0  0  0  0  0  0  0  0  0
  1  5  1  0
  5  6  1  0
  5  7  2  0
  1  2  1  0
  1  3  1  0
  1  4  1  0
  8 12  1  0
 12 13  2  0
 13 15  1  0
 15 17  2  0
 17 19  1  0
 19 21  2  0
 21 12  1  0
  8  9  1  0
  8 10  1  0
  8 11  1  0
 13 14  1  0
 15 16  1  0
 17 18  1  0
 19 20  1  0
 21 22  1  0
M  CHG  1   6  -1
M  END
>  <PDB_ID>  (1626) 
pdb4j0e

>  <RESIDUE_NAME>  (1626) 
ASP   PHE

>  <FRAG_NAME>  (1626) 
ACET   MBZ

>  <FRAG_ATOM_NUM>  (1626) 
fragi: 7  fragj: 15

>  <atom.prop.CHAIN_ID>  (1626) 
A A A A A A A Z Z Z Z Z Z Z Z Z Z Z Z Z Z Z

>  <atom.prop.IS_HEAVY_ATOM>  (1626) 
1 0 0 0 1 1 1 1 0 0 0 1 1 0 1 0 1 0 1 0 1 0

>  <DIFUSE_FUNC_ATOM>  (1626) 
atom 6   atom 7   

>  <FINAL_SINGLE_POINT_ENERGY>  (1626) 
0

>  <NONCOV_INTER_ENERGY_QM>  (1626) 
0

>  <FF_Energy>  (1626) 
-2.61

>  <QM_Energy>  (1626) 
-8.96

>  <source>  (1626) 
ACET_MBZ_01

>  <Index>  (1626) 
29838

$$$$
ACET-pdb4j0e-B-ASP-246:MBZ-pdb4j0e-B-PHE-293
     RDKit          3D

 22 21  0  0  0  0  0  0  0  0999 V2000
    5.1426    3.6682   -1.9414 C   0  0  0  0  0  0  0  0  0  0  0  0
    5.5759    3.9694   -1.0973 H   0  0  0  0  0  0  0  0  0  0  0  0
    5.3494    4.3032   -2.6787 H   0  0  0  0  0  0  0  0  0  0  0  0
    5.5694    2.7009   -2.2063 H   0  0  0  0  0  0  0  0  0  0  0  0
    3.6729    3.5969   -1.7461 C   0  0  0  0  0  0  0  0  0  0  0  0
    3.0126    2.6420   -2.0628 O   0  0  0  0  0  1  0  0  0  0  0  0
    3.1824    4.5542   -1.1962 O   0  0  0  0  0  0  0  0  0  0  0  0
    0.0321    2.7920   -0.0901 C   0  0  0  0  0  0  0  0  0  0  0  0
    0.9564    3.1181   -0.1822 H   0  0  0  0  0  0  0  0  0  0  0  0
   -0.4251    3.1923    0.6844 H   0  0  0  0  0  0  0  0  0  0  0  0
   -0.5099    3.1110   -0.9804 H   0  0  0  0  0  0  0  0  0  0  0  0
    0.0214    1.3706    0.0143 C   0  0  0  0  0  0  0  0  0  0  0  0
   -1.1991    0.6675    0.0455 C   0  0  0  0  0  0  0  0  0  0  0  0
   -2.0488    1.1640    0.0985 H   0  0  0  0  0  0  0  0  0  0  0  0
   -1.1956   -0.7177    0.0000 C   0  0  0  0  0  0  0  0  0  0  0  0
   -2.0672   -1.2133   -0.0382 H   0  0  0  0  0  0  0  0  0  0  0  0
   -0.0022   -1.3672    0.0102 C   0  0  0  0  0  0  0  0  0  0  0  0
    0.0292   -2.3766    0.0250 H   0  0  0  0  0  0  0  0  0  0  0  0
    1.1956   -0.6559   -0.0000 C   0  0  0  0  0  0  0  0  0  0  0  0
    2.0775   -1.1603    0.0462 H   0  0  0  0  0  0  0  0  0  0  0  0
    1.1798    0.7026   -0.0700 C   0  0  0  0  0  0  0  0  0  0  0  0
    2.0506    1.2010   -0.1871 H   0  0  0  0  0  0  0  0  0  0  0  0
  1  5  1  0
  5  6  1  0
  5  7  2  0
  1  2  1  0
  1  3  1  0
  1  4  1  0
  8 12  1  0
 12 13  2  0
 13 15  1  0
 15 17  2  0
 17 19  1  0
 19 21  2  0
 21 12  1  0
  8  9  1  0
  8 10  1  0
  8 11  1  0
 13 14  1  0
 15 16  1  0
 17 18  1  0
 19 20  1  0
 21 22  1  0
M  CHG  1   6  -1
M  END
>  <PDB_ID>  (1627) 
pdb4j0e

>  <RESIDUE_NAME>  (1627) 
ASP   PHE

>  <FRAG_NAME>  (1627) 
ACET   MBZ

>  <FRAG_ATOM_NUM>  (1627) 
fragi: 7  fragj: 15

>  <atom.prop.CHAIN_ID>  (1627) 
A A A A A A A Z Z Z Z Z Z Z Z Z Z Z Z Z Z Z

>  <atom.prop.IS_HEAVY_ATOM>  (1627) 
1 0 0 0 1 1 1 1 0 0 0 1 1 0 1 0 1 0 1 0 1 0

>  <DIFUSE_FUNC_ATOM>  (1627) 
atom 6   atom 7   

>  <FINAL_SINGLE_POINT_ENERGY>  (1627) 
0

>  <NONCOV_INTER_ENERGY_QM>  (1627) 
0

>  <FF_Energy>  (1627) 
-2.08

>  <QM_Energy>  (1627) 
-7.99

>  <source>  (1627) 
ACET_MBZ_01

>  <Index>  (1627) 
29839

$$$$
ACET-pdb3lyx-B-ASP-24:MBZ-pdb3lyx-B-PHE-28
     RDKit          3D

 22 21  0  0  0  0  0  0  0  0999 V2000
    4.2374    5.6998    0.0734 C   0  0  0  0  0  0  0  0  0  0  0  0
    5.1283    5.5786    0.4977 H   0  0  0  0  0  0  0  0  0  0  0  0
    3.6949    6.3554    0.5861 H   0  0  0  0  0  0  0  0  0  0  0  0
    4.3949    6.1027   -0.9271 H   0  0  0  0  0  0  0  0  0  0  0  0
    3.5075    4.3527    0.0804 C   0  0  0  0  0  0  0  0  0  0  0  0
    3.5353    3.6203   -0.9344 O   0  0  0  0  0  1  0  0  0  0  0  0
    2.9138    4.0247    1.1303 O   0  0  0  0  0  0  0  0  0  0  0  0
   -0.0031    2.9013   -0.1370 C   0  0  0  0  0  0  0  0  0  0  0  0
    0.8706    3.2399    0.1658 H   0  0  0  0  0  0  0  0  0  0  0  0
   -0.7443    3.2573    0.4047 H   0  0  0  0  0  0  0  0  0  0  0  0
   -0.1517    3.2354   -1.1638 H   0  0  0  0  0  0  0  0  0  0  0  0
    0.0005    1.4054   -0.0018 C   0  0  0  0  0  0  0  0  0  0  0  0
   -1.1962    0.6966    0.0022 C   0  0  0  0  0  0  0  0  0  0  0  0
   -2.0634    1.1833    0.0055 H   0  0  0  0  0  0  0  0  0  0  0  0
   -1.2021   -0.7027   -0.0000 C   0  0  0  0  0  0  0  0  0  0  0  0
   -2.0805   -1.1908    0.0024 H   0  0  0  0  0  0  0  0  0  0  0  0
   -0.0029   -1.3967   -0.0039 C   0  0  0  0  0  0  0  0  0  0  0  0
   -0.0036   -2.3960   -0.0097 H   0  0  0  0  0  0  0  0  0  0  0  0
    1.2021   -0.6996    0.0000 C   0  0  0  0  0  0  0  0  0  0  0  0
    2.0818   -1.1963    0.0024 H   0  0  0  0  0  0  0  0  0  0  0  0
    1.1985    0.6969    0.0035 C   0  0  0  0  0  0  0  0  0  0  0  0
    2.0667    1.1902    0.0092 H   0  0  0  0  0  0  0  0  0  0  0  0
  1  5  1  0
  5  6  1  0
  5  7  2  0
  1  2  1  0
  1  3  1  0
  1  4  1  0
  8 12  1  0
 12 13  2  0
 13 15  1  0
 15 17  2  0
 17 19  1  0
 19 21  2  0
 21 12  1  0
  8  9  1  0
  8 10  1  0
  8 11  1  0
 13 14  1  0
 15 16  1  0
 17 18  1  0
 19 20  1  0
 21 22  1  0
M  CHG  1   6  -1
M  END
>  <PDB_ID>  (1628) 
pdb3lyx

>  <RESIDUE_NAME>  (1628) 
ASP   PHE

>  <FRAG_NAME>  (1628) 
ACET   MBZ

>  <FRAG_ATOM_NUM>  (1628) 
fragi: 7  fragj: 15

>  <atom.prop.CHAIN_ID>  (1628) 
A A A A A A A Z Z Z Z Z Z Z Z Z Z Z Z Z Z Z

>  <atom.prop.IS_HEAVY_ATOM>  (1628) 
1 0 0 0 1 1 1 1 0 0 0 1 1 0 1 0 1 0 1 0 1 0

>  <DIFUSE_FUNC_ATOM>  (1628) 
atom 6   atom 7   

>  <FINAL_SINGLE_POINT_ENERGY>  (1628) 
0

>  <NONCOV_INTER_ENERGY_QM>  (1628) 
0

>  <FF_Energy>  (1628) 
-2.01

>  <QM_Energy>  (1628) 
-8.8

>  <source>  (1628) 
ACET_MBZ_01

>  <Index>  (1628) 
29842

$$$$
ACET-pdb3lza-D-ASP-146:MBZ-pdb3lza-C-PHE-91
     RDKit          3D

 22 21  0  0  0  0  0  0  0  0999 V2000
    0.0862    0.5981    3.6059 C   0  0  0  0  0  0  0  0  0  0  0  0
   -0.3877    0.1196    2.8715 H   0  0  0  0  0  0  0  0  0  0  0  0
   -0.2432    0.2784    4.4901 H   0  0  0  0  0  0  0  0  0  0  0  0
    1.1447    0.3471    3.5360 H   0  0  0  0  0  0  0  0  0  0  0  0
   -0.1995    2.0866    3.4845 C   0  0  0  0  0  0  0  0  0  0  0  0
    0.7222    2.9295    3.3503 O   0  0  0  0  0  1  0  0  0  0  0  0
   -1.3885    2.4358    3.5327 O   0  0  0  0  0  0  0  0  0  0  0  0
    0.0121    2.9187    0.0283 C   0  0  0  0  0  0  0  0  0  0  0  0
    0.8774    3.1970    0.4248 H   0  0  0  0  0  0  0  0  0  0  0  0
   -0.7466    3.2031    0.5999 H   0  0  0  0  0  0  0  0  0  0  0  0
   -0.0900    3.4224   -0.9330 H   0  0  0  0  0  0  0  0  0  0  0  0
    0.0000    1.3983   -0.0307 C   0  0  0  0  0  0  0  0  0  0  0  0
   -1.1830    0.6938   -0.0070 C   0  0  0  0  0  0  0  0  0  0  0  0
   -2.0547    1.1745    0.0037 H   0  0  0  0  0  0  0  0  0  0  0  0
   -1.1717   -0.6910   -0.0000 C   0  0  0  0  0  0  0  0  0  0  0  0
   -2.0625   -1.1812   -0.0170 H   0  0  0  0  0  0  0  0  0  0  0  0
   -0.0061   -1.3587    0.0303 C   0  0  0  0  0  0  0  0  0  0  0  0
   -0.0137   -2.3795    0.0767 H   0  0  0  0  0  0  0  0  0  0  0  0
    1.1717   -0.7031    0.0000 C   0  0  0  0  0  0  0  0  0  0  0  0
    2.0567   -1.2151   -0.0270 H   0  0  0  0  0  0  0  0  0  0  0  0
    1.1891    0.6607    0.0074 C   0  0  0  0  0  0  0  0  0  0  0  0
    2.0616    1.1585    0.0394 H   0  0  0  0  0  0  0  0  0  0  0  0
  1  5  1  0
  5  6  1  0
  5  7  2  0
  1  2  1  0
  1  3  1  0
  1  4  1  0
  8 12  1  0
 12 13  2  0
 13 15  1  0
 15 17  2  0
 17 19  1  0
 19 21  2  0
 21 12  1  0
  8  9  1  0
  8 10  1  0
  8 11  1  0
 13 14  1  0
 15 16  1  0
 17 18  1  0
 19 20  1  0
 21 22  1  0
M  CHG  1   6  -1
M  END
>  <PDB_ID>  (1629) 
pdb3lza

>  <RESIDUE_NAME>  (1629) 
ASP   PHE

>  <FRAG_NAME>  (1629) 
ACET   MBZ

>  <FRAG_ATOM_NUM>  (1629) 
fragi: 7  fragj: 15

>  <atom.prop.CHAIN_ID>  (1629) 
A A A A A A A Z Z Z Z Z Z Z Z Z Z Z Z Z Z Z

>  <atom.prop.IS_HEAVY_ATOM>  (1629) 
1 0 0 0 1 1 1 1 0 0 0 1 1 0 1 0 1 0 1 0 1 0

>  <DIFUSE_FUNC_ATOM>  (1629) 
atom 6   atom 7   

>  <FINAL_SINGLE_POINT_ENERGY>  (1629) 
0

>  <NONCOV_INTER_ENERGY_QM>  (1629) 
0

>  <FF_Energy>  (1629) 
-0.68

>  <QM_Energy>  (1629) 
-6.14

>  <source>  (1629) 
ACET_MBZ_01

>  <Index>  (1629) 
29890

$$$$
ACET-pdb3m1n-A-ASP-95:MBZ-pdb3m1n-A-PHE-86
     RDKit          3D

 22 21  0  0  0  0  0  0  0  0999 V2000
   -4.6370    2.5472    1.2704 C   0  0  0  0  0  0  0  0  0  0  0  0
   -4.5143    2.0000    0.4498 H   0  0  0  0  0  0  0  0  0  0  0  0
   -5.3564    3.2186    1.1362 H   0  0  0  0  0  0  0  0  0  0  0  0
   -4.9462    1.8802    2.0751 H   0  0  0  0  0  0  0  0  0  0  0  0
   -3.3220    3.2940    1.5563 C   0  0  0  0  0  0  0  0  0  0  0  0
   -2.7923    3.3043    2.7250 O   0  0  0  0  0  1  0  0  0  0  0  0
   -2.8095    3.9052    0.5765 O   0  0  0  0  0  0  0  0  0  0  0  0
    0.0122    2.9142   -0.0003 C   0  0  0  0  0  0  0  0  0  0  0  0
    0.8324    3.2406    0.4318 H   0  0  0  0  0  0  0  0  0  0  0  0
   -0.8001    3.2346    0.4520 H   0  0  0  0  0  0  0  0  0  0  0  0
   -0.0025    3.3405   -1.0034 H   0  0  0  0  0  0  0  0  0  0  0  0
    0.0183    1.4134    0.0141 C   0  0  0  0  0  0  0  0  0  0  0  0
   -1.1945    0.7091    0.0128 C   0  0  0  0  0  0  0  0  0  0  0  0
   -2.0565    1.1853    0.0192 H   0  0  0  0  0  0  0  0  0  0  0  0
   -1.2093   -0.7303   -0.0000 C   0  0  0  0  0  0  0  0  0  0  0  0
   -2.0996   -1.1863    0.0151 H   0  0  0  0  0  0  0  0  0  0  0  0
   -0.0328   -1.4090   -0.0299 C   0  0  0  0  0  0  0  0  0  0  0  0
    0.0057   -2.4016   -0.0721 H   0  0  0  0  0  0  0  0  0  0  0  0
    1.2093   -0.6802    0.0000 C   0  0  0  0  0  0  0  0  0  0  0  0
    2.0731   -1.2016    0.0201 H   0  0  0  0  0  0  0  0  0  0  0  0
    1.2089    0.6971    0.0030 C   0  0  0  0  0  0  0  0  0  0  0  0
    2.0798    1.1966   -0.0036 H   0  0  0  0  0  0  0  0  0  0  0  0
  1  5  1  0
  5  6  1  0
  5  7  2  0
  1  2  1  0
  1  3  1  0
  1  4  1  0
  8 12  1  0
 12 13  2  0
 13 15  1  0
 15 17  2  0
 17 19  1  0
 19 21  2  0
 21 12  1  0
  8  9  1  0
  8 10  1  0
  8 11  1  0
 13 14  1  0
 15 16  1  0
 17 18  1  0
 19 20  1  0
 21 22  1  0
M  CHG  1   6  -1
M  END
>  <PDB_ID>  (1630) 
pdb3m1n

>  <RESIDUE_NAME>  (1630) 
ASP   PHE

>  <FRAG_NAME>  (1630) 
ACET   MBZ

>  <FRAG_ATOM_NUM>  (1630) 
fragi: 7  fragj: 15

>  <atom.prop.CHAIN_ID>  (1630) 
A A A A A A A Z Z Z Z Z Z Z Z Z Z Z Z Z Z Z

>  <atom.prop.IS_HEAVY_ATOM>  (1630) 
1 0 0 0 1 1 1 1 0 0 0 1 1 0 1 0 1 0 1 0 1 0

>  <DIFUSE_FUNC_ATOM>  (1630) 
atom 6   atom 7   

>  <FINAL_SINGLE_POINT_ENERGY>  (1630) 
0

>  <NONCOV_INTER_ENERGY_QM>  (1630) 
0

>  <FF_Energy>  (1630) 
1.51

>  <QM_Energy>  (1630) 
-7.03

>  <source>  (1630) 
ACET_MBZ_01

>  <Index>  (1630) 
30041

$$$$
ACET-pdb4j3z-F-GLU-261:MBZ-pdb4j3z-H-PHE-83
     RDKit          3D

 22 21  0  0  0  0  0  0  0  0999 V2000
    3.2619   -3.8542    3.0831 C   0  0  0  0  0  0  0  0  0  0  0  0
    2.8782   -4.7512    3.1672 H   0  0  0  0  0  0  0  0  0  0  0  0
    2.7770   -3.1836    3.6075 H   0  0  0  0  0  0  0  0  0  0  0  0
    4.2917   -3.8891    3.4387 H   0  0  0  0  0  0  0  0  0  0  0  0
    3.1823   -3.4508    1.6303 C   0  0  0  0  0  0  0  0  0  0  0  0
    3.0816   -4.3590    0.7747 O   0  0  0  0  0  1  0  0  0  0  0  0
    3.2499   -2.2283    1.3467 O   0  0  0  0  0  0  0  0  0  0  0  0
    0.0014    2.8675    0.0119 C   0  0  0  0  0  0  0  0  0  0  0  0
   -0.3140    3.1907   -0.8693 H   0  0  0  0  0  0  0  0  0  0  0  0
    0.9248    3.1747    0.1945 H   0  0  0  0  0  0  0  0  0  0  0  0
   -0.6466    3.3020    0.7731 H   0  0  0  0  0  0  0  0  0  0  0  0
   -0.0040    1.3781   -0.0047 C   0  0  0  0  0  0  0  0  0  0  0  0
   -1.1815    0.6813    0.0124 C   0  0  0  0  0  0  0  0  0  0  0  0
   -2.0534    1.1750    0.0332 H   0  0  0  0  0  0  0  0  0  0  0  0
   -1.1830   -0.6844   -0.0000 C   0  0  0  0  0  0  0  0  0  0  0  0
   -2.0574   -1.1898   -0.0096 H   0  0  0  0  0  0  0  0  0  0  0  0
    0.0125   -1.3663    0.0024 C   0  0  0  0  0  0  0  0  0  0  0  0
    0.0019   -2.3749    0.0053 H   0  0  0  0  0  0  0  0  0  0  0  0
    1.1830   -0.6861    0.0000 C   0  0  0  0  0  0  0  0  0  0  0  0
    2.0753   -1.1828    0.0072 H   0  0  0  0  0  0  0  0  0  0  0  0
    1.1730    0.6775   -0.0100 C   0  0  0  0  0  0  0  0  0  0  0  0
    2.0482    1.1817   -0.0223 H   0  0  0  0  0  0  0  0  0  0  0  0
  1  5  1  0
  5  6  1  0
  5  7  2  0
  1  2  1  0
  1  3  1  0
  1  4  1  0
  8 12  1  0
 12 13  2  0
 13 15  1  0
 15 17  2  0
 17 19  1  0
 19 21  2  0
 21 12  1  0
  8  9  1  0
  8 10  1  0
  8 11  1  0
 13 14  1  0
 15 16  1  0
 17 18  1  0
 19 20  1  0
 21 22  1  0
M  CHG  1   6  -1
M  END
>  <PDB_ID>  (1631) 
pdb4j3z

>  <RESIDUE_NAME>  (1631) 
GLU   PHE

>  <FRAG_NAME>  (1631) 
ACET   MBZ

>  <FRAG_ATOM_NUM>  (1631) 
fragi: 7  fragj: 15

>  <atom.prop.CHAIN_ID>  (1631) 
A A A A A A A Z Z Z Z Z Z Z Z Z Z Z Z Z Z Z

>  <atom.prop.IS_HEAVY_ATOM>  (1631) 
1 0 0 0 1 1 1 1 0 0 0 1 1 0 1 0 1 0 1 0 1 0

>  <DIFUSE_FUNC_ATOM>  (1631) 
atom 6   atom 7   

>  <FINAL_SINGLE_POINT_ENERGY>  (1631) 
0

>  <NONCOV_INTER_ENERGY_QM>  (1631) 
0

>  <FF_Energy>  (1631) 
2.66

>  <QM_Energy>  (1631) 
-5.3

>  <source>  (1631) 
ACET_MBZ_01

>  <Index>  (1631) 
30059

$$$$
ACET-pdb4j75-B-ASP-521:MBZ-pdb4j75-B-PHE-518
     RDKit          3D

 22 21  0  0  0  0  0  0  0  0999 V2000
    3.5205    5.9085   -0.1330 C   0  0  0  0  0  0  0  0  0  0  0  0
    2.8639    6.2221   -0.8112 H   0  0  0  0  0  0  0  0  0  0  0  0
    4.4357    6.2114   -0.3708 H   0  0  0  0  0  0  0  0  0  0  0  0
    3.2558    6.3611    0.8225 H   0  0  0  0  0  0  0  0  0  0  0  0
    3.4999    4.3897   -0.0984 C   0  0  0  0  0  0  0  0  0  0  0  0
    3.3685    3.8006    0.9942 O   0  0  0  0  0  1  0  0  0  0  0  0
    3.6278    3.7795   -1.1799 O   0  0  0  0  0  0  0  0  0  0  0  0
    0.0016    2.8965    0.0147 C   0  0  0  0  0  0  0  0  0  0  0  0
    0.8880    3.1997    0.3356 H   0  0  0  0  0  0  0  0  0  0  0  0
   -0.7205    3.1981    0.6218 H   0  0  0  0  0  0  0  0  0  0  0  0
   -0.1725    3.3485   -0.9618 H   0  0  0  0  0  0  0  0  0  0  0  0
    0.0004    1.3978    0.0007 C   0  0  0  0  0  0  0  0  0  0  0  0
   -1.1924    0.6982    0.0024 C   0  0  0  0  0  0  0  0  0  0  0  0
   -2.0585    1.1895    0.0043 H   0  0  0  0  0  0  0  0  0  0  0  0
   -1.1972   -0.6864    0.0000 C   0  0  0  0  0  0  0  0  0  0  0  0
   -2.0789   -1.1805    0.0025 H   0  0  0  0  0  0  0  0  0  0  0  0
   -0.0035   -1.3908   -0.0040 C   0  0  0  0  0  0  0  0  0  0  0  0
   -0.0156   -2.3898   -0.0097 H   0  0  0  0  0  0  0  0  0  0  0  0
    1.1972   -0.7036   -0.0000 C   0  0  0  0  0  0  0  0  0  0  0  0
    2.0769   -1.2035    0.0042 H   0  0  0  0  0  0  0  0  0  0  0  0
    1.1956    0.6848    0.0009 C   0  0  0  0  0  0  0  0  0  0  0  0
    2.0647    1.1805    0.0008 H   0  0  0  0  0  0  0  0  0  0  0  0
  1  5  1  0
  5  6  1  0
  5  7  2  0
  1  2  1  0
  1  3  1  0
  1  4  1  0
  8 12  1  0
 12 13  2  0
 13 15  1  0
 15 17  2  0
 17 19  1  0
 19 21  2  0
 21 12  1  0
  8  9  1  0
  8 10  1  0
  8 11  1  0
 13 14  1  0
 15 16  1  0
 17 18  1  0
 19 20  1  0
 21 22  1  0
M  CHG  1   6  -1
M  END
>  <PDB_ID>  (1632) 
pdb4j75

>  <RESIDUE_NAME>  (1632) 
ASP   PHE

>  <FRAG_NAME>  (1632) 
ACET   MBZ

>  <FRAG_ATOM_NUM>  (1632) 
fragi: 7  fragj: 15

>  <atom.prop.CHAIN_ID>  (1632) 
A A A A A A A Z Z Z Z Z Z Z Z Z Z Z Z Z Z Z

>  <atom.prop.IS_HEAVY_ATOM>  (1632) 
1 0 0 0 1 1 1 1 0 0 0 1 1 0 1 0 1 0 1 0 1 0

>  <DIFUSE_FUNC_ATOM>  (1632) 
atom 6   atom 7   

>  <FINAL_SINGLE_POINT_ENERGY>  (1632) 
0

>  <NONCOV_INTER_ENERGY_QM>  (1632) 
0

>  <FF_Energy>  (1632) 
-2.41

>  <QM_Energy>  (1632) 
-7.73

>  <source>  (1632) 
ACET_MBZ_01

>  <Index>  (1632) 
30230

$$$$
ACET-pdb4j7b-A-ASP-108:MBZ-pdb4j7b-A-PHE-111
     RDKit          3D

 22 21  0  0  0  0  0  0  0  0999 V2000
    5.2701    4.7619   -1.2592 C   0  0  0  0  0  0  0  0  0  0  0  0
    6.0352    4.3654   -1.7590 H   0  0  0  0  0  0  0  0  0  0  0  0
    5.5906    5.1692   -0.4093 H   0  0  0  0  0  0  0  0  0  0  0  0
    4.8442    5.5561   -1.8724 H   0  0  0  0  0  0  0  0  0  0  0  0
    4.2822    3.6459   -0.9209 C   0  0  0  0  0  0  0  0  0  0  0  0
    3.1314    3.6371   -1.4241 O   0  0  0  0  0  1  0  0  0  0  0  0
    4.6746    2.7617   -0.1280 O   0  0  0  0  0  0  0  0  0  0  0  0
   -0.0008    2.8842   -0.0130 C   0  0  0  0  0  0  0  0  0  0  0  0
    0.8969    3.1969    0.2667 H   0  0  0  0  0  0  0  0  0  0  0  0
   -0.6965    3.1953    0.6210 H   0  0  0  0  0  0  0  0  0  0  0  0
   -0.2174    3.3241   -0.9865 H   0  0  0  0  0  0  0  0  0  0  0  0
    0.0020    1.3913   -0.0046 C   0  0  0  0  0  0  0  0  0  0  0  0
   -1.1807    0.6926   -0.0064 C   0  0  0  0  0  0  0  0  0  0  0  0
   -2.0532    1.1827   -0.0143 H   0  0  0  0  0  0  0  0  0  0  0  0
   -1.1909   -0.6921    0.0000 C   0  0  0  0  0  0  0  0  0  0  0  0
   -2.0748   -1.1806   -0.0011 H   0  0  0  0  0  0  0  0  0  0  0  0
   -0.0050   -1.3871    0.0100 C   0  0  0  0  0  0  0  0  0  0  0  0
   -0.0066   -2.3864    0.0239 H   0  0  0  0  0  0  0  0  0  0  0  0
    1.1909   -0.6925   -0.0000 C   0  0  0  0  0  0  0  0  0  0  0  0
    2.0732   -1.1923   -0.0068 H   0  0  0  0  0  0  0  0  0  0  0  0
    1.1837    0.6878    0.0011 C   0  0  0  0  0  0  0  0  0  0  0  0
    2.0584    1.1845    0.0055 H   0  0  0  0  0  0  0  0  0  0  0  0
  1  5  1  0
  5  6  1  0
  5  7  2  0
  1  2  1  0
  1  3  1  0
  1  4  1  0
  8 12  1  0
 12 13  2  0
 13 15  1  0
 15 17  2  0
 17 19  1  0
 19 21  2  0
 21 12  1  0
  8  9  1  0
  8 10  1  0
  8 11  1  0
 13 14  1  0
 15 16  1  0
 17 18  1  0
 19 20  1  0
 21 22  1  0
M  CHG  1   6  -1
M  END
>  <PDB_ID>  (1633) 
pdb4j7b

>  <RESIDUE_NAME>  (1633) 
ASP   PHE

>  <FRAG_NAME>  (1633) 
ACET   MBZ

>  <FRAG_ATOM_NUM>  (1633) 
fragi: 7  fragj: 15

>  <atom.prop.CHAIN_ID>  (1633) 
A A A A A A A Z Z Z Z Z Z Z Z Z Z Z Z Z Z Z

>  <atom.prop.IS_HEAVY_ATOM>  (1633) 
1 0 0 0 1 1 1 1 0 0 0 1 1 0 1 0 1 0 1 0 1 0

>  <DIFUSE_FUNC_ATOM>  (1633) 
atom 6   atom 7   

>  <FINAL_SINGLE_POINT_ENERGY>  (1633) 
0

>  <NONCOV_INTER_ENERGY_QM>  (1633) 
0

>  <FF_Energy>  (1633) 
-2.4

>  <QM_Energy>  (1633) 
-7.43

>  <source>  (1633) 
ACET_MBZ_01

>  <Index>  (1633) 
30240

$$$$
ACET-pdb4j82-A-ASP-117:MBZ-pdb4j82-A-PHE-142
     RDKit          3D

 22 21  0  0  0  0  0  0  0  0999 V2000
   -1.5451    0.7357    3.6016 C   0  0  0  0  0  0  0  0  0  0  0  0
   -1.7082    0.5397    4.5636 H   0  0  0  0  0  0  0  0  0  0  0  0
   -1.8573   -0.0210    3.0374 H   0  0  0  0  0  0  0  0  0  0  0  0
   -2.1317    1.6152    3.3359 H   0  0  0  0  0  0  0  0  0  0  0  0
   -0.0662    0.9329    3.3851 C   0  0  0  0  0  0  0  0  0  0  0  0
    0.3661    2.0914    3.2039 O   0  0  0  0  0  1  0  0  0  0  0  0
    0.6779   -0.0756    3.4198 O   0  0  0  0  0  0  0  0  0  0  0  0
    0.0179    2.9071    0.0000 C   0  0  0  0  0  0  0  0  0  0  0  0
    0.6816    3.2075   -0.6727 H   0  0  0  0  0  0  0  0  0  0  0  0
    0.2799    3.2029    0.9094 H   0  0  0  0  0  0  0  0  0  0  0  0
   -0.9345    3.3797   -0.2401 H   0  0  0  0  0  0  0  0  0  0  0  0
   -0.0037    1.4000   -0.0096 C   0  0  0  0  0  0  0  0  0  0  0  0
   -1.1962    0.6908   -0.0002 C   0  0  0  0  0  0  0  0  0  0  0  0
   -2.0645    1.1796    0.0048 H   0  0  0  0  0  0  0  0  0  0  0  0
   -1.1968   -0.6972    0.0000 C   0  0  0  0  0  0  0  0  0  0  0  0
   -2.0717   -1.1941   -0.0013 H   0  0  0  0  0  0  0  0  0  0  0  0
    0.0059   -1.3882    0.0036 C   0  0  0  0  0  0  0  0  0  0  0  0
    0.0015   -2.3890    0.0084 H   0  0  0  0  0  0  0  0  0  0  0  0
    1.1968   -0.6933   -0.0000 C   0  0  0  0  0  0  0  0  0  0  0  0
    2.0823   -1.1929   -0.0053 H   0  0  0  0  0  0  0  0  0  0  0  0
    1.1940    0.6879    0.0061 C   0  0  0  0  0  0  0  0  0  0  0  0
    2.0611    1.1889    0.0215 H   0  0  0  0  0  0  0  0  0  0  0  0
  1  5  1  0
  5  6  1  0
  5  7  2  0
  1  2  1  0
  1  3  1  0
  1  4  1  0
  8 12  1  0
 12 13  2  0
 13 15  1  0
 15 17  2  0
 17 19  1  0
 19 21  2  0
 21 12  1  0
  8  9  1  0
  8 10  1  0
  8 11  1  0
 13 14  1  0
 15 16  1  0
 17 18  1  0
 19 20  1  0
 21 22  1  0
M  CHG  1   6  -1
M  END
>  <PDB_ID>  (1634) 
pdb4j82

>  <RESIDUE_NAME>  (1634) 
ASP   PHE

>  <FRAG_NAME>  (1634) 
ACET   MBZ

>  <FRAG_ATOM_NUM>  (1634) 
fragi: 7  fragj: 15

>  <atom.prop.CHAIN_ID>  (1634) 
A A A A A A A Z Z Z Z Z Z Z Z Z Z Z Z Z Z Z

>  <atom.prop.IS_HEAVY_ATOM>  (1634) 
1 0 0 0 1 1 1 1 0 0 0 1 1 0 1 0 1 0 1 0 1 0

>  <DIFUSE_FUNC_ATOM>  (1634) 
atom 6   atom 7   

>  <FINAL_SINGLE_POINT_ENERGY>  (1634) 
0

>  <NONCOV_INTER_ENERGY_QM>  (1634) 
0

>  <FF_Energy>  (1634) 
2.71

>  <QM_Energy>  (1634) 
-3.83

>  <source>  (1634) 
ACET_MBZ_01

>  <Index>  (1634) 
30283

$$$$
ACET-pdb4j8s-A-GLU-888:MBZ-pdb4j8s-B-PHE-319
     RDKit          3D

 22 21  0  0  0  0  0  0  0  0999 V2000
    0.5048    0.6842    3.6336 C   0  0  0  0  0  0  0  0  0  0  0  0
    1.4238    0.4750    3.8631 H   0  0  0  0  0  0  0  0  0  0  0  0
    0.2608    0.2453    2.8042 H   0  0  0  0  0  0  0  0  0  0  0  0
   -0.1501    0.3297    4.4295 H   0  0  0  0  0  0  0  0  0  0  0  0
    0.4021    2.1855    3.4197 C   0  0  0  0  0  0  0  0  0  0  0  0
   -0.7492    2.6586    3.3148 O   0  0  0  0  0  1  0  0  0  0  0  0
    1.4462    2.8579    3.3635 O   0  0  0  0  0  0  0  0  0  0  0  0
    0.0183    2.8858   -0.0046 C   0  0  0  0  0  0  0  0  0  0  0  0
    0.9432    3.1765   -0.0099 H   0  0  0  0  0  0  0  0  0  0  0  0
   -0.4159    3.1819    0.8113 H   0  0  0  0  0  0  0  0  0  0  0  0
   -0.4955    3.3286   -0.8579 H   0  0  0  0  0  0  0  0  0  0  0  0
    0.0070    1.3903   -0.0144 C   0  0  0  0  0  0  0  0  0  0  0  0
   -1.1858    0.6866   -0.0086 C   0  0  0  0  0  0  0  0  0  0  0  0
   -1.9919    1.1503   -0.0122 H   0  0  0  0  0  0  0  0  0  0  0  0
   -1.1945   -0.7040   -0.0000 C   0  0  0  0  0  0  0  0  0  0  0  0
   -2.0009   -1.1676   -0.0009 H   0  0  0  0  0  0  0  0  0  0  0  0
   -0.0085   -1.3853    0.0153 C   0  0  0  0  0  0  0  0  0  0  0  0
   -0.0002   -2.3156    0.0125 H   0  0  0  0  0  0  0  0  0  0  0  0
    1.1945   -0.6674   -0.0000 C   0  0  0  0  0  0  0  0  0  0  0  0
    2.0041   -1.1248    0.0139 H   0  0  0  0  0  0  0  0  0  0  0  0
    1.1873    0.6797    0.0077 C   0  0  0  0  0  0  0  0  0  0  0  0
    1.9960    1.1396    0.0035 H   0  0  0  0  0  0  0  0  0  0  0  0
  1  5  1  0
  5  6  1  0
  5  7  2  0
  1  2  1  0
  1  3  1  0
  1  4  1  0
  8 12  1  0
 12 13  2  0
 13 15  1  0
 15 17  2  0
 17 19  1  0
 19 21  2  0
 21 12  1  0
  8  9  1  0
  8 10  1  0
  8 11  1  0
 13 14  1  0
 15 16  1  0
 17 18  1  0
 19 20  1  0
 21 22  1  0
M  CHG  1   6  -1
M  END
>  <PDB_ID>  (1635) 
pdb4j8s

>  <RESIDUE_NAME>  (1635) 
GLU   PHE

>  <FRAG_NAME>  (1635) 
ACET   MBZ

>  <FRAG_ATOM_NUM>  (1635) 
fragi: 7  fragj: 15

>  <atom.prop.CHAIN_ID>  (1635) 
A A A A A A A Z Z Z Z Z Z Z Z Z Z Z Z Z Z Z

>  <atom.prop.IS_HEAVY_ATOM>  (1635) 
1 0 0 0 1 1 1 1 0 0 0 1 1 0 1 0 1 0 1 0 1 0

>  <DIFUSE_FUNC_ATOM>  (1635) 
atom 6   atom 7   

>  <FINAL_SINGLE_POINT_ENERGY>  (1635) 
0

>  <NONCOV_INTER_ENERGY_QM>  (1635) 
0

>  <FF_Energy>  (1635) 
-0.59

>  <QM_Energy>  (1635) 
-6.68

>  <source>  (1635) 
ACET_MBZ_01

>  <Index>  (1635) 
30344

$$$$
ACET-pdb3m8w-A-ASP-84:MBZ-pdb3m8w-A-PHE-101
     RDKit          3D

 22 21  0  0  0  0  0  0  0  0999 V2000
   -3.2629    4.6950   -2.3229 C   0  0  0  0  0  0  0  0  0  0  0  0
   -2.6408    4.5501   -3.0808 H   0  0  0  0  0  0  0  0  0  0  0  0
   -2.9253    5.4031   -1.7183 H   0  0  0  0  0  0  0  0  0  0  0  0
   -4.2193    5.0243   -2.7292 H   0  0  0  0  0  0  0  0  0  0  0  0
   -3.3918    3.4045   -1.5424 C   0  0  0  0  0  0  0  0  0  0  0  0
   -3.2204    2.3321   -2.1532 O   0  0  0  0  0  1  0  0  0  0  0  0
   -3.7104    3.4667   -0.3303 O   0  0  0  0  0  0  0  0  0  0  0  0
    0.0021    2.8977    0.0269 C   0  0  0  0  0  0  0  0  0  0  0  0
   -0.8315    3.2163   -0.3925 H   0  0  0  0  0  0  0  0  0  0  0  0
    0.8004    3.2172   -0.4547 H   0  0  0  0  0  0  0  0  0  0  0  0
    0.0404    3.2994    1.0394 H   0  0  0  0  0  0  0  0  0  0  0  0
    0.0020    1.4010   -0.0077 C   0  0  0  0  0  0  0  0  0  0  0  0
   -1.1994    0.6924    0.0030 C   0  0  0  0  0  0  0  0  0  0  0  0
   -2.0628    1.1889    0.0120 H   0  0  0  0  0  0  0  0  0  0  0  0
   -1.2077   -0.6929   -0.0000 C   0  0  0  0  0  0  0  0  0  0  0  0
   -2.0838   -1.1880    0.0002 H   0  0  0  0  0  0  0  0  0  0  0  0
   -0.0041   -1.3976   -0.0014 C   0  0  0  0  0  0  0  0  0  0  0  0
   -0.0098   -2.3926   -0.0042 H   0  0  0  0  0  0  0  0  0  0  0  0
    1.2077   -0.6996   -0.0000 C   0  0  0  0  0  0  0  0  0  0  0  0
    2.0837   -1.1977   -0.0021 H   0  0  0  0  0  0  0  0  0  0  0  0
    1.2015    0.6966    0.0061 C   0  0  0  0  0  0  0  0  0  0  0  0
    2.0676    1.1919    0.0200 H   0  0  0  0  0  0  0  0  0  0  0  0
  1  5  1  0
  5  6  1  0
  5  7  2  0
  1  2  1  0
  1  3  1  0
  1  4  1  0
  8 12  1  0
 12 13  2  0
 13 15  1  0
 15 17  2  0
 17 19  1  0
 19 21  2  0
 21 12  1  0
  8  9  1  0
  8 10  1  0
  8 11  1  0
 13 14  1  0
 15 16  1  0
 17 18  1  0
 19 20  1  0
 21 22  1  0
M  CHG  1   6  -1
M  END
>  <PDB_ID>  (1636) 
pdb3m8w

>  <RESIDUE_NAME>  (1636) 
ASP   PHE

>  <FRAG_NAME>  (1636) 
ACET   MBZ

>  <FRAG_ATOM_NUM>  (1636) 
fragi: 7  fragj: 15

>  <atom.prop.CHAIN_ID>  (1636) 
A A A A A A A Z Z Z Z Z Z Z Z Z Z Z Z Z Z Z

>  <atom.prop.IS_HEAVY_ATOM>  (1636) 
1 0 0 0 1 1 1 1 0 0 0 1 1 0 1 0 1 0 1 0 1 0

>  <DIFUSE_FUNC_ATOM>  (1636) 
atom 6   atom 7   

>  <FINAL_SINGLE_POINT_ENERGY>  (1636) 
0

>  <NONCOV_INTER_ENERGY_QM>  (1636) 
0

>  <FF_Energy>  (1636) 
-2.21

>  <QM_Energy>  (1636) 
-7.79

>  <source>  (1636) 
ACET_MBZ_01

>  <Index>  (1636) 
30375

$$$$
ACET-pdb3m95-B-GLU-34:MBZ-pdb3m95-B-PHE-3
     RDKit          3D

 22 21  0  0  0  0  0  0  0  0999 V2000
   -4.8727    1.8246   -0.6108 C   0  0  0  0  0  0  0  0  0  0  0  0
   -5.7537    2.1710   -0.8673 H   0  0  0  0  0  0  0  0  0  0  0  0
   -4.8314    1.5625    0.3334 H   0  0  0  0  0  0  0  0  0  0  0  0
   -4.6380    0.9593   -1.2307 H   0  0  0  0  0  0  0  0  0  0  0  0
   -3.8723    2.9376   -0.8149 C   0  0  0  0  0  0  0  0  0  0  0  0
   -3.1570    2.9988   -1.8611 O   0  0  0  0  0  1  0  0  0  0  0  0
   -3.7989    3.7781    0.0843 O   0  0  0  0  0  0  0  0  0  0  0  0
    0.0168    2.9373   -0.0074 C   0  0  0  0  0  0  0  0  0  0  0  0
    0.7819    3.2371    0.5322 H   0  0  0  0  0  0  0  0  0  0  0  0
   -0.8409    3.2522    0.3544 H   0  0  0  0  0  0  0  0  0  0  0  0
    0.1290    3.3748   -0.9994 H   0  0  0  0  0  0  0  0  0  0  0  0
    0.0016    1.4087    0.0014 C   0  0  0  0  0  0  0  0  0  0  0  0
   -1.1907    0.7267   -0.0068 C   0  0  0  0  0  0  0  0  0  0  0  0
   -2.0568    1.2111   -0.0190 H   0  0  0  0  0  0  0  0  0  0  0  0
   -1.2038   -0.6800   -0.0000 C   0  0  0  0  0  0  0  0  0  0  0  0
   -2.0941   -1.1571    0.0168 H   0  0  0  0  0  0  0  0  0  0  0  0
   -0.0169   -1.4047   -0.0136 C   0  0  0  0  0  0  0  0  0  0  0  0
   -0.0343   -2.3969   -0.0337 H   0  0  0  0  0  0  0  0  0  0  0  0
    1.2038   -0.7197    0.0000 C   0  0  0  0  0  0  0  0  0  0  0  0
    2.0721   -1.2279   -0.0025 H   0  0  0  0  0  0  0  0  0  0  0  0
    1.2060    0.6690    0.0189 C   0  0  0  0  0  0  0  0  0  0  0  0
    2.0745    1.1665    0.0448 H   0  0  0  0  0  0  0  0  0  0  0  0
  1  5  1  0
  5  6  1  0
  5  7  2  0
  1  2  1  0
  1  3  1  0
  1  4  1  0
  8 12  1  0
 12 13  2  0
 13 15  1  0
 15 17  2  0
 17 19  1  0
 19 21  2  0
 21 12  1  0
  8  9  1  0
  8 10  1  0
  8 11  1  0
 13 14  1  0
 15 16  1  0
 17 18  1  0
 19 20  1  0
 21 22  1  0
M  CHG  1   6  -1
M  END
>  <PDB_ID>  (1637) 
pdb3m95

>  <RESIDUE_NAME>  (1637) 
GLU   PHE

>  <FRAG_NAME>  (1637) 
ACET   MBZ

>  <FRAG_ATOM_NUM>  (1637) 
fragi: 7  fragj: 15

>  <atom.prop.CHAIN_ID>  (1637) 
A A A A A A A Z Z Z Z Z Z Z Z Z Z Z Z Z Z Z

>  <atom.prop.IS_HEAVY_ATOM>  (1637) 
1 0 0 0 1 1 1 1 0 0 0 1 1 0 1 0 1 0 1 0 1 0

>  <DIFUSE_FUNC_ATOM>  (1637) 
atom 6   atom 7   

>  <FINAL_SINGLE_POINT_ENERGY>  (1637) 
0

>  <NONCOV_INTER_ENERGY_QM>  (1637) 
0

>  <FF_Energy>  (1637) 
-1.8

>  <QM_Energy>  (1637) 
-7.1

>  <source>  (1637) 
ACET_MBZ_01

>  <Index>  (1637) 
30408

$$$$
ACET-pdb3ma2-D-ASP-216:MBZ-pdb3ma2-D-PHE-192
     RDKit          3D

 22 21  0  0  0  0  0  0  0  0999 V2000
   -0.7767    0.8161    3.5248 C   0  0  0  0  0  0  0  0  0  0  0  0
   -1.1972    0.4828    2.6854 H   0  0  0  0  0  0  0  0  0  0  0  0
   -1.2959    0.5031    4.3142 H   0  0  0  0  0  0  0  0  0  0  0  0
    0.2051    0.3471    3.5898 H   0  0  0  0  0  0  0  0  0  0  0  0
   -0.7211    2.3043    3.5094 C   0  0  0  0  0  0  0  0  0  0  0  0
    0.2849    2.9596    3.8828 O   0  0  0  0  0  1  0  0  0  0  0  0
   -1.7429    2.8522    3.0883 O   0  0  0  0  0  0  0  0  0  0  0  0
   -0.0208    2.8279    0.0248 C   0  0  0  0  0  0  0  0  0  0  0  0
    0.9060    3.1526   -0.1047 H   0  0  0  0  0  0  0  0  0  0  0  0
   -0.3849    3.1291    0.8952 H   0  0  0  0  0  0  0  0  0  0  0  0
   -0.6352    3.2736   -0.7575 H   0  0  0  0  0  0  0  0  0  0  0  0
   -0.0111    1.3489    0.0021 C   0  0  0  0  0  0  0  0  0  0  0  0
   -1.1799    0.6503    0.0314 C   0  0  0  0  0  0  0  0  0  0  0  0
   -2.0504    1.1686    0.0769 H   0  0  0  0  0  0  0  0  0  0  0  0
   -1.1797   -0.6572   -0.0000 C   0  0  0  0  0  0  0  0  0  0  0  0
   -2.0419   -1.1979   -0.0286 H   0  0  0  0  0  0  0  0  0  0  0  0
    0.0317   -1.3457    0.0076 C   0  0  0  0  0  0  0  0  0  0  0  0
    0.0158   -2.3483    0.0183 H   0  0  0  0  0  0  0  0  0  0  0  0
    1.1797   -0.6529   -0.0000 C   0  0  0  0  0  0  0  0  0  0  0  0
    2.0807   -1.1622    0.0285 H   0  0  0  0  0  0  0  0  0  0  0  0
    1.1594    0.6566   -0.0412 C   0  0  0  0  0  0  0  0  0  0  0  0
    2.0293    1.1890   -0.1084 H   0  0  0  0  0  0  0  0  0  0  0  0
  1  5  1  0
  5  6  1  0
  5  7  2  0
  1  2  1  0
  1  3  1  0
  1  4  1  0
  8 12  1  0
 12 13  2  0
 13 15  1  0
 15 17  2  0
 17 19  1  0
 19 21  2  0
 21 12  1  0
  8  9  1  0
  8 10  1  0
  8 11  1  0
 13 14  1  0
 15 16  1  0
 17 18  1  0
 19 20  1  0
 21 22  1  0
M  CHG  1   6  -1
M  END
>  <PDB_ID>  (1638) 
pdb3ma2

>  <RESIDUE_NAME>  (1638) 
ASP   PHE

>  <FRAG_NAME>  (1638) 
ACET   MBZ

>  <FRAG_ATOM_NUM>  (1638) 
fragi: 7  fragj: 15

>  <atom.prop.CHAIN_ID>  (1638) 
A A A A A A A Z Z Z Z Z Z Z Z Z Z Z Z Z Z Z

>  <atom.prop.IS_HEAVY_ATOM>  (1638) 
1 0 0 0 1 1 1 1 0 0 0 1 1 0 1 0 1 0 1 0 1 0

>  <DIFUSE_FUNC_ATOM>  (1638) 
atom 6   atom 7   

>  <FINAL_SINGLE_POINT_ENERGY>  (1638) 
0

>  <NONCOV_INTER_ENERGY_QM>  (1638) 
0

>  <FF_Energy>  (1638) 
-0.51

>  <QM_Energy>  (1638) 
-6.05

>  <source>  (1638) 
ACET_MBZ_01

>  <Index>  (1638) 
30452

$$$$
ACET-pdb3mad-A-GLU-170:MBZ-pdb3mad-A-PHE-350
     RDKit          3D

 22 21  0  0  0  0  0  0  0  0999 V2000
    3.7845    1.2874   -2.3856 C   0  0  0  0  0  0  0  0  0  0  0  0
    3.8590    1.0584   -3.3437 H   0  0  0  0  0  0  0  0  0  0  0  0
    3.0869    0.7484   -1.9385 H   0  0  0  0  0  0  0  0  0  0  0  0
    4.7407    1.0728   -1.9083 H   0  0  0  0  0  0  0  0  0  0  0  0
    3.3637    2.7409   -2.2961 C   0  0  0  0  0  0  0  0  0  0  0  0
    2.1364    2.9958   -2.3079 O   0  0  0  0  0  1  0  0  0  0  0  0
    4.2457    3.6237   -2.2139 O   0  0  0  0  0  0  0  0  0  0  0  0
   -0.0050    2.8925    0.0040 C   0  0  0  0  0  0  0  0  0  0  0  0
    0.8719    3.2048   -0.3328 H   0  0  0  0  0  0  0  0  0  0  0  0
   -0.1601    3.1959    0.9335 H   0  0  0  0  0  0  0  0  0  0  0  0
   -0.7789    3.3344   -0.6236 H   0  0  0  0  0  0  0  0  0  0  0  0
   -0.0012    1.3952   -0.0035 C   0  0  0  0  0  0  0  0  0  0  0  0
   -1.1911    0.6872    0.0016 C   0  0  0  0  0  0  0  0  0  0  0  0
   -2.0608    1.1763    0.0048 H   0  0  0  0  0  0  0  0  0  0  0  0
   -1.1953   -0.7003   -0.0000 C   0  0  0  0  0  0  0  0  0  0  0  0
   -2.0724   -1.1934   -0.0007 H   0  0  0  0  0  0  0  0  0  0  0  0
    0.0016   -1.3874    0.0014 C   0  0  0  0  0  0  0  0  0  0  0  0
    0.0023   -2.3888    0.0027 H   0  0  0  0  0  0  0  0  0  0  0  0
    1.1953   -0.6904   -0.0000 C   0  0  0  0  0  0  0  0  0  0  0  0
    2.0799   -1.1876    0.0003 H   0  0  0  0  0  0  0  0  0  0  0  0
    1.1906    0.6958    0.0005 C   0  0  0  0  0  0  0  0  0  0  0  0
    2.0593    1.1920    0.0026 H   0  0  0  0  0  0  0  0  0  0  0  0
  1  5  1  0
  5  6  1  0
  5  7  2  0
  1  2  1  0
  1  3  1  0
  1  4  1  0
  8 12  1  0
 12 13  2  0
 13 15  1  0
 15 17  2  0
 17 19  1  0
 19 21  2  0
 21 12  1  0
  8  9  1  0
  8 10  1  0
  8 11  1  0
 13 14  1  0
 15 16  1  0
 17 18  1  0
 19 20  1  0
 21 22  1  0
M  CHG  1   6  -1
M  END
>  <PDB_ID>  (1639) 
pdb3mad

>  <RESIDUE_NAME>  (1639) 
GLU   PHE

>  <FRAG_NAME>  (1639) 
ACET   MBZ

>  <FRAG_ATOM_NUM>  (1639) 
fragi: 7  fragj: 15

>  <atom.prop.CHAIN_ID>  (1639) 
A A A A A A A Z Z Z Z Z Z Z Z Z Z Z Z Z Z Z

>  <atom.prop.IS_HEAVY_ATOM>  (1639) 
1 0 0 0 1 1 1 1 0 0 0 1 1 0 1 0 1 0 1 0 1 0

>  <DIFUSE_FUNC_ATOM>  (1639) 
atom 6   atom 7   

>  <FINAL_SINGLE_POINT_ENERGY>  (1639) 
0

>  <NONCOV_INTER_ENERGY_QM>  (1639) 
0

>  <FF_Energy>  (1639) 
0.06

>  <QM_Energy>  (1639) 
-5.78

>  <source>  (1639) 
ACET_MBZ_01

>  <Index>  (1639) 
30458

$$$$
ACET-pdb3mad-B-GLU-170:MBZ-pdb3mad-B-PHE-350
     RDKit          3D

 22 21  0  0  0  0  0  0  0  0999 V2000
    3.9192    1.4048   -1.6208 C   0  0  0  0  0  0  0  0  0  0  0  0
    3.5618    0.7337   -2.2521 H   0  0  0  0  0  0  0  0  0  0  0  0
    3.4841    1.3327   -0.7363 H   0  0  0  0  0  0  0  0  0  0  0  0
    4.9844    1.2130   -1.4913 H   0  0  0  0  0  0  0  0  0  0  0  0
    3.6044    2.7710   -2.1763 C   0  0  0  0  0  0  0  0  0  0  0  0
    4.4261    3.6963   -2.0142 O   0  0  0  0  0  1  0  0  0  0  0  0
    2.5170    2.9194   -2.7725 O   0  0  0  0  0  0  0  0  0  0  0  0
   -0.0086    2.8853   -0.0010 C   0  0  0  0  0  0  0  0  0  0  0  0
    0.8804    3.2003   -0.2965 H   0  0  0  0  0  0  0  0  0  0  0  0
   -0.2122    3.1935    0.9167 H   0  0  0  0  0  0  0  0  0  0  0  0
   -0.7531    3.3177   -0.6694 H   0  0  0  0  0  0  0  0  0  0  0  0
   -0.0005    1.3923   -0.0023 C   0  0  0  0  0  0  0  0  0  0  0  0
   -1.1890    0.6859    0.0037 C   0  0  0  0  0  0  0  0  0  0  0  0
   -2.0590    1.1778    0.0096 H   0  0  0  0  0  0  0  0  0  0  0  0
   -1.1921   -0.6937    0.0000 C   0  0  0  0  0  0  0  0  0  0  0  0
   -2.0709   -1.1906   -0.0001 H   0  0  0  0  0  0  0  0  0  0  0  0
    0.0007   -1.3830   -0.0019 C   0  0  0  0  0  0  0  0  0  0  0  0
   -0.0020   -2.3860   -0.0049 H   0  0  0  0  0  0  0  0  0  0  0  0
    1.1921   -0.6919    0.0000 C   0  0  0  0  0  0  0  0  0  0  0  0
    2.0768   -1.1908    0.0025 H   0  0  0  0  0  0  0  0  0  0  0  0
    1.1888    0.6903    0.0005 C   0  0  0  0  0  0  0  0  0  0  0  0
    2.0590    1.1879    0.0024 H   0  0  0  0  0  0  0  0  0  0  0  0
  1  5  1  0
  5  6  1  0
  5  7  2  0
  1  2  1  0
  1  3  1  0
  1  4  1  0
  8 12  1  0
 12 13  2  0
 13 15  1  0
 15 17  2  0
 17 19  1  0
 19 21  2  0
 21 12  1  0
  8  9  1  0
  8 10  1  0
  8 11  1  0
 13 14  1  0
 15 16  1  0
 17 18  1  0
 19 20  1  0
 21 22  1  0
M  CHG  1   6  -1
M  END
>  <PDB_ID>  (1640) 
pdb3mad

>  <RESIDUE_NAME>  (1640) 
GLU   PHE

>  <FRAG_NAME>  (1640) 
ACET   MBZ

>  <FRAG_ATOM_NUM>  (1640) 
fragi: 7  fragj: 15

>  <atom.prop.CHAIN_ID>  (1640) 
A A A A A A A Z Z Z Z Z Z Z Z Z Z Z Z Z Z Z

>  <atom.prop.IS_HEAVY_ATOM>  (1640) 
1 0 0 0 1 1 1 1 0 0 0 1 1 0 1 0 1 0 1 0 1 0

>  <DIFUSE_FUNC_ATOM>  (1640) 
atom 6   atom 7   

>  <FINAL_SINGLE_POINT_ENERGY>  (1640) 
0

>  <NONCOV_INTER_ENERGY_QM>  (1640) 
0

>  <FF_Energy>  (1640) 
13.44

>  <QM_Energy>  (1640) 
-0.84

>  <source>  (1640) 
ACET_MBZ_01

>  <Index>  (1640) 
30460

$$$$
ACET-pdb4jcm-A-GLU-178:MBZ-pdb4jcm-A-PHE-613
     RDKit          3D

 22 21  0  0  0  0  0  0  0  0999 V2000
    0.0878    1.5545    3.5707 C   0  0  0  0  0  0  0  0  0  0  0  0
    0.5419    1.6356    4.4378 H   0  0  0  0  0  0  0  0  0  0  0  0
    0.7129    1.3613    2.8373 H   0  0  0  0  0  0  0  0  0  0  0  0
   -0.6375    0.7433    3.6341 H   0  0  0  0  0  0  0  0  0  0  0  0
   -0.5625    2.8965    3.2706 C   0  0  0  0  0  0  0  0  0  0  0  0
   -1.7786    2.9401    2.9722 O   0  0  0  0  0  1  0  0  0  0  0  0
    0.1506    3.9106    3.3250 O   0  0  0  0  0  0  0  0  0  0  0  0
    0.0075    2.9052    0.0085 C   0  0  0  0  0  0  0  0  0  0  0  0
    0.8082    3.2089   -0.4866 H   0  0  0  0  0  0  0  0  0  0  0  0
    0.0295    3.2083    0.9496 H   0  0  0  0  0  0  0  0  0  0  0  0
   -0.8667    3.3522   -0.4650 H   0  0  0  0  0  0  0  0  0  0  0  0
    0.0014    1.4014    0.0049 C   0  0  0  0  0  0  0  0  0  0  0  0
   -1.1969    0.6937   -0.0021 C   0  0  0  0  0  0  0  0  0  0  0  0
   -2.0631    1.1827   -0.0103 H   0  0  0  0  0  0  0  0  0  0  0  0
   -1.2027   -0.7011    0.0000 C   0  0  0  0  0  0  0  0  0  0  0  0
   -2.0772   -1.1933    0.0028 H   0  0  0  0  0  0  0  0  0  0  0  0
    0.0022   -1.3969    0.0001 C   0  0  0  0  0  0  0  0  0  0  0  0
    0.0018   -2.3930    0.0002 H   0  0  0  0  0  0  0  0  0  0  0  0
    1.2027   -0.6933   -0.0000 C   0  0  0  0  0  0  0  0  0  0  0  0
    2.0851   -1.1893    0.0036 H   0  0  0  0  0  0  0  0  0  0  0  0
    1.1933    0.6963   -0.0029 C   0  0  0  0  0  0  0  0  0  0  0  0
    2.0636    1.1939   -0.0117 H   0  0  0  0  0  0  0  0  0  0  0  0
  1  5  1  0
  5  6  1  0
  5  7  2  0
  1  2  1  0
  1  3  1  0
  1  4  1  0
  8 12  1  0
 12 13  2  0
 13 15  1  0
 15 17  2  0
 17 19  1  0
 19 21  2  0
 21 12  1  0
  8  9  1  0
  8 10  1  0
  8 11  1  0
 13 14  1  0
 15 16  1  0
 17 18  1  0
 19 20  1  0
 21 22  1  0
M  CHG  1   6  -1
M  END
>  <PDB_ID>  (1641) 
pdb4jcm

>  <RESIDUE_NAME>  (1641) 
GLU   PHE

>  <FRAG_NAME>  (1641) 
ACET   MBZ

>  <FRAG_ATOM_NUM>  (1641) 
fragi: 7  fragj: 15

>  <atom.prop.CHAIN_ID>  (1641) 
A A A A A A A Z Z Z Z Z Z Z Z Z Z Z Z Z Z Z

>  <atom.prop.IS_HEAVY_ATOM>  (1641) 
1 0 0 0 1 1 1 1 0 0 0 1 1 0 1 0 1 0 1 0 1 0

>  <DIFUSE_FUNC_ATOM>  (1641) 
atom 6   atom 7   

>  <FINAL_SINGLE_POINT_ENERGY>  (1641) 
0

>  <NONCOV_INTER_ENERGY_QM>  (1641) 
0

>  <FF_Energy>  (1641) 
0.75

>  <QM_Energy>  (1641) 
-6.02

>  <source>  (1641) 
ACET_MBZ_01

>  <Index>  (1641) 
30474

$$$$
ACET-pdb3mc0-B-ASP-49:MBZ-pdb3mc0-B-PHE-45
     RDKit          3D

 22 21  0  0  0  0  0  0  0  0999 V2000
    3.7408    5.2301    3.1971 C   0  0  0  0  0  0  0  0  0  0  0  0
    4.2645    5.6892    2.4877 H   0  0  0  0  0  0  0  0  0  0  0  0
    4.2500    4.4593    3.5613 H   0  0  0  0  0  0  0  0  0  0  0  0
    3.5792    5.9402    4.0081 H   0  0  0  0  0  0  0  0  0  0  0  0
    2.4464    4.7237    2.5991 C   0  0  0  0  0  0  0  0  0  0  0  0
    1.6654    5.5419    2.0508 O   0  0  0  0  0  1  0  0  0  0  0  0
    2.2165    3.4732    2.5957 O   0  0  0  0  0  0  0  0  0  0  0  0
    0.0298    2.9164   -0.0395 C   0  0  0  0  0  0  0  0  0  0  0  0
   -0.0249    3.1959   -0.9890 H   0  0  0  0  0  0  0  0  0  0  0  0
    0.8827    3.2116    0.3684 H   0  0  0  0  0  0  0  0  0  0  0  0
   -0.7773    3.4178    0.4947 H   0  0  0  0  0  0  0  0  0  0  0  0
   -0.0068    1.3977    0.0033 C   0  0  0  0  0  0  0  0  0  0  0  0
   -1.2022    0.7030   -0.0333 C   0  0  0  0  0  0  0  0  0  0  0  0
   -2.0682    1.1901   -0.0852 H   0  0  0  0  0  0  0  0  0  0  0  0
   -1.2189   -0.7015    0.0000 C   0  0  0  0  0  0  0  0  0  0  0  0
   -2.0822   -1.1918    0.0142 H   0  0  0  0  0  0  0  0  0  0  0  0
    0.0083   -1.3998    0.0155 C   0  0  0  0  0  0  0  0  0  0  0  0
    0.0016   -2.3958    0.0369 H   0  0  0  0  0  0  0  0  0  0  0  0
    1.2189   -0.6991    0.0000 C   0  0  0  0  0  0  0  0  0  0  0  0
    2.0954   -1.1904   -0.0195 H   0  0  0  0  0  0  0  0  0  0  0  0
    1.2007    0.6997    0.0144 C   0  0  0  0  0  0  0  0  0  0  0  0
    2.0629    1.2016    0.0322 H   0  0  0  0  0  0  0  0  0  0  0  0
  1  5  1  0
  5  6  1  0
  5  7  2  0
  1  2  1  0
  1  3  1  0
  1  4  1  0
  8 12  1  0
 12 13  2  0
 13 15  1  0
 15 17  2  0
 17 19  1  0
 19 21  2  0
 21 12  1  0
  8  9  1  0
  8 10  1  0
  8 11  1  0
 13 14  1  0
 15 16  1  0
 17 18  1  0
 19 20  1  0
 21 22  1  0
M  CHG  1   6  -1
M  END
>  <PDB_ID>  (1642) 
pdb3mc0

>  <RESIDUE_NAME>  (1642) 
ASP   PHE

>  <FRAG_NAME>  (1642) 
ACET   MBZ

>  <FRAG_ATOM_NUM>  (1642) 
fragi: 7  fragj: 15

>  <atom.prop.CHAIN_ID>  (1642) 
A A A A A A A Z Z Z Z Z Z Z Z Z Z Z Z Z Z Z

>  <atom.prop.IS_HEAVY_ATOM>  (1642) 
1 0 0 0 1 1 1 1 0 0 0 1 1 0 1 0 1 0 1 0 1 0

>  <DIFUSE_FUNC_ATOM>  (1642) 
atom 6   atom 7   

>  <FINAL_SINGLE_POINT_ENERGY>  (1642) 
0

>  <NONCOV_INTER_ENERGY_QM>  (1642) 
0

>  <FF_Energy>  (1642) 
-0.97

>  <QM_Energy>  (1642) 
-6.09

>  <source>  (1642) 
ACET_MBZ_01

>  <Index>  (1642) 
30520

$$$$
ACET-pdb3mc0-D-ASP-49:MBZ-pdb3mc0-D-PHE-45
     RDKit          3D

 22 21  0  0  0  0  0  0  0  0999 V2000
    3.8532    5.3571    2.5450 C   0  0  0  0  0  0  0  0  0  0  0  0
    4.3025    5.7603    1.7534 H   0  0  0  0  0  0  0  0  0  0  0  0
    4.4128    4.6251    2.9204 H   0  0  0  0  0  0  0  0  0  0  0  0
    3.7873    6.1340    3.3068 H   0  0  0  0  0  0  0  0  0  0  0  0
    2.5211    4.8159    2.1445 C   0  0  0  0  0  0  0  0  0  0  0  0
    1.6804    5.6025    1.6140 O   0  0  0  0  0  1  0  0  0  0  0  0
    2.3666    3.5549    2.2592 O   0  0  0  0  0  0  0  0  0  0  0  0
    0.0293    2.9040   -0.0038 C   0  0  0  0  0  0  0  0  0  0  0  0
    0.0315    3.1876   -0.9561 H   0  0  0  0  0  0  0  0  0  0  0  0
    0.8557    3.2146    0.4538 H   0  0  0  0  0  0  0  0  0  0  0  0
   -0.8203    3.3819    0.4840 H   0  0  0  0  0  0  0  0  0  0  0  0
    0.0087    1.4158    0.0364 C   0  0  0  0  0  0  0  0  0  0  0  0
   -1.2180    0.6970    0.0036 C   0  0  0  0  0  0  0  0  0  0  0  0
   -2.0720    1.1746   -0.0180 H   0  0  0  0  0  0  0  0  0  0  0  0
   -1.2084   -0.7299   -0.0000 C   0  0  0  0  0  0  0  0  0  0  0  0
   -2.0754   -1.2183    0.0316 H   0  0  0  0  0  0  0  0  0  0  0  0
    0.0089   -1.4025   -0.0449 C   0  0  0  0  0  0  0  0  0  0  0  0
    0.0242   -2.3993   -0.1103 H   0  0  0  0  0  0  0  0  0  0  0  0
    1.2084   -0.6874    0.0000 C   0  0  0  0  0  0  0  0  0  0  0  0
    2.0931   -1.1814    0.0309 H   0  0  0  0  0  0  0  0  0  0  0  0
    1.2004    0.7070    0.0049 C   0  0  0  0  0  0  0  0  0  0  0  0
    2.0719    1.2021   -0.0153 H   0  0  0  0  0  0  0  0  0  0  0  0
  1  5  1  0
  5  6  1  0
  5  7  2  0
  1  2  1  0
  1  3  1  0
  1  4  1  0
  8 12  1  0
 12 13  2  0
 13 15  1  0
 15 17  2  0
 17 19  1  0
 19 21  2  0
 21 12  1  0
  8  9  1  0
  8 10  1  0
  8 11  1  0
 13 14  1  0
 15 16  1  0
 17 18  1  0
 19 20  1  0
 21 22  1  0
M  CHG  1   6  -1
M  END
>  <PDB_ID>  (1643) 
pdb3mc0

>  <RESIDUE_NAME>  (1643) 
ASP   PHE

>  <FRAG_NAME>  (1643) 
ACET   MBZ

>  <FRAG_ATOM_NUM>  (1643) 
fragi: 7  fragj: 15

>  <atom.prop.CHAIN_ID>  (1643) 
A A A A A A A Z Z Z Z Z Z Z Z Z Z Z Z Z Z Z

>  <atom.prop.IS_HEAVY_ATOM>  (1643) 
1 0 0 0 1 1 1 1 0 0 0 1 1 0 1 0 1 0 1 0 1 0

>  <DIFUSE_FUNC_ATOM>  (1643) 
atom 6   atom 7   

>  <FINAL_SINGLE_POINT_ENERGY>  (1643) 
0

>  <NONCOV_INTER_ENERGY_QM>  (1643) 
0

>  <FF_Energy>  (1643) 
-0.8

>  <QM_Energy>  (1643) 
-7.03

>  <source>  (1643) 
ACET_MBZ_01

>  <Index>  (1643) 
30523

$$$$
ACET-pdb4jej-A-GLU-192:MBZ-pdb4jej-A-PHE-159
     RDKit          3D

 22 21  0  0  0  0  0  0  0  0999 V2000
    3.2630   -1.6493    2.2932 C   0  0  0  0  0  0  0  0  0  0  0  0
    2.7683   -0.8188    2.2063 H   0  0  0  0  0  0  0  0  0  0  0  0
    3.9222   -1.5662    3.0002 H   0  0  0  0  0  0  0  0  0  0  0  0
    2.5679   -2.4484    2.5510 H   0  0  0  0  0  0  0  0  0  0  0  0
    4.0138   -1.8905    0.9752 C   0  0  0  0  0  0  0  0  0  0  0  0
    4.0961   -3.0612    0.5257 O   0  0  0  0  0  1  0  0  0  0  0  0
    4.5057   -0.8979    0.3856 O   0  0  0  0  0  0  0  0  0  0  0  0
    0.0121    2.9033   -0.0088 C   0  0  0  0  0  0  0  0  0  0  0  0
    0.6276    3.1851   -0.7035 H   0  0  0  0  0  0  0  0  0  0  0  0
    0.3320    3.2060    0.8555 H   0  0  0  0  0  0  0  0  0  0  0  0
   -0.9609    3.3565   -0.1988 H   0  0  0  0  0  0  0  0  0  0  0  0
    0.0024    1.3889    0.0091 C   0  0  0  0  0  0  0  0  0  0  0  0
   -1.1822    0.6804   -0.0069 C   0  0  0  0  0  0  0  0  0  0  0  0
   -1.9904    1.1404   -0.0045 H   0  0  0  0  0  0  0  0  0  0  0  0
   -1.1890   -0.7116    0.0000 C   0  0  0  0  0  0  0  0  0  0  0  0
   -1.9931   -1.1780   -0.0039 H   0  0  0  0  0  0  0  0  0  0  0  0
   -0.0088   -1.3767   -0.0024 C   0  0  0  0  0  0  0  0  0  0  0  0
    0.0001   -2.3062    0.0004 H   0  0  0  0  0  0  0  0  0  0  0  0
    1.1890   -0.6703    0.0000 C   0  0  0  0  0  0  0  0  0  0  0  0
    1.9968   -1.1315    0.0017 H   0  0  0  0  0  0  0  0  0  0  0  0
    1.1886    0.6892    0.0001 C   0  0  0  0  0  0  0  0  0  0  0  0
    1.9957    1.1509    0.0013 H   0  0  0  0  0  0  0  0  0  0  0  0
  1  5  1  0
  5  6  1  0
  5  7  2  0
  1  2  1  0
  1  3  1  0
  1  4  1  0
  8 12  1  0
 12 13  2  0
 13 15  1  0
 15 17  2  0
 17 19  1  0
 19 21  2  0
 21 12  1  0
  8  9  1  0
  8 10  1  0
  8 11  1  0
 13 14  1  0
 15 16  1  0
 17 18  1  0
 19 20  1  0
 21 22  1  0
M  CHG  1   6  -1
M  END
>  <PDB_ID>  (1644) 
pdb4jej

>  <RESIDUE_NAME>  (1644) 
GLU   PHE

>  <FRAG_NAME>  (1644) 
ACET   MBZ

>  <FRAG_ATOM_NUM>  (1644) 
fragi: 7  fragj: 15

>  <atom.prop.CHAIN_ID>  (1644) 
A A A A A A A Z Z Z Z Z Z Z Z Z Z Z Z Z Z Z

>  <atom.prop.IS_HEAVY_ATOM>  (1644) 
1 0 0 0 1 1 1 1 0 0 0 1 1 0 1 0 1 0 1 0 1 0

>  <DIFUSE_FUNC_ATOM>  (1644) 
atom 6   atom 7   

>  <FINAL_SINGLE_POINT_ENERGY>  (1644) 
0

>  <NONCOV_INTER_ENERGY_QM>  (1644) 
0

>  <FF_Energy>  (1644) 
0.63

>  <QM_Energy>  (1644) 
-5.25

>  <source>  (1644) 
ACET_MBZ_01

>  <Index>  (1644) 
30541

$$$$
ACET-pdb3mcw-B-GLU-114:MBZ-pdb3mcw-B-PHE-7
     RDKit          3D

 22 21  0  0  0  0  0  0  0  0999 V2000
   -4.8713    1.5747    1.6812 C   0  0  0  0  0  0  0  0  0  0  0  0
   -4.3764    0.7702    1.9730 H   0  0  0  0  0  0  0  0  0  0  0  0
   -5.5395    1.3532    0.9868 H   0  0  0  0  0  0  0  0  0  0  0  0
   -5.3539    2.0524    2.5337 H   0  0  0  0  0  0  0  0  0  0  0  0
   -3.8687    2.4864    1.0374 C   0  0  0  0  0  0  0  0  0  0  0  0
   -3.0693    3.0832    1.7859 O   0  0  0  0  0  1  0  0  0  0  0  0
   -3.8705    2.6004   -0.2080 O   0  0  0  0  0  0  0  0  0  0  0  0
   -0.0444    2.8975   -0.0262 C   0  0  0  0  0  0  0  0  0  0  0  0
    0.8824    3.2265    0.0286 H   0  0  0  0  0  0  0  0  0  0  0  0
   -0.5895    3.2006    0.7364 H   0  0  0  0  0  0  0  0  0  0  0  0
   -0.4911    3.2864   -0.9412 H   0  0  0  0  0  0  0  0  0  0  0  0
   -0.0014    1.3899    0.0085 C   0  0  0  0  0  0  0  0  0  0  0  0
   -1.1732    0.6715   -0.0119 C   0  0  0  0  0  0  0  0  0  0  0  0
   -2.0525    1.1693   -0.0371 H   0  0  0  0  0  0  0  0  0  0  0  0
   -1.1821   -0.6892    0.0000 C   0  0  0  0  0  0  0  0  0  0  0  0
   -2.0702   -1.1835    0.0090 H   0  0  0  0  0  0  0  0  0  0  0  0
   -0.0124   -1.3697    0.0011 C   0  0  0  0  0  0  0  0  0  0  0  0
   -0.0146   -2.3814    0.0028 H   0  0  0  0  0  0  0  0  0  0  0  0
    1.1821   -0.6960   -0.0000 C   0  0  0  0  0  0  0  0  0  0  0  0
    2.0633   -1.1963   -0.0013 H   0  0  0  0  0  0  0  0  0  0  0  0
    1.1871    0.6937    0.0023 C   0  0  0  0  0  0  0  0  0  0  0  0
    2.0566    1.1827   -0.0017 H   0  0  0  0  0  0  0  0  0  0  0  0
  1  5  1  0
  5  6  1  0
  5  7  2  0
  1  2  1  0
  1  3  1  0
  1  4  1  0
  8 12  1  0
 12 13  2  0
 13 15  1  0
 15 17  2  0
 17 19  1  0
 19 21  2  0
 21 12  1  0
  8  9  1  0
  8 10  1  0
  8 11  1  0
 13 14  1  0
 15 16  1  0
 17 18  1  0
 19 20  1  0
 21 22  1  0
M  CHG  1   6  -1
M  END
>  <PDB_ID>  (1645) 
pdb3mcw

>  <RESIDUE_NAME>  (1645) 
GLU   PHE

>  <FRAG_NAME>  (1645) 
ACET   MBZ

>  <FRAG_ATOM_NUM>  (1645) 
fragi: 7  fragj: 15

>  <atom.prop.CHAIN_ID>  (1645) 
A A A A A A A Z Z Z Z Z Z Z Z Z Z Z Z Z Z Z

>  <atom.prop.IS_HEAVY_ATOM>  (1645) 
1 0 0 0 1 1 1 1 0 0 0 1 1 0 1 0 1 0 1 0 1 0

>  <DIFUSE_FUNC_ATOM>  (1645) 
atom 6   atom 7   

>  <FINAL_SINGLE_POINT_ENERGY>  (1645) 
0

>  <NONCOV_INTER_ENERGY_QM>  (1645) 
0

>  <FF_Energy>  (1645) 
-0.81

>  <QM_Energy>  (1645) 
-8.65

>  <source>  (1645) 
ACET_MBZ_01

>  <Index>  (1645) 
30595

$$$$
ACET-pdb3mgk-A-ASP-81:MBZ-pdb3mgk-A-PHE-84
     RDKit          3D

 22 21  0  0  0  0  0  0  0  0999 V2000
    1.2844    4.8978   -2.1381 C   0  0  0  0  0  0  0  0  0  0  0  0
    1.4931    4.6467   -3.0750 H   0  0  0  0  0  0  0  0  0  0  0  0
    1.4449    4.1350   -1.5254 H   0  0  0  0  0  0  0  0  0  0  0  0
    1.9501    5.7112   -1.8491 H   0  0  0  0  0  0  0  0  0  0  0  0
   -0.1781    5.2937   -2.0538 C   0  0  0  0  0  0  0  0  0  0  0  0
   -0.5139    6.2267   -1.2889 O   0  0  0  0  0  1  0  0  0  0  0  0
   -0.9993    4.6721   -2.7555 O   0  0  0  0  0  0  0  0  0  0  0  0
   -0.0052    2.9043   -0.0070 C   0  0  0  0  0  0  0  0  0  0  0  0
   -0.3055    3.2044   -0.9003 H   0  0  0  0  0  0  0  0  0  0  0  0
    0.9136    3.2154    0.1865 H   0  0  0  0  0  0  0  0  0  0  0  0
   -0.6701    3.3477    0.7341 H   0  0  0  0  0  0  0  0  0  0  0  0
   -0.0004    1.4029    0.0022 C   0  0  0  0  0  0  0  0  0  0  0  0
   -1.1995    0.6907   -0.0043 C   0  0  0  0  0  0  0  0  0  0  0  0
   -2.0658    1.1819   -0.0128 H   0  0  0  0  0  0  0  0  0  0  0  0
   -1.2056   -0.7013    0.0000 C   0  0  0  0  0  0  0  0  0  0  0  0
   -2.0793   -1.1957    0.0037 H   0  0  0  0  0  0  0  0  0  0  0  0
    0.0000   -1.3965    0.0009 C   0  0  0  0  0  0  0  0  0  0  0  0
    0.0003   -2.3931    0.0018 H   0  0  0  0  0  0  0  0  0  0  0  0
    1.2056   -0.6933   -0.0000 C   0  0  0  0  0  0  0  0  0  0  0  0
    2.0860   -1.1921   -0.0000 H   0  0  0  0  0  0  0  0  0  0  0  0
    1.1998    0.6974    0.0012 C   0  0  0  0  0  0  0  0  0  0  0  0
    2.0652    1.1952    0.0006 H   0  0  0  0  0  0  0  0  0  0  0  0
  1  5  1  0
  5  6  1  0
  5  7  2  0
  1  2  1  0
  1  3  1  0
  1  4  1  0
  8 12  1  0
 12 13  2  0
 13 15  1  0
 15 17  2  0
 17 19  1  0
 19 21  2  0
 21 12  1  0
  8  9  1  0
  8 10  1  0
  8 11  1  0
 13 14  1  0
 15 16  1  0
 17 18  1  0
 19 20  1  0
 21 22  1  0
M  CHG  1   6  -1
M  END
>  <PDB_ID>  (1646) 
pdb3mgk

>  <RESIDUE_NAME>  (1646) 
ASP   PHE

>  <FRAG_NAME>  (1646) 
ACET   MBZ

>  <FRAG_ATOM_NUM>  (1646) 
fragi: 7  fragj: 15

>  <atom.prop.CHAIN_ID>  (1646) 
A A A A A A A Z Z Z Z Z Z Z Z Z Z Z Z Z Z Z

>  <atom.prop.IS_HEAVY_ATOM>  (1646) 
1 0 0 0 1 1 1 1 0 0 0 1 1 0 1 0 1 0 1 0 1 0

>  <DIFUSE_FUNC_ATOM>  (1646) 
atom 6   atom 7   

>  <FINAL_SINGLE_POINT_ENERGY>  (1646) 
0

>  <NONCOV_INTER_ENERGY_QM>  (1646) 
0

>  <FF_Energy>  (1646) 
4.89

>  <QM_Energy>  (1646) 
-2.93

>  <source>  (1646) 
ACET_MBZ_01

>  <Index>  (1646) 
30849

$$$$
ACET-pdb4jjp-A-GLU-71:MBZ-pdb4jjp-B-PHE-52
     RDKit          3D

 22 21  0  0  0  0  0  0  0  0999 V2000
    2.7406   -4.7988   -2.7509 C   0  0  0  0  0  0  0  0  0  0  0  0
    3.2932   -5.6026   -2.6946 H   0  0  0  0  0  0  0  0  0  0  0  0
    2.8414   -4.3175   -3.5949 H   0  0  0  0  0  0  0  0  0  0  0  0
    1.6966   -5.0936   -2.6454 H   0  0  0  0  0  0  0  0  0  0  0  0
    3.1704   -3.8632   -1.6328 C   0  0  0  0  0  0  0  0  0  0  0  0
    2.2797   -3.3179   -0.9470 O   0  0  0  0  0  1  0  0  0  0  0  0
    4.3847   -3.6794   -1.4140 O   0  0  0  0  0  0  0  0  0  0  0  0
    0.0160    2.9123   -0.0281 C   0  0  0  0  0  0  0  0  0  0  0  0
   -0.4705    3.2010   -0.8429 H   0  0  0  0  0  0  0  0  0  0  0  0
    0.9625    3.2068   -0.0613 H   0  0  0  0  0  0  0  0  0  0  0  0
   -0.4528    3.3966    0.8286 H   0  0  0  0  0  0  0  0  0  0  0  0
    0.0005    1.4060    0.0109 C   0  0  0  0  0  0  0  0  0  0  0  0
   -1.2006    0.6952   -0.0082 C   0  0  0  0  0  0  0  0  0  0  0  0
   -2.0649    1.1879   -0.0293 H   0  0  0  0  0  0  0  0  0  0  0  0
   -1.2073   -0.6963   -0.0000 C   0  0  0  0  0  0  0  0  0  0  0  0
   -2.0819   -1.1910    0.0040 H   0  0  0  0  0  0  0  0  0  0  0  0
    0.0005   -1.4010    0.0044 C   0  0  0  0  0  0  0  0  0  0  0  0
   -0.0045   -2.3950    0.0106 H   0  0  0  0  0  0  0  0  0  0  0  0
    1.2073   -0.6988   -0.0000 C   0  0  0  0  0  0  0  0  0  0  0  0
    2.0867   -1.1961    0.0032 H   0  0  0  0  0  0  0  0  0  0  0  0
    1.1995    0.6949   -0.0071 C   0  0  0  0  0  0  0  0  0  0  0  0
    2.0667    1.1923   -0.0267 H   0  0  0  0  0  0  0  0  0  0  0  0
  1  5  1  0
  5  6  1  0
  5  7  2  0
  1  2  1  0
  1  3  1  0
  1  4  1  0
  8 12  1  0
 12 13  2  0
 13 15  1  0
 15 17  2  0
 17 19  1  0
 19 21  2  0
 21 12  1  0
  8  9  1  0
  8 10  1  0
  8 11  1  0
 13 14  1  0
 15 16  1  0
 17 18  1  0
 19 20  1  0
 21 22  1  0
M  CHG  1   6  -1
M  END
>  <PDB_ID>  (1647) 
pdb4jjp

>  <RESIDUE_NAME>  (1647) 
GLU   PHE

>  <FRAG_NAME>  (1647) 
ACET   MBZ

>  <FRAG_ATOM_NUM>  (1647) 
fragi: 7  fragj: 15

>  <atom.prop.CHAIN_ID>  (1647) 
A A A A A A A Z Z Z Z Z Z Z Z Z Z Z Z Z Z Z

>  <atom.prop.IS_HEAVY_ATOM>  (1647) 
1 0 0 0 1 1 1 1 0 0 0 1 1 0 1 0 1 0 1 0 1 0

>  <DIFUSE_FUNC_ATOM>  (1647) 
atom 6   atom 7   

>  <FINAL_SINGLE_POINT_ENERGY>  (1647) 
0

>  <NONCOV_INTER_ENERGY_QM>  (1647) 
0

>  <FF_Energy>  (1647) 
-1.18

>  <QM_Energy>  (1647) 
-6.2

>  <source>  (1647) 
ACET_MBZ_01

>  <Index>  (1647) 
30882

$$$$
ACET-pdb3mkv-B-GLU-123:MBZ-pdb3mkv-B-PHE-409
     RDKit          3D

 22 21  0  0  0  0  0  0  0  0999 V2000
    5.4743    0.4293    1.3642 C   0  0  0  0  0  0  0  0  0  0  0  0
    5.6200    1.3517    1.6706 H   0  0  0  0  0  0  0  0  0  0  0  0
    6.2943   -0.1116    1.4110 H   0  0  0  0  0  0  0  0  0  0  0  0
    4.7234   -0.0296    2.0073 H   0  0  0  0  0  0  0  0  0  0  0  0
    5.0405    0.4839   -0.0738 C   0  0  0  0  0  0  0  0  0  0  0  0
    3.9182    0.0210   -0.3686 O   0  0  0  0  0  1  0  0  0  0  0  0
    5.8215    0.9815   -0.9100 O   0  0  0  0  0  0  0  0  0  0  0  0
    0.0030    2.9238   -0.0048 C   0  0  0  0  0  0  0  0  0  0  0  0
    0.7741    3.2261    0.5290 H   0  0  0  0  0  0  0  0  0  0  0  0
   -0.8519    3.2270    0.3811 H   0  0  0  0  0  0  0  0  0  0  0  0
    0.0939    3.3573   -1.0008 H   0  0  0  0  0  0  0  0  0  0  0  0
    0.0012    1.4038    0.0022 C   0  0  0  0  0  0  0  0  0  0  0  0
   -1.1902    0.6939   -0.0023 C   0  0  0  0  0  0  0  0  0  0  0  0
   -2.0599    1.1805   -0.0084 H   0  0  0  0  0  0  0  0  0  0  0  0
   -1.1917   -0.6969   -0.0000 C   0  0  0  0  0  0  0  0  0  0  0  0
   -2.0750   -1.1877    0.0031 H   0  0  0  0  0  0  0  0  0  0  0  0
   -0.0028   -1.3910   -0.0005 C   0  0  0  0  0  0  0  0  0  0  0  0
   -0.0069   -2.3917   -0.0021 H   0  0  0  0  0  0  0  0  0  0  0  0
    1.1917   -0.6989   -0.0000 C   0  0  0  0  0  0  0  0  0  0  0  0
    2.0761   -1.1973    0.0013 H   0  0  0  0  0  0  0  0  0  0  0  0
    1.1918    0.6891    0.0006 C   0  0  0  0  0  0  0  0  0  0  0  0
    2.0638    1.1827   -0.0004 H   0  0  0  0  0  0  0  0  0  0  0  0
  1  5  1  0
  5  6  1  0
  5  7  2  0
  1  2  1  0
  1  3  1  0
  1  4  1  0
  8 12  1  0
 12 13  2  0
 13 15  1  0
 15 17  2  0
 17 19  1  0
 19 21  2  0
 21 12  1  0
  8  9  1  0
  8 10  1  0
  8 11  1  0
 13 14  1  0
 15 16  1  0
 17 18  1  0
 19 20  1  0
 21 22  1  0
M  CHG  1   6  -1
M  END
>  <PDB_ID>  (1648) 
pdb3mkv

>  <RESIDUE_NAME>  (1648) 
GLU   PHE

>  <FRAG_NAME>  (1648) 
ACET   MBZ

>  <FRAG_ATOM_NUM>  (1648) 
fragi: 7  fragj: 15

>  <atom.prop.CHAIN_ID>  (1648) 
A A A A A A A Z Z Z Z Z Z Z Z Z Z Z Z Z Z Z

>  <atom.prop.IS_HEAVY_ATOM>  (1648) 
1 0 0 0 1 1 1 1 0 0 0 1 1 0 1 0 1 0 1 0 1 0

>  <DIFUSE_FUNC_ATOM>  (1648) 
atom 6   atom 7   

>  <FINAL_SINGLE_POINT_ENERGY>  (1648) 
0

>  <NONCOV_INTER_ENERGY_QM>  (1648) 
0

>  <FF_Energy>  (1648) 
2.87

>  <QM_Energy>  (1648) 
-5.49

>  <source>  (1648) 
ACET_MBZ_01

>  <Index>  (1648) 
31042

$$$$
ACET-pdb3mkv-G-GLU-123:MBZ-pdb3mkv-G-PHE-409
     RDKit          3D

 22 21  0  0  0  0  0  0  0  0999 V2000
    4.9548   -0.5288    1.2118 C   0  0  0  0  0  0  0  0  0  0  0  0
    5.8496   -0.4200    1.6030 H   0  0  0  0  0  0  0  0  0  0  0  0
    4.9322   -1.2223    0.5169 H   0  0  0  0  0  0  0  0  0  0  0  0
    4.2684   -0.8190    2.0073 H   0  0  0  0  0  0  0  0  0  0  0  0
    4.5748    0.7886    0.5591 C   0  0  0  0  0  0  0  0  0  0  0  0
    4.0106    0.7512   -0.5571 O   0  0  0  0  0  1  0  0  0  0  0  0
    4.8277    1.8582    1.1586 O   0  0  0  0  0  0  0  0  0  0  0  0
   -0.0014    2.9232    0.0007 C   0  0  0  0  0  0  0  0  0  0  0  0
    0.7161    3.2263    0.6067 H   0  0  0  0  0  0  0  0  0  0  0  0
   -0.8895    3.2242    0.3077 H   0  0  0  0  0  0  0  0  0  0  0  0
    0.1809    3.3596   -0.9813 H   0  0  0  0  0  0  0  0  0  0  0  0
    0.0004    1.4088    0.0028 C   0  0  0  0  0  0  0  0  0  0  0  0
   -1.1954    0.6963   -0.0012 C   0  0  0  0  0  0  0  0  0  0  0  0
   -2.0636    1.1822   -0.0069 H   0  0  0  0  0  0  0  0  0  0  0  0
   -1.1990   -0.7014    0.0000 C   0  0  0  0  0  0  0  0  0  0  0  0
   -2.0782   -1.1908    0.0033 H   0  0  0  0  0  0  0  0  0  0  0  0
   -0.0018   -1.3976   -0.0009 C   0  0  0  0  0  0  0  0  0  0  0  0
   -0.0051   -2.3963   -0.0020 H   0  0  0  0  0  0  0  0  0  0  0  0
    1.1990   -0.7017    0.0000 C   0  0  0  0  0  0  0  0  0  0  0  0
    2.0807   -1.1968    0.0024 H   0  0  0  0  0  0  0  0  0  0  0  0
    1.1968    0.6956   -0.0007 C   0  0  0  0  0  0  0  0  0  0  0  0
    2.0665    1.1878   -0.0042 H   0  0  0  0  0  0  0  0  0  0  0  0
  1  5  1  0
  5  6  1  0
  5  7  2  0
  1  2  1  0
  1  3  1  0
  1  4  1  0
  8 12  1  0
 12 13  2  0
 13 15  1  0
 15 17  2  0
 17 19  1  0
 19 21  2  0
 21 12  1  0
  8  9  1  0
  8 10  1  0
  8 11  1  0
 13 14  1  0
 15 16  1  0
 17 18  1  0
 19 20  1  0
 21 22  1  0
M  CHG  1   6  -1
M  END
>  <PDB_ID>  (1649) 
pdb3mkv

>  <RESIDUE_NAME>  (1649) 
GLU   PHE

>  <FRAG_NAME>  (1649) 
ACET   MBZ

>  <FRAG_ATOM_NUM>  (1649) 
fragi: 7  fragj: 15

>  <atom.prop.CHAIN_ID>  (1649) 
A A A A A A A Z Z Z Z Z Z Z Z Z Z Z Z Z Z Z

>  <atom.prop.IS_HEAVY_ATOM>  (1649) 
1 0 0 0 1 1 1 1 0 0 0 1 1 0 1 0 1 0 1 0 1 0

>  <DIFUSE_FUNC_ATOM>  (1649) 
atom 6   atom 7   

>  <FINAL_SINGLE_POINT_ENERGY>  (1649) 
0

>  <NONCOV_INTER_ENERGY_QM>  (1649) 
0

>  <FF_Energy>  (1649) 
3.46

>  <QM_Energy>  (1649) 
-6.29

>  <source>  (1649) 
ACET_MBZ_01

>  <Index>  (1649) 
31060

$$$$
ACET-pdb3mlr-H-GLU-46:MBZ-pdb3mlr-H-PHE-63
     RDKit          3D

 22 21  0  0  0  0  0  0  0  0999 V2000
    3.2752   -3.3919   -0.0009 C   0  0  0  0  0  0  0  0  0  0  0  0
    2.6829   -2.7367    0.4296 H   0  0  0  0  0  0  0  0  0  0  0  0
    4.1847   -3.0431   -0.1311 H   0  0  0  0  0  0  0  0  0  0  0  0
    3.3325   -4.2742    0.6365 H   0  0  0  0  0  0  0  0  0  0  0  0
    2.7003   -3.6925   -1.3775 C   0  0  0  0  0  0  0  0  0  0  0  0
    1.6490   -4.3701   -1.4607 O   0  0  0  0  0  1  0  0  0  0  0  0
    3.3035   -3.2403   -2.3778 O   0  0  0  0  0  0  0  0  0  0  0  0
    0.0007    2.9080   -0.0580 C   0  0  0  0  0  0  0  0  0  0  0  0
    0.8517    3.2291    0.3257 H   0  0  0  0  0  0  0  0  0  0  0  0
   -0.7756    3.2345    0.4578 H   0  0  0  0  0  0  0  0  0  0  0  0
   -0.0804    3.3088   -1.0684 H   0  0  0  0  0  0  0  0  0  0  0  0
    0.0005    1.4045   -0.0006 C   0  0  0  0  0  0  0  0  0  0  0  0
   -1.1964    0.6938    0.0007 C   0  0  0  0  0  0  0  0  0  0  0  0
   -2.0643    1.1837    0.0007 H   0  0  0  0  0  0  0  0  0  0  0  0
   -1.2037   -0.7004   -0.0000 C   0  0  0  0  0  0  0  0  0  0  0  0
   -2.0797   -1.1918    0.0021 H   0  0  0  0  0  0  0  0  0  0  0  0
    0.0001   -1.3990   -0.0016 C   0  0  0  0  0  0  0  0  0  0  0  0
   -0.0015   -2.3951   -0.0048 H   0  0  0  0  0  0  0  0  0  0  0  0
    1.2037   -0.6968    0.0000 C   0  0  0  0  0  0  0  0  0  0  0  0
    2.0848   -1.1917    0.0014 H   0  0  0  0  0  0  0  0  0  0  0  0
    1.1958    0.6980    0.0016 C   0  0  0  0  0  0  0  0  0  0  0  0
    2.0654    1.1932    0.0037 H   0  0  0  0  0  0  0  0  0  0  0  0
  1  5  1  0
  5  6  1  0
  5  7  2  0
  1  2  1  0
  1  3  1  0
  1  4  1  0
  8 12  1  0
 12 13  2  0
 13 15  1  0
 15 17  2  0
 17 19  1  0
 19 21  2  0
 21 12  1  0
  8  9  1  0
  8 10  1  0
  8 11  1  0
 13 14  1  0
 15 16  1  0
 17 18  1  0
 19 20  1  0
 21 22  1  0
M  CHG  1   6  -1
M  END
>  <PDB_ID>  (1650) 
pdb3mlr

>  <RESIDUE_NAME>  (1650) 
GLU   PHE

>  <FRAG_NAME>  (1650) 
ACET   MBZ

>  <FRAG_ATOM_NUM>  (1650) 
fragi: 7  fragj: 15

>  <atom.prop.CHAIN_ID>  (1650) 
A A A A A A A Z Z Z Z Z Z Z Z Z Z Z Z Z Z Z

>  <atom.prop.IS_HEAVY_ATOM>  (1650) 
1 0 0 0 1 1 1 1 0 0 0 1 1 0 1 0 1 0 1 0 1 0

>  <DIFUSE_FUNC_ATOM>  (1650) 
atom 6   atom 7   

>  <FINAL_SINGLE_POINT_ENERGY>  (1650) 
0

>  <NONCOV_INTER_ENERGY_QM>  (1650) 
0

>  <FF_Energy>  (1650) 
5.43

>  <QM_Energy>  (1650) 
-1.85

>  <source>  (1650) 
ACET_MBZ_01

>  <Index>  (1650) 
31102

$$$$
ACET-pdb4jon-A-GLU-31:MBZ-pdb4jon-A-PHE-24
     RDKit          3D

 22 21  0  0  0  0  0  0  0  0999 V2000
   -5.2617    4.9139    0.3871 C   0  0  0  0  0  0  0  0  0  0  0  0
   -5.8740    4.7164    1.1538 H   0  0  0  0  0  0  0  0  0  0  0  0
   -5.8089    5.1126   -0.4276 H   0  0  0  0  0  0  0  0  0  0  0  0
   -4.6850    5.8049    0.6352 H   0  0  0  0  0  0  0  0  0  0  0  0
   -4.4826    3.6399    0.0996 C   0  0  0  0  0  0  0  0  0  0  0  0
   -3.2475    3.6910   -0.0876 O   0  0  0  0  0  1  0  0  0  0  0  0
   -5.1244    2.5728    0.0407 O   0  0  0  0  0  0  0  0  0  0  0  0
   -0.0032    2.9086    0.0386 C   0  0  0  0  0  0  0  0  0  0  0  0
   -0.7907    3.2303   -0.4671 H   0  0  0  0  0  0  0  0  0  0  0  0
    0.8395    3.2308   -0.3692 H   0  0  0  0  0  0  0  0  0  0  0  0
   -0.0634    3.3363    1.0394 H   0  0  0  0  0  0  0  0  0  0  0  0
   -0.0006    1.4088    0.0053 C   0  0  0  0  0  0  0  0  0  0  0  0
   -1.1996    0.6926    0.0144 C   0  0  0  0  0  0  0  0  0  0  0  0
   -2.0666    1.1782    0.0301 H   0  0  0  0  0  0  0  0  0  0  0  0
   -1.1988   -0.7040   -0.0000 C   0  0  0  0  0  0  0  0  0  0  0  0
   -2.0769   -1.1963    0.0029 H   0  0  0  0  0  0  0  0  0  0  0  0
   -0.0011   -1.3918   -0.0165 C   0  0  0  0  0  0  0  0  0  0  0  0
   -0.0034   -2.3956   -0.0410 H   0  0  0  0  0  0  0  0  0  0  0  0
    1.1988   -0.7022    0.0000 C   0  0  0  0  0  0  0  0  0  0  0  0
    2.0802   -1.1990    0.0154 H   0  0  0  0  0  0  0  0  0  0  0  0
    1.2012    0.6965   -0.0032 C   0  0  0  0  0  0  0  0  0  0  0  0
    2.0671    1.1876   -0.0129 H   0  0  0  0  0  0  0  0  0  0  0  0
  1  5  1  0
  5  6  1  0
  5  7  2  0
  1  2  1  0
  1  3  1  0
  1  4  1  0
  8 12  1  0
 12 13  2  0
 13 15  1  0
 15 17  2  0
 17 19  1  0
 19 21  2  0
 21 12  1  0
  8  9  1  0
  8 10  1  0
  8 11  1  0
 13 14  1  0
 15 16  1  0
 17 18  1  0
 19 20  1  0
 21 22  1  0
M  CHG  1   6  -1
M  END
>  <PDB_ID>  (1651) 
pdb4jon

>  <RESIDUE_NAME>  (1651) 
GLU   PHE

>  <FRAG_NAME>  (1651) 
ACET   MBZ

>  <FRAG_ATOM_NUM>  (1651) 
fragi: 7  fragj: 15

>  <atom.prop.CHAIN_ID>  (1651) 
A A A A A A A Z Z Z Z Z Z Z Z Z Z Z Z Z Z Z

>  <atom.prop.IS_HEAVY_ATOM>  (1651) 
1 0 0 0 1 1 1 1 0 0 0 1 1 0 1 0 1 0 1 0 1 0

>  <DIFUSE_FUNC_ATOM>  (1651) 
atom 6   atom 7   

>  <FINAL_SINGLE_POINT_ENERGY>  (1651) 
0

>  <NONCOV_INTER_ENERGY_QM>  (1651) 
0

>  <FF_Energy>  (1651) 
-2.42

>  <QM_Energy>  (1651) 
-8.22

>  <source>  (1651) 
ACET_MBZ_01

>  <Index>  (1651) 
31174

$$$$
ACET-pdb4jon-C-GLU-31:MBZ-pdb4jon-C-PHE-24
     RDKit          3D

 22 21  0  0  0  0  0  0  0  0999 V2000
   -5.2504    4.9737    0.4472 C   0  0  0  0  0  0  0  0  0  0  0  0
   -5.8455    4.7906    1.2261 H   0  0  0  0  0  0  0  0  0  0  0  0
   -5.8013    5.1918   -0.3548 H   0  0  0  0  0  0  0  0  0  0  0  0
   -4.6482    5.8499    0.6877 H   0  0  0  0  0  0  0  0  0  0  0  0
   -4.4940    3.6890    0.1414 C   0  0  0  0  0  0  0  0  0  0  0  0
   -3.2552    3.7215   -0.0333 O   0  0  0  0  0  1  0  0  0  0  0  0
   -5.1611    2.6461    0.0209 O   0  0  0  0  0  0  0  0  0  0  0  0
   -0.0008    2.9058   -0.0029 C   0  0  0  0  0  0  0  0  0  0  0  0
   -0.8040    3.2133   -0.4887 H   0  0  0  0  0  0  0  0  0  0  0  0
    0.8288    3.2146   -0.4411 H   0  0  0  0  0  0  0  0  0  0  0  0
   -0.0297    3.3367    0.9979 H   0  0  0  0  0  0  0  0  0  0  0  0
   -0.0004    1.4069   -0.0052 C   0  0  0  0  0  0  0  0  0  0  0  0
   -1.1966    0.6963    0.0137 C   0  0  0  0  0  0  0  0  0  0  0  0
   -2.0640    1.1809    0.0358 H   0  0  0  0  0  0  0  0  0  0  0  0
   -1.1961   -0.7004   -0.0000 C   0  0  0  0  0  0  0  0  0  0  0  0
   -2.0754   -1.1913   -0.0139 H   0  0  0  0  0  0  0  0  0  0  0  0
   -0.0005   -1.3897    0.0070 C   0  0  0  0  0  0  0  0  0  0  0  0
   -0.0085   -2.3954    0.0171 H   0  0  0  0  0  0  0  0  0  0  0  0
    1.1961   -0.7077    0.0000 C   0  0  0  0  0  0  0  0  0  0  0  0
    2.0783   -1.2004    0.0077 H   0  0  0  0  0  0  0  0  0  0  0  0
    1.1975    0.6945   -0.0155 C   0  0  0  0  0  0  0  0  0  0  0  0
    2.0666    1.1827   -0.0348 H   0  0  0  0  0  0  0  0  0  0  0  0
  1  5  1  0
  5  6  1  0
  5  7  2  0
  1  2  1  0
  1  3  1  0
  1  4  1  0
  8 12  1  0
 12 13  2  0
 13 15  1  0
 15 17  2  0
 17 19  1  0
 19 21  2  0
 21 12  1  0
  8  9  1  0
  8 10  1  0
  8 11  1  0
 13 14  1  0
 15 16  1  0
 17 18  1  0
 19 20  1  0
 21 22  1  0
M  CHG  1   6  -1
M  END
>  <PDB_ID>  (1652) 
pdb4jon

>  <RESIDUE_NAME>  (1652) 
GLU   PHE

>  <FRAG_NAME>  (1652) 
ACET   MBZ

>  <FRAG_ATOM_NUM>  (1652) 
fragi: 7  fragj: 15

>  <atom.prop.CHAIN_ID>  (1652) 
A A A A A A A Z Z Z Z Z Z Z Z Z Z Z Z Z Z Z

>  <atom.prop.IS_HEAVY_ATOM>  (1652) 
1 0 0 0 1 1 1 1 0 0 0 1 1 0 1 0 1 0 1 0 1 0

>  <DIFUSE_FUNC_ATOM>  (1652) 
atom 6   atom 7   

>  <FINAL_SINGLE_POINT_ENERGY>  (1652) 
0

>  <NONCOV_INTER_ENERGY_QM>  (1652) 
0

>  <FF_Energy>  (1652) 
-2.39

>  <QM_Energy>  (1652) 
-8.08

>  <source>  (1652) 
ACET_MBZ_01

>  <Index>  (1652) 
31179

$$$$
ACET-pdb3mn5-A-GLU-259:MBZ-pdb3mn5-A-PHE-223
     RDKit          3D

 22 21  0  0  0  0  0  0  0  0999 V2000
   -1.3250    0.6451   -3.6215 C   0  0  0  0  0  0  0  0  0  0  0  0
   -0.7992    0.1949   -2.9252 H   0  0  0  0  0  0  0  0  0  0  0  0
   -0.9253    0.5527   -4.5134 H   0  0  0  0  0  0  0  0  0  0  0  0
   -2.3306    0.2249   -3.6356 H   0  0  0  0  0  0  0  0  0  0  0  0
   -1.3067    2.1547   -3.2835 C   0  0  0  0  0  0  0  0  0  0  0  0
   -2.3270    2.6624   -2.8507 O   0  0  0  0  0  1  0  0  0  0  0  0
   -0.3006    2.8335   -3.4795 O   0  0  0  0  0  0  0  0  0  0  0  0
    0.0378    2.9146    0.0474 C   0  0  0  0  0  0  0  0  0  0  0  0
   -0.5628    3.2628   -0.6440 H   0  0  0  0  0  0  0  0  0  0  0  0
    0.9685    3.1955   -0.0807 H   0  0  0  0  0  0  0  0  0  0  0  0
   -0.3012    3.2881    1.0137 H   0  0  0  0  0  0  0  0  0  0  0  0
    0.0003    1.3920   -0.0322 C   0  0  0  0  0  0  0  0  0  0  0  0
   -1.1976    0.6829    0.0213 C   0  0  0  0  0  0  0  0  0  0  0  0
   -2.0556    1.1958    0.0749 H   0  0  0  0  0  0  0  0  0  0  0  0
   -1.1911   -0.6523    0.0000 C   0  0  0  0  0  0  0  0  0  0  0  0
   -2.0655   -1.1826   -0.0181 H   0  0  0  0  0  0  0  0  0  0  0  0
    0.0207   -1.3906    0.0026 C   0  0  0  0  0  0  0  0  0  0  0  0
   -0.0307   -2.3834    0.0059 H   0  0  0  0  0  0  0  0  0  0  0  0
    1.1911   -0.7209   -0.0000 C   0  0  0  0  0  0  0  0  0  0  0  0
    2.0849   -1.1924   -0.0061 H   0  0  0  0  0  0  0  0  0  0  0  0
    1.1766    0.6888    0.0082 C   0  0  0  0  0  0  0  0  0  0  0  0
    2.0563    1.1736    0.0443 H   0  0  0  0  0  0  0  0  0  0  0  0
  1  5  1  0
  5  6  1  0
  5  7  2  0
  1  2  1  0
  1  3  1  0
  1  4  1  0
  8 12  1  0
 12 13  2  0
 13 15  1  0
 15 17  2  0
 17 19  1  0
 19 21  2  0
 21 12  1  0
  8  9  1  0
  8 10  1  0
  8 11  1  0
 13 14  1  0
 15 16  1  0
 17 18  1  0
 19 20  1  0
 21 22  1  0
M  CHG  1   6  -1
M  END
>  <PDB_ID>  (1653) 
pdb3mn5

>  <RESIDUE_NAME>  (1653) 
GLU   PHE

>  <FRAG_NAME>  (1653) 
ACET   MBZ

>  <FRAG_ATOM_NUM>  (1653) 
fragi: 7  fragj: 15

>  <atom.prop.CHAIN_ID>  (1653) 
A A A A A A A Z Z Z Z Z Z Z Z Z Z Z Z Z Z Z

>  <atom.prop.IS_HEAVY_ATOM>  (1653) 
1 0 0 0 1 1 1 1 0 0 0 1 1 0 1 0 1 0 1 0 1 0

>  <DIFUSE_FUNC_ATOM>  (1653) 
atom 6   atom 7   

>  <FINAL_SINGLE_POINT_ENERGY>  (1653) 
0

>  <NONCOV_INTER_ENERGY_QM>  (1653) 
0

>  <FF_Energy>  (1653) 
-0.59

>  <QM_Energy>  (1653) 
-6.45

>  <source>  (1653) 
ACET_MBZ_01

>  <Index>  (1653) 
31250

$$$$
ACET-pdb3moy-A-ASP-240:MBZ-pdb3moy-A-PHE-256
     RDKit          3D

 22 21  0  0  0  0  0  0  0  0999 V2000
   -4.0719    1.2957    2.2062 C   0  0  0  0  0  0  0  0  0  0  0  0
   -4.5946    1.3632    3.0503 H   0  0  0  0  0  0  0  0  0  0  0  0
   -3.3891    0.5769    2.2819 H   0  0  0  0  0  0  0  0  0  0  0  0
   -4.7596    1.0254    1.4050 H   0  0  0  0  0  0  0  0  0  0  0  0
   -3.3506    2.6268    1.9755 C   0  0  0  0  0  0  0  0  0  0  0  0
   -3.6186    3.3122    0.9592 O   0  0  0  0  0  1  0  0  0  0  0  0
   -2.5146    2.9719    2.8522 O   0  0  0  0  0  0  0  0  0  0  0  0
   -0.0166    2.8937   -0.0141 C   0  0  0  0  0  0  0  0  0  0  0  0
    0.9182    3.2130   -0.0444 H   0  0  0  0  0  0  0  0  0  0  0  0
   -0.4790    3.2076    0.8010 H   0  0  0  0  0  0  0  0  0  0  0  0
   -0.5369    3.3221   -0.8708 H   0  0  0  0  0  0  0  0  0  0  0  0
   -0.0058    1.4028   -0.0065 C   0  0  0  0  0  0  0  0  0  0  0  0
   -1.1977    0.6848   -0.0043 C   0  0  0  0  0  0  0  0  0  0  0  0
   -2.0681    1.1781   -0.0075 H   0  0  0  0  0  0  0  0  0  0  0  0
   -1.2046   -0.6982   -0.0000 C   0  0  0  0  0  0  0  0  0  0  0  0
   -2.0746   -1.1996    0.0019 H   0  0  0  0  0  0  0  0  0  0  0  0
    0.0093   -1.4004    0.0031 C   0  0  0  0  0  0  0  0  0  0  0  0
    0.0035   -2.3934    0.0071 H   0  0  0  0  0  0  0  0  0  0  0  0
    1.2046   -0.6941   -0.0000 C   0  0  0  0  0  0  0  0  0  0  0  0
    2.0906   -1.1831   -0.0064 H   0  0  0  0  0  0  0  0  0  0  0  0
    1.1943    0.7050    0.0077 C   0  0  0  0  0  0  0  0  0  0  0  0
    2.0599    1.2006    0.0228 H   0  0  0  0  0  0  0  0  0  0  0  0
  1  5  1  0
  5  6  1  0
  5  7  2  0
  1  2  1  0
  1  3  1  0
  1  4  1  0
  8 12  1  0
 12 13  2  0
 13 15  1  0
 15 17  2  0
 17 19  1  0
 19 21  2  0
 21 12  1  0
  8  9  1  0
  8 10  1  0
  8 11  1  0
 13 14  1  0
 15 16  1  0
 17 18  1  0
 19 20  1  0
 21 22  1  0
M  CHG  1   6  -1
M  END
>  <PDB_ID>  (1654) 
pdb3moy

>  <RESIDUE_NAME>  (1654) 
ASP   PHE

>  <FRAG_NAME>  (1654) 
ACET   MBZ

>  <FRAG_ATOM_NUM>  (1654) 
fragi: 7  fragj: 15

>  <atom.prop.CHAIN_ID>  (1654) 
A A A A A A A Z Z Z Z Z Z Z Z Z Z Z Z Z Z Z

>  <atom.prop.IS_HEAVY_ATOM>  (1654) 
1 0 0 0 1 1 1 1 0 0 0 1 1 0 1 0 1 0 1 0 1 0

>  <DIFUSE_FUNC_ATOM>  (1654) 
atom 6   atom 7   

>  <FINAL_SINGLE_POINT_ENERGY>  (1654) 
0

>  <NONCOV_INTER_ENERGY_QM>  (1654) 
0

>  <FF_Energy>  (1654) 
-1.92

>  <QM_Energy>  (1654) 
-7.6

>  <source>  (1654) 
ACET_MBZ_01

>  <Index>  (1654) 
31335

$$$$
ACET-pdb3mpr-A-ASP-26:MBZ-pdb3mpr-A-PHE-217
     RDKit          3D

 22 21  0  0  0  0  0  0  0  0999 V2000
   -0.2681   -0.2904    3.6459 C   0  0  0  0  0  0  0  0  0  0  0  0
    0.7134   -0.2930    3.7954 H   0  0  0  0  0  0  0  0  0  0  0  0
   -0.4957   -0.7894    2.8187 H   0  0  0  0  0  0  0  0  0  0  0  0
   -0.7430   -0.7919    4.4892 H   0  0  0  0  0  0  0  0  0  0  0  0
   -0.7282    1.1544    3.4820 C   0  0  0  0  0  0  0  0  0  0  0  0
   -1.9602    1.4094    3.3973 O   0  0  0  0  0  1  0  0  0  0  0  0
    0.1559    2.0385    3.4391 O   0  0  0  0  0  0  0  0  0  0  0  0
   -0.0058    2.8927   -0.0032 C   0  0  0  0  0  0  0  0  0  0  0  0
    0.9284    3.2049   -0.0684 H   0  0  0  0  0  0  0  0  0  0  0  0
   -0.4324    3.1980    0.8346 H   0  0  0  0  0  0  0  0  0  0  0  0
   -0.5590    3.3306   -0.8339 H   0  0  0  0  0  0  0  0  0  0  0  0
   -0.0002    1.3919   -0.0058 C   0  0  0  0  0  0  0  0  0  0  0  0
   -1.1964    0.6837    0.0033 C   0  0  0  0  0  0  0  0  0  0  0  0
   -2.0622    1.1777    0.0113 H   0  0  0  0  0  0  0  0  0  0  0  0
   -1.1983   -0.6954   -0.0000 C   0  0  0  0  0  0  0  0  0  0  0  0
   -2.0715   -1.1969   -0.0041 H   0  0  0  0  0  0  0  0  0  0  0  0
    0.0058   -1.3845    0.0042 C   0  0  0  0  0  0  0  0  0  0  0  0
    0.0038   -2.3847    0.0100 H   0  0  0  0  0  0  0  0  0  0  0  0
    1.1983   -0.6872    0.0000 C   0  0  0  0  0  0  0  0  0  0  0  0
    2.0831   -1.1864   -0.0007 H   0  0  0  0  0  0  0  0  0  0  0  0
    1.1909    0.6915   -0.0017 C   0  0  0  0  0  0  0  0  0  0  0  0
    2.0600    1.1932   -0.0012 H   0  0  0  0  0  0  0  0  0  0  0  0
  1  5  1  0
  5  6  1  0
  5  7  2  0
  1  2  1  0
  1  3  1  0
  1  4  1  0
  8 12  1  0
 12 13  2  0
 13 15  1  0
 15 17  2  0
 17 19  1  0
 19 21  2  0
 21 12  1  0
  8  9  1  0
  8 10  1  0
  8 11  1  0
 13 14  1  0
 15 16  1  0
 17 18  1  0
 19 20  1  0
 21 22  1  0
M  CHG  1   6  -1
M  END
>  <PDB_ID>  (1655) 
pdb3mpr

>  <RESIDUE_NAME>  (1655) 
ASP   PHE

>  <FRAG_NAME>  (1655) 
ACET   MBZ

>  <FRAG_ATOM_NUM>  (1655) 
fragi: 7  fragj: 15

>  <atom.prop.CHAIN_ID>  (1655) 
A A A A A A A Z Z Z Z Z Z Z Z Z Z Z Z Z Z Z

>  <atom.prop.IS_HEAVY_ATOM>  (1655) 
1 0 0 0 1 1 1 1 0 0 0 1 1 0 1 0 1 0 1 0 1 0

>  <DIFUSE_FUNC_ATOM>  (1655) 
atom 6   atom 7   

>  <FINAL_SINGLE_POINT_ENERGY>  (1655) 
0

>  <NONCOV_INTER_ENERGY_QM>  (1655) 
0

>  <FF_Energy>  (1655) 
0.56

>  <QM_Energy>  (1655) 
-5.13

>  <source>  (1655) 
ACET_MBZ_01

>  <Index>  (1655) 
31400

$$$$
ACET-pdb3mpr-D-ASP-26:MBZ-pdb3mpr-D-PHE-217
     RDKit          3D

 22 21  0  0  0  0  0  0  0  0999 V2000
   -0.0729   -0.3263    3.6470 C   0  0  0  0  0  0  0  0  0  0  0  0
    0.9150   -0.3627    3.7420 H   0  0  0  0  0  0  0  0  0  0  0  0
   -0.3649   -0.8216    2.8376 H   0  0  0  0  0  0  0  0  0  0  0  0
   -0.5134   -0.8127    4.5173 H   0  0  0  0  0  0  0  0  0  0  0  0
   -0.4961    1.1259    3.5106 C   0  0  0  0  0  0  0  0  0  0  0  0
   -1.7149    1.4027    3.5402 O   0  0  0  0  0  1  0  0  0  0  0  0
    0.3945    1.9906    3.3787 O   0  0  0  0  0  0  0  0  0  0  0  0
    0.0012    2.9066   -0.0071 C   0  0  0  0  0  0  0  0  0  0  0  0
    0.9296    3.2102   -0.1458 H   0  0  0  0  0  0  0  0  0  0  0  0
   -0.3584    3.2159    0.8581 H   0  0  0  0  0  0  0  0  0  0  0  0
   -0.6135    3.3360   -0.7982 H   0  0  0  0  0  0  0  0  0  0  0  0
    0.0018    1.3993    0.0027 C   0  0  0  0  0  0  0  0  0  0  0  0
   -1.1897    0.6969   -0.0015 C   0  0  0  0  0  0  0  0  0  0  0  0
   -2.0590    1.1862   -0.0073 H   0  0  0  0  0  0  0  0  0  0  0  0
   -1.1991   -0.6967    0.0000 C   0  0  0  0  0  0  0  0  0  0  0  0
   -2.0794   -1.1845    0.0012 H   0  0  0  0  0  0  0  0  0  0  0  0
   -0.0035   -1.3951    0.0021 C   0  0  0  0  0  0  0  0  0  0  0  0
   -0.0058   -2.3926    0.0045 H   0  0  0  0  0  0  0  0  0  0  0  0
    1.1991   -0.6973    0.0000 C   0  0  0  0  0  0  0  0  0  0  0  0
    2.0795   -1.1940    0.0019 H   0  0  0  0  0  0  0  0  0  0  0  0
    1.1914    0.6930   -0.0033 C   0  0  0  0  0  0  0  0  0  0  0  0
    2.0627    1.1885   -0.0107 H   0  0  0  0  0  0  0  0  0  0  0  0
  1  5  1  0
  5  6  1  0
  5  7  2  0
  1  2  1  0
  1  3  1  0
  1  4  1  0
  8 12  1  0
 12 13  2  0
 13 15  1  0
 15 17  2  0
 17 19  1  0
 19 21  2  0
 21 12  1  0
  8  9  1  0
  8 10  1  0
  8 11  1  0
 13 14  1  0
 15 16  1  0
 17 18  1  0
 19 20  1  0
 21 22  1  0
M  CHG  1   6  -1
M  END
>  <PDB_ID>  (1656) 
pdb3mpr

>  <RESIDUE_NAME>  (1656) 
ASP   PHE

>  <FRAG_NAME>  (1656) 
ACET   MBZ

>  <FRAG_ATOM_NUM>  (1656) 
fragi: 7  fragj: 15

>  <atom.prop.CHAIN_ID>  (1656) 
A A A A A A A Z Z Z Z Z Z Z Z Z Z Z Z Z Z Z

>  <atom.prop.IS_HEAVY_ATOM>  (1656) 
1 0 0 0 1 1 1 1 0 0 0 1 1 0 1 0 1 0 1 0 1 0

>  <DIFUSE_FUNC_ATOM>  (1656) 
atom 6   atom 7   

>  <FINAL_SINGLE_POINT_ENERGY>  (1656) 
0

>  <NONCOV_INTER_ENERGY_QM>  (1656) 
0

>  <FF_Energy>  (1656) 
0.8

>  <QM_Energy>  (1656) 
-4.85

>  <source>  (1656) 
ACET_MBZ_01

>  <Index>  (1656) 
31406

$$$$
ACET-pdb4jta-B-GLU-142:MBZ-pdb4jta-B-PHE-145
     RDKit          3D

 22 21  0  0  0  0  0  0  0  0999 V2000
    3.8149    5.2026   -0.7007 C   0  0  0  0  0  0  0  0  0  0  0  0
    3.1327    5.7824   -1.1444 H   0  0  0  0  0  0  0  0  0  0  0  0
    4.6813    5.2681   -1.1954 H   0  0  0  0  0  0  0  0  0  0  0  0
    3.9765    5.5913    0.3048 H   0  0  0  0  0  0  0  0  0  0  0  0
    3.3412    3.7844   -0.7961 C   0  0  0  0  0  0  0  0  0  0  0  0
    3.1334    3.0669    0.1712 O   0  0  0  0  0  1  0  0  0  0  0  0
    3.1950    3.4136   -1.9792 O   0  0  0  0  0  0  0  0  0  0  0  0
   -0.0063    2.9075   -0.0005 C   0  0  0  0  0  0  0  0  0  0  0  0
   -0.3933    3.2118   -0.8569 H   0  0  0  0  0  0  0  0  0  0  0  0
    0.9263    3.2178    0.1051 H   0  0  0  0  0  0  0  0  0  0  0  0
   -0.5956    3.3439    0.8059 H   0  0  0  0  0  0  0  0  0  0  0  0
    0.0003    1.4035   -0.0003 C   0  0  0  0  0  0  0  0  0  0  0  0
   -1.1978    0.6933   -0.0005 C   0  0  0  0  0  0  0  0  0  0  0  0
   -2.0646    1.1853   -0.0021 H   0  0  0  0  0  0  0  0  0  0  0  0
   -1.2048   -0.6978   -0.0000 C   0  0  0  0  0  0  0  0  0  0  0  0
   -2.0808   -1.1908    0.0016 H   0  0  0  0  0  0  0  0  0  0  0  0
   -0.0021   -1.3965    0.0004 C   0  0  0  0  0  0  0  0  0  0  0  0
   -0.0060   -2.3936    0.0005 H   0  0  0  0  0  0  0  0  0  0  0  0
    1.2048   -0.6992    0.0000 C   0  0  0  0  0  0  0  0  0  0  0  0
    2.0838   -1.1962    0.0005 H   0  0  0  0  0  0  0  0  0  0  0  0
    1.1996    0.6968    0.0005 C   0  0  0  0  0  0  0  0  0  0  0  0
    2.0668    1.1917    0.0009 H   0  0  0  0  0  0  0  0  0  0  0  0
  1  5  1  0
  5  6  1  0
  5  7  2  0
  1  2  1  0
  1  3  1  0
  1  4  1  0
  8 12  1  0
 12 13  2  0
 13 15  1  0
 15 17  2  0
 17 19  1  0
 19 21  2  0
 21 12  1  0
  8  9  1  0
  8 10  1  0
  8 11  1  0
 13 14  1  0
 15 16  1  0
 17 18  1  0
 19 20  1  0
 21 22  1  0
M  CHG  1   6  -1
M  END
>  <PDB_ID>  (1657) 
pdb4jta

>  <RESIDUE_NAME>  (1657) 
GLU   PHE

>  <FRAG_NAME>  (1657) 
ACET   MBZ

>  <FRAG_ATOM_NUM>  (1657) 
fragi: 7  fragj: 15

>  <atom.prop.CHAIN_ID>  (1657) 
A A A A A A A Z Z Z Z Z Z Z Z Z Z Z Z Z Z Z

>  <atom.prop.IS_HEAVY_ATOM>  (1657) 
1 0 0 0 1 1 1 1 0 0 0 1 1 0 1 0 1 0 1 0 1 0

>  <DIFUSE_FUNC_ATOM>  (1657) 
atom 6   atom 7   

>  <FINAL_SINGLE_POINT_ENERGY>  (1657) 
0

>  <NONCOV_INTER_ENERGY_QM>  (1657) 
0

>  <FF_Energy>  (1657) 
2.38

>  <QM_Energy>  (1657) 
-8.24

>  <source>  (1657) 
ACET_MBZ_01

>  <Index>  (1657) 
31416

$$$$
ACET-pdb3msu-B-ASP-352:MBZ-pdb3msu-B-PHE-355
     RDKit          3D

 22 21  0  0  0  0  0  0  0  0999 V2000
    3.9771    1.4933   -1.6604 C   0  0  0  0  0  0  0  0  0  0  0  0
    4.6257    0.9354   -1.1539 H   0  0  0  0  0  0  0  0  0  0  0  0
    3.1822    1.6954   -1.1013 H   0  0  0  0  0  0  0  0  0  0  0  0
    4.4653    2.4368   -1.9042 H   0  0  0  0  0  0  0  0  0  0  0  0
    3.5314    0.7314   -2.8895 C   0  0  0  0  0  0  0  0  0  0  0  0
    2.9628    1.3561   -3.8107 O   0  0  0  0  0  1  0  0  0  0  0  0
    3.7518   -0.4956   -2.9369 O   0  0  0  0  0  0  0  0  0  0  0  0
   -0.0028    2.8802   -0.0135 C   0  0  0  0  0  0  0  0  0  0  0  0
    0.9321    3.1922   -0.0898 H   0  0  0  0  0  0  0  0  0  0  0  0
   -0.4221    3.1980    0.8235 H   0  0  0  0  0  0  0  0  0  0  0  0
   -0.5633    3.3026   -0.8475 H   0  0  0  0  0  0  0  0  0  0  0  0
    0.0011    1.3894    0.0019 C   0  0  0  0  0  0  0  0  0  0  0  0
   -1.1885    0.6878    0.0001 C   0  0  0  0  0  0  0  0  0  0  0  0
   -2.0574    1.1782   -0.0031 H   0  0  0  0  0  0  0  0  0  0  0  0
   -1.1938   -0.6971    0.0000 C   0  0  0  0  0  0  0  0  0  0  0  0
   -2.0723   -1.1900   -0.0016 H   0  0  0  0  0  0  0  0  0  0  0  0
   -0.0013   -1.3829    0.0037 C   0  0  0  0  0  0  0  0  0  0  0  0
    0.0015   -2.3852    0.0089 H   0  0  0  0  0  0  0  0  0  0  0  0
    1.1938   -0.6859   -0.0000 C   0  0  0  0  0  0  0  0  0  0  0  0
    2.0768   -1.1890    0.0028 H   0  0  0  0  0  0  0  0  0  0  0  0
    1.1886    0.6886   -0.0057 C   0  0  0  0  0  0  0  0  0  0  0  0
    2.0587    1.1898   -0.0167 H   0  0  0  0  0  0  0  0  0  0  0  0
  1  5  1  0
  5  6  1  0
  5  7  2  0
  1  2  1  0
  1  3  1  0
  1  4  1  0
  8 12  1  0
 12 13  2  0
 13 15  1  0
 15 17  2  0
 17 19  1  0
 19 21  2  0
 21 12  1  0
  8  9  1  0
  8 10  1  0
  8 11  1  0
 13 14  1  0
 15 16  1  0
 17 18  1  0
 19 20  1  0
 21 22  1  0
M  CHG  1   6  -1
M  END
>  <PDB_ID>  (1658) 
pdb3msu

>  <RESIDUE_NAME>  (1658) 
ASP   PHE

>  <FRAG_NAME>  (1658) 
ACET   MBZ

>  <FRAG_ATOM_NUM>  (1658) 
fragi: 7  fragj: 15

>  <atom.prop.CHAIN_ID>  (1658) 
A A A A A A A Z Z Z Z Z Z Z Z Z Z Z Z Z Z Z

>  <atom.prop.IS_HEAVY_ATOM>  (1658) 
1 0 0 0 1 1 1 1 0 0 0 1 1 0 1 0 1 0 1 0 1 0

>  <DIFUSE_FUNC_ATOM>  (1658) 
atom 6   atom 7   

>  <FINAL_SINGLE_POINT_ENERGY>  (1658) 
0

>  <NONCOV_INTER_ENERGY_QM>  (1658) 
0

>  <FF_Energy>  (1658) 
11.11

>  <QM_Energy>  (1658) 
0.7

>  <source>  (1658) 
ACET_MBZ_01

>  <Index>  (1658) 
31544

$$$$
ACET-pdb3msv-A-GLU-31:MBZ-pdb3msv-A-PHE-249
     RDKit          3D

 22 21  0  0  0  0  0  0  0  0999 V2000
   -4.1209    1.8362   -0.1681 C   0  0  0  0  0  0  0  0  0  0  0  0
   -3.5929    1.8548    0.6607 H   0  0  0  0  0  0  0  0  0  0  0  0
   -3.6531    1.3719   -0.8973 H   0  0  0  0  0  0  0  0  0  0  0  0
   -5.0606    1.3202    0.0291 H   0  0  0  0  0  0  0  0  0  0  0  0
   -4.3355    3.2650   -0.6039 C   0  0  0  0  0  0  0  0  0  0  0  0
   -5.3147    3.8825   -0.1403 O   0  0  0  0  0  1  0  0  0  0  0  0
   -3.5126    3.7692   -1.3963 O   0  0  0  0  0  0  0  0  0  0  0  0
   -0.0043    2.8917   -0.0069 C   0  0  0  0  0  0  0  0  0  0  0  0
    0.9147    3.2062    0.1796 H   0  0  0  0  0  0  0  0  0  0  0  0
   -0.6378    3.2019    0.6870 H   0  0  0  0  0  0  0  0  0  0  0  0
   -0.3163    3.3237   -0.9578 H   0  0  0  0  0  0  0  0  0  0  0  0
    0.0019    1.3992   -0.0009 C   0  0  0  0  0  0  0  0  0  0  0  0
   -1.1959    0.6903    0.0016 C   0  0  0  0  0  0  0  0  0  0  0  0
   -2.0615    1.1808    0.0029 H   0  0  0  0  0  0  0  0  0  0  0  0
   -1.2010   -0.7018   -0.0000 C   0  0  0  0  0  0  0  0  0  0  0  0
   -2.0771   -1.1946    0.0010 H   0  0  0  0  0  0  0  0  0  0  0  0
   -0.0006   -1.3935   -0.0014 C   0  0  0  0  0  0  0  0  0  0  0  0
    0.0001   -2.3922   -0.0035 H   0  0  0  0  0  0  0  0  0  0  0  0
    1.2010   -0.6936    0.0000 C   0  0  0  0  0  0  0  0  0  0  0  0
    2.0827   -1.1894    0.0018 H   0  0  0  0  0  0  0  0  0  0  0  0
    1.1946    0.6994    0.0007 C   0  0  0  0  0  0  0  0  0  0  0  0
    2.0634    1.1940    0.0012 H   0  0  0  0  0  0  0  0  0  0  0  0
  1  5  1  0
  5  6  1  0
  5  7  2  0
  1  2  1  0
  1  3  1  0
  1  4  1  0
  8 12  1  0
 12 13  2  0
 13 15  1  0
 15 17  2  0
 17 19  1  0
 19 21  2  0
 21 12  1  0
  8  9  1  0
  8 10  1  0
  8 11  1  0
 13 14  1  0
 15 16  1  0
 17 18  1  0
 19 20  1  0
 21 22  1  0
M  CHG  1   6  -1
M  END
>  <PDB_ID>  (1659) 
pdb3msv

>  <RESIDUE_NAME>  (1659) 
GLU   PHE

>  <FRAG_NAME>  (1659) 
ACET   MBZ

>  <FRAG_ATOM_NUM>  (1659) 
fragi: 7  fragj: 15

>  <atom.prop.CHAIN_ID>  (1659) 
A A A A A A A Z Z Z Z Z Z Z Z Z Z Z Z Z Z Z

>  <atom.prop.IS_HEAVY_ATOM>  (1659) 
1 0 0 0 1 1 1 1 0 0 0 1 1 0 1 0 1 0 1 0 1 0

>  <DIFUSE_FUNC_ATOM>  (1659) 
atom 6   atom 7   

>  <FINAL_SINGLE_POINT_ENERGY>  (1659) 
0

>  <NONCOV_INTER_ENERGY_QM>  (1659) 
0

>  <FF_Energy>  (1659) 
13.13

>  <QM_Energy>  (1659) 
-0.75

>  <source>  (1659) 
ACET_MBZ_01

>  <Index>  (1659) 
31550

$$$$
ACET-pdb3msy-C-GLU-319:MBZ-pdb3msy-C-PHE-340
     RDKit          3D

 22 21  0  0  0  0  0  0  0  0999 V2000
    1.3539   -3.8372   -1.9226 C   0  0  0  0  0  0  0  0  0  0  0  0
    0.9391   -2.9599   -2.0620 H   0  0  0  0  0  0  0  0  0  0  0  0
    0.8480   -4.5658   -2.3394 H   0  0  0  0  0  0  0  0  0  0  0  0
    2.3553   -3.8185   -2.3529 H   0  0  0  0  0  0  0  0  0  0  0  0
    1.3704   -4.0989   -0.4172 C   0  0  0  0  0  0  0  0  0  0  0  0
    2.0712   -3.3687    0.3225 O   0  0  0  0  0  1  0  0  0  0  0  0
    0.6795   -5.0263    0.0418 O   0  0  0  0  0  0  0  0  0  0  0  0
    0.0050    2.8886   -0.0008 C   0  0  0  0  0  0  0  0  0  0  0  0
    0.8871    3.1980    0.3283 H   0  0  0  0  0  0  0  0  0  0  0  0
   -0.7249    3.2018    0.5911 H   0  0  0  0  0  0  0  0  0  0  0  0
   -0.1547    3.3302   -0.9844 H   0  0  0  0  0  0  0  0  0  0  0  0
    0.0017    1.3976    0.0003 C   0  0  0  0  0  0  0  0  0  0  0  0
   -1.1987    0.6917   -0.0010 C   0  0  0  0  0  0  0  0  0  0  0  0
   -2.0624    1.1821   -0.0041 H   0  0  0  0  0  0  0  0  0  0  0  0
   -1.2007   -0.6996   -0.0000 C   0  0  0  0  0  0  0  0  0  0  0  0
   -2.0769   -1.1937    0.0018 H   0  0  0  0  0  0  0  0  0  0  0  0
   -0.0008   -1.3885    0.0003 C   0  0  0  0  0  0  0  0  0  0  0  0
   -0.0003   -2.3893   -0.0002 H   0  0  0  0  0  0  0  0  0  0  0  0
    1.2007   -0.6919    0.0000 C   0  0  0  0  0  0  0  0  0  0  0  0
    2.0808   -1.1943    0.0011 H   0  0  0  0  0  0  0  0  0  0  0  0
    1.1979    0.6908    0.0005 C   0  0  0  0  0  0  0  0  0  0  0  0
    2.0654    1.1900   -0.0002 H   0  0  0  0  0  0  0  0  0  0  0  0
  1  5  1  0
  5  6  1  0
  5  7  2  0
  1  2  1  0
  1  3  1  0
  1  4  1  0
  8 12  1  0
 12 13  2  0
 13 15  1  0
 15 17  2  0
 17 19  1  0
 19 21  2  0
 21 12  1  0
  8  9  1  0
  8 10  1  0
  8 11  1  0
 13 14  1  0
 15 16  1  0
 17 18  1  0
 19 20  1  0
 21 22  1  0
M  CHG  1   6  -1
M  END
>  <PDB_ID>  (1660) 
pdb3msy

>  <RESIDUE_NAME>  (1660) 
GLU   PHE

>  <FRAG_NAME>  (1660) 
ACET   MBZ

>  <FRAG_ATOM_NUM>  (1660) 
fragi: 7  fragj: 15

>  <atom.prop.CHAIN_ID>  (1660) 
A A A A A A A Z Z Z Z Z Z Z Z Z Z Z Z Z Z Z

>  <atom.prop.IS_HEAVY_ATOM>  (1660) 
1 0 0 0 1 1 1 1 0 0 0 1 1 0 1 0 1 0 1 0 1 0

>  <DIFUSE_FUNC_ATOM>  (1660) 
atom 6   atom 7   

>  <FINAL_SINGLE_POINT_ENERGY>  (1660) 
0

>  <NONCOV_INTER_ENERGY_QM>  (1660) 
0

>  <FF_Energy>  (1660) 
8.47

>  <QM_Energy>  (1660) 
-3.68

>  <source>  (1660) 
ACET_MBZ_01

>  <Index>  (1660) 
31565

$$$$
ACET-pdb3msy-D-ASP-345:MBZ-pdb3msy-D-PHE-340
     RDKit          3D

 22 21  0  0  0  0  0  0  0  0999 V2000
    2.6795    2.8227    2.2469 C   0  0  0  0  0  0  0  0  0  0  0  0
    2.4883    1.9178    2.5965 H   0  0  0  0  0  0  0  0  0  0  0  0
    2.0555    3.0664    1.5208 H   0  0  0  0  0  0  0  0  0  0  0  0
    2.5580    3.5383    3.0601 H   0  0  0  0  0  0  0  0  0  0  0  0
    4.1061    2.8306    1.6815 C   0  0  0  0  0  0  0  0  0  0  0  0
    5.0552    2.5917    2.4536 O   0  0  0  0  0  1  0  0  0  0  0  0
    4.2833    3.0858    0.4708 O   0  0  0  0  0  0  0  0  0  0  0  0
    0.0054    2.9010    0.0556 C   0  0  0  0  0  0  0  0  0  0  0  0
    0.9403    3.2019    0.1877 H   0  0  0  0  0  0  0  0  0  0  0  0
   -0.5683    3.1858    0.8117 H   0  0  0  0  0  0  0  0  0  0  0  0
   -0.3729    3.3852   -0.8448 H   0  0  0  0  0  0  0  0  0  0  0  0
   -0.0003    1.4042    0.0014 C   0  0  0  0  0  0  0  0  0  0  0  0
   -1.1975    0.6983   -0.0015 C   0  0  0  0  0  0  0  0  0  0  0  0
   -2.0640    1.1865   -0.0056 H   0  0  0  0  0  0  0  0  0  0  0  0
   -1.2029   -0.6982   -0.0000 C   0  0  0  0  0  0  0  0  0  0  0  0
   -2.0789   -1.1895    0.0016 H   0  0  0  0  0  0  0  0  0  0  0  0
    0.0007   -1.3978    0.0008 C   0  0  0  0  0  0  0  0  0  0  0  0
   -0.0054   -2.3954    0.0011 H   0  0  0  0  0  0  0  0  0  0  0  0
    1.2029   -0.7016    0.0000 C   0  0  0  0  0  0  0  0  0  0  0  0
    2.0840   -1.1960    0.0015 H   0  0  0  0  0  0  0  0  0  0  0  0
    1.1971    0.6950   -0.0007 C   0  0  0  0  0  0  0  0  0  0  0  0
    2.0659    1.1899   -0.0032 H   0  0  0  0  0  0  0  0  0  0  0  0
  1  5  1  0
  5  6  1  0
  5  7  2  0
  1  2  1  0
  1  3  1  0
  1  4  1  0
  8 12  1  0
 12 13  2  0
 13 15  1  0
 15 17  2  0
 17 19  1  0
 19 21  2  0
 21 12  1  0
  8  9  1  0
  8 10  1  0
  8 11  1  0
 13 14  1  0
 15 16  1  0
 17 18  1  0
 19 20  1  0
 21 22  1  0
M  CHG  1   6  -1
M  END
>  <PDB_ID>  (1661) 
pdb3msy

>  <RESIDUE_NAME>  (1661) 
ASP   PHE

>  <FRAG_NAME>  (1661) 
ACET   MBZ

>  <FRAG_ATOM_NUM>  (1661) 
fragi: 7  fragj: 15

>  <atom.prop.CHAIN_ID>  (1661) 
A A A A A A A Z Z Z Z Z Z Z Z Z Z Z Z Z Z Z

>  <atom.prop.IS_HEAVY_ATOM>  (1661) 
1 0 0 0 1 1 1 1 0 0 0 1 1 0 1 0 1 0 1 0 1 0

>  <DIFUSE_FUNC_ATOM>  (1661) 
atom 6   atom 7   

>  <FINAL_SINGLE_POINT_ENERGY>  (1661) 
0

>  <NONCOV_INTER_ENERGY_QM>  (1661) 
0

>  <FF_Energy>  (1661) 
2.66

>  <QM_Energy>  (1661) 
-3.29

>  <source>  (1661) 
ACET_MBZ_01

>  <Index>  (1661) 
31571

$$$$
ACET-pdb3mvp-B-GLU-121:MBZ-pdb3mvp-B-PHE-84
     RDKit          3D

 22 21  0  0  0  0  0  0  0  0999 V2000
    2.4217   -2.9020   -3.4459 C   0  0  0  0  0  0  0  0  0  0  0  0
    2.5661   -2.2007   -4.1153 H   0  0  0  0  0  0  0  0  0  0  0  0
    2.3843   -3.7998   -3.8390 H   0  0  0  0  0  0  0  0  0  0  0  0
    3.2251   -2.8651   -2.7101 H   0  0  0  0  0  0  0  0  0  0  0  0
    1.1170   -2.6399   -2.7881 C   0  0  0  0  0  0  0  0  0  0  0  0
    0.4464   -1.6570   -3.1794 O   0  0  0  0  0  1  0  0  0  0  0  0
    0.7875   -3.3993   -1.8507 O   0  0  0  0  0  0  0  0  0  0  0  0
   -0.0078    2.8982    0.0136 C   0  0  0  0  0  0  0  0  0  0  0  0
   -0.7494    3.2075   -0.5605 H   0  0  0  0  0  0  0  0  0  0  0  0
    0.8660    3.2138   -0.3210 H   0  0  0  0  0  0  0  0  0  0  0  0
   -0.1576    3.3137    1.0101 H   0  0  0  0  0  0  0  0  0  0  0  0
    0.0011    1.3999   -0.0065 C   0  0  0  0  0  0  0  0  0  0  0  0
   -1.2020    0.6869    0.0030 C   0  0  0  0  0  0  0  0  0  0  0  0
   -2.0660    1.1804    0.0107 H   0  0  0  0  0  0  0  0  0  0  0  0
   -1.2083   -0.7026    0.0000 C   0  0  0  0  0  0  0  0  0  0  0  0
   -2.0809   -1.1973   -0.0056 H   0  0  0  0  0  0  0  0  0  0  0  0
   -0.0030   -1.3904    0.0071 C   0  0  0  0  0  0  0  0  0  0  0  0
    0.0003   -2.3909    0.0169 H   0  0  0  0  0  0  0  0  0  0  0  0
    1.2083   -0.6917   -0.0000 C   0  0  0  0  0  0  0  0  0  0  0  0
    2.0841   -1.1935   -0.0014 H   0  0  0  0  0  0  0  0  0  0  0  0
    1.2039    0.6980   -0.0036 C   0  0  0  0  0  0  0  0  0  0  0  0
    2.0672    1.1970   -0.0049 H   0  0  0  0  0  0  0  0  0  0  0  0
  1  5  1  0
  5  6  1  0
  5  7  2  0
  1  2  1  0
  1  3  1  0
  1  4  1  0
  8 12  1  0
 12 13  2  0
 13 15  1  0
 15 17  2  0
 17 19  1  0
 19 21  2  0
 21 12  1  0
  8  9  1  0
  8 10  1  0
  8 11  1  0
 13 14  1  0
 15 16  1  0
 17 18  1  0
 19 20  1  0
 21 22  1  0
M  CHG  1   6  -1
M  END
>  <PDB_ID>  (1662) 
pdb3mvp

>  <RESIDUE_NAME>  (1662) 
GLU   PHE

>  <FRAG_NAME>  (1662) 
ACET   MBZ

>  <FRAG_ATOM_NUM>  (1662) 
fragi: 7  fragj: 15

>  <atom.prop.CHAIN_ID>  (1662) 
A A A A A A A Z Z Z Z Z Z Z Z Z Z Z Z Z Z Z

>  <atom.prop.IS_HEAVY_ATOM>  (1662) 
1 0 0 0 1 1 1 1 0 0 0 1 1 0 1 0 1 0 1 0 1 0

>  <DIFUSE_FUNC_ATOM>  (1662) 
atom 6   atom 7   

>  <FINAL_SINGLE_POINT_ENERGY>  (1662) 
0

>  <NONCOV_INTER_ENERGY_QM>  (1662) 
0

>  <FF_Energy>  (1662) 
3.91

>  <QM_Energy>  (1662) 
-1.87

>  <source>  (1662) 
ACET_MBZ_01

>  <Index>  (1662) 
31689

$$$$
ACET-pdb3mmy-G-GLU-33:MBZ-pdb3mmy-G-PHE-354
     RDKit          3D

 22 21  0  0  0  0  0  0  0  0999 V2000
    4.4803   -0.7584    0.4983 C   0  0  0  0  0  0  0  0  0  0  0  0
    3.5065   -0.6397    0.6144 H   0  0  0  0  0  0  0  0  0  0  0  0
    4.8026   -0.3184   -0.3252 H   0  0  0  0  0  0  0  0  0  0  0  0
    4.9824   -0.2996    1.3502 H   0  0  0  0  0  0  0  0  0  0  0  0
    4.7438   -2.2485    0.3502 C   0  0  0  0  0  0  0  0  0  0  0  0
    5.2576   -2.8611    1.3106 O   0  0  0  0  0  1  0  0  0  0  0  0
    4.4200   -2.8092   -0.7318 O   0  0  0  0  0  0  0  0  0  0  0  0
    0.0062    2.9078   -0.0052 C   0  0  0  0  0  0  0  0  0  0  0  0
   -0.9348    3.2154    0.0155 H   0  0  0  0  0  0  0  0  0  0  0  0
    0.4587    3.2046   -0.8355 H   0  0  0  0  0  0  0  0  0  0  0  0
    0.5247    3.3638    0.8382 H   0  0  0  0  0  0  0  0  0  0  0  0
    0.0036    1.4047    0.0102 C   0  0  0  0  0  0  0  0  0  0  0  0
   -1.1993    0.6951    0.0013 C   0  0  0  0  0  0  0  0  0  0  0  0
   -2.0627    1.1793   -0.0048 H   0  0  0  0  0  0  0  0  0  0  0  0
   -1.1920   -0.7018    0.0000 C   0  0  0  0  0  0  0  0  0  0  0  0
   -2.0696   -1.1973    0.0060 H   0  0  0  0  0  0  0  0  0  0  0  0
    0.0072   -1.3894   -0.0073 C   0  0  0  0  0  0  0  0  0  0  0  0
    0.0024   -2.3923   -0.0182 H   0  0  0  0  0  0  0  0  0  0  0  0
    1.1920   -0.6977   -0.0000 C   0  0  0  0  0  0  0  0  0  0  0  0
    2.0809   -1.1913    0.0101 H   0  0  0  0  0  0  0  0  0  0  0  0
    1.1884    0.6891   -0.0042 C   0  0  0  0  0  0  0  0  0  0  0  0
    2.0641    1.1828   -0.0185 H   0  0  0  0  0  0  0  0  0  0  0  0
  1  5  1  0
  5  6  1  0
  5  7  2  0
  1  2  1  0
  1  3  1  0
  1  4  1  0
  8 12  1  0
 12 13  2  0
 13 15  1  0
 15 17  2  0
 17 19  1  0
 19 21  2  0
 21 12  1  0
  8  9  1  0
  8 10  1  0
  8 11  1  0
 13 14  1  0
 15 16  1  0
 17 18  1  0
 19 20  1  0
 21 22  1  0
M  CHG  1   6  -1
M  END
>  <PDB_ID>  (1663) 
pdb3mmy

>  <RESIDUE_NAME>  (1663) 
GLU   PHE

>  <FRAG_NAME>  (1663) 
ACET   MBZ

>  <FRAG_ATOM_NUM>  (1663) 
fragi: 7  fragj: 15

>  <atom.prop.CHAIN_ID>  (1663) 
A A A A A A A Z Z Z Z Z Z Z Z Z Z Z Z Z Z Z

>  <atom.prop.IS_HEAVY_ATOM>  (1663) 
1 0 0 0 1 1 1 1 0 0 0 1 1 0 1 0 1 0 1 0 1 0

>  <DIFUSE_FUNC_ATOM>  (1663) 
atom 6   atom 7   

>  <FINAL_SINGLE_POINT_ENERGY>  (1663) 
0

>  <NONCOV_INTER_ENERGY_QM>  (1663) 
0

>  <FF_Energy>  (1663) 
10.44

>  <QM_Energy>  (1663) 
-0.7

>  <source>  (1663) 
ACET_MBZ_01

>  <Index>  (1663) 
31748

$$$$
ACET-pdb4k35-B-ASP-384:MBZ-pdb4k35-B-PHE-387
     RDKit          3D

 22 21  0  0  0  0  0  0  0  0999 V2000
    5.4660    3.6494   -1.3497 C   0  0  0  0  0  0  0  0  0  0  0  0
    5.6226    3.4524   -2.3070 H   0  0  0  0  0  0  0  0  0  0  0  0
    6.1707    3.2493   -0.7827 H   0  0  0  0  0  0  0  0  0  0  0  0
    5.4886    4.7307   -1.2142 H   0  0  0  0  0  0  0  0  0  0  0  0
    4.1287    3.0704   -0.9454 C   0  0  0  0  0  0  0  0  0  0  0  0
    3.9307    2.8287    0.2615 O   0  0  0  0  0  1  0  0  0  0  0  0
    3.2563    2.9008   -1.8189 O   0  0  0  0  0  0  0  0  0  0  0  0
   -0.0101    2.9159   -0.0224 C   0  0  0  0  0  0  0  0  0  0  0  0
    0.9050    3.2285    0.1613 H   0  0  0  0  0  0  0  0  0  0  0  0
   -0.6524    3.2278    0.6546 H   0  0  0  0  0  0  0  0  0  0  0  0
   -0.3158    3.3219   -0.9867 H   0  0  0  0  0  0  0  0  0  0  0  0
   -0.0012    1.4066    0.0035 C   0  0  0  0  0  0  0  0  0  0  0  0
   -1.1983    0.6964   -0.0059 C   0  0  0  0  0  0  0  0  0  0  0  0
   -2.0658    1.1838   -0.0184 H   0  0  0  0  0  0  0  0  0  0  0  0
   -1.2040   -0.7016   -0.0000 C   0  0  0  0  0  0  0  0  0  0  0  0
   -2.0785   -1.1936    0.0027 H   0  0  0  0  0  0  0  0  0  0  0  0
    0.0040   -1.4010    0.0039 C   0  0  0  0  0  0  0  0  0  0  0  0
   -0.0000   -2.3972    0.0093 H   0  0  0  0  0  0  0  0  0  0  0  0
    1.2040   -0.6992    0.0000 C   0  0  0  0  0  0  0  0  0  0  0  0
    2.0868   -1.1912   -0.0007 H   0  0  0  0  0  0  0  0  0  0  0  0
    1.1956    0.6989   -0.0016 C   0  0  0  0  0  0  0  0  0  0  0  0
    2.0644    1.1939   -0.0073 H   0  0  0  0  0  0  0  0  0  0  0  0
  1  5  1  0
  5  6  1  0
  5  7  2  0
  1  2  1  0
  1  3  1  0
  1  4  1  0
  8 12  1  0
 12 13  2  0
 13 15  1  0
 15 17  2  0
 17 19  1  0
 19 21  2  0
 21 12  1  0
  8  9  1  0
  8 10  1  0
  8 11  1  0
 13 14  1  0
 15 16  1  0
 17 18  1  0
 19 20  1  0
 21 22  1  0
M  CHG  1   6  -1
M  END
>  <PDB_ID>  (1664) 
pdb4k35

>  <RESIDUE_NAME>  (1664) 
ASP   PHE

>  <FRAG_NAME>  (1664) 
ACET   MBZ

>  <FRAG_ATOM_NUM>  (1664) 
fragi: 7  fragj: 15

>  <atom.prop.CHAIN_ID>  (1664) 
A A A A A A A Z Z Z Z Z Z Z Z Z Z Z Z Z Z Z

>  <atom.prop.IS_HEAVY_ATOM>  (1664) 
1 0 0 0 1 1 1 1 0 0 0 1 1 0 1 0 1 0 1 0 1 0

>  <DIFUSE_FUNC_ATOM>  (1664) 
atom 6   atom 7   

>  <FINAL_SINGLE_POINT_ENERGY>  (1664) 
0

>  <NONCOV_INTER_ENERGY_QM>  (1664) 
0

>  <FF_Energy>  (1664) 
-2.43

>  <QM_Energy>  (1664) 
-8.95

>  <source>  (1664) 
ACET_MBZ_01

>  <Index>  (1664) 
31886

$$$$
ACET-pdb3mz0-A-ASP-179:MBZ-pdb3mz0-A-PHE-125
     RDKit          3D

 22 21  0  0  0  0  0  0  0  0999 V2000
    0.0272    0.7499    3.5481 C   0  0  0  0  0  0  0  0  0  0  0  0
    0.1584   -0.0768    3.0212 H   0  0  0  0  0  0  0  0  0  0  0  0
   -0.8593    1.1512    3.3710 H   0  0  0  0  0  0  0  0  0  0  0  0
    0.0797    0.4916    4.6058 H   0  0  0  0  0  0  0  0  0  0  0  0
    1.0995    1.7447    3.1718 C   0  0  0  0  0  0  0  0  0  0  0  0
    2.2721    1.3389    2.9982 O   0  0  0  0  0  1  0  0  0  0  0  0
    0.7881    2.9547    3.1197 O   0  0  0  0  0  0  0  0  0  0  0  0
   -0.0151    2.8992    0.0067 C   0  0  0  0  0  0  0  0  0  0  0  0
    0.9209    3.2136   -0.0394 H   0  0  0  0  0  0  0  0  0  0  0  0
   -0.4556    3.1993    0.8399 H   0  0  0  0  0  0  0  0  0  0  0  0
   -0.5566    3.3333   -0.8338 H   0  0  0  0  0  0  0  0  0  0  0  0
   -0.0024    1.3999    0.0015 C   0  0  0  0  0  0  0  0  0  0  0  0
   -1.1966    0.6910    0.0027 C   0  0  0  0  0  0  0  0  0  0  0  0
   -2.0641    1.1819    0.0040 H   0  0  0  0  0  0  0  0  0  0  0  0
   -1.2001   -0.6962    0.0000 C   0  0  0  0  0  0  0  0  0  0  0  0
   -2.0759   -1.1926    0.0029 H   0  0  0  0  0  0  0  0  0  0  0  0
    0.0029   -1.3912   -0.0051 C   0  0  0  0  0  0  0  0  0  0  0  0
   -0.0054   -2.3927   -0.0126 H   0  0  0  0  0  0  0  0  0  0  0  0
    1.2001   -0.7015   -0.0000 C   0  0  0  0  0  0  0  0  0  0  0  0
    2.0829   -1.1940    0.0051 H   0  0  0  0  0  0  0  0  0  0  0  0
    1.1961    0.6980    0.0008 C   0  0  0  0  0  0  0  0  0  0  0  0
    2.0627    1.1907   -0.0004 H   0  0  0  0  0  0  0  0  0  0  0  0
  1  5  1  0
  5  6  1  0
  5  7  2  0
  1  2  1  0
  1  3  1  0
  1  4  1  0
  8 12  1  0
 12 13  2  0
 13 15  1  0
 15 17  2  0
 17 19  1  0
 19 21  2  0
 21 12  1  0
  8  9  1  0
  8 10  1  0
  8 11  1  0
 13 14  1  0
 15 16  1  0
 17 18  1  0
 19 20  1  0
 21 22  1  0
M  CHG  1   6  -1
M  END
>  <PDB_ID>  (1665) 
pdb3mz0

>  <RESIDUE_NAME>  (1665) 
ASP   PHE

>  <FRAG_NAME>  (1665) 
ACET   MBZ

>  <FRAG_ATOM_NUM>  (1665) 
fragi: 7  fragj: 15

>  <atom.prop.CHAIN_ID>  (1665) 
A A A A A A A Z Z Z Z Z Z Z Z Z Z Z Z Z Z Z

>  <atom.prop.IS_HEAVY_ATOM>  (1665) 
1 0 0 0 1 1 1 1 0 0 0 1 1 0 1 0 1 0 1 0 1 0

>  <DIFUSE_FUNC_ATOM>  (1665) 
atom 6   atom 7   

>  <FINAL_SINGLE_POINT_ENERGY>  (1665) 
0

>  <NONCOV_INTER_ENERGY_QM>  (1665) 
0

>  <FF_Energy>  (1665) 
0.26

>  <QM_Energy>  (1665) 
-6.01

>  <source>  (1665) 
ACET_MBZ_01

>  <Index>  (1665) 
31924

$$$$
ACET-pdb3mzs-A-GLU-76:MBZ-pdb3mzs-A-PHE-73
     RDKit          3D

 22 21  0  0  0  0  0  0  0  0999 V2000
   -4.9090    2.6659   -0.0880 C   0  0  0  0  0  0  0  0  0  0  0  0
   -4.2412    3.3784    0.0125 H   0  0  0  0  0  0  0  0  0  0  0  0
   -5.8224    2.9817    0.0847 H   0  0  0  0  0  0  0  0  0  0  0  0
   -4.8666    2.3157   -1.1193 H   0  0  0  0  0  0  0  0  0  0  0  0
   -4.5950    1.5832    0.8539 C   0  0  0  0  0  0  0  0  0  0  0  0
   -5.4527    0.7044    0.9907 O   0  0  0  0  0  1  0  0  0  0  0  0
   -3.4945    1.6101    1.4171 O   0  0  0  0  0  0  0  0  0  0  0  0
   -0.0094    2.9053   -0.0191 C   0  0  0  0  0  0  0  0  0  0  0  0
    0.9218    3.2211   -0.0559 H   0  0  0  0  0  0  0  0  0  0  0  0
   -0.4767    3.2196    0.7887 H   0  0  0  0  0  0  0  0  0  0  0  0
   -0.5313    3.3178   -0.8825 H   0  0  0  0  0  0  0  0  0  0  0  0
    0.0035    1.4004   -0.0009 C   0  0  0  0  0  0  0  0  0  0  0  0
   -1.1867    0.6763    0.0039 C   0  0  0  0  0  0  0  0  0  0  0  0
   -2.0579    1.1674    0.0093 H   0  0  0  0  0  0  0  0  0  0  0  0
   -1.1865   -0.7035   -0.0000 C   0  0  0  0  0  0  0  0  0  0  0  0
   -2.0715   -1.1961   -0.0044 H   0  0  0  0  0  0  0  0  0  0  0  0
   -0.0069   -1.3824    0.0039 C   0  0  0  0  0  0  0  0  0  0  0  0
   -0.0062   -2.3919    0.0090 H   0  0  0  0  0  0  0  0  0  0  0  0
    1.1865   -0.7012    0.0000 C   0  0  0  0  0  0  0  0  0  0  0  0
    2.0718   -1.1894    0.0036 H   0  0  0  0  0  0  0  0  0  0  0  0
    1.1901    0.7104   -0.0068 C   0  0  0  0  0  0  0  0  0  0  0  0
    2.0615    1.1886   -0.0168 H   0  0  0  0  0  0  0  0  0  0  0  0
  1  5  1  0
  5  6  1  0
  5  7  2  0
  1  2  1  0
  1  3  1  0
  1  4  1  0
  8 12  1  0
 12 13  2  0
 13 15  1  0
 15 17  2  0
 17 19  1  0
 19 21  2  0
 21 12  1  0
  8  9  1  0
  8 10  1  0
  8 11  1  0
 13 14  1  0
 15 16  1  0
 17 18  1  0
 19 20  1  0
 21 22  1  0
M  CHG  1   6  -1
M  END
>  <PDB_ID>  (1666) 
pdb3mzs

>  <RESIDUE_NAME>  (1666) 
GLU   PHE

>  <FRAG_NAME>  (1666) 
ACET   MBZ

>  <FRAG_ATOM_NUM>  (1666) 
fragi: 7  fragj: 15

>  <atom.prop.CHAIN_ID>  (1666) 
A A A A A A A Z Z Z Z Z Z Z Z Z Z Z Z Z Z Z

>  <atom.prop.IS_HEAVY_ATOM>  (1666) 
1 0 0 0 1 1 1 1 0 0 0 1 1 0 1 0 1 0 1 0 1 0

>  <DIFUSE_FUNC_ATOM>  (1666) 
atom 6   atom 7   

>  <FINAL_SINGLE_POINT_ENERGY>  (1666) 
0

>  <NONCOV_INTER_ENERGY_QM>  (1666) 
0

>  <FF_Energy>  (1666) 
4.22

>  <QM_Energy>  (1666) 
-4.76

>  <source>  (1666) 
ACET_MBZ_01

>  <Index>  (1666) 
31982

$$$$
ACET-pdb3n1b-A-ASP-948:MBZ-pdb3n1b-A-PHE-887
     RDKit          3D

 22 21  0  0  0  0  0  0  0  0999 V2000
    1.5902    0.0470   -3.4948 C   0  0  0  0  0  0  0  0  0  0  0  0
    1.3727   -0.3947   -4.3577 H   0  0  0  0  0  0  0  0  0  0  0  0
    1.4880   -0.5909   -2.7413 H   0  0  0  0  0  0  0  0  0  0  0  0
    2.6329    0.3624   -3.5307 H   0  0  0  0  0  0  0  0  0  0  0  0
    0.6386    1.2070   -3.2873 C   0  0  0  0  0  0  0  0  0  0  0  0
    1.1076    2.3641   -3.2575 O   0  0  0  0  0  1  0  0  0  0  0  0
   -0.5779    0.9615   -3.1636 O   0  0  0  0  0  0  0  0  0  0  0  0
   -0.0005    2.8971   -0.0031 C   0  0  0  0  0  0  0  0  0  0  0  0
   -0.2945    3.2011   -0.8963 H   0  0  0  0  0  0  0  0  0  0  0  0
    0.9166    3.2038    0.1997 H   0  0  0  0  0  0  0  0  0  0  0  0
   -0.6704    3.3367    0.7358 H   0  0  0  0  0  0  0  0  0  0  0  0
   -0.0005    1.3948    0.0017 C   0  0  0  0  0  0  0  0  0  0  0  0
   -1.1915    0.6876   -0.0030 C   0  0  0  0  0  0  0  0  0  0  0  0
   -2.0603    1.1801   -0.0103 H   0  0  0  0  0  0  0  0  0  0  0  0
   -1.1946   -0.6929   -0.0000 C   0  0  0  0  0  0  0  0  0  0  0  0
   -2.0732   -1.1894    0.0025 H   0  0  0  0  0  0  0  0  0  0  0  0
   -0.0005   -1.3842    0.0012 C   0  0  0  0  0  0  0  0  0  0  0  0
   -0.0043   -2.3868    0.0022 H   0  0  0  0  0  0  0  0  0  0  0  0
    1.1946   -0.6940    0.0000 C   0  0  0  0  0  0  0  0  0  0  0  0
    2.0773   -1.1949    0.0010 H   0  0  0  0  0  0  0  0  0  0  0  0
    1.1924    0.6886    0.0000 C   0  0  0  0  0  0  0  0  0  0  0  0
    2.0610    1.1863   -0.0019 H   0  0  0  0  0  0  0  0  0  0  0  0
  1  5  1  0
  5  6  1  0
  5  7  2  0
  1  2  1  0
  1  3  1  0
  1  4  1  0
  8 12  1  0
 12 13  2  0
 13 15  1  0
 15 17  2  0
 17 19  1  0
 19 21  2  0
 21 12  1  0
  8  9  1  0
  8 10  1  0
  8 11  1  0
 13 14  1  0
 15 16  1  0
 17 18  1  0
 19 20  1  0
 21 22  1  0
M  CHG  1   6  -1
M  END
>  <PDB_ID>  (1667) 
pdb3n1b

>  <RESIDUE_NAME>  (1667) 
ASP   PHE

>  <FRAG_NAME>  (1667) 
ACET   MBZ

>  <FRAG_ATOM_NUM>  (1667) 
fragi: 7  fragj: 15

>  <atom.prop.CHAIN_ID>  (1667) 
A A A A A A A Z Z Z Z Z Z Z Z Z Z Z Z Z Z Z

>  <atom.prop.IS_HEAVY_ATOM>  (1667) 
1 0 0 0 1 1 1 1 0 0 0 1 1 0 1 0 1 0 1 0 1 0

>  <DIFUSE_FUNC_ATOM>  (1667) 
atom 6   atom 7   

>  <FINAL_SINGLE_POINT_ENERGY>  (1667) 
0

>  <NONCOV_INTER_ENERGY_QM>  (1667) 
0

>  <FF_Energy>  (1667) 
2.95

>  <QM_Energy>  (1667) 
-4.15

>  <source>  (1667) 
ACET_MBZ_01

>  <Index>  (1667) 
32116

$$$$
ACET-pdb4k7g-B-GLU-54:MBZ-pdb4k7g-D-PHE-60
     RDKit          3D

 22 21  0  0  0  0  0  0  0  0999 V2000
    0.1110    0.3882    3.4239 C   0  0  0  0  0  0  0  0  0  0  0  0
    0.0612   -0.0111    2.5423 H   0  0  0  0  0  0  0  0  0  0  0  0
   -0.5328   -0.0341    4.0127 H   0  0  0  0  0  0  0  0  0  0  0  0
    1.1114    0.2266    3.8255 H   0  0  0  0  0  0  0  0  0  0  0  0
   -0.2749    1.8516    3.2919 C   0  0  0  0  0  0  0  0  0  0  0  0
    0.6215    2.7071    3.3069 O   0  0  0  0  0  1  0  0  0  0  0  0
   -1.4940    2.1270    3.1950 O   0  0  0  0  0  0  0  0  0  0  0  0
   -0.0104    2.9083    0.0092 C   0  0  0  0  0  0  0  0  0  0  0  0
    0.8199    3.2020    0.4169 H   0  0  0  0  0  0  0  0  0  0  0  0
   -0.7610    3.1974    0.5501 H   0  0  0  0  0  0  0  0  0  0  0  0
   -0.0950    3.3613   -0.9786 H   0  0  0  0  0  0  0  0  0  0  0  0
   -0.0070    1.4063   -0.0059 C   0  0  0  0  0  0  0  0  0  0  0  0
   -1.1987    0.7005   -0.0026 C   0  0  0  0  0  0  0  0  0  0  0  0
   -2.0050    1.1656    0.0000 H   0  0  0  0  0  0  0  0  0  0  0  0
   -1.2131   -0.6908   -0.0000 C   0  0  0  0  0  0  0  0  0  0  0  0
   -2.0227   -1.1487    0.0009 H   0  0  0  0  0  0  0  0  0  0  0  0
    0.0093   -1.4093    0.0100 C   0  0  0  0  0  0  0  0  0  0  0  0
    0.0067   -2.3396    0.0022 H   0  0  0  0  0  0  0  0  0  0  0  0
    1.2131   -0.7077   -0.0000 C   0  0  0  0  0  0  0  0  0  0  0  0
    2.0219   -1.1674    0.0029 H   0  0  0  0  0  0  0  0  0  0  0  0
    1.1964    0.7010   -0.0015 C   0  0  0  0  0  0  0  0  0  0  0  0
    2.0010    1.1679    0.0008 H   0  0  0  0  0  0  0  0  0  0  0  0
  1  5  1  0
  5  6  1  0
  5  7  2  0
  1  2  1  0
  1  3  1  0
  1  4  1  0
  8 12  1  0
 12 13  2  0
 13 15  1  0
 15 17  2  0
 17 19  1  0
 19 21  2  0
 21 12  1  0
  8  9  1  0
  8 10  1  0
  8 11  1  0
 13 14  1  0
 15 16  1  0
 17 18  1  0
 19 20  1  0
 21 22  1  0
M  CHG  1   6  -1
M  END
>  <PDB_ID>  (1668) 
pdb4k7g

>  <RESIDUE_NAME>  (1668) 
GLU   PHE

>  <FRAG_NAME>  (1668) 
ACET   MBZ

>  <FRAG_ATOM_NUM>  (1668) 
fragi: 7  fragj: 15

>  <atom.prop.CHAIN_ID>  (1668) 
A A A A A A A Z Z Z Z Z Z Z Z Z Z Z Z Z Z Z

>  <atom.prop.IS_HEAVY_ATOM>  (1668) 
1 0 0 0 1 1 1 1 0 0 0 1 1 0 1 0 1 0 1 0 1 0

>  <DIFUSE_FUNC_ATOM>  (1668) 
atom 6   atom 7   

>  <FINAL_SINGLE_POINT_ENERGY>  (1668) 
0

>  <NONCOV_INTER_ENERGY_QM>  (1668) 
0

>  <FF_Energy>  (1668) 
0.26

>  <QM_Energy>  (1668) 
-6.58

>  <source>  (1668) 
ACET_MBZ_01

>  <Index>  (1668) 
32131

$$$$
ACET-pdb4k9d-A-GLU-177:MBZ-pdb4k9d-H-PHE-312
     RDKit          3D

 22 21  0  0  0  0  0  0  0  0999 V2000
    1.3732    0.3931   -3.8299 C   0  0  0  0  0  0  0  0  0  0  0  0
    1.1082    0.1216   -4.7385 H   0  0  0  0  0  0  0  0  0  0  0  0
    1.0510   -0.2400   -3.1476 H   0  0  0  0  0  0  0  0  0  0  0  0
    2.4619    0.4222   -3.7856 H   0  0  0  0  0  0  0  0  0  0  0  0
    0.7395    1.7322   -3.5477 C   0  0  0  0  0  0  0  0  0  0  0  0
    1.4767    2.6848   -3.2145 O   0  0  0  0  0  1  0  0  0  0  0  0
   -0.5016    1.8326   -3.6587 O   0  0  0  0  0  0  0  0  0  0  0  0
   -0.0045    2.8975   -0.0060 C   0  0  0  0  0  0  0  0  0  0  0  0
   -0.3632    3.2023   -0.8760 H   0  0  0  0  0  0  0  0  0  0  0  0
    0.9258    3.2084    0.1262 H   0  0  0  0  0  0  0  0  0  0  0  0
   -0.6172    3.3394    0.7799 H   0  0  0  0  0  0  0  0  0  0  0  0
   -0.0012    1.4006   -0.0008 C   0  0  0  0  0  0  0  0  0  0  0  0
   -1.1962    0.6961   -0.0038 C   0  0  0  0  0  0  0  0  0  0  0  0
   -2.0634    1.1842   -0.0100 H   0  0  0  0  0  0  0  0  0  0  0  0
   -1.2011   -0.6972    0.0000 C   0  0  0  0  0  0  0  0  0  0  0  0
   -2.0769   -1.1907    0.0019 H   0  0  0  0  0  0  0  0  0  0  0  0
    0.0024   -1.3942    0.0028 C   0  0  0  0  0  0  0  0  0  0  0  0
   -0.0037   -2.3934    0.0068 H   0  0  0  0  0  0  0  0  0  0  0  0
    1.2011   -0.6993    0.0000 C   0  0  0  0  0  0  0  0  0  0  0  0
    2.0836   -1.1942   -0.0021 H   0  0  0  0  0  0  0  0  0  0  0  0
    1.1950    0.6939    0.0018 C   0  0  0  0  0  0  0  0  0  0  0  0
    2.0629    1.1897    0.0046 H   0  0  0  0  0  0  0  0  0  0  0  0
  1  5  1  0
  5  6  1  0
  5  7  2  0
  1  2  1  0
  1  3  1  0
  1  4  1  0
  8 12  1  0
 12 13  2  0
 13 15  1  0
 15 17  2  0
 17 19  1  0
 19 21  2  0
 21 12  1  0
  8  9  1  0
  8 10  1  0
  8 11  1  0
 13 14  1  0
 15 16  1  0
 17 18  1  0
 19 20  1  0
 21 22  1  0
M  CHG  1   6  -1
M  END
>  <PDB_ID>  (1669) 
pdb4k9d

>  <RESIDUE_NAME>  (1669) 
GLU   PHE

>  <FRAG_NAME>  (1669) 
ACET   MBZ

>  <FRAG_ATOM_NUM>  (1669) 
fragi: 7  fragj: 15

>  <atom.prop.CHAIN_ID>  (1669) 
A A A A A A A Z Z Z Z Z Z Z Z Z Z Z Z Z Z Z

>  <atom.prop.IS_HEAVY_ATOM>  (1669) 
1 0 0 0 1 1 1 1 0 0 0 1 1 0 1 0 1 0 1 0 1 0

>  <DIFUSE_FUNC_ATOM>  (1669) 
atom 6   atom 7   

>  <FINAL_SINGLE_POINT_ENERGY>  (1669) 
0

>  <NONCOV_INTER_ENERGY_QM>  (1669) 
0

>  <FF_Energy>  (1669) 
0.33

>  <QM_Energy>  (1669) 
-5.31

>  <source>  (1669) 
ACET_MBZ_01

>  <Index>  (1669) 
32284

$$$$
ACET-pdb4kam-B-ASP-323:MBZ-pdb4kam-B-PHE-433
     RDKit          3D

 22 21  0  0  0  0  0  0  0  0999 V2000
   -4.7814    1.0108    3.2763 C   0  0  0  0  0  0  0  0  0  0  0  0
   -5.2506    1.2015    2.4230 H   0  0  0  0  0  0  0  0  0  0  0  0
   -4.9791    1.7134    3.9493 H   0  0  0  0  0  0  0  0  0  0  0  0
   -5.1614    0.0643    3.6608 H   0  0  0  0  0  0  0  0  0  0  0  0
   -3.2739    0.9956    3.0124 C   0  0  0  0  0  0  0  0  0  0  0  0
   -2.6199    0.0210    3.4469 O   0  0  0  0  0  1  0  0  0  0  0  0
   -2.7375    1.9672    2.3927 O   0  0  0  0  0  0  0  0  0  0  0  0
   -0.0009    2.9121   -0.0265 C   0  0  0  0  0  0  0  0  0  0  0  0
    0.9211    3.2240    0.1142 H   0  0  0  0  0  0  0  0  0  0  0  0
   -0.6131    3.2321    0.6747 H   0  0  0  0  0  0  0  0  0  0  0  0
   -0.3472    3.3120   -0.9795 H   0  0  0  0  0  0  0  0  0  0  0  0
    0.0044    1.4061    0.0082 C   0  0  0  0  0  0  0  0  0  0  0  0
   -1.1954    0.6938    0.0013 C   0  0  0  0  0  0  0  0  0  0  0  0
   -2.0605    1.1849   -0.0035 H   0  0  0  0  0  0  0  0  0  0  0  0
   -1.1978   -0.6947   -0.0000 C   0  0  0  0  0  0  0  0  0  0  0  0
   -2.0787   -1.1882   -0.0007 H   0  0  0  0  0  0  0  0  0  0  0  0
   -0.0033   -1.3933    0.0014 C   0  0  0  0  0  0  0  0  0  0  0  0
   -0.0087   -2.3925    0.0024 H   0  0  0  0  0  0  0  0  0  0  0  0
    1.1978   -0.7008    0.0000 C   0  0  0  0  0  0  0  0  0  0  0  0
    2.0785   -1.1996    0.0083 H   0  0  0  0  0  0  0  0  0  0  0  0
    1.1943    0.6888   -0.0109 C   0  0  0  0  0  0  0  0  0  0  0  0
    2.0673    1.1829   -0.0342 H   0  0  0  0  0  0  0  0  0  0  0  0
  1  5  1  0
  5  6  1  0
  5  7  2  0
  1  2  1  0
  1  3  1  0
  1  4  1  0
  8 12  1  0
 12 13  2  0
 13 15  1  0
 15 17  2  0
 17 19  1  0
 19 21  2  0
 21 12  1  0
  8  9  1  0
  8 10  1  0
  8 11  1  0
 13 14  1  0
 15 16  1  0
 17 18  1  0
 19 20  1  0
 21 22  1  0
M  CHG  1   6  -1
M  END
>  <PDB_ID>  (1670) 
pdb4kam

>  <RESIDUE_NAME>  (1670) 
ASP   PHE

>  <FRAG_NAME>  (1670) 
ACET   MBZ

>  <FRAG_ATOM_NUM>  (1670) 
fragi: 7  fragj: 15

>  <atom.prop.CHAIN_ID>  (1670) 
A A A A A A A Z Z Z Z Z Z Z Z Z Z Z Z Z Z Z

>  <atom.prop.IS_HEAVY_ATOM>  (1670) 
1 0 0 0 1 1 1 1 0 0 0 1 1 0 1 0 1 0 1 0 1 0

>  <DIFUSE_FUNC_ATOM>  (1670) 
atom 6   atom 7   

>  <FINAL_SINGLE_POINT_ENERGY>  (1670) 
0

>  <NONCOV_INTER_ENERGY_QM>  (1670) 
0

>  <FF_Energy>  (1670) 
0.94

>  <QM_Energy>  (1670) 
-4.09

>  <source>  (1670) 
ACET_MBZ_01

>  <Index>  (1670) 
32287

$$$$
ACET-pdb4k9d-A-GLU-101:MBZ-pdb4k9d-A-PHE-106
     RDKit          3D

 22 21  0  0  0  0  0  0  0  0999 V2000
    3.3408    4.7283    0.6540 C   0  0  0  0  0  0  0  0  0  0  0  0
    2.5207    4.8308    1.1872 H   0  0  0  0  0  0  0  0  0  0  0  0
    3.2767    5.1861   -0.2148 H   0  0  0  0  0  0  0  0  0  0  0  0
    4.1662    5.1699    1.2124 H   0  0  0  0  0  0  0  0  0  0  0  0
    3.5250    3.2416    0.3764 C   0  0  0  0  0  0  0  0  0  0  0  0
    3.7167    2.4544    1.3342 O   0  0  0  0  0  1  0  0  0  0  0  0
    3.4672    2.8604   -0.8167 O   0  0  0  0  0  0  0  0  0  0  0  0
    0.0101    2.8861   -0.0144 C   0  0  0  0  0  0  0  0  0  0  0  0
    0.9530    3.1882   -0.0344 H   0  0  0  0  0  0  0  0  0  0  0  0
   -0.4527    3.2151    0.7967 H   0  0  0  0  0  0  0  0  0  0  0  0
   -0.4929    3.3176   -0.8797 H   0  0  0  0  0  0  0  0  0  0  0  0
   -0.0023    1.3924    0.0134 C   0  0  0  0  0  0  0  0  0  0  0  0
   -1.1952    0.6939   -0.0106 C   0  0  0  0  0  0  0  0  0  0  0  0
   -2.0610    1.1830   -0.0369 H   0  0  0  0  0  0  0  0  0  0  0  0
   -1.1992   -0.6942   -0.0000 C   0  0  0  0  0  0  0  0  0  0  0  0
   -2.0731   -1.1901    0.0085 H   0  0  0  0  0  0  0  0  0  0  0  0
    0.0051   -1.3857    0.0001 C   0  0  0  0  0  0  0  0  0  0  0  0
   -0.0010   -2.3872   -0.0004 H   0  0  0  0  0  0  0  0  0  0  0  0
    1.1992   -0.6933    0.0000 C   0  0  0  0  0  0  0  0  0  0  0  0
    2.0820   -1.1925    0.0031 H   0  0  0  0  0  0  0  0  0  0  0  0
    1.1924    0.6869   -0.0029 C   0  0  0  0  0  0  0  0  0  0  0  0
    2.0600    1.1885   -0.0175 H   0  0  0  0  0  0  0  0  0  0  0  0
  1  5  1  0
  5  6  1  0
  5  7  2  0
  1  2  1  0
  1  3  1  0
  1  4  1  0
  8 12  1  0
 12 13  2  0
 13 15  1  0
 15 17  2  0
 17 19  1  0
 19 21  2  0
 21 12  1  0
  8  9  1  0
  8 10  1  0
  8 11  1  0
 13 14  1  0
 15 16  1  0
 17 18  1  0
 19 20  1  0
 21 22  1  0
M  CHG  1   6  -1
M  END
>  <PDB_ID>  (1671) 
pdb4k9d

>  <RESIDUE_NAME>  (1671) 
GLU   PHE

>  <FRAG_NAME>  (1671) 
ACET   MBZ

>  <FRAG_ATOM_NUM>  (1671) 
fragi: 7  fragj: 15

>  <atom.prop.CHAIN_ID>  (1671) 
A A A A A A A Z Z Z Z Z Z Z Z Z Z Z Z Z Z Z

>  <atom.prop.IS_HEAVY_ATOM>  (1671) 
1 0 0 0 1 1 1 1 0 0 0 1 1 0 1 0 1 0 1 0 1 0

>  <DIFUSE_FUNC_ATOM>  (1671) 
atom 6   atom 7   

>  <FINAL_SINGLE_POINT_ENERGY>  (1671) 
0

>  <NONCOV_INTER_ENERGY_QM>  (1671) 
0

>  <FF_Energy>  (1671) 
-0.62

>  <QM_Energy>  (1671) 
-8.63

>  <source>  (1671) 
ACET_MBZ_01

>  <Index>  (1671) 
32371

$$$$
ACET-pdb3mzs-B-GLU-162:MBZ-pdb3mzs-B-PHE-165
     RDKit          3D

 22 21  0  0  0  0  0  0  0  0999 V2000
    5.0260    1.0771   -2.0049 C   0  0  0  0  0  0  0  0  0  0  0  0
    4.6376    0.4083   -2.6129 H   0  0  0  0  0  0  0  0  0  0  0  0
    6.0083    1.0974   -2.0559 H   0  0  0  0  0  0  0  0  0  0  0  0
    4.6305    2.0622   -2.2520 H   0  0  0  0  0  0  0  0  0  0  0  0
    4.6628    0.6631   -0.5982 C   0  0  0  0  0  0  0  0  0  0  0  0
    4.4572   -0.5677   -0.4031 O   0  0  0  0  0  1  0  0  0  0  0  0
    4.5963    1.5458    0.3044 O   0  0  0  0  0  0  0  0  0  0  0  0
    0.0310    2.9787    0.0026 C   0  0  0  0  0  0  0  0  0  0  0  0
    0.8840    3.2584   -0.4086 H   0  0  0  0  0  0  0  0  0  0  0  0
   -0.0293    3.2680    0.9444 H   0  0  0  0  0  0  0  0  0  0  0  0
   -0.7824    3.4493   -0.5497 H   0  0  0  0  0  0  0  0  0  0  0  0
    0.0006    1.4453   -0.0073 C   0  0  0  0  0  0  0  0  0  0  0  0
   -1.2257    0.7109    0.0089 C   0  0  0  0  0  0  0  0  0  0  0  0
   -2.0846    1.1865    0.0248 H   0  0  0  0  0  0  0  0  0  0  0  0
   -1.2250   -0.7285    0.0000 C   0  0  0  0  0  0  0  0  0  0  0  0
   -2.0852   -1.2161    0.0022 H   0  0  0  0  0  0  0  0  0  0  0  0
    0.0170   -1.4315   -0.0103 C   0  0  0  0  0  0  0  0  0  0  0  0
    0.0146   -2.4197   -0.0255 H   0  0  0  0  0  0  0  0  0  0  0  0
    1.2250   -0.7103    0.0000 C   0  0  0  0  0  0  0  0  0  0  0  0
    2.1087   -1.1893    0.0024 H   0  0  0  0  0  0  0  0  0  0  0  0
    1.2080    0.7141    0.0088 C   0  0  0  0  0  0  0  0  0  0  0  0
    2.0779    1.2038    0.0257 H   0  0  0  0  0  0  0  0  0  0  0  0
  1  5  1  0
  5  6  1  0
  5  7  2  0
  1  2  1  0
  1  3  1  0
  1  4  1  0
  8 12  1  0
 12 13  2  0
 13 15  1  0
 15 17  2  0
 17 19  1  0
 19 21  2  0
 21 12  1  0
  8  9  1  0
  8 10  1  0
  8 11  1  0
 13 14  1  0
 15 16  1  0
 17 18  1  0
 19 20  1  0
 21 22  1  0
M  CHG  1   6  -1
M  END
>  <PDB_ID>  (1672) 
pdb3mzs

>  <RESIDUE_NAME>  (1672) 
GLU   PHE

>  <FRAG_NAME>  (1672) 
ACET   MBZ

>  <FRAG_ATOM_NUM>  (1672) 
fragi: 7  fragj: 15

>  <atom.prop.CHAIN_ID>  (1672) 
A A A A A A A Z Z Z Z Z Z Z Z Z Z Z Z Z Z Z

>  <atom.prop.IS_HEAVY_ATOM>  (1672) 
1 0 0 0 1 1 1 1 0 0 0 1 1 0 1 0 1 0 1 0 1 0

>  <DIFUSE_FUNC_ATOM>  (1672) 
atom 6   atom 7   

>  <FINAL_SINGLE_POINT_ENERGY>  (1672) 
0

>  <NONCOV_INTER_ENERGY_QM>  (1672) 
0

>  <FF_Energy>  (1672) 
-3.09

>  <QM_Energy>  (1672) 
-8.49

>  <source>  (1672) 
ACET_MBZ_01

>  <Index>  (1672) 
32439

$$$$
ACET-pdb3n58-A-GLU-147:MBZ-pdb3n58-A-PHE-179
     RDKit          3D

 22 21  0  0  0  0  0  0  0  0999 V2000
    4.5879    3.9695    0.9176 C   0  0  0  0  0  0  0  0  0  0  0  0
    5.3865    4.4747    0.6318 H   0  0  0  0  0  0  0  0  0  0  0  0
    4.8245    3.0672    1.2395 H   0  0  0  0  0  0  0  0  0  0  0  0
    4.1006    4.5142    1.7262 H   0  0  0  0  0  0  0  0  0  0  0  0
    3.7051    3.7958   -0.3000 C   0  0  0  0  0  0  0  0  0  0  0  0
    2.8374    4.6616   -0.5386 O   0  0  0  0  0  1  0  0  0  0  0  0
    3.8925    2.7903   -1.0179 O   0  0  0  0  0  0  0  0  0  0  0  0
   -0.0104    2.8918   -0.0209 C   0  0  0  0  0  0  0  0  0  0  0  0
    0.9018    3.2078    0.1773 H   0  0  0  0  0  0  0  0  0  0  0  0
   -0.6601    3.2024    0.6526 H   0  0  0  0  0  0  0  0  0  0  0  0
   -0.3049    3.3092   -0.9837 H   0  0  0  0  0  0  0  0  0  0  0  0
    0.0002    1.3877   -0.0017 C   0  0  0  0  0  0  0  0  0  0  0  0
   -1.1867    0.6821    0.0034 C   0  0  0  0  0  0  0  0  0  0  0  0
   -2.0561    1.1776    0.0084 H   0  0  0  0  0  0  0  0  0  0  0  0
   -1.1900   -0.6896    0.0000 C   0  0  0  0  0  0  0  0  0  0  0  0
   -2.0717   -1.1875   -0.0020 H   0  0  0  0  0  0  0  0  0  0  0  0
   -0.0042   -1.3745    0.0011 C   0  0  0  0  0  0  0  0  0  0  0  0
   -0.0042   -2.3801    0.0024 H   0  0  0  0  0  0  0  0  0  0  0  0
    1.1900   -0.6865   -0.0000 C   0  0  0  0  0  0  0  0  0  0  0  0
    2.0719   -1.1955    0.0028 H   0  0  0  0  0  0  0  0  0  0  0  0
    1.1907    0.6809   -0.0029 C   0  0  0  0  0  0  0  0  0  0  0  0
    2.0593    1.1847   -0.0067 H   0  0  0  0  0  0  0  0  0  0  0  0
  1  5  1  0
  5  6  1  0
  5  7  2  0
  1  2  1  0
  1  3  1  0
  1  4  1  0
  8 12  1  0
 12 13  2  0
 13 15  1  0
 15 17  2  0
 17 19  1  0
 19 21  2  0
 21 12  1  0
  8  9  1  0
  8 10  1  0
  8 11  1  0
 13 14  1  0
 15 16  1  0
 17 18  1  0
 19 20  1  0
 21 22  1  0
M  CHG  1   6  -1
M  END
>  <PDB_ID>  (1673) 
pdb3n58

>  <RESIDUE_NAME>  (1673) 
GLU   PHE

>  <FRAG_NAME>  (1673) 
ACET   MBZ

>  <FRAG_ATOM_NUM>  (1673) 
fragi: 7  fragj: 15

>  <atom.prop.CHAIN_ID>  (1673) 
A A A A A A A Z Z Z Z Z Z Z Z Z Z Z Z Z Z Z

>  <atom.prop.IS_HEAVY_ATOM>  (1673) 
1 0 0 0 1 1 1 1 0 0 0 1 1 0 1 0 1 0 1 0 1 0

>  <DIFUSE_FUNC_ATOM>  (1673) 
atom 6   atom 7   

>  <FINAL_SINGLE_POINT_ENERGY>  (1673) 
0

>  <NONCOV_INTER_ENERGY_QM>  (1673) 
0

>  <FF_Energy>  (1673) 
-2.5

>  <QM_Energy>  (1673) 
-7.59

>  <source>  (1673) 
ACET_MBZ_01

>  <Index>  (1673) 
32460

$$$$
ACET-pdb3n58-B-GLU-147:MBZ-pdb3n58-B-PHE-179
     RDKit          3D

 22 21  0  0  0  0  0  0  0  0999 V2000
    3.8890    3.7064    1.6926 C   0  0  0  0  0  0  0  0  0  0  0  0
    4.8578    3.5583    1.6852 H   0  0  0  0  0  0  0  0  0  0  0  0
    3.3970    2.9763    2.1231 H   0  0  0  0  0  0  0  0  0  0  0  0
    3.6885    4.6263    2.2419 H   0  0  0  0  0  0  0  0  0  0  0  0
    3.4244    3.7697    0.2307 C   0  0  0  0  0  0  0  0  0  0  0  0
    3.0196    4.8615   -0.2173 O   0  0  0  0  0  1  0  0  0  0  0  0
    3.4533    2.7317   -0.4742 O   0  0  0  0  0  0  0  0  0  0  0  0
    0.0026    2.9180    0.0234 C   0  0  0  0  0  0  0  0  0  0  0  0
    0.9034    3.2104    0.3074 H   0  0  0  0  0  0  0  0  0  0  0  0
   -0.6892    3.2072    0.6674 H   0  0  0  0  0  0  0  0  0  0  0  0
   -0.2157    3.3887   -0.9352 H   0  0  0  0  0  0  0  0  0  0  0  0
   -0.0004    1.3970   -0.0050 C   0  0  0  0  0  0  0  0  0  0  0  0
   -1.1877    0.6912    0.0028 C   0  0  0  0  0  0  0  0  0  0  0  0
   -2.0583    1.1810    0.0093 H   0  0  0  0  0  0  0  0  0  0  0  0
   -1.1908   -0.6921   -0.0000 C   0  0  0  0  0  0  0  0  0  0  0  0
   -2.0721   -1.1868    0.0026 H   0  0  0  0  0  0  0  0  0  0  0  0
    0.0012   -1.3865   -0.0041 C   0  0  0  0  0  0  0  0  0  0  0  0
   -0.0055   -2.3875   -0.0103 H   0  0  0  0  0  0  0  0  0  0  0  0
    1.1908   -0.6960   -0.0000 C   0  0  0  0  0  0  0  0  0  0  0  0
    2.0766   -1.1941   -0.0005 H   0  0  0  0  0  0  0  0  0  0  0  0
    1.1869    0.6863    0.0062 C   0  0  0  0  0  0  0  0  0  0  0  0
    2.0601    1.1831    0.0182 H   0  0  0  0  0  0  0  0  0  0  0  0
  1  5  1  0
  5  6  1  0
  5  7  2  0
  1  2  1  0
  1  3  1  0
  1  4  1  0
  8 12  1  0
 12 13  2  0
 13 15  1  0
 15 17  2  0
 17 19  1  0
 19 21  2  0
 21 12  1  0
  8  9  1  0
  8 10  1  0
  8 11  1  0
 13 14  1  0
 15 16  1  0
 17 18  1  0
 19 20  1  0
 21 22  1  0
M  CHG  1   6  -1
M  END
>  <PDB_ID>  (1674) 
pdb3n58

>  <RESIDUE_NAME>  (1674) 
GLU   PHE

>  <FRAG_NAME>  (1674) 
ACET   MBZ

>  <FRAG_ATOM_NUM>  (1674) 
fragi: 7  fragj: 15

>  <atom.prop.CHAIN_ID>  (1674) 
A A A A A A A Z Z Z Z Z Z Z Z Z Z Z Z Z Z Z

>  <atom.prop.IS_HEAVY_ATOM>  (1674) 
1 0 0 0 1 1 1 1 0 0 0 1 1 0 1 0 1 0 1 0 1 0

>  <DIFUSE_FUNC_ATOM>  (1674) 
atom 6   atom 7   

>  <FINAL_SINGLE_POINT_ENERGY>  (1674) 
0

>  <NONCOV_INTER_ENERGY_QM>  (1674) 
0

>  <FF_Energy>  (1674) 
0.61

>  <QM_Energy>  (1674) 
-8.12

>  <source>  (1674) 
ACET_MBZ_01

>  <Index>  (1674) 
32467

$$$$
ACET-pdb4kfr-A-ASP-73:MBZ-pdb4kfr-A-PHE-80
     RDKit          3D

 22 21  0  0  0  0  0  0  0  0999 V2000
    4.0517   -1.3382   -3.0020 C   0  0  0  0  0  0  0  0  0  0  0  0
    3.9966   -2.0745   -2.3367 H   0  0  0  0  0  0  0  0  0  0  0  0
    4.9721   -1.2714   -3.3694 H   0  0  0  0  0  0  0  0  0  0  0  0
    3.3757   -1.5736   -3.8240 H   0  0  0  0  0  0  0  0  0  0  0  0
    3.7148   -0.0210   -2.2952 C   0  0  0  0  0  0  0  0  0  0  0  0
    2.9839    0.8070   -2.8766 O   0  0  0  0  0  1  0  0  0  0  0  0
    4.1994    0.1914   -1.1521 O   0  0  0  0  0  0  0  0  0  0  0  0
   -0.0078    2.9186   -0.0006 C   0  0  0  0  0  0  0  0  0  0  0  0
   -0.5646    3.2153   -0.7577 H   0  0  0  0  0  0  0  0  0  0  0  0
    0.9246    3.2261   -0.0900 H   0  0  0  0  0  0  0  0  0  0  0  0
   -0.4191    3.3543    0.9099 H   0  0  0  0  0  0  0  0  0  0  0  0
   -0.0003    1.4085    0.0061 C   0  0  0  0  0  0  0  0  0  0  0  0
   -1.1890    0.6967   -0.0030 C   0  0  0  0  0  0  0  0  0  0  0  0
   -2.0610    1.1810   -0.0129 H   0  0  0  0  0  0  0  0  0  0  0  0
   -1.1959   -0.7015    0.0000 C   0  0  0  0  0  0  0  0  0  0  0  0
   -2.0782   -1.1864    0.0030 H   0  0  0  0  0  0  0  0  0  0  0  0
   -0.0052   -1.3963    0.0008 C   0  0  0  0  0  0  0  0  0  0  0  0
   -0.0108   -2.3978    0.0011 H   0  0  0  0  0  0  0  0  0  0  0  0
    1.1959   -0.7085   -0.0000 C   0  0  0  0  0  0  0  0  0  0  0  0
    2.0778   -1.1983    0.0036 H   0  0  0  0  0  0  0  0  0  0  0  0
    1.1945    0.7011   -0.0039 C   0  0  0  0  0  0  0  0  0  0  0  0
    2.0650    1.1862   -0.0144 H   0  0  0  0  0  0  0  0  0  0  0  0
  1  5  1  0
  5  6  1  0
  5  7  2  0
  1  2  1  0
  1  3  1  0
  1  4  1  0
  8 12  1  0
 12 13  2  0
 13 15  1  0
 15 17  2  0
 17 19  1  0
 19 21  2  0
 21 12  1  0
  8  9  1  0
  8 10  1  0
  8 11  1  0
 13 14  1  0
 15 16  1  0
 17 18  1  0
 19 20  1  0
 21 22  1  0
M  CHG  1   6  -1
M  END
>  <PDB_ID>  (1675) 
pdb4kfr

>  <RESIDUE_NAME>  (1675) 
ASP   PHE

>  <FRAG_NAME>  (1675) 
ACET   MBZ

>  <FRAG_ATOM_NUM>  (1675) 
fragi: 7  fragj: 15

>  <atom.prop.CHAIN_ID>  (1675) 
A A A A A A A Z Z Z Z Z Z Z Z Z Z Z Z Z Z Z

>  <atom.prop.IS_HEAVY_ATOM>  (1675) 
1 0 0 0 1 1 1 1 0 0 0 1 1 0 1 0 1 0 1 0 1 0

>  <DIFUSE_FUNC_ATOM>  (1675) 
atom 6   atom 7   

>  <FINAL_SINGLE_POINT_ENERGY>  (1675) 
0

>  <NONCOV_INTER_ENERGY_QM>  (1675) 
0

>  <FF_Energy>  (1675) 
-1.18

>  <QM_Energy>  (1675) 
-6.34

>  <source>  (1675) 
ACET_MBZ_01

>  <Index>  (1675) 
32495

$$$$
ACET-pdb3n6h-B-ASP-314:MBZ-pdb3n6h-B-PHE-317
     RDKit          3D

 22 21  0  0  0  0  0  0  0  0999 V2000
   -5.0327    3.0295   -2.0927 C   0  0  0  0  0  0  0  0  0  0  0  0
   -5.8591    2.9070   -2.6399 H   0  0  0  0  0  0  0  0  0  0  0  0
   -4.2321    2.7741   -2.6320 H   0  0  0  0  0  0  0  0  0  0  0  0
   -4.9482    4.0897   -1.8542 H   0  0  0  0  0  0  0  0  0  0  0  0
   -5.1121    2.1305   -0.8788 C   0  0  0  0  0  0  0  0  0  0  0  0
   -4.0962    1.4767   -0.5877 O   0  0  0  0  0  1  0  0  0  0  0  0
   -6.1848    2.0272   -0.2530 O   0  0  0  0  0  0  0  0  0  0  0  0
   -0.0018    2.9080    0.0376 C   0  0  0  0  0  0  0  0  0  0  0  0
   -0.7039    3.2326   -0.5747 H   0  0  0  0  0  0  0  0  0  0  0  0
    0.8929    3.2249   -0.2292 H   0  0  0  0  0  0  0  0  0  0  0  0
   -0.2140    3.3125    1.0273 H   0  0  0  0  0  0  0  0  0  0  0  0
   -0.0001    1.4089   -0.0013 C   0  0  0  0  0  0  0  0  0  0  0  0
   -1.1970    0.6964    0.0033 C   0  0  0  0  0  0  0  0  0  0  0  0
   -2.0652    1.1870    0.0075 H   0  0  0  0  0  0  0  0  0  0  0  0
   -1.2061   -0.6981   -0.0000 C   0  0  0  0  0  0  0  0  0  0  0  0
   -2.0834   -1.1891    0.0036 H   0  0  0  0  0  0  0  0  0  0  0  0
   -0.0030   -1.4017   -0.0068 C   0  0  0  0  0  0  0  0  0  0  0  0
   -0.0096   -2.3980   -0.0171 H   0  0  0  0  0  0  0  0  0  0  0  0
    1.2061   -0.7052   -0.0000 C   0  0  0  0  0  0  0  0  0  0  0  0
    2.0839   -1.1984    0.0027 H   0  0  0  0  0  0  0  0  0  0  0  0
    1.2001    0.6997    0.0048 C   0  0  0  0  0  0  0  0  0  0  0  0
    2.0675    1.1910    0.0117 H   0  0  0  0  0  0  0  0  0  0  0  0
  1  5  1  0
  5  6  1  0
  5  7  2  0
  1  2  1  0
  1  3  1  0
  1  4  1  0
  8 12  1  0
 12 13  2  0
 13 15  1  0
 15 17  2  0
 17 19  1  0
 19 21  2  0
 21 12  1  0
  8  9  1  0
  8 10  1  0
  8 11  1  0
 13 14  1  0
 15 16  1  0
 17 18  1  0
 19 20  1  0
 21 22  1  0
M  CHG  1   6  -1
M  END
>  <PDB_ID>  (1676) 
pdb3n6h

>  <RESIDUE_NAME>  (1676) 
ASP   PHE

>  <FRAG_NAME>  (1676) 
ACET   MBZ

>  <FRAG_ATOM_NUM>  (1676) 
fragi: 7  fragj: 15

>  <atom.prop.CHAIN_ID>  (1676) 
A A A A A A A Z Z Z Z Z Z Z Z Z Z Z Z Z Z Z

>  <atom.prop.IS_HEAVY_ATOM>  (1676) 
1 0 0 0 1 1 1 1 0 0 0 1 1 0 1 0 1 0 1 0 1 0

>  <DIFUSE_FUNC_ATOM>  (1676) 
atom 6   atom 7   

>  <FINAL_SINGLE_POINT_ENERGY>  (1676) 
0

>  <NONCOV_INTER_ENERGY_QM>  (1676) 
0

>  <FF_Energy>  (1676) 
0.52

>  <QM_Energy>  (1676) 
-6.73

>  <source>  (1676) 
ACET_MBZ_01

>  <Index>  (1676) 
32582

$$$$
ACET-pdb3n75-A-ASP-577:MBZ-pdb3n75-A-PHE-580
     RDKit          3D

 22 21  0  0  0  0  0  0  0  0999 V2000
   -0.8930    4.9055    3.0775 C   0  0  0  0  0  0  0  0  0  0  0  0
   -0.7965    4.6778    4.0395 H   0  0  0  0  0  0  0  0  0  0  0  0
   -1.4040    4.2008    2.6014 H   0  0  0  0  0  0  0  0  0  0  0  0
   -1.4509    5.8390    3.0039 H   0  0  0  0  0  0  0  0  0  0  0  0
    0.4935    5.0024    2.4598 C   0  0  0  0  0  0  0  0  0  0  0  0
    0.7875    5.9788    1.7222 O   0  0  0  0  0  1  0  0  0  0  0  0
    1.2998    4.0848    2.7150 O   0  0  0  0  0  0  0  0  0  0  0  0
    0.0046    2.9009    0.0047 C   0  0  0  0  0  0  0  0  0  0  0  0
    0.8587    3.2065    0.3988 H   0  0  0  0  0  0  0  0  0  0  0  0
   -0.7684    3.2088    0.5391 H   0  0  0  0  0  0  0  0  0  0  0  0
   -0.0802    3.3543   -0.9829 H   0  0  0  0  0  0  0  0  0  0  0  0
    0.0019    1.3989   -0.0036 C   0  0  0  0  0  0  0  0  0  0  0  0
   -1.1940    0.6869    0.0099 C   0  0  0  0  0  0  0  0  0  0  0  0
   -2.0601    1.1888    0.0265 H   0  0  0  0  0  0  0  0  0  0  0  0
   -1.2041   -0.6849   -0.0000 C   0  0  0  0  0  0  0  0  0  0  0  0
   -2.0853   -1.1825   -0.0007 H   0  0  0  0  0  0  0  0  0  0  0  0
   -0.0105   -1.3929   -0.0068 C   0  0  0  0  0  0  0  0  0  0  0  0
   -0.0163   -2.3879   -0.0174 H   0  0  0  0  0  0  0  0  0  0  0  0
    1.2041   -0.6971   -0.0000 C   0  0  0  0  0  0  0  0  0  0  0  0
    2.0772   -1.2034    0.0061 H   0  0  0  0  0  0  0  0  0  0  0  0
    1.2025    0.6892    0.0005 C   0  0  0  0  0  0  0  0  0  0  0  0
    2.0677    1.1880    0.0031 H   0  0  0  0  0  0  0  0  0  0  0  0
  1  5  1  0
  5  6  1  0
  5  7  2  0
  1  2  1  0
  1  3  1  0
  1  4  1  0
  8 12  1  0
 12 13  2  0
 13 15  1  0
 15 17  2  0
 17 19  1  0
 19 21  2  0
 21 12  1  0
  8  9  1  0
  8 10  1  0
  8 11  1  0
 13 14  1  0
 15 16  1  0
 17 18  1  0
 19 20  1  0
 21 22  1  0
M  CHG  1   6  -1
M  END
>  <PDB_ID>  (1677) 
pdb3n75

>  <RESIDUE_NAME>  (1677) 
ASP   PHE

>  <FRAG_NAME>  (1677) 
ACET   MBZ

>  <FRAG_ATOM_NUM>  (1677) 
fragi: 7  fragj: 15

>  <atom.prop.CHAIN_ID>  (1677) 
A A A A A A A Z Z Z Z Z Z Z Z Z Z Z Z Z Z Z

>  <atom.prop.IS_HEAVY_ATOM>  (1677) 
1 0 0 0 1 1 1 1 0 0 0 1 1 0 1 0 1 0 1 0 1 0

>  <DIFUSE_FUNC_ATOM>  (1677) 
atom 6   atom 7   

>  <FINAL_SINGLE_POINT_ENERGY>  (1677) 
0

>  <NONCOV_INTER_ENERGY_QM>  (1677) 
0

>  <FF_Energy>  (1677) 
-0.21

>  <QM_Energy>  (1677) 
-5.32

>  <source>  (1677) 
ACET_MBZ_01

>  <Index>  (1677) 
32638

$$$$
ACET-pdb4k9d-C-GLU-101:MBZ-pdb4k9d-C-PHE-106
     RDKit          3D

 22 21  0  0  0  0  0  0  0  0999 V2000
    3.3561    4.9496    0.4200 C   0  0  0  0  0  0  0  0  0  0  0  0
    2.5290    5.0714    0.9412 H   0  0  0  0  0  0  0  0  0  0  0  0
    3.2946    5.3636   -0.4710 H   0  0  0  0  0  0  0  0  0  0  0  0
    4.1765    5.4188    0.9630 H   0  0  0  0  0  0  0  0  0  0  0  0
    3.5548    3.4630    0.2197 C   0  0  0  0  0  0  0  0  0  0  0  0
    3.7052    2.7217    1.2256 O   0  0  0  0  0  1  0  0  0  0  0  0
    3.5946    3.0453   -0.9601 O   0  0  0  0  0  0  0  0  0  0  0  0
    0.0027    2.9077    0.0000 C   0  0  0  0  0  0  0  0  0  0  0  0
    0.9431    3.2076   -0.0570 H   0  0  0  0  0  0  0  0  0  0  0  0
   -0.4235    3.2169    0.8369 H   0  0  0  0  0  0  0  0  0  0  0  0
   -0.5405    3.3495   -0.8353 H   0  0  0  0  0  0  0  0  0  0  0  0
   -0.0023    1.3983    0.0078 C   0  0  0  0  0  0  0  0  0  0  0  0
   -1.1972    0.6910   -0.0044 C   0  0  0  0  0  0  0  0  0  0  0  0
   -2.0640    1.1834   -0.0182 H   0  0  0  0  0  0  0  0  0  0  0  0
   -1.2020   -0.6936    0.0000 C   0  0  0  0  0  0  0  0  0  0  0  0
   -2.0739   -1.1931    0.0057 H   0  0  0  0  0  0  0  0  0  0  0  0
    0.0063   -1.3901   -0.0019 C   0  0  0  0  0  0  0  0  0  0  0  0
   -0.0022   -2.3902   -0.0049 H   0  0  0  0  0  0  0  0  0  0  0  0
    1.2020   -0.6972   -0.0000 C   0  0  0  0  0  0  0  0  0  0  0  0
    2.0846   -1.1917    0.0037 H   0  0  0  0  0  0  0  0  0  0  0  0
    1.1932    0.6916   -0.0016 C   0  0  0  0  0  0  0  0  0  0  0  0
    2.0619    1.1907   -0.0105 H   0  0  0  0  0  0  0  0  0  0  0  0
  1  5  1  0
  5  6  1  0
  5  7  2  0
  1  2  1  0
  1  3  1  0
  1  4  1  0
  8 12  1  0
 12 13  2  0
 13 15  1  0
 15 17  2  0
 17 19  1  0
 19 21  2  0
 21 12  1  0
  8  9  1  0
  8 10  1  0
  8 11  1  0
 13 14  1  0
 15 16  1  0
 17 18  1  0
 19 20  1  0
 21 22  1  0
M  CHG  1   6  -1
M  END
>  <PDB_ID>  (1678) 
pdb4k9d

>  <RESIDUE_NAME>  (1678) 
GLU   PHE

>  <FRAG_NAME>  (1678) 
ACET   MBZ

>  <FRAG_ATOM_NUM>  (1678) 
fragi: 7  fragj: 15

>  <atom.prop.CHAIN_ID>  (1678) 
A A A A A A A Z Z Z Z Z Z Z Z Z Z Z Z Z Z Z

>  <atom.prop.IS_HEAVY_ATOM>  (1678) 
1 0 0 0 1 1 1 1 0 0 0 1 1 0 1 0 1 0 1 0 1 0

>  <DIFUSE_FUNC_ATOM>  (1678) 
atom 6   atom 7   

>  <FINAL_SINGLE_POINT_ENERGY>  (1678) 
0

>  <NONCOV_INTER_ENERGY_QM>  (1678) 
0

>  <FF_Energy>  (1678) 
-2.2

>  <QM_Energy>  (1678) 
-8.53

>  <source>  (1678) 
ACET_MBZ_01

>  <Index>  (1678) 
32673

$$$$
ACET-pdb4kkm-B-ASP-226:MBZ-pdb4kkm-B-PHE-252
     RDKit          3D

 22 21  0  0  0  0  0  0  0  0999 V2000
    4.1433    5.0567   -0.0759 C   0  0  0  0  0  0  0  0  0  0  0  0
    3.6676    4.9128    0.7844 H   0  0  0  0  0  0  0  0  0  0  0  0
    3.6633    5.7247   -0.6323 H   0  0  0  0  0  0  0  0  0  0  0  0
    5.1322    5.4553    0.1501 H   0  0  0  0  0  0  0  0  0  0  0  0
    4.1994    3.7416   -0.8294 C   0  0  0  0  0  0  0  0  0  0  0  0
    5.3096    3.2979   -1.1842 O   0  0  0  0  0  1  0  0  0  0  0  0
    3.1286    3.1496   -1.0777 O   0  0  0  0  0  0  0  0  0  0  0  0
   -0.0104    2.8921   -0.0162 C   0  0  0  0  0  0  0  0  0  0  0  0
    0.9016    3.2091    0.1870 H   0  0  0  0  0  0  0  0  0  0  0  0
   -0.6630    3.2021    0.6555 H   0  0  0  0  0  0  0  0  0  0  0  0
   -0.3010    3.3103   -0.9800 H   0  0  0  0  0  0  0  0  0  0  0  0
    0.0006    1.3949   -0.0018 C   0  0  0  0  0  0  0  0  0  0  0  0
   -1.1922    0.6872    0.0044 C   0  0  0  0  0  0  0  0  0  0  0  0
   -2.0604    1.1792    0.0112 H   0  0  0  0  0  0  0  0  0  0  0  0
   -1.1967   -0.6964    0.0000 C   0  0  0  0  0  0  0  0  0  0  0  0
   -2.0758   -1.1907   -0.0032 H   0  0  0  0  0  0  0  0  0  0  0  0
   -0.0034   -1.3859    0.0019 C   0  0  0  0  0  0  0  0  0  0  0  0
   -0.0032   -2.3875    0.0043 H   0  0  0  0  0  0  0  0  0  0  0  0
    1.1967   -0.6916    0.0000 C   0  0  0  0  0  0  0  0  0  0  0  0
    2.0781   -1.1937    0.0036 H   0  0  0  0  0  0  0  0  0  0  0  0
    1.1949    0.6918   -0.0046 C   0  0  0  0  0  0  0  0  0  0  0  0
    2.0625    1.1892   -0.0104 H   0  0  0  0  0  0  0  0  0  0  0  0
  1  5  1  0
  5  6  1  0
  5  7  2  0
  1  2  1  0
  1  3  1  0
  1  4  1  0
  8 12  1  0
 12 13  2  0
 13 15  1  0
 15 17  2  0
 17 19  1  0
 19 21  2  0
 21 12  1  0
  8  9  1  0
  8 10  1  0
  8 11  1  0
 13 14  1  0
 15 16  1  0
 17 18  1  0
 19 20  1  0
 21 22  1  0
M  CHG  1   6  -1
M  END
>  <PDB_ID>  (1679) 
pdb4kkm

>  <RESIDUE_NAME>  (1679) 
ASP   PHE

>  <FRAG_NAME>  (1679) 
ACET   MBZ

>  <FRAG_ATOM_NUM>  (1679) 
fragi: 7  fragj: 15

>  <atom.prop.CHAIN_ID>  (1679) 
A A A A A A A Z Z Z Z Z Z Z Z Z Z Z Z Z Z Z

>  <atom.prop.IS_HEAVY_ATOM>  (1679) 
1 0 0 0 1 1 1 1 0 0 0 1 1 0 1 0 1 0 1 0 1 0

>  <DIFUSE_FUNC_ATOM>  (1679) 
atom 6   atom 7   

>  <FINAL_SINGLE_POINT_ENERGY>  (1679) 
0

>  <NONCOV_INTER_ENERGY_QM>  (1679) 
0

>  <FF_Energy>  (1679) 
-1.71

>  <QM_Energy>  (1679) 
-7.27

>  <source>  (1679) 
ACET_MBZ_01

>  <Index>  (1679) 
32699

$$$$
ACET-pdb3nb0-C-ASP-555:MBZ-pdb3nb0-C-PHE-558
     RDKit          3D

 22 21  0  0  0  0  0  0  0  0999 V2000
    5.0339    3.7856   -2.8515 C   0  0  0  0  0  0  0  0  0  0  0  0
    5.8308    3.4434   -2.3685 H   0  0  0  0  0  0  0  0  0  0  0  0
    4.9995    4.7761   -2.8119 H   0  0  0  0  0  0  0  0  0  0  0  0
    5.1188    3.4907   -3.8974 H   0  0  0  0  0  0  0  0  0  0  0  0
    3.7837    3.2275   -2.1829 C   0  0  0  0  0  0  0  0  0  0  0  0
    2.9358    2.6326   -2.8873 O   0  0  0  0  0  1  0  0  0  0  0  0
    3.6511    3.3841   -0.9491 O   0  0  0  0  0  0  0  0  0  0  0  0
   -0.0038    2.8949    0.0007 C   0  0  0  0  0  0  0  0  0  0  0  0
    0.9163    3.2028    0.1909 H   0  0  0  0  0  0  0  0  0  0  0  0
   -0.6366    3.1999    0.6961 H   0  0  0  0  0  0  0  0  0  0  0  0
   -0.3140    3.3323   -0.9483 H   0  0  0  0  0  0  0  0  0  0  0  0
   -0.0012    1.3948   -0.0016 C   0  0  0  0  0  0  0  0  0  0  0  0
   -1.1932    0.6858    0.0011 C   0  0  0  0  0  0  0  0  0  0  0  0
   -2.0614    1.1779    0.0026 H   0  0  0  0  0  0  0  0  0  0  0  0
   -1.1964   -0.6955    0.0000 C   0  0  0  0  0  0  0  0  0  0  0  0
   -2.0726   -1.1936   -0.0008 H   0  0  0  0  0  0  0  0  0  0  0  0
    0.0024   -1.3852    0.0014 C   0  0  0  0  0  0  0  0  0  0  0  0
   -0.0001   -2.3869    0.0031 H   0  0  0  0  0  0  0  0  0  0  0  0
    1.1964   -0.6912   -0.0000 C   0  0  0  0  0  0  0  0  0  0  0  0
    2.0804   -1.1904    0.0006 H   0  0  0  0  0  0  0  0  0  0  0  0
    1.1919    0.6912   -0.0009 C   0  0  0  0  0  0  0  0  0  0  0  0
    2.0604    1.1906   -0.0022 H   0  0  0  0  0  0  0  0  0  0  0  0
  1  5  1  0
  5  6  1  0
  5  7  2  0
  1  2  1  0
  1  3  1  0
  1  4  1  0
  8 12  1  0
 12 13  2  0
 13 15  1  0
 15 17  2  0
 17 19  1  0
 19 21  2  0
 21 12  1  0
  8  9  1  0
  8 10  1  0
  8 11  1  0
 13 14  1  0
 15 16  1  0
 17 18  1  0
 19 20  1  0
 21 22  1  0
M  CHG  1   6  -1
M  END
>  <PDB_ID>  (1680) 
pdb3nb0

>  <RESIDUE_NAME>  (1680) 
ASP   PHE

>  <FRAG_NAME>  (1680) 
ACET   MBZ

>  <FRAG_ATOM_NUM>  (1680) 
fragi: 7  fragj: 15

>  <atom.prop.CHAIN_ID>  (1680) 
A A A A A A A Z Z Z Z Z Z Z Z Z Z Z Z Z Z Z

>  <atom.prop.IS_HEAVY_ATOM>  (1680) 
1 0 0 0 1 1 1 1 0 0 0 1 1 0 1 0 1 0 1 0 1 0

>  <DIFUSE_FUNC_ATOM>  (1680) 
atom 6   atom 7   

>  <FINAL_SINGLE_POINT_ENERGY>  (1680) 
0

>  <NONCOV_INTER_ENERGY_QM>  (1680) 
0

>  <FF_Energy>  (1680) 
-1.55

>  <QM_Energy>  (1680) 
-6.58

>  <source>  (1680) 
ACET_MBZ_01

>  <Index>  (1680) 
32879

$$$$
ACET-pdb3nb0-D-GLU-591:MBZ-pdb3nb0-D-PHE-279
     RDKit          3D

 22 21  0  0  0  0  0  0  0  0999 V2000
   -0.9072   -2.8158    4.3029 C   0  0  0  0  0  0  0  0  0  0  0  0
   -1.2782   -3.1514    5.1483 H   0  0  0  0  0  0  0  0  0  0  0  0
   -0.1463   -2.2101    4.4434 H   0  0  0  0  0  0  0  0  0  0  0  0
   -0.5600   -3.6703    3.7220 H   0  0  0  0  0  0  0  0  0  0  0  0
   -1.9975   -2.0312    3.6006 C   0  0  0  0  0  0  0  0  0  0  0  0
   -1.8215   -1.7069    2.4075 O   0  0  0  0  0  1  0  0  0  0  0  0
   -3.0298   -1.7355    4.2412 O   0  0  0  0  0  0  0  0  0  0  0  0
   -0.0024    2.8984   -0.0076 C   0  0  0  0  0  0  0  0  0  0  0  0
   -0.8813    3.2024   -0.3424 H   0  0  0  0  0  0  0  0  0  0  0  0
    0.7327    3.2041   -0.5941 H   0  0  0  0  0  0  0  0  0  0  0  0
    0.1509    3.3388    0.9777 H   0  0  0  0  0  0  0  0  0  0  0  0
   -0.0002    1.3957   -0.0042 C   0  0  0  0  0  0  0  0  0  0  0  0
   -1.1930    0.6907    0.0045 C   0  0  0  0  0  0  0  0  0  0  0  0
   -2.0600    1.1824    0.0131 H   0  0  0  0  0  0  0  0  0  0  0  0
   -1.1964   -0.6918    0.0000 C   0  0  0  0  0  0  0  0  0  0  0  0
   -2.0749   -1.1880   -0.0048 H   0  0  0  0  0  0  0  0  0  0  0  0
    0.0000   -1.3867    0.0030 C   0  0  0  0  0  0  0  0  0  0  0  0
   -0.0059   -2.3871    0.0069 H   0  0  0  0  0  0  0  0  0  0  0  0
    1.1964   -0.6955    0.0000 C   0  0  0  0  0  0  0  0  0  0  0  0
    2.0783   -1.1955    0.0019 H   0  0  0  0  0  0  0  0  0  0  0  0
    1.1932    0.6876   -0.0033 C   0  0  0  0  0  0  0  0  0  0  0  0
    2.0620    1.1857   -0.0056 H   0  0  0  0  0  0  0  0  0  0  0  0
  1  5  1  0
  5  6  1  0
  5  7  2  0
  1  2  1  0
  1  3  1  0
  1  4  1  0
  8 12  1  0
 12 13  2  0
 13 15  1  0
 15 17  2  0
 17 19  1  0
 19 21  2  0
 21 12  1  0
  8  9  1  0
  8 10  1  0
  8 11  1  0
 13 14  1  0
 15 16  1  0
 17 18  1  0
 19 20  1  0
 21 22  1  0
M  CHG  1   6  -1
M  END
>  <PDB_ID>  (1681) 
pdb3nb0

>  <RESIDUE_NAME>  (1681) 
GLU   PHE

>  <FRAG_NAME>  (1681) 
ACET   MBZ

>  <FRAG_ATOM_NUM>  (1681) 
fragi: 7  fragj: 15

>  <atom.prop.CHAIN_ID>  (1681) 
A A A A A A A Z Z Z Z Z Z Z Z Z Z Z Z Z Z Z

>  <atom.prop.IS_HEAVY_ATOM>  (1681) 
1 0 0 0 1 1 1 1 0 0 0 1 1 0 1 0 1 0 1 0 1 0

>  <DIFUSE_FUNC_ATOM>  (1681) 
atom 6   atom 7   

>  <FINAL_SINGLE_POINT_ENERGY>  (1681) 
0

>  <NONCOV_INTER_ENERGY_QM>  (1681) 
0

>  <FF_Energy>  (1681) 
4.91

>  <QM_Energy>  (1681) 
-0.69

>  <source>  (1681) 
ACET_MBZ_01

>  <Index>  (1681) 
32882

$$$$
ACET-pdb3nb0-D-ASP-555:MBZ-pdb3nb0-D-PHE-558
     RDKit          3D

 22 21  0  0  0  0  0  0  0  0999 V2000
    5.0531    3.6651   -2.1098 C   0  0  0  0  0  0  0  0  0  0  0  0
    5.5508    3.0252   -1.5363 H   0  0  0  0  0  0  0  0  0  0  0  0
    5.3434    4.5960   -1.9254 H   0  0  0  0  0  0  0  0  0  0  0  0
    5.2865    3.4378   -3.1500 H   0  0  0  0  0  0  0  0  0  0  0  0
    3.5736    3.5450   -1.8048 C   0  0  0  0  0  0  0  0  0  0  0  0
    3.0404    4.4427   -1.1228 O   0  0  0  0  0  1  0  0  0  0  0  0
    2.9407    2.5631   -2.2486 O   0  0  0  0  0  0  0  0  0  0  0  0
   -0.0051    2.8994   -0.0098 C   0  0  0  0  0  0  0  0  0  0  0  0
    0.9265    3.2089    0.0901 H   0  0  0  0  0  0  0  0  0  0  0  0
   -0.5736    3.2098    0.7354 H   0  0  0  0  0  0  0  0  0  0  0  0
   -0.4013    3.3258   -0.9315 H   0  0  0  0  0  0  0  0  0  0  0  0
   -0.0013    1.3961    0.0011 C   0  0  0  0  0  0  0  0  0  0  0  0
   -1.1931    0.6887    0.0010 C   0  0  0  0  0  0  0  0  0  0  0  0
   -2.0615    1.1804    0.0007 H   0  0  0  0  0  0  0  0  0  0  0  0
   -1.1962   -0.6947    0.0000 C   0  0  0  0  0  0  0  0  0  0  0  0
   -2.0731   -1.1917    0.0013 H   0  0  0  0  0  0  0  0  0  0  0  0
    0.0026   -1.3868   -0.0006 C   0  0  0  0  0  0  0  0  0  0  0  0
   -0.0017   -2.3880   -0.0020 H   0  0  0  0  0  0  0  0  0  0  0  0
    1.1962   -0.6937    0.0000 C   0  0  0  0  0  0  0  0  0  0  0  0
    2.0802   -1.1918    0.0028 H   0  0  0  0  0  0  0  0  0  0  0  0
    1.1918    0.6904   -0.0015 C   0  0  0  0  0  0  0  0  0  0  0  0
    2.0612    1.1890   -0.0054 H   0  0  0  0  0  0  0  0  0  0  0  0
  1  5  1  0
  5  6  1  0
  5  7  2  0
  1  2  1  0
  1  3  1  0
  1  4  1  0
  8 12  1  0
 12 13  2  0
 13 15  1  0
 15 17  2  0
 17 19  1  0
 19 21  2  0
 21 12  1  0
  8  9  1  0
  8 10  1  0
  8 11  1  0
 13 14  1  0
 15 16  1  0
 17 18  1  0
 19 20  1  0
 21 22  1  0
M  CHG  1   6  -1
M  END
>  <PDB_ID>  (1682) 
pdb3nb0

>  <RESIDUE_NAME>  (1682) 
ASP   PHE

>  <FRAG_NAME>  (1682) 
ACET   MBZ

>  <FRAG_ATOM_NUM>  (1682) 
fragi: 7  fragj: 15

>  <atom.prop.CHAIN_ID>  (1682) 
A A A A A A A Z Z Z Z Z Z Z Z Z Z Z Z Z Z Z

>  <atom.prop.IS_HEAVY_ATOM>  (1682) 
1 0 0 0 1 1 1 1 0 0 0 1 1 0 1 0 1 0 1 0 1 0

>  <DIFUSE_FUNC_ATOM>  (1682) 
atom 6   atom 7   

>  <FINAL_SINGLE_POINT_ENERGY>  (1682) 
0

>  <NONCOV_INTER_ENERGY_QM>  (1682) 
0

>  <FF_Energy>  (1682) 
-1.49

>  <QM_Energy>  (1682) 
-6.83

>  <source>  (1682) 
ACET_MBZ_01

>  <Index>  (1682) 
32885

$$$$
ACET-pdb4kpu-A-GLU-36:MBZ-pdb4kpu-A-PHE-174
     RDKit          3D

 22 21  0  0  0  0  0  0  0  0999 V2000
   -0.8120    0.5566    3.5567 C   0  0  0  0  0  0  0  0  0  0  0  0
   -0.3464   -0.0015    2.8928 H   0  0  0  0  0  0  0  0  0  0  0  0
   -0.8513    0.1234    4.4397 H   0  0  0  0  0  0  0  0  0  0  0  0
   -0.2805    1.5034    3.6521 H   0  0  0  0  0  0  0  0  0  0  0  0
   -2.2782    0.6990    3.0671 C   0  0  0  0  0  0  0  0  0  0  0  0
   -2.7015    1.8119    2.6268 O   0  0  0  0  0  1  0  0  0  0  0  0
   -2.9490   -0.3448    3.0518 O   0  0  0  0  0  0  0  0  0  0  0  0
   -0.0032    2.8908   -0.1280 C   0  0  0  0  0  0  0  0  0  0  0  0
    0.9315    3.2131   -0.1546 H   0  0  0  0  0  0  0  0  0  0  0  0
   -0.4876    3.2522    0.6544 H   0  0  0  0  0  0  0  0  0  0  0  0
   -0.5042    3.2579   -1.0237 H   0  0  0  0  0  0  0  0  0  0  0  0
    0.0203    1.3946   -0.0139 C   0  0  0  0  0  0  0  0  0  0  0  0
   -1.1649    0.7159   -0.0125 C   0  0  0  0  0  0  0  0  0  0  0  0
   -2.0310    1.1953   -0.0211 H   0  0  0  0  0  0  0  0  0  0  0  0
   -1.1540   -0.6716    0.0000 C   0  0  0  0  0  0  0  0  0  0  0  0
   -2.0525   -1.1627   -0.0359 H   0  0  0  0  0  0  0  0  0  0  0  0
    0.0139   -1.3928    0.0604 C   0  0  0  0  0  0  0  0  0  0  0  0
   -0.0219   -2.3843    0.1458 H   0  0  0  0  0  0  0  0  0  0  0  0
    1.1540   -0.7171    0.0000 C   0  0  0  0  0  0  0  0  0  0  0  0
    2.0617   -1.1848   -0.0211 H   0  0  0  0  0  0  0  0  0  0  0  0
    1.1307    0.6710   -0.0340 C   0  0  0  0  0  0  0  0  0  0  0  0
    2.0483    1.1448   -0.0782 H   0  0  0  0  0  0  0  0  0  0  0  0
  1  5  1  0
  5  6  1  0
  5  7  2  0
  1  2  1  0
  1  3  1  0
  1  4  1  0
  8 12  1  0
 12 13  2  0
 13 15  1  0
 15 17  2  0
 17 19  1  0
 19 21  2  0
 21 12  1  0
  8  9  1  0
  8 10  1  0
  8 11  1  0
 13 14  1  0
 15 16  1  0
 17 18  1  0
 19 20  1  0
 21 22  1  0
M  CHG  1   6  -1
M  END
>  <PDB_ID>  (1683) 
pdb4kpu

>  <RESIDUE_NAME>  (1683) 
GLU   PHE

>  <FRAG_NAME>  (1683) 
ACET   MBZ

>  <FRAG_ATOM_NUM>  (1683) 
fragi: 7  fragj: 15

>  <atom.prop.CHAIN_ID>  (1683) 
A A A A A A A Z Z Z Z Z Z Z Z Z Z Z Z Z Z Z

>  <atom.prop.IS_HEAVY_ATOM>  (1683) 
1 0 0 0 1 1 1 1 0 0 0 1 1 0 1 0 1 0 1 0 1 0

>  <DIFUSE_FUNC_ATOM>  (1683) 
atom 6   atom 7   

>  <FINAL_SINGLE_POINT_ENERGY>  (1683) 
0

>  <NONCOV_INTER_ENERGY_QM>  (1683) 
0

>  <FF_Energy>  (1683) 
-0.92

>  <QM_Energy>  (1683) 
-6.0

>  <source>  (1683) 
ACET_MBZ_01

>  <Index>  (1683) 
33041

$$$$
ACET-pdb3n75-B-ASP-41:MBZ-pdb3n75-D-PHE-14
     RDKit          3D

 22 21  0  0  0  0  0  0  0  0999 V2000
   -5.6446    3.1510    1.1033 C   0  0  0  0  0  0  0  0  0  0  0  0
   -6.3689    2.5287    0.8205 H   0  0  0  0  0  0  0  0  0  0  0  0
   -6.0363    3.9933    1.4619 H   0  0  0  0  0  0  0  0  0  0  0  0
   -5.0947    2.6711    1.9130 H   0  0  0  0  0  0  0  0  0  0  0  0
   -4.7864    3.4897   -0.1160 C   0  0  0  0  0  0  0  0  0  0  0  0
   -3.6047    3.1475   -0.1231 O   0  0  0  0  0  1  0  0  0  0  0  0
   -5.3283    4.1092   -1.0881 O   0  0  0  0  0  0  0  0  0  0  0  0
   -0.0043    2.9131    0.0071 C   0  0  0  0  0  0  0  0  0  0  0  0
    0.8136    3.2165    0.4695 H   0  0  0  0  0  0  0  0  0  0  0  0
   -0.8190    3.2223    0.4719 H   0  0  0  0  0  0  0  0  0  0  0  0
   -0.0037    3.3787   -0.9785 H   0  0  0  0  0  0  0  0  0  0  0  0
   -0.0100    1.4037   -0.0097 C   0  0  0  0  0  0  0  0  0  0  0  0
   -1.2039    0.7055   -0.0024 C   0  0  0  0  0  0  0  0  0  0  0  0
   -2.0719    1.1835    0.0004 H   0  0  0  0  0  0  0  0  0  0  0  0
   -1.2063   -0.7063   -0.0000 C   0  0  0  0  0  0  0  0  0  0  0  0
   -2.0759   -1.1959   -0.0013 H   0  0  0  0  0  0  0  0  0  0  0  0
    0.0083   -1.3920    0.0060 C   0  0  0  0  0  0  0  0  0  0  0  0
    0.0050   -2.3948    0.0146 H   0  0  0  0  0  0  0  0  0  0  0  0
    1.2063   -0.6979    0.0000 C   0  0  0  0  0  0  0  0  0  0  0  0
    2.0889   -1.1994   -0.0073 H   0  0  0  0  0  0  0  0  0  0  0  0
    1.2057    0.6870    0.0061 C   0  0  0  0  0  0  0  0  0  0  0  0
    2.0644    1.1916    0.0211 H   0  0  0  0  0  0  0  0  0  0  0  0
  1  5  1  0
  5  6  1  0
  5  7  2  0
  1  2  1  0
  1  3  1  0
  1  4  1  0
  8 12  1  0
 12 13  2  0
 13 15  1  0
 15 17  2  0
 17 19  1  0
 19 21  2  0
 21 12  1  0
  8  9  1  0
  8 10  1  0
  8 11  1  0
 13 14  1  0
 15 16  1  0
 17 18  1  0
 19 20  1  0
 21 22  1  0
M  CHG  1   6  -1
M  END
>  <PDB_ID>  (1684) 
pdb3n75

>  <RESIDUE_NAME>  (1684) 
ASP   PHE

>  <FRAG_NAME>  (1684) 
ACET   MBZ

>  <FRAG_ATOM_NUM>  (1684) 
fragi: 7  fragj: 15

>  <atom.prop.CHAIN_ID>  (1684) 
A A A A A A A Z Z Z Z Z Z Z Z Z Z Z Z Z Z Z

>  <atom.prop.IS_HEAVY_ATOM>  (1684) 
1 0 0 0 1 1 1 1 0 0 0 1 1 0 1 0 1 0 1 0 1 0

>  <DIFUSE_FUNC_ATOM>  (1684) 
atom 6   atom 7   

>  <FINAL_SINGLE_POINT_ENERGY>  (1684) 
0

>  <NONCOV_INTER_ENERGY_QM>  (1684) 
0

>  <FF_Energy>  (1684) 
-2.09

>  <QM_Energy>  (1684) 
-7.16

>  <source>  (1684) 
ACET_MBZ_01

>  <Index>  (1684) 
33132

$$$$
ACET-pdb4kre-A-GLU-114:MBZ-pdb4kre-A-PHE-80
     RDKit          3D

 22 21  0  0  0  0  0  0  0  0999 V2000
    3.8851   -3.5464    2.8176 C   0  0  0  0  0  0  0  0  0  0  0  0
    3.5207   -3.6566    3.7214 H   0  0  0  0  0  0  0  0  0  0  0  0
    4.5537   -2.8320    2.7630 H   0  0  0  0  0  0  0  0  0  0  0  0
    4.3499   -4.4840    2.5130 H   0  0  0  0  0  0  0  0  0  0  0  0
    2.7373   -3.1668    1.9055 C   0  0  0  0  0  0  0  0  0  0  0  0
    2.9113   -3.2253    0.6708 O   0  0  0  0  0  1  0  0  0  0  0  0
    1.6524   -2.8249    2.4200 O   0  0  0  0  0  0  0  0  0  0  0  0
   -0.0035    2.8938   -0.0138 C   0  0  0  0  0  0  0  0  0  0  0  0
    0.8421    3.2075    0.3857 H   0  0  0  0  0  0  0  0  0  0  0  0
   -0.7862    3.2046    0.4996 H   0  0  0  0  0  0  0  0  0  0  0  0
   -0.0745    3.3149   -1.0167 H   0  0  0  0  0  0  0  0  0  0  0  0
    0.0000    1.3943    0.0008 C   0  0  0  0  0  0  0  0  0  0  0  0
   -1.1910    0.6873   -0.0052 C   0  0  0  0  0  0  0  0  0  0  0  0
   -2.0596    1.1789   -0.0150 H   0  0  0  0  0  0  0  0  0  0  0  0
   -1.1908   -0.6914   -0.0000 C   0  0  0  0  0  0  0  0  0  0  0  0
   -2.0704   -1.1896    0.0010 H   0  0  0  0  0  0  0  0  0  0  0  0
    0.0013   -1.3815    0.0055 C   0  0  0  0  0  0  0  0  0  0  0  0
   -0.0058   -2.3863    0.0132 H   0  0  0  0  0  0  0  0  0  0  0  0
    1.1908   -0.6963    0.0000 C   0  0  0  0  0  0  0  0  0  0  0  0
    2.0761   -1.1947   -0.0012 H   0  0  0  0  0  0  0  0  0  0  0  0
    1.1897    0.6877   -0.0011 C   0  0  0  0  0  0  0  0  0  0  0  0
    2.0602    1.1833   -0.0036 H   0  0  0  0  0  0  0  0  0  0  0  0
  1  5  1  0
  5  6  1  0
  5  7  2  0
  1  2  1  0
  1  3  1  0
  1  4  1  0
  8 12  1  0
 12 13  2  0
 13 15  1  0
 15 17  2  0
 17 19  1  0
 19 21  2  0
 21 12  1  0
  8  9  1  0
  8 10  1  0
  8 11  1  0
 13 14  1  0
 15 16  1  0
 17 18  1  0
 19 20  1  0
 21 22  1  0
M  CHG  1   6  -1
M  END
>  <PDB_ID>  (1685) 
pdb4kre

>  <RESIDUE_NAME>  (1685) 
GLU   PHE

>  <FRAG_NAME>  (1685) 
ACET   MBZ

>  <FRAG_ATOM_NUM>  (1685) 
fragi: 7  fragj: 15

>  <atom.prop.CHAIN_ID>  (1685) 
A A A A A A A Z Z Z Z Z Z Z Z Z Z Z Z Z Z Z

>  <atom.prop.IS_HEAVY_ATOM>  (1685) 
1 0 0 0 1 1 1 1 0 0 0 1 1 0 1 0 1 0 1 0 1 0

>  <DIFUSE_FUNC_ATOM>  (1685) 
atom 6   atom 7   

>  <FINAL_SINGLE_POINT_ENERGY>  (1685) 
0

>  <NONCOV_INTER_ENERGY_QM>  (1685) 
0

>  <FF_Energy>  (1685) 
-0.46

>  <QM_Energy>  (1685) 
-5.9

>  <source>  (1685) 
ACET_MBZ_01

>  <Index>  (1685) 
33151

$$$$
ACET-pdb3n75-C-ASP-41:MBZ-pdb3n75-E-PHE-14
     RDKit          3D

 22 21  0  0  0  0  0  0  0  0999 V2000
   -5.6949    2.8691    1.0681 C   0  0  0  0  0  0  0  0  0  0  0  0
   -6.3781    2.2324    0.7263 H   0  0  0  0  0  0  0  0  0  0  0  0
   -6.1344    3.6758    1.4486 H   0  0  0  0  0  0  0  0  0  0  0  0
   -5.1412    2.3753    1.8668 H   0  0  0  0  0  0  0  0  0  0  0  0
   -4.8132    3.3067   -0.1039 C   0  0  0  0  0  0  0  0  0  0  0  0
   -3.5911    3.0784   -0.0924 O   0  0  0  0  0  1  0  0  0  0  0  0
   -5.3702    3.8798   -1.0710 O   0  0  0  0  0  0  0  0  0  0  0  0
   -0.0235    2.9403    0.0745 C   0  0  0  0  0  0  0  0  0  0  0  0
    0.7748    3.2274    0.5901 H   0  0  0  0  0  0  0  0  0  0  0  0
   -0.8576    3.2124    0.5388 H   0  0  0  0  0  0  0  0  0  0  0  0
    0.0019    3.4617   -0.8824 H   0  0  0  0  0  0  0  0  0  0  0  0
   -0.0076    1.4292   -0.0072 C   0  0  0  0  0  0  0  0  0  0  0  0
   -1.2114    0.7073    0.0100 C   0  0  0  0  0  0  0  0  0  0  0  0
   -2.0788    1.1887    0.0287 H   0  0  0  0  0  0  0  0  0  0  0  0
   -1.2204   -0.7120    0.0000 C   0  0  0  0  0  0  0  0  0  0  0  0
   -2.0906   -1.1977    0.0001 H   0  0  0  0  0  0  0  0  0  0  0  0
    0.0023   -1.4215   -0.0083 C   0  0  0  0  0  0  0  0  0  0  0  0
   -0.0053   -2.4135   -0.0203 H   0  0  0  0  0  0  0  0  0  0  0  0
    1.2204   -0.7169   -0.0000 C   0  0  0  0  0  0  0  0  0  0  0  0
    2.0975   -1.2012    0.0039 H   0  0  0  0  0  0  0  0  0  0  0  0
    1.2167    0.7140    0.0055 C   0  0  0  0  0  0  0  0  0  0  0  0
    2.0748    1.2006    0.0178 H   0  0  0  0  0  0  0  0  0  0  0  0
  1  5  1  0
  5  6  1  0
  5  7  2  0
  1  2  1  0
  1  3  1  0
  1  4  1  0
  8 12  1  0
 12 13  2  0
 13 15  1  0
 15 17  2  0
 17 19  1  0
 19 21  2  0
 21 12  1  0
  8  9  1  0
  8 10  1  0
  8 11  1  0
 13 14  1  0
 15 16  1  0
 17 18  1  0
 19 20  1  0
 21 22  1  0
M  CHG  1   6  -1
M  END
>  <PDB_ID>  (1686) 
pdb3n75

>  <RESIDUE_NAME>  (1686) 
ASP   PHE

>  <FRAG_NAME>  (1686) 
ACET   MBZ

>  <FRAG_ATOM_NUM>  (1686) 
fragi: 7  fragj: 15

>  <atom.prop.CHAIN_ID>  (1686) 
A A A A A A A Z Z Z Z Z Z Z Z Z Z Z Z Z Z Z

>  <atom.prop.IS_HEAVY_ATOM>  (1686) 
1 0 0 0 1 1 1 1 0 0 0 1 1 0 1 0 1 0 1 0 1 0

>  <DIFUSE_FUNC_ATOM>  (1686) 
atom 6   atom 7   

>  <FINAL_SINGLE_POINT_ENERGY>  (1686) 
0

>  <NONCOV_INTER_ENERGY_QM>  (1686) 
0

>  <FF_Energy>  (1686) 
-2.0

>  <QM_Energy>  (1686) 
-7.61

>  <source>  (1686) 
ACET_MBZ_01

>  <Index>  (1686) 
33251

$$$$
ACET-pdb4kue-A-GLU-150:MBZ-pdb4kue-A-PHE-185
     RDKit          3D

 22 21  0  0  0  0  0  0  0  0999 V2000
    3.2620    4.1838    3.3771 C   0  0  0  0  0  0  0  0  0  0  0  0
    2.6264    4.8577    3.7042 H   0  0  0  0  0  0  0  0  0  0  0  0
    4.1971    4.4496    3.5228 H   0  0  0  0  0  0  0  0  0  0  0  0
    3.0724    3.2352    3.8794 H   0  0  0  0  0  0  0  0  0  0  0  0
    3.0640    4.0983    1.8488 C   0  0  0  0  0  0  0  0  0  0  0  0
    3.5117    3.1166    1.2040 O   0  0  0  0  0  1  0  0  0  0  0  0
    2.4395    5.0393    1.3042 O   0  0  0  0  0  0  0  0  0  0  0  0
    0.0020    2.8789   -0.0092 C   0  0  0  0  0  0  0  0  0  0  0  0
    0.8741    3.1847   -0.3647 H   0  0  0  0  0  0  0  0  0  0  0  0
   -0.1358    3.1957    0.9192 H   0  0  0  0  0  0  0  0  0  0  0  0
   -0.7797    3.3199   -0.6277 H   0  0  0  0  0  0  0  0  0  0  0  0
   -0.0009    1.3847    0.0007 C   0  0  0  0  0  0  0  0  0  0  0  0
   -1.1852    0.6854   -0.0024 C   0  0  0  0  0  0  0  0  0  0  0  0
   -2.0550    1.1782   -0.0075 H   0  0  0  0  0  0  0  0  0  0  0  0
   -1.1873   -0.6878    0.0000 C   0  0  0  0  0  0  0  0  0  0  0  0
   -2.0667   -1.1869    0.0052 H   0  0  0  0  0  0  0  0  0  0  0  0
    0.0016   -1.3733   -0.0026 C   0  0  0  0  0  0  0  0  0  0  0  0
   -0.0034   -2.3800   -0.0065 H   0  0  0  0  0  0  0  0  0  0  0  0
    1.1873   -0.6892   -0.0000 C   0  0  0  0  0  0  0  0  0  0  0  0
    2.0722   -1.1921    0.0004 H   0  0  0  0  0  0  0  0  0  0  0  0
    1.1846    0.6803    0.0043 C   0  0  0  0  0  0  0  0  0  0  0  0
    2.0558    1.1824    0.0087 H   0  0  0  0  0  0  0  0  0  0  0  0
  1  5  1  0
  5  6  1  0
  5  7  2  0
  1  2  1  0
  1  3  1  0
  1  4  1  0
  8 12  1  0
 12 13  2  0
 13 15  1  0
 15 17  2  0
 17 19  1  0
 19 21  2  0
 21 12  1  0
  8  9  1  0
  8 10  1  0
  8 11  1  0
 13 14  1  0
 15 16  1  0
 17 18  1  0
 19 20  1  0
 21 22  1  0
M  CHG  1   6  -1
M  END
>  <PDB_ID>  (1687) 
pdb4kue

>  <RESIDUE_NAME>  (1687) 
GLU   PHE

>  <FRAG_NAME>  (1687) 
ACET   MBZ

>  <FRAG_ATOM_NUM>  (1687) 
fragi: 7  fragj: 15

>  <atom.prop.CHAIN_ID>  (1687) 
A A A A A A A Z Z Z Z Z Z Z Z Z Z Z Z Z Z Z

>  <atom.prop.IS_HEAVY_ATOM>  (1687) 
1 0 0 0 1 1 1 1 0 0 0 1 1 0 1 0 1 0 1 0 1 0

>  <DIFUSE_FUNC_ATOM>  (1687) 
atom 6   atom 7   

>  <FINAL_SINGLE_POINT_ENERGY>  (1687) 
0

>  <NONCOV_INTER_ENERGY_QM>  (1687) 
0

>  <FF_Energy>  (1687) 
-2.49

>  <QM_Energy>  (1687) 
-7.68

>  <source>  (1687) 
ACET_MBZ_01

>  <Index>  (1687) 
33291

$$$$
ACET-pdb4kuj-A-GLU-68:MBZ-pdb4kuj-A-PHE-87
     RDKit          3D

 22 21  0  0  0  0  0  0  0  0999 V2000
   -4.5445   -0.1290   -0.4085 C   0  0  0  0  0  0  0  0  0  0  0  0
   -4.0498   -0.0942   -1.2619 H   0  0  0  0  0  0  0  0  0  0  0  0
   -3.9878    0.1738    0.3483 H   0  0  0  0  0  0  0  0  0  0  0  0
   -5.4000    0.5418   -0.4881 H   0  0  0  0  0  0  0  0  0  0  0  0
   -4.9039   -1.6010   -0.1493 C   0  0  0  0  0  0  0  0  0  0  0  0
   -3.9741   -2.4258    0.0639 O   0  0  0  0  0  1  0  0  0  0  0  0
   -6.1086   -1.9509   -0.1880 O   0  0  0  0  0  0  0  0  0  0  0  0
   -0.0035    2.9127   -0.0084 C   0  0  0  0  0  0  0  0  0  0  0  0
    0.8701    3.2229    0.3285 H   0  0  0  0  0  0  0  0  0  0  0  0
   -0.7459    3.2225    0.5632 H   0  0  0  0  0  0  0  0  0  0  0  0
   -0.1482    3.3375   -1.0017 H   0  0  0  0  0  0  0  0  0  0  0  0
   -0.0011    1.4068    0.0052 C   0  0  0  0  0  0  0  0  0  0  0  0
   -1.1986    0.6937    0.0037 C   0  0  0  0  0  0  0  0  0  0  0  0
   -2.0650    1.1833    0.0044 H   0  0  0  0  0  0  0  0  0  0  0  0
   -1.1996   -0.6965    0.0000 C   0  0  0  0  0  0  0  0  0  0  0  0
   -2.0770   -1.1925   -0.0024 H   0  0  0  0  0  0  0  0  0  0  0  0
    0.0014   -1.3977    0.0015 C   0  0  0  0  0  0  0  0  0  0  0  0
   -0.0053   -2.3948    0.0029 H   0  0  0  0  0  0  0  0  0  0  0  0
    1.1996   -0.7004    0.0000 C   0  0  0  0  0  0  0  0  0  0  0  0
    2.0827   -1.1968    0.0078 H   0  0  0  0  0  0  0  0  0  0  0  0
    1.1983    0.6941   -0.0103 C   0  0  0  0  0  0  0  0  0  0  0  0
    2.0659    1.1879   -0.0299 H   0  0  0  0  0  0  0  0  0  0  0  0
  1  5  1  0
  5  6  1  0
  5  7  2  0
  1  2  1  0
  1  3  1  0
  1  4  1  0
  8 12  1  0
 12 13  2  0
 13 15  1  0
 15 17  2  0
 17 19  1  0
 19 21  2  0
 21 12  1  0
  8  9  1  0
  8 10  1  0
  8 11  1  0
 13 14  1  0
 15 16  1  0
 17 18  1  0
 19 20  1  0
 21 22  1  0
M  CHG  1   6  -1
M  END
>  <PDB_ID>  (1688) 
pdb4kuj

>  <RESIDUE_NAME>  (1688) 
GLU   PHE

>  <FRAG_NAME>  (1688) 
ACET   MBZ

>  <FRAG_ATOM_NUM>  (1688) 
fragi: 7  fragj: 15

>  <atom.prop.CHAIN_ID>  (1688) 
A A A A A A A Z Z Z Z Z Z Z Z Z Z Z Z Z Z Z

>  <atom.prop.IS_HEAVY_ATOM>  (1688) 
1 0 0 0 1 1 1 1 0 0 0 1 1 0 1 0 1 0 1 0 1 0

>  <DIFUSE_FUNC_ATOM>  (1688) 
atom 6   atom 7   

>  <FINAL_SINGLE_POINT_ENERGY>  (1688) 
0

>  <NONCOV_INTER_ENERGY_QM>  (1688) 
0

>  <FF_Energy>  (1688) 
-0.88

>  <QM_Energy>  (1688) 
-5.99

>  <source>  (1688) 
ACET_MBZ_01

>  <Index>  (1688) 
33328

$$$$
ACET-pdb3nb0-B-ASP-555:MBZ-pdb3nb0-B-PHE-558
     RDKit          3D

 22 21  0  0  0  0  0  0  0  0999 V2000
    4.8035    4.5526   -2.0987 C   0  0  0  0  0  0  0  0  0  0  0  0
    5.6016    4.4510   -1.5151 H   0  0  0  0  0  0  0  0  0  0  0  0
    4.4898    5.4945   -2.0981 H   0  0  0  0  0  0  0  0  0  0  0  0
    5.0948    4.2944   -3.1169 H   0  0  0  0  0  0  0  0  0  0  0  0
    3.6913    3.6673   -1.5605 C   0  0  0  0  0  0  0  0  0  0  0  0
    2.9558    3.0555   -2.3642 O   0  0  0  0  0  1  0  0  0  0  0  0
    3.5549    3.5877   -0.3222 O   0  0  0  0  0  0  0  0  0  0  0  0
   -0.0034    2.8948    0.0050 C   0  0  0  0  0  0  0  0  0  0  0  0
    0.9318    3.2041    0.0928 H   0  0  0  0  0  0  0  0  0  0  0  0
   -0.5552    3.1974    0.7675 H   0  0  0  0  0  0  0  0  0  0  0  0
   -0.4172    3.3356   -0.9019 H   0  0  0  0  0  0  0  0  0  0  0  0
    0.0002    1.3953   -0.0016 C   0  0  0  0  0  0  0  0  0  0  0  0
   -1.1919    0.6890    0.0013 C   0  0  0  0  0  0  0  0  0  0  0  0
   -2.0595    1.1804    0.0033 H   0  0  0  0  0  0  0  0  0  0  0  0
   -1.1958   -0.6954    0.0000 C   0  0  0  0  0  0  0  0  0  0  0  0
   -2.0745   -1.1906    0.0002 H   0  0  0  0  0  0  0  0  0  0  0  0
   -0.0008   -1.3870    0.0003 C   0  0  0  0  0  0  0  0  0  0  0  0
   -0.0033   -2.3880   -0.0002 H   0  0  0  0  0  0  0  0  0  0  0  0
    1.1958   -0.6931   -0.0000 C   0  0  0  0  0  0  0  0  0  0  0  0
    2.0781   -1.1930    0.0010 H   0  0  0  0  0  0  0  0  0  0  0  0
    1.1924    0.6912   -0.0001 C   0  0  0  0  0  0  0  0  0  0  0  0
    2.0621    1.1888    0.0001 H   0  0  0  0  0  0  0  0  0  0  0  0
  1  5  1  0
  5  6  1  0
  5  7  2  0
  1  2  1  0
  1  3  1  0
  1  4  1  0
  8 12  1  0
 12 13  2  0
 13 15  1  0
 15 17  2  0
 17 19  1  0
 19 21  2  0
 21 12  1  0
  8  9  1  0
  8 10  1  0
  8 11  1  0
 13 14  1  0
 15 16  1  0
 17 18  1  0
 19 20  1  0
 21 22  1  0
M  CHG  1   6  -1
M  END
>  <PDB_ID>  (1689) 
pdb3nb0

>  <RESIDUE_NAME>  (1689) 
ASP   PHE

>  <FRAG_NAME>  (1689) 
ACET   MBZ

>  <FRAG_ATOM_NUM>  (1689) 
fragi: 7  fragj: 15

>  <atom.prop.CHAIN_ID>  (1689) 
A A A A A A A Z Z Z Z Z Z Z Z Z Z Z Z Z Z Z

>  <atom.prop.IS_HEAVY_ATOM>  (1689) 
1 0 0 0 1 1 1 1 0 0 0 1 1 0 1 0 1 0 1 0 1 0

>  <DIFUSE_FUNC_ATOM>  (1689) 
atom 6   atom 7   

>  <FINAL_SINGLE_POINT_ENERGY>  (1689) 
0

>  <NONCOV_INTER_ENERGY_QM>  (1689) 
0

>  <FF_Energy>  (1689) 
-2.11

>  <QM_Energy>  (1689) 
-8.04

>  <source>  (1689) 
ACET_MBZ_01

>  <Index>  (1689) 
33479

$$$$
ACET-pdb3ndy-C-GLU-168:MBZ-pdb3ndy-C-PHE-116
     RDKit          3D

 22 21  0  0  0  0  0  0  0  0999 V2000
    3.7365    2.8602    3.3453 C   0  0  0  0  0  0  0  0  0  0  0  0
    2.8184    2.5948    3.5801 H   0  0  0  0  0  0  0  0  0  0  0  0
    3.8982    3.8168    3.5113 H   0  0  0  0  0  0  0  0  0  0  0  0
    4.4306    2.2792    3.9526 H   0  0  0  0  0  0  0  0  0  0  0  0
    3.9006    2.6308    1.8374 C   0  0  0  0  0  0  0  0  0  0  0  0
    4.6881    1.7456    1.4198 O   0  0  0  0  0  1  0  0  0  0  0  0
    3.2274    3.3473    1.0709 O   0  0  0  0  0  0  0  0  0  0  0  0
    0.0030    2.8889   -0.0037 C   0  0  0  0  0  0  0  0  0  0  0  0
   -0.7954    3.1968   -0.5029 H   0  0  0  0  0  0  0  0  0  0  0  0
    0.8360    3.1934   -0.4461 H   0  0  0  0  0  0  0  0  0  0  0  0
   -0.0305    3.3423    0.9870 H   0  0  0  0  0  0  0  0  0  0  0  0
   -0.0009    1.3952    0.0081 C   0  0  0  0  0  0  0  0  0  0  0  0
   -1.1945    0.6917   -0.0037 C   0  0  0  0  0  0  0  0  0  0  0  0
   -2.0609    1.1833   -0.0160 H   0  0  0  0  0  0  0  0  0  0  0  0
   -1.1974   -0.6908    0.0000 C   0  0  0  0  0  0  0  0  0  0  0  0
   -2.0749   -1.1885    0.0046 H   0  0  0  0  0  0  0  0  0  0  0  0
    0.0020   -1.3876   -0.0012 C   0  0  0  0  0  0  0  0  0  0  0  0
   -0.0062   -2.3883   -0.0031 H   0  0  0  0  0  0  0  0  0  0  0  0
    1.1974   -0.6970    0.0000 C   0  0  0  0  0  0  0  0  0  0  0  0
    2.0805   -1.1954    0.0044 H   0  0  0  0  0  0  0  0  0  0  0  0
    1.1933    0.6885   -0.0032 C   0  0  0  0  0  0  0  0  0  0  0  0
    2.0620    1.1860   -0.0149 H   0  0  0  0  0  0  0  0  0  0  0  0
  1  5  1  0
  5  6  1  0
  5  7  2  0
  1  2  1  0
  1  3  1  0
  1  4  1  0
  8 12  1  0
 12 13  2  0
 13 15  1  0
 15 17  2  0
 17 19  1  0
 19 21  2  0
 21 12  1  0
  8  9  1  0
  8 10  1  0
  8 11  1  0
 13 14  1  0
 15 16  1  0
 17 18  1  0
 19 20  1  0
 21 22  1  0
M  CHG  1   6  -1
M  END
>  <PDB_ID>  (1690) 
pdb3ndy

>  <RESIDUE_NAME>  (1690) 
GLU   PHE

>  <FRAG_NAME>  (1690) 
ACET   MBZ

>  <FRAG_ATOM_NUM>  (1690) 
fragi: 7  fragj: 15

>  <atom.prop.CHAIN_ID>  (1690) 
A A A A A A A Z Z Z Z Z Z Z Z Z Z Z Z Z Z Z

>  <atom.prop.IS_HEAVY_ATOM>  (1690) 
1 0 0 0 1 1 1 1 0 0 0 1 1 0 1 0 1 0 1 0 1 0

>  <DIFUSE_FUNC_ATOM>  (1690) 
atom 6   atom 7   

>  <FINAL_SINGLE_POINT_ENERGY>  (1690) 
0

>  <NONCOV_INTER_ENERGY_QM>  (1690) 
0

>  <FF_Energy>  (1690) 
-2.72

>  <QM_Energy>  (1690) 
-7.77

>  <source>  (1690) 
ACET_MBZ_01

>  <Index>  (1690) 
33537

$$$$
ACET-pdb4l0p-B-ASP-51:MBZ-pdb4l0p-B-PHE-157
     RDKit          3D

 22 21  0  0  0  0  0  0  0  0999 V2000
    4.8073    3.3960    0.4801 C   0  0  0  0  0  0  0  0  0  0  0  0
    5.7682    3.6451    0.4522 H   0  0  0  0  0  0  0  0  0  0  0  0
    4.6878    2.5212    0.9335 H   0  0  0  0  0  0  0  0  0  0  0  0
    4.2801    4.1522    1.0619 H   0  0  0  0  0  0  0  0  0  0  0  0
    4.2896    3.2854   -0.9406 C   0  0  0  0  0  0  0  0  0  0  0  0
    3.0562    3.2639   -1.1286 O   0  0  0  0  0  1  0  0  0  0  0  0
    5.1164    3.2242   -1.8729 O   0  0  0  0  0  0  0  0  0  0  0  0
   -0.0022    2.8955    0.0007 C   0  0  0  0  0  0  0  0  0  0  0  0
   -0.5392    3.1991   -0.7723 H   0  0  0  0  0  0  0  0  0  0  0  0
    0.9349    3.2027   -0.0693 H   0  0  0  0  0  0  0  0  0  0  0  0
   -0.4324    3.3357    0.9003 H   0  0  0  0  0  0  0  0  0  0  0  0
    0.0003    1.3940    0.0037 C   0  0  0  0  0  0  0  0  0  0  0  0
   -1.1918    0.6884   -0.0004 C   0  0  0  0  0  0  0  0  0  0  0  0
   -2.0595    1.1825   -0.0051 H   0  0  0  0  0  0  0  0  0  0  0  0
   -1.1970   -0.6921   -0.0000 C   0  0  0  0  0  0  0  0  0  0  0  0
   -2.0747   -1.1890    0.0034 H   0  0  0  0  0  0  0  0  0  0  0  0
    0.0005   -1.3875   -0.0019 C   0  0  0  0  0  0  0  0  0  0  0  0
   -0.0042   -2.3873   -0.0049 H   0  0  0  0  0  0  0  0  0  0  0  0
    1.1970   -0.6930    0.0000 C   0  0  0  0  0  0  0  0  0  0  0  0
    2.0798   -1.1920    0.0034 H   0  0  0  0  0  0  0  0  0  0  0  0
    1.1910    0.6902   -0.0015 C   0  0  0  0  0  0  0  0  0  0  0  0
    2.0610    1.1888   -0.0068 H   0  0  0  0  0  0  0  0  0  0  0  0
  1  5  1  0
  5  6  1  0
  5  7  2  0
  1  2  1  0
  1  3  1  0
  1  4  1  0
  8 12  1  0
 12 13  2  0
 13 15  1  0
 15 17  2  0
 17 19  1  0
 19 21  2  0
 21 12  1  0
  8  9  1  0
  8 10  1  0
  8 11  1  0
 13 14  1  0
 15 16  1  0
 17 18  1  0
 19 20  1  0
 21 22  1  0
M  CHG  1   6  -1
M  END
>  <PDB_ID>  (1691) 
pdb4l0p

>  <RESIDUE_NAME>  (1691) 
ASP   PHE

>  <FRAG_NAME>  (1691) 
ACET   MBZ

>  <FRAG_ATOM_NUM>  (1691) 
fragi: 7  fragj: 15

>  <atom.prop.CHAIN_ID>  (1691) 
A A A A A A A Z Z Z Z Z Z Z Z Z Z Z Z Z Z Z

>  <atom.prop.IS_HEAVY_ATOM>  (1691) 
1 0 0 0 1 1 1 1 0 0 0 1 1 0 1 0 1 0 1 0 1 0

>  <DIFUSE_FUNC_ATOM>  (1691) 
atom 6   atom 7   

>  <FINAL_SINGLE_POINT_ENERGY>  (1691) 
0

>  <NONCOV_INTER_ENERGY_QM>  (1691) 
0

>  <FF_Energy>  (1691) 
-1.43

>  <QM_Energy>  (1691) 
-7.36

>  <source>  (1691) 
ACET_MBZ_01

>  <Index>  (1691) 
33551

$$$$
ACET-pdb4l1g-C-ASP-84:MBZ-pdb4l1g-C-PHE-87
     RDKit          3D

 22 21  0  0  0  0  0  0  0  0999 V2000
    4.9957    3.8331   -2.3108 C   0  0  0  0  0  0  0  0  0  0  0  0
    5.3114    3.0238   -2.7920 H   0  0  0  0  0  0  0  0  0  0  0  0
    5.5002    3.9530   -1.4640 H   0  0  0  0  0  0  0  0  0  0  0  0
    5.1896    4.6987   -2.9441 H   0  0  0  0  0  0  0  0  0  0  0  0
    3.5278    3.6681   -1.9877 C   0  0  0  0  0  0  0  0  0  0  0  0
    2.9004    4.6581   -1.5590 O   0  0  0  0  0  1  0  0  0  0  0  0
    2.9986    2.5517   -2.1761 O   0  0  0  0  0  0  0  0  0  0  0  0
   -0.0030    2.8923   -0.0089 C   0  0  0  0  0  0  0  0  0  0  0  0
    0.9292    3.2036    0.0875 H   0  0  0  0  0  0  0  0  0  0  0  0
   -0.5687    3.2041    0.7375 H   0  0  0  0  0  0  0  0  0  0  0  0
   -0.4029    3.3164   -0.9299 H   0  0  0  0  0  0  0  0  0  0  0  0
    0.0006    1.3942    0.0020 C   0  0  0  0  0  0  0  0  0  0  0  0
   -1.1919    0.6882   -0.0012 C   0  0  0  0  0  0  0  0  0  0  0  0
   -2.0593    1.1814   -0.0062 H   0  0  0  0  0  0  0  0  0  0  0  0
   -1.1958   -0.6931    0.0000 C   0  0  0  0  0  0  0  0  0  0  0  0
   -2.0743   -1.1889    0.0022 H   0  0  0  0  0  0  0  0  0  0  0  0
   -0.0013   -1.3844   -0.0000 C   0  0  0  0  0  0  0  0  0  0  0  0
   -0.0046   -2.3864   -0.0007 H   0  0  0  0  0  0  0  0  0  0  0  0
    1.1958   -0.6932   -0.0000 C   0  0  0  0  0  0  0  0  0  0  0  0
    2.0776   -1.1944    0.0017 H   0  0  0  0  0  0  0  0  0  0  0  0
    1.1926    0.6882   -0.0007 C   0  0  0  0  0  0  0  0  0  0  0  0
    2.0614    1.1865   -0.0041 H   0  0  0  0  0  0  0  0  0  0  0  0
  1  5  1  0
  5  6  1  0
  5  7  2  0
  1  2  1  0
  1  3  1  0
  1  4  1  0
  8 12  1  0
 12 13  2  0
 13 15  1  0
 15 17  2  0
 17 19  1  0
 19 21  2  0
 21 12  1  0
  8  9  1  0
  8 10  1  0
  8 11  1  0
 13 14  1  0
 15 16  1  0
 17 18  1  0
 19 20  1  0
 21 22  1  0
M  CHG  1   6  -1
M  END
>  <PDB_ID>  (1692) 
pdb4l1g

>  <RESIDUE_NAME>  (1692) 
ASP   PHE

>  <FRAG_NAME>  (1692) 
ACET   MBZ

>  <FRAG_ATOM_NUM>  (1692) 
fragi: 7  fragj: 15

>  <atom.prop.CHAIN_ID>  (1692) 
A A A A A A A Z Z Z Z Z Z Z Z Z Z Z Z Z Z Z

>  <atom.prop.IS_HEAVY_ATOM>  (1692) 
1 0 0 0 1 1 1 1 0 0 0 1 1 0 1 0 1 0 1 0 1 0

>  <DIFUSE_FUNC_ATOM>  (1692) 
atom 6   atom 7   

>  <FINAL_SINGLE_POINT_ENERGY>  (1692) 
0

>  <NONCOV_INTER_ENERGY_QM>  (1692) 
0

>  <FF_Energy>  (1692) 
-1.4

>  <QM_Energy>  (1692) 
-6.49

>  <source>  (1692) 
ACET_MBZ_01

>  <Index>  (1692) 
33589

$$$$
ACET-pdb4l3f-C-ASP-54:MBZ-pdb4l3f-C-PHE-57
     RDKit          3D

 22 21  0  0  0  0  0  0  0  0999 V2000
    2.5232    5.0895   -2.4131 C   0  0  0  0  0  0  0  0  0  0  0  0
    3.1415    4.8319   -3.1361 H   0  0  0  0  0  0  0  0  0  0  0  0
    2.1694    4.3024   -1.9361 H   0  0  0  0  0  0  0  0  0  0  0  0
    3.0677    5.7080   -1.6996 H   0  0  0  0  0  0  0  0  0  0  0  0
    1.3417    5.8521   -3.0348 C   0  0  0  0  0  0  0  0  0  0  0  0
    0.3843    6.1325   -2.2569 O   0  0  0  0  0  1  0  0  0  0  0  0
    1.3855    6.1830   -4.2519 O   0  0  0  0  0  0  0  0  0  0  0  0
    0.0287    2.9446   -0.0527 C   0  0  0  0  0  0  0  0  0  0  0  0
    0.0111    3.1956   -1.0132 H   0  0  0  0  0  0  0  0  0  0  0  0
    0.8781    3.2397    0.3699 H   0  0  0  0  0  0  0  0  0  0  0  0
   -0.7949    3.4546    0.4470 H   0  0  0  0  0  0  0  0  0  0  0  0
   -0.0018    1.4158    0.0150 C   0  0  0  0  0  0  0  0  0  0  0  0
   -1.2028    0.7029   -0.0177 C   0  0  0  0  0  0  0  0  0  0  0  0
   -2.0671    1.1989   -0.0559 H   0  0  0  0  0  0  0  0  0  0  0  0
   -1.2124   -0.6828    0.0000 C   0  0  0  0  0  0  0  0  0  0  0  0
   -2.0930   -1.1766    0.0136 H   0  0  0  0  0  0  0  0  0  0  0  0
   -0.0119   -1.4052    0.0016 C   0  0  0  0  0  0  0  0  0  0  0  0
   -0.0282   -2.3969    0.0035 H   0  0  0  0  0  0  0  0  0  0  0  0
    1.2124   -0.7155    0.0000 C   0  0  0  0  0  0  0  0  0  0  0  0
    2.0815   -1.2210   -0.0000 H   0  0  0  0  0  0  0  0  0  0  0  0
    1.2165    0.6847    0.0011 C   0  0  0  0  0  0  0  0  0  0  0  0
    2.0774    1.1811   -0.0090 H   0  0  0  0  0  0  0  0  0  0  0  0
  1  5  1  0
  5  6  1  0
  5  7  2  0
  1  2  1  0
  1  3  1  0
  1  4  1  0
  8 12  1  0
 12 13  2  0
 13 15  1  0
 15 17  2  0
 17 19  1  0
 19 21  2  0
 21 12  1  0
  8  9  1  0
  8 10  1  0
  8 11  1  0
 13 14  1  0
 15 16  1  0
 17 18  1  0
 19 20  1  0
 21 22  1  0
M  CHG  1   6  -1
M  END
>  <PDB_ID>  (1693) 
pdb4l3f

>  <RESIDUE_NAME>  (1693) 
ASP   PHE

>  <FRAG_NAME>  (1693) 
ACET   MBZ

>  <FRAG_ATOM_NUM>  (1693) 
fragi: 7  fragj: 15

>  <atom.prop.CHAIN_ID>  (1693) 
A A A A A A A Z Z Z Z Z Z Z Z Z Z Z Z Z Z Z

>  <atom.prop.IS_HEAVY_ATOM>  (1693) 
1 0 0 0 1 1 1 1 0 0 0 1 1 0 1 0 1 0 1 0 1 0

>  <DIFUSE_FUNC_ATOM>  (1693) 
atom 6   atom 7   

>  <FINAL_SINGLE_POINT_ENERGY>  (1693) 
0

>  <NONCOV_INTER_ENERGY_QM>  (1693) 
0

>  <FF_Energy>  (1693) 
2.75

>  <QM_Energy>  (1693) 
-2.27

>  <source>  (1693) 
ACET_MBZ_01

>  <Index>  (1693) 
33644

$$$$
ACET-pdb4l7q-C-GLU-150:MBZ-pdb4l7q-C-PHE-247
     RDKit          3D

 22 21  0  0  0  0  0  0  0  0999 V2000
   -5.8102    2.9441   -0.9384 C   0  0  0  0  0  0  0  0  0  0  0  0
   -6.1802    2.8528   -0.0560 H   0  0  0  0  0  0  0  0  0  0  0  0
   -6.0062    2.2337   -1.5556 H   0  0  0  0  0  0  0  0  0  0  0  0
   -6.0914    3.9060   -1.3670 H   0  0  0  0  0  0  0  0  0  0  0  0
   -4.2150    2.8971   -0.7354 C   0  0  0  0  0  0  0  0  0  0  0  0
   -3.3868    2.7787   -1.7968 O   0  0  0  0  0  1  0  0  0  0  0  0
   -3.8675    3.0673    0.5191 O   0  0  0  0  0  0  0  0  0  0  0  0
   -0.0233    2.9066    0.1194 C   0  0  0  0  0  0  0  0  0  0  0  0
   -0.7190    3.2512   -0.4699 H   0  0  0  0  0  0  0  0  0  0  0  0
    0.8677    3.2445   -0.0859 H   0  0  0  0  0  0  0  0  0  0  0  0
   -0.2676    3.2213    1.1340 H   0  0  0  0  0  0  0  0  0  0  0  0
   -0.0013    1.3983    0.0014 C   0  0  0  0  0  0  0  0  0  0  0  0
   -1.1823    0.7116    0.0079 C   0  0  0  0  0  0  0  0  0  0  0  0
   -2.0532    1.2040    0.0173 H   0  0  0  0  0  0  0  0  0  0  0  0
   -1.1978   -0.6722   -0.0000 C   0  0  0  0  0  0  0  0  0  0  0  0
   -2.0750   -1.1681    0.0154 H   0  0  0  0  0  0  0  0  0  0  0  0
    0.0125   -1.4065   -0.0276 C   0  0  0  0  0  0  0  0  0  0  0  0
   -0.0259   -2.3961   -0.0669 H   0  0  0  0  0  0  0  0  0  0  0  0
    1.1978   -0.7241    0.0000 C   0  0  0  0  0  0  0  0  0  0  0  0
    2.0857   -1.1932    0.0093 H   0  0  0  0  0  0  0  0  0  0  0  0
    1.1711    0.6930    0.0184 C   0  0  0  0  0  0  0  0  0  0  0  0
    2.0558    1.1775    0.0440 H   0  0  0  0  0  0  0  0  0  0  0  0
  1  5  1  0
  5  6  1  0
  5  7  2  0
  1  2  1  0
  1  3  1  0
  1  4  1  0
  8 12  1  0
 12 13  2  0
 13 15  1  0
 15 17  2  0
 17 19  1  0
 19 21  2  0
 21 12  1  0
  8  9  1  0
  8 10  1  0
  8 11  1  0
 13 14  1  0
 15 16  1  0
 17 18  1  0
 19 20  1  0
 21 22  1  0
M  CHG  1   6  -1
M  END
>  <PDB_ID>  (1694) 
pdb4l7q

>  <RESIDUE_NAME>  (1694) 
GLU   PHE

>  <FRAG_NAME>  (1694) 
ACET   MBZ

>  <FRAG_ATOM_NUM>  (1694) 
fragi: 7  fragj: 15

>  <atom.prop.CHAIN_ID>  (1694) 
A A A A A A A Z Z Z Z Z Z Z Z Z Z Z Z Z Z Z

>  <atom.prop.IS_HEAVY_ATOM>  (1694) 
1 0 0 0 1 1 1 1 0 0 0 1 1 0 1 0 1 0 1 0 1 0

>  <DIFUSE_FUNC_ATOM>  (1694) 
atom 6   atom 7   

>  <FINAL_SINGLE_POINT_ENERGY>  (1694) 
0

>  <NONCOV_INTER_ENERGY_QM>  (1694) 
0

>  <FF_Energy>  (1694) 
-2.3

>  <QM_Energy>  (1694) 
-8.45

>  <source>  (1694) 
ACET_MBZ_01

>  <Index>  (1694) 
33800

$$$$
ACET-pdb3nrb-D-GLU-38:MBZ-pdb3nrb-D-PHE-284
     RDKit          3D

 22 21  0  0  0  0  0  0  0  0999 V2000
   -4.6072    1.0411    0.5471 C   0  0  0  0  0  0  0  0  0  0  0  0
   -4.0969    0.2636    0.2189 H   0  0  0  0  0  0  0  0  0  0  0  0
   -5.5761    0.9281    0.4050 H   0  0  0  0  0  0  0  0  0  0  0  0
   -4.4342    1.1231    1.6202 H   0  0  0  0  0  0  0  0  0  0  0  0
   -4.1620    2.2638   -0.2781 C   0  0  0  0  0  0  0  0  0  0  0  0
   -3.5426    3.2386    0.2599 O   0  0  0  0  0  1  0  0  0  0  0  0
   -4.4085    2.2346   -1.5030 O   0  0  0  0  0  0  0  0  0  0  0  0
   -0.0259    2.8872   -0.0872 C   0  0  0  0  0  0  0  0  0  0  0  0
    0.8825    3.2145    0.0952 H   0  0  0  0  0  0  0  0  0  0  0  0
   -0.6802    3.2144    0.5693 H   0  0  0  0  0  0  0  0  0  0  0  0
   -0.3241    3.2566   -1.0684 H   0  0  0  0  0  0  0  0  0  0  0  0
   -0.0035    1.3800   -0.0155 C   0  0  0  0  0  0  0  0  0  0  0  0
   -1.1724    0.6738    0.0152 C   0  0  0  0  0  0  0  0  0  0  0  0
   -2.0496    1.1734    0.0483 H   0  0  0  0  0  0  0  0  0  0  0  0
   -1.1793   -0.6783    0.0000 C   0  0  0  0  0  0  0  0  0  0  0  0
   -2.0658   -1.1803   -0.0263 H   0  0  0  0  0  0  0  0  0  0  0  0
   -0.0048   -1.3710    0.0214 C   0  0  0  0  0  0  0  0  0  0  0  0
   -0.0085   -2.3727    0.0520 H   0  0  0  0  0  0  0  0  0  0  0  0
    1.1793   -0.6823    0.0000 C   0  0  0  0  0  0  0  0  0  0  0  0
    2.0661   -1.1912    0.0013 H   0  0  0  0  0  0  0  0  0  0  0  0
    1.1807    0.6779   -0.0211 C   0  0  0  0  0  0  0  0  0  0  0  0
    2.0510    1.1812   -0.0423 H   0  0  0  0  0  0  0  0  0  0  0  0
  1  5  1  0
  5  6  1  0
  5  7  2  0
  1  2  1  0
  1  3  1  0
  1  4  1  0
  8 12  1  0
 12 13  2  0
 13 15  1  0
 15 17  2  0
 17 19  1  0
 19 21  2  0
 21 12  1  0
  8  9  1  0
  8 10  1  0
  8 11  1  0
 13 14  1  0
 15 16  1  0
 17 18  1  0
 19 20  1  0
 21 22  1  0
M  CHG  1   6  -1
M  END
>  <PDB_ID>  (1695) 
pdb3nrb

>  <RESIDUE_NAME>  (1695) 
GLU   PHE

>  <FRAG_NAME>  (1695) 
ACET   MBZ

>  <FRAG_ATOM_NUM>  (1695) 
fragi: 7  fragj: 15

>  <atom.prop.CHAIN_ID>  (1695) 
A A A A A A A Z Z Z Z Z Z Z Z Z Z Z Z Z Z Z

>  <atom.prop.IS_HEAVY_ATOM>  (1695) 
1 0 0 0 1 1 1 1 0 0 0 1 1 0 1 0 1 0 1 0 1 0

>  <DIFUSE_FUNC_ATOM>  (1695) 
atom 6   atom 7   

>  <FINAL_SINGLE_POINT_ENERGY>  (1695) 
0

>  <NONCOV_INTER_ENERGY_QM>  (1695) 
0

>  <FF_Energy>  (1695) 
0.25

>  <QM_Energy>  (1695) 
-6.55

>  <source>  (1695) 
ACET_MBZ_01

>  <Index>  (1695) 
33918

$$$$
ACET-pdb4lbq-C-ASP-103:MBZ-pdb4lbq-C-PHE-78
     RDKit          3D

 22 21  0  0  0  0  0  0  0  0999 V2000
   -3.5067   -3.7886    0.0906 C   0  0  0  0  0  0  0  0  0  0  0  0
   -4.1876   -4.2939    0.6066 H   0  0  0  0  0  0  0  0  0  0  0  0
   -2.6851   -3.6572    0.6313 H   0  0  0  0  0  0  0  0  0  0  0  0
   -3.2427   -4.3785   -0.7872 H   0  0  0  0  0  0  0  0  0  0  0  0
   -4.0797   -2.4244   -0.2668 C   0  0  0  0  0  0  0  0  0  0  0  0
   -3.8400   -1.9476   -1.3946 O   0  0  0  0  0  1  0  0  0  0  0  0
   -4.7877   -1.8368    0.5761 O   0  0  0  0  0  0  0  0  0  0  0  0
   -0.0112    2.8891    0.0099 C   0  0  0  0  0  0  0  0  0  0  0  0
   -0.8191    3.1942   -0.4701 H   0  0  0  0  0  0  0  0  0  0  0  0
    0.8130    3.2070   -0.4332 H   0  0  0  0  0  0  0  0  0  0  0  0
   -0.0367    3.3157    1.0127 H   0  0  0  0  0  0  0  0  0  0  0  0
    0.0005    1.3919   -0.0033 C   0  0  0  0  0  0  0  0  0  0  0  0
   -1.1906    0.6860    0.0027 C   0  0  0  0  0  0  0  0  0  0  0  0
   -2.0584    1.1791    0.0078 H   0  0  0  0  0  0  0  0  0  0  0  0
   -1.1933   -0.6926   -0.0000 C   0  0  0  0  0  0  0  0  0  0  0  0
   -2.0721   -1.1899    0.0009 H   0  0  0  0  0  0  0  0  0  0  0  0
   -0.0011   -1.3821   -0.0015 C   0  0  0  0  0  0  0  0  0  0  0  0
   -0.0041   -2.3855   -0.0040 H   0  0  0  0  0  0  0  0  0  0  0  0
    1.1933   -0.6914   -0.0000 C   0  0  0  0  0  0  0  0  0  0  0  0
    2.0766   -1.1935    0.0013 H   0  0  0  0  0  0  0  0  0  0  0  0
    1.1912    0.6884    0.0021 C   0  0  0  0  0  0  0  0  0  0  0  0
    2.0606    1.1869    0.0071 H   0  0  0  0  0  0  0  0  0  0  0  0
  1  5  1  0
  5  6  1  0
  5  7  2  0
  1  2  1  0
  1  3  1  0
  1  4  1  0
  8 12  1  0
 12 13  2  0
 13 15  1  0
 15 17  2  0
 17 19  1  0
 19 21  2  0
 21 12  1  0
  8  9  1  0
  8 10  1  0
  8 11  1  0
 13 14  1  0
 15 16  1  0
 17 18  1  0
 19 20  1  0
 21 22  1  0
M  CHG  1   6  -1
M  END
>  <PDB_ID>  (1696) 
pdb4lbq

>  <RESIDUE_NAME>  (1696) 
ASP   PHE

>  <FRAG_NAME>  (1696) 
ACET   MBZ

>  <FRAG_ATOM_NUM>  (1696) 
fragi: 7  fragj: 15

>  <atom.prop.CHAIN_ID>  (1696) 
A A A A A A A Z Z Z Z Z Z Z Z Z Z Z Z Z Z Z

>  <atom.prop.IS_HEAVY_ATOM>  (1696) 
1 0 0 0 1 1 1 1 0 0 0 1 1 0 1 0 1 0 1 0 1 0

>  <DIFUSE_FUNC_ATOM>  (1696) 
atom 6   atom 7   

>  <FINAL_SINGLE_POINT_ENERGY>  (1696) 
0

>  <NONCOV_INTER_ENERGY_QM>  (1696) 
0

>  <FF_Energy>  (1696) 
0.24

>  <QM_Energy>  (1696) 
-4.79

>  <source>  (1696) 
ACET_MBZ_01

>  <Index>  (1696) 
33991

$$$$
ACET-pdb3ntl-B-GLU-55:MBZ-pdb3ntl-B-PHE-100
     RDKit          3D

 22 21  0  0  0  0  0  0  0  0999 V2000
   -3.8808    5.5287   -0.7696 C   0  0  0  0  0  0  0  0  0  0  0  0
   -4.7681    5.9633   -0.8707 H   0  0  0  0  0  0  0  0  0  0  0  0
   -3.1691    6.0940   -1.1717 H   0  0  0  0  0  0  0  0  0  0  0  0
   -3.6725    5.4173    0.2944 H   0  0  0  0  0  0  0  0  0  0  0  0
   -3.9319    4.2191   -1.6110 C   0  0  0  0  0  0  0  0  0  0  0  0
   -4.8740    4.1964   -2.4413 O   0  0  0  0  0  1  0  0  0  0  0  0
   -3.0579    3.2834   -1.5290 O   0  0  0  0  0  0  0  0  0  0  0  0
   -0.0051    2.9583   -0.0382 C   0  0  0  0  0  0  0  0  0  0  0  0
   -0.8635    3.2598   -0.3958 H   0  0  0  0  0  0  0  0  0  0  0  0
    0.7604    3.2596   -0.5672 H   0  0  0  0  0  0  0  0  0  0  0  0
    0.1000    3.3868    0.9585 H   0  0  0  0  0  0  0  0  0  0  0  0
   -0.0047    1.4225   -0.0366 C   0  0  0  0  0  0  0  0  0  0  0  0
   -1.1973    0.7169    0.0102 C   0  0  0  0  0  0  0  0  0  0  0  0
   -2.0686    1.1658    0.0497 H   0  0  0  0  0  0  0  0  0  0  0  0
   -1.1853   -0.7403    0.0000 C   0  0  0  0  0  0  0  0  0  0  0  0
   -2.0656   -1.2060   -0.0304 H   0  0  0  0  0  0  0  0  0  0  0  0
    0.0101   -1.4064    0.0335 C   0  0  0  0  0  0  0  0  0  0  0  0
    0.0308   -2.4060    0.0816 H   0  0  0  0  0  0  0  0  0  0  0  0
    1.1853   -0.6875   -0.0000 C   0  0  0  0  0  0  0  0  0  0  0  0
    2.0841   -1.1850   -0.0186 H   0  0  0  0  0  0  0  0  0  0  0  0
    1.1919    0.6948   -0.0071 C   0  0  0  0  0  0  0  0  0  0  0  0
    2.0612    1.1906    0.0084 H   0  0  0  0  0  0  0  0  0  0  0  0
  1  5  1  0
  5  6  1  0
  5  7  2  0
  1  2  1  0
  1  3  1  0
  1  4  1  0
  8 12  1  0
 12 13  2  0
 13 15  1  0
 15 17  2  0
 17 19  1  0
 19 21  2  0
 21 12  1  0
  8  9  1  0
  8 10  1  0
  8 11  1  0
 13 14  1  0
 15 16  1  0
 17 18  1  0
 19 20  1  0
 21 22  1  0
M  CHG  1   6  -1
M  END
>  <PDB_ID>  (1697) 
pdb3ntl

>  <RESIDUE_NAME>  (1697) 
GLU   PHE

>  <FRAG_NAME>  (1697) 
ACET   MBZ

>  <FRAG_ATOM_NUM>  (1697) 
fragi: 7  fragj: 15

>  <atom.prop.CHAIN_ID>  (1697) 
A A A A A A A Z Z Z Z Z Z Z Z Z Z Z Z Z Z Z

>  <atom.prop.IS_HEAVY_ATOM>  (1697) 
1 0 0 0 1 1 1 1 0 0 0 1 1 0 1 0 1 0 1 0 1 0

>  <DIFUSE_FUNC_ATOM>  (1697) 
atom 6   atom 7   

>  <FINAL_SINGLE_POINT_ENERGY>  (1697) 
0

>  <NONCOV_INTER_ENERGY_QM>  (1697) 
0

>  <FF_Energy>  (1697) 
-1.25

>  <QM_Energy>  (1697) 
-6.7

>  <source>  (1697) 
ACET_MBZ_01

>  <Index>  (1697) 
34015

$$$$
ACET-pdb4g2c-B-ACT-514:MBZ-pdb4g2c-B-PHE-285
     RDKit          3D

 22 21  0  0  0  0  0  0  0  0999 V2000
    2.7373    2.2214    1.7263 C   0  0  0  0  0  0  0  0  0  0  0  0
    2.5606    2.2780    2.8008 H   0  0  0  0  0  0  0  0  0  0  0  0
    3.2859    1.3088    1.4952 H   0  0  0  0  0  0  0  0  0  0  0  0
    1.7826    2.2154    1.2008 H   0  0  0  0  0  0  0  0  0  0  0  0
    3.5395    3.4098    1.2893 C   0  0  0  0  0  0  0  0  0  0  0  0
    3.8940    4.2687    2.1259 O   0  0  0  0  0  1  0  0  0  0  0  0
    3.8776    3.5665    0.0840 O   0  0  0  0  0  0  0  0  0  0  0  0
    0.0040    2.9235    0.0079 C   0  0  0  0  0  0  0  0  0  0  0  0
   -0.7250    3.2286   -0.5817 H   0  0  0  0  0  0  0  0  0  0  0  0
    0.8862    3.2228   -0.3150 H   0  0  0  0  0  0  0  0  0  0  0  0
   -0.1574    3.3612    0.9930 H   0  0  0  0  0  0  0  0  0  0  0  0
   -0.0006    1.4001    0.0003 C   0  0  0  0  0  0  0  0  0  0  0  0
   -1.1914    0.6936    0.0013 C   0  0  0  0  0  0  0  0  0  0  0  0
   -2.0611    1.1817    0.0017 H   0  0  0  0  0  0  0  0  0  0  0  0
   -1.1987   -0.6988   -0.0000 C   0  0  0  0  0  0  0  0  0  0  0  0
   -2.0747   -1.1906   -0.0006 H   0  0  0  0  0  0  0  0  0  0  0  0
    0.0024   -1.3891    0.0017 C   0  0  0  0  0  0  0  0  0  0  0  0
    0.0028   -2.3884    0.0033 H   0  0  0  0  0  0  0  0  0  0  0  0
    1.1987   -0.6892    0.0000 C   0  0  0  0  0  0  0  0  0  0  0  0
    2.0818   -1.1922    0.0026 H   0  0  0  0  0  0  0  0  0  0  0  0
    1.1896    0.6835   -0.0033 C   0  0  0  0  0  0  0  0  0  0  0  0
    2.0614    1.1882   -0.0088 H   0  0  0  0  0  0  0  0  0  0  0  0
  1  5  1  0
  5  6  1  0
  5  7  2  0
  1  2  1  0
  1  3  1  0
  1  4  1  0
  8 12  1  0
 12 13  2  0
 13 15  1  0
 15 17  2  0
 17 19  1  0
 19 21  2  0
 21 12  1  0
  8  9  1  0
  8 10  1  0
  8 11  1  0
 13 14  1  0
 15 16  1  0
 17 18  1  0
 19 20  1  0
 21 22  1  0
M  CHG  1   6  -1
M  END
>  <PDB_ID>  (1698) 
pdb4g2c

>  <RESIDUE_NAME>  (1698) 
ACT   PHE

>  <FRAG_NAME>  (1698) 
ACET   MBZ

>  <FRAG_ATOM_NUM>  (1698) 
fragi: 7  fragj: 15

>  <atom.prop.CHAIN_ID>  (1698) 
A A A A A A A Z Z Z Z Z Z Z Z Z Z Z Z Z Z Z

>  <atom.prop.IS_HEAVY_ATOM>  (1698) 
1 0 0 0 1 1 1 1 0 0 0 1 1 0 1 0 1 0 1 0 1 0

>  <DIFUSE_FUNC_ATOM>  (1698) 
atom 6   atom 7   

>  <FINAL_SINGLE_POINT_ENERGY>  (1698) 
0

>  <NONCOV_INTER_ENERGY_QM>  (1698) 
0

>  <FF_Energy>  (1698) 
48.89

>  <QM_Energy>  (1698) 
9.1

>  <source>  (1698) 
ACET_MBZ_01

>  <Index>  (1698) 
34104

$$$$
ACET-pdb4le6-D-ASP-266:MBZ-pdb4le6-D-PHE-263
     RDKit          3D

 22 21  0  0  0  0  0  0  0  0999 V2000
    3.7979    4.5325    2.1711 C   0  0  0  0  0  0  0  0  0  0  0  0
    3.1507    4.8148    2.8359 H   0  0  0  0  0  0  0  0  0  0  0  0
    4.5120    5.1855    2.1056 H   0  0  0  0  0  0  0  0  0  0  0  0
    4.2212    3.5744    2.4730 H   0  0  0  0  0  0  0  0  0  0  0  0
    3.0969    4.4718    0.8357 C   0  0  0  0  0  0  0  0  0  0  0  0
    3.4502    3.6078    0.0050 O   0  0  0  0  0  1  0  0  0  0  0  0
    2.1914    5.3033    0.6149 O   0  0  0  0  0  0  0  0  0  0  0  0
    0.0056    2.8922   -0.0218 C   0  0  0  0  0  0  0  0  0  0  0  0
   -0.3747    3.1751   -0.8681 H   0  0  0  0  0  0  0  0  0  0  0  0
    0.9296    3.1826    0.0347 H   0  0  0  0  0  0  0  0  0  0  0  0
   -0.5577    3.3565    0.7877 H   0  0  0  0  0  0  0  0  0  0  0  0
   -0.0012    1.3950    0.0022 C   0  0  0  0  0  0  0  0  0  0  0  0
   -1.1921    0.6899   -0.0088 C   0  0  0  0  0  0  0  0  0  0  0  0
   -1.9997    1.1509   -0.0106 H   0  0  0  0  0  0  0  0  0  0  0  0
   -1.1933   -0.6960   -0.0000 C   0  0  0  0  0  0  0  0  0  0  0  0
   -1.9985   -1.1610    0.0006 H   0  0  0  0  0  0  0  0  0  0  0  0
    0.0036   -1.3856    0.0069 C   0  0  0  0  0  0  0  0  0  0  0  0
    0.0058   -2.3161    0.0113 H   0  0  0  0  0  0  0  0  0  0  0  0
    1.1933   -0.6915    0.0000 C   0  0  0  0  0  0  0  0  0  0  0  0
    1.9999   -1.1535    0.0075 H   0  0  0  0  0  0  0  0  0  0  0  0
    1.1896    0.6883   -0.0002 C   0  0  0  0  0  0  0  0  0  0  0  0
    1.9970    1.1494   -0.0031 H   0  0  0  0  0  0  0  0  0  0  0  0
  1  5  1  0
  5  6  1  0
  5  7  2  0
  1  2  1  0
  1  3  1  0
  1  4  1  0
  8 12  1  0
 12 13  2  0
 13 15  1  0
 15 17  2  0
 17 19  1  0
 19 21  2  0
 21 12  1  0
  8  9  1  0
  8 10  1  0
  8 11  1  0
 13 14  1  0
 15 16  1  0
 17 18  1  0
 19 20  1  0
 21 22  1  0
M  CHG  1   6  -1
M  END
>  <PDB_ID>  (1699) 
pdb4le6

>  <RESIDUE_NAME>  (1699) 
ASP   PHE

>  <FRAG_NAME>  (1699) 
ACET   MBZ

>  <FRAG_ATOM_NUM>  (1699) 
fragi: 7  fragj: 15

>  <atom.prop.CHAIN_ID>  (1699) 
A A A A A A A Z Z Z Z Z Z Z Z Z Z Z Z Z Z Z

>  <atom.prop.IS_HEAVY_ATOM>  (1699) 
1 0 0 0 1 1 1 1 0 0 0 1 1 0 1 0 1 0 1 0 1 0

>  <DIFUSE_FUNC_ATOM>  (1699) 
atom 6   atom 7   

>  <FINAL_SINGLE_POINT_ENERGY>  (1699) 
0

>  <NONCOV_INTER_ENERGY_QM>  (1699) 
0

>  <FF_Energy>  (1699) 
-2.09

>  <QM_Energy>  (1699) 
-7.94

>  <source>  (1699) 
ACET_MBZ_01

>  <Index>  (1699) 
34145

$$$$
ACET-pdb3nva-B-GLU-410:MBZ-pdb3nva-B-PHE-360
     RDKit          3D

 22 21  0  0  0  0  0  0  0  0999 V2000
    1.8757    4.9877    4.1705 C   0  0  0  0  0  0  0  0  0  0  0  0
    1.7295    5.8133    3.6549 H   0  0  0  0  0  0  0  0  0  0  0  0
    2.8320    4.8235    4.3394 H   0  0  0  0  0  0  0  0  0  0  0  0
    1.3773    5.0999    5.1334 H   0  0  0  0  0  0  0  0  0  0  0  0
    1.3500    3.8237    3.3357 C   0  0  0  0  0  0  0  0  0  0  0  0
    0.7743    2.8639    3.8949 O   0  0  0  0  0  1  0  0  0  0  0  0
    1.5164    3.8747    2.0998 O   0  0  0  0  0  0  0  0  0  0  0  0
   -0.0078    2.8850   -0.0201 C   0  0  0  0  0  0  0  0  0  0  0  0
    0.8830    3.1913   -0.3152 H   0  0  0  0  0  0  0  0  0  0  0  0
   -0.2190    3.2034    0.8905 H   0  0  0  0  0  0  0  0  0  0  0  0
   -0.7492    3.3018   -0.7018 H   0  0  0  0  0  0  0  0  0  0  0  0
    0.0000    1.3854    0.0013 C   0  0  0  0  0  0  0  0  0  0  0  0
   -1.1870    0.6771   -0.0028 C   0  0  0  0  0  0  0  0  0  0  0  0
   -2.0566    1.1719   -0.0095 H   0  0  0  0  0  0  0  0  0  0  0  0
   -1.1859   -0.6911    0.0000 C   0  0  0  0  0  0  0  0  0  0  0  0
   -2.0672   -1.1915   -0.0014 H   0  0  0  0  0  0  0  0  0  0  0  0
   -0.0022   -1.3683    0.0068 C   0  0  0  0  0  0  0  0  0  0  0  0
   -0.0025   -2.3778    0.0164 H   0  0  0  0  0  0  0  0  0  0  0  0
    1.1859   -0.6862   -0.0000 C   0  0  0  0  0  0  0  0  0  0  0  0
    2.0699   -1.1934    0.0007 H   0  0  0  0  0  0  0  0  0  0  0  0
    1.1892    0.6831   -0.0052 C   0  0  0  0  0  0  0  0  0  0  0  0
    2.0578    1.1836   -0.0146 H   0  0  0  0  0  0  0  0  0  0  0  0
  1  5  1  0
  5  6  1  0
  5  7  2  0
  1  2  1  0
  1  3  1  0
  1  4  1  0
  8 12  1  0
 12 13  2  0
 13 15  1  0
 15 17  2  0
 17 19  1  0
 19 21  2  0
 21 12  1  0
  8  9  1  0
  8 10  1  0
  8 11  1  0
 13 14  1  0
 15 16  1  0
 17 18  1  0
 19 20  1  0
 21 22  1  0
M  CHG  1   6  -1
M  END
>  <PDB_ID>  (1700) 
pdb3nva

>  <RESIDUE_NAME>  (1700) 
GLU   PHE

>  <FRAG_NAME>  (1700) 
ACET   MBZ

>  <FRAG_ATOM_NUM>  (1700) 
fragi: 7  fragj: 15

>  <atom.prop.CHAIN_ID>  (1700) 
A A A A A A A Z Z Z Z Z Z Z Z Z Z Z Z Z Z Z

>  <atom.prop.IS_HEAVY_ATOM>  (1700) 
1 0 0 0 1 1 1 1 0 0 0 1 1 0 1 0 1 0 1 0 1 0

>  <DIFUSE_FUNC_ATOM>  (1700) 
atom 6   atom 7   

>  <FINAL_SINGLE_POINT_ENERGY>  (1700) 
0

>  <NONCOV_INTER_ENERGY_QM>  (1700) 
0

>  <FF_Energy>  (1700) 
4.27

>  <QM_Energy>  (1700) 
-3.47

>  <source>  (1700) 
ACET_MBZ_01

>  <Index>  (1700) 
34156

$$$$
ACET-pdb3ntk-B-ASP-2406:MBZ-pdb3ntk-B-PHE-2403
     RDKit          3D

 22 21  0  0  0  0  0  0  0  0999 V2000
    4.2944    1.7364    3.2505 C   0  0  0  0  0  0  0  0  0  0  0  0
    5.1352    2.1925    3.5207 H   0  0  0  0  0  0  0  0  0  0  0  0
    4.4414    0.7572    3.1684 H   0  0  0  0  0  0  0  0  0  0  0  0
    3.5590    1.8988    4.0385 H   0  0  0  0  0  0  0  0  0  0  0  0
    3.8508    2.2804    1.9098 C   0  0  0  0  0  0  0  0  0  0  0  0
    2.8463    3.0209    1.8708 O   0  0  0  0  0  1  0  0  0  0  0  0
    4.5161    1.9769    0.8949 O   0  0  0  0  0  0  0  0  0  0  0  0
    0.0076    2.9089   -0.0320 C   0  0  0  0  0  0  0  0  0  0  0  0
   -0.0189    3.1942   -0.9792 H   0  0  0  0  0  0  0  0  0  0  0  0
    0.8343    3.2196    0.4132 H   0  0  0  0  0  0  0  0  0  0  0  0
   -0.8390    3.3676    0.4789 H   0  0  0  0  0  0  0  0  0  0  0  0
    0.0003    1.4056   -0.0000 C   0  0  0  0  0  0  0  0  0  0  0  0
   -1.1996    0.6954   -0.0012 C   0  0  0  0  0  0  0  0  0  0  0  0
   -2.0658    1.1833   -0.0041 H   0  0  0  0  0  0  0  0  0  0  0  0
   -1.2045   -0.7026   -0.0000 C   0  0  0  0  0  0  0  0  0  0  0  0
   -2.0795   -1.1948    0.0017 H   0  0  0  0  0  0  0  0  0  0  0  0
    0.0014   -1.3985    0.0003 C   0  0  0  0  0  0  0  0  0  0  0  0
   -0.0013   -2.3957    0.0001 H   0  0  0  0  0  0  0  0  0  0  0  0
    1.2045   -0.6988   -0.0000 C   0  0  0  0  0  0  0  0  0  0  0  0
    2.0859   -1.1926    0.0004 H   0  0  0  0  0  0  0  0  0  0  0  0
    1.1979    0.6989    0.0009 C   0  0  0  0  0  0  0  0  0  0  0  0
    2.0661    1.1931    0.0017 H   0  0  0  0  0  0  0  0  0  0  0  0
  1  5  1  0
  5  6  1  0
  5  7  2  0
  1  2  1  0
  1  3  1  0
  1  4  1  0
  8 12  1  0
 12 13  2  0
 13 15  1  0
 15 17  2  0
 17 19  1  0
 19 21  2  0
 21 12  1  0
  8  9  1  0
  8 10  1  0
  8 11  1  0
 13 14  1  0
 15 16  1  0
 17 18  1  0
 19 20  1  0
 21 22  1  0
M  CHG  1   6  -1
M  END
>  <PDB_ID>  (1701) 
pdb3ntk

>  <RESIDUE_NAME>  (1701) 
ASP   PHE

>  <FRAG_NAME>  (1701) 
ACET   MBZ

>  <FRAG_ATOM_NUM>  (1701) 
fragi: 7  fragj: 15

>  <atom.prop.CHAIN_ID>  (1701) 
A A A A A A A Z Z Z Z Z Z Z Z Z Z Z Z Z Z Z

>  <atom.prop.IS_HEAVY_ATOM>  (1701) 
1 0 0 0 1 1 1 1 0 0 0 1 1 0 1 0 1 0 1 0 1 0

>  <DIFUSE_FUNC_ATOM>  (1701) 
atom 6   atom 7   

>  <FINAL_SINGLE_POINT_ENERGY>  (1701) 
0

>  <NONCOV_INTER_ENERGY_QM>  (1701) 
0

>  <FF_Energy>  (1701) 
-2.29

>  <QM_Energy>  (1701) 
-8.96

>  <source>  (1701) 
ACET_MBZ_01

>  <Index>  (1701) 
34162

$$$$
ACET-pdb4lfd-B-ASP-191:MBZ-pdb4lfd-B-PHE-186
     RDKit          3D

 22 21  0  0  0  0  0  0  0  0999 V2000
    3.7111    4.0309   -1.4158 C   0  0  0  0  0  0  0  0  0  0  0  0
    4.2981    4.8424   -1.2744 H   0  0  0  0  0  0  0  0  0  0  0  0
    2.7503    4.3437   -1.4193 H   0  0  0  0  0  0  0  0  0  0  0  0
    3.9295    3.6415   -2.4103 H   0  0  0  0  0  0  0  0  0  0  0  0
    3.9080    3.0839   -0.2559 C   0  0  0  0  0  0  0  0  0  0  0  0
    4.5164    2.0099   -0.4578 O   0  0  0  0  0  1  0  0  0  0  0  0
    3.4516    3.4138    0.8574 O   0  0  0  0  0  0  0  0  0  0  0  0
   -0.0010    2.9238    0.1076 C   0  0  0  0  0  0  0  0  0  0  0  0
   -0.8102    3.2620   -0.3162 H   0  0  0  0  0  0  0  0  0  0  0  0
    0.8220    3.2597   -0.2914 H   0  0  0  0  0  0  0  0  0  0  0  0
   -0.0166    3.2438    1.1495 H   0  0  0  0  0  0  0  0  0  0  0  0
   -0.0013    1.4086   -0.0073 C   0  0  0  0  0  0  0  0  0  0  0  0
   -1.1946    0.6917    0.0011 C   0  0  0  0  0  0  0  0  0  0  0  0
   -2.0645    1.1726    0.0069 H   0  0  0  0  0  0  0  0  0  0  0  0
   -1.1879   -0.7063    0.0000 C   0  0  0  0  0  0  0  0  0  0  0  0
   -2.0672   -1.1991   -0.0062 H   0  0  0  0  0  0  0  0  0  0  0  0
    0.0066   -1.3886    0.0095 C   0  0  0  0  0  0  0  0  0  0  0  0
    0.0029   -2.3948    0.0232 H   0  0  0  0  0  0  0  0  0  0  0  0
    1.1879   -0.7012    0.0000 C   0  0  0  0  0  0  0  0  0  0  0  0
    2.0792   -1.1910   -0.0029 H   0  0  0  0  0  0  0  0  0  0  0  0
    1.1893    0.6959   -0.0033 C   0  0  0  0  0  0  0  0  0  0  0  0
    2.0619    1.1844   -0.0036 H   0  0  0  0  0  0  0  0  0  0  0  0
  1  5  1  0
  5  6  1  0
  5  7  2  0
  1  2  1  0
  1  3  1  0
  1  4  1  0
  8 12  1  0
 12 13  2  0
 13 15  1  0
 15 17  2  0
 17 19  1  0
 19 21  2  0
 21 12  1  0
  8  9  1  0
  8 10  1  0
  8 11  1  0
 13 14  1  0
 15 16  1  0
 17 18  1  0
 19 20  1  0
 21 22  1  0
M  CHG  1   6  -1
M  END
>  <PDB_ID>  (1702) 
pdb4lfd

>  <RESIDUE_NAME>  (1702) 
ASP   PHE

>  <FRAG_NAME>  (1702) 
ACET   MBZ

>  <FRAG_ATOM_NUM>  (1702) 
fragi: 7  fragj: 15

>  <atom.prop.CHAIN_ID>  (1702) 
A A A A A A A Z Z Z Z Z Z Z Z Z Z Z Z Z Z Z

>  <atom.prop.IS_HEAVY_ATOM>  (1702) 
1 0 0 0 1 1 1 1 0 0 0 1 1 0 1 0 1 0 1 0 1 0

>  <DIFUSE_FUNC_ATOM>  (1702) 
atom 6   atom 7   

>  <FINAL_SINGLE_POINT_ENERGY>  (1702) 
0

>  <NONCOV_INTER_ENERGY_QM>  (1702) 
0

>  <FF_Energy>  (1702) 
-2.81

>  <QM_Energy>  (1702) 
-7.86

>  <source>  (1702) 
ACET_MBZ_01

>  <Index>  (1702) 
34208

$$$$
ACET-pdb4lfd-D-ASP-191:MBZ-pdb4lfd-D-PHE-186
     RDKit          3D

 22 21  0  0  0  0  0  0  0  0999 V2000
    3.7088    4.0154   -1.4033 C   0  0  0  0  0  0  0  0  0  0  0  0
    4.2944    4.8278   -1.2616 H   0  0  0  0  0  0  0  0  0  0  0  0
    2.7473    4.3285   -1.4159 H   0  0  0  0  0  0  0  0  0  0  0  0
    3.9341    3.6240   -2.3953 H   0  0  0  0  0  0  0  0  0  0  0  0
    3.8975    3.0741   -0.2432 C   0  0  0  0  0  0  0  0  0  0  0  0
    4.5032    2.0004   -0.4410 O   0  0  0  0  0  1  0  0  0  0  0  0
    3.4468    3.4123    0.8656 O   0  0  0  0  0  0  0  0  0  0  0  0
    0.0025    2.9273    0.0846 C   0  0  0  0  0  0  0  0  0  0  0  0
   -0.8008    3.2606   -0.3518 H   0  0  0  0  0  0  0  0  0  0  0  0
    0.8309    3.2543   -0.3084 H   0  0  0  0  0  0  0  0  0  0  0  0
   -0.0239    3.2550    1.1239 H   0  0  0  0  0  0  0  0  0  0  0  0
   -0.0008    1.4086   -0.0129 C   0  0  0  0  0  0  0  0  0  0  0  0
   -1.1916    0.6953    0.0082 C   0  0  0  0  0  0  0  0  0  0  0  0
   -2.0616    1.1766    0.0280 H   0  0  0  0  0  0  0  0  0  0  0  0
   -1.1854   -0.7003    0.0000 C   0  0  0  0  0  0  0  0  0  0  0  0
   -2.0667   -1.1928   -0.0123 H   0  0  0  0  0  0  0  0  0  0  0  0
    0.0067   -1.3895    0.0113 C   0  0  0  0  0  0  0  0  0  0  0  0
   -0.0031   -2.3945    0.0272 H   0  0  0  0  0  0  0  0  0  0  0  0
    1.1854   -0.7055   -0.0000 C   0  0  0  0  0  0  0  0  0  0  0  0
    2.0774   -1.1938   -0.0019 H   0  0  0  0  0  0  0  0  0  0  0  0
    1.1856    0.6915   -0.0066 C   0  0  0  0  0  0  0  0  0  0  0  0
    2.0609    1.1790   -0.0072 H   0  0  0  0  0  0  0  0  0  0  0  0
  1  5  1  0
  5  6  1  0
  5  7  2  0
  1  2  1  0
  1  3  1  0
  1  4  1  0
  8 12  1  0
 12 13  2  0
 13 15  1  0
 15 17  2  0
 17 19  1  0
 19 21  2  0
 21 12  1  0
  8  9  1  0
  8 10  1  0
  8 11  1  0
 13 14  1  0
 15 16  1  0
 17 18  1  0
 19 20  1  0
 21 22  1  0
M  CHG  1   6  -1
M  END
>  <PDB_ID>  (1703) 
pdb4lfd

>  <RESIDUE_NAME>  (1703) 
ASP   PHE

>  <FRAG_NAME>  (1703) 
ACET   MBZ

>  <FRAG_ATOM_NUM>  (1703) 
fragi: 7  fragj: 15

>  <atom.prop.CHAIN_ID>  (1703) 
A A A A A A A Z Z Z Z Z Z Z Z Z Z Z Z Z Z Z

>  <atom.prop.IS_HEAVY_ATOM>  (1703) 
1 0 0 0 1 1 1 1 0 0 0 1 1 0 1 0 1 0 1 0 1 0

>  <DIFUSE_FUNC_ATOM>  (1703) 
atom 6   atom 7   

>  <FINAL_SINGLE_POINT_ENERGY>  (1703) 
0

>  <NONCOV_INTER_ENERGY_QM>  (1703) 
0

>  <FF_Energy>  (1703) 
-2.76

>  <QM_Energy>  (1703) 
-7.81

>  <source>  (1703) 
ACET_MBZ_01

>  <Index>  (1703) 
34220

$$$$
ACET-pdb3nxb-A-GLU-528:MBZ-pdb3nxb-A-PHE-507
     RDKit          3D

 22 21  0  0  0  0  0  0  0  0999 V2000
    3.0059    0.5204    3.0367 C   0  0  0  0  0  0  0  0  0  0  0  0
    3.5942    0.4448    3.8108 H   0  0  0  0  0  0  0  0  0  0  0  0
    3.2935   -0.0142    2.2736 H   0  0  0  0  0  0  0  0  0  0  0  0
    2.0021    0.2106    3.3269 H   0  0  0  0  0  0  0  0  0  0  0  0
    3.0290    1.9902    2.5924 C   0  0  0  0  0  0  0  0  0  0  0  0
    2.2938    2.7872    3.2112 O   0  0  0  0  0  1  0  0  0  0  0  0
    3.7354    2.3174    1.6021 O   0  0  0  0  0  0  0  0  0  0  0  0
    0.0032    2.8801    0.0292 C   0  0  0  0  0  0  0  0  0  0  0  0
    0.9152    3.1940   -0.1971 H   0  0  0  0  0  0  0  0  0  0  0  0
   -0.2616    3.1832    0.9346 H   0  0  0  0  0  0  0  0  0  0  0  0
   -0.6838    3.3413   -0.6803 H   0  0  0  0  0  0  0  0  0  0  0  0
   -0.0037    1.3912    0.0078 C   0  0  0  0  0  0  0  0  0  0  0  0
   -1.1933    0.6802    0.0141 C   0  0  0  0  0  0  0  0  0  0  0  0
   -2.0629    1.1649    0.0275 H   0  0  0  0  0  0  0  0  0  0  0  0
   -1.1861   -0.7046    0.0000 C   0  0  0  0  0  0  0  0  0  0  0  0
   -2.0636   -1.2025    0.0092 H   0  0  0  0  0  0  0  0  0  0  0  0
    0.0042   -1.3711   -0.0245 C   0  0  0  0  0  0  0  0  0  0  0  0
    0.0093   -2.3824   -0.0615 H   0  0  0  0  0  0  0  0  0  0  0  0
    1.1861   -0.6855   -0.0000 C   0  0  0  0  0  0  0  0  0  0  0  0
    2.0750   -1.1886    0.0176 H   0  0  0  0  0  0  0  0  0  0  0  0
    1.1929    0.6898    0.0026 C   0  0  0  0  0  0  0  0  0  0  0  0
    2.0578    1.1885   -0.0003 H   0  0  0  0  0  0  0  0  0  0  0  0
  1  5  1  0
  5  6  1  0
  5  7  2  0
  1  2  1  0
  1  3  1  0
  1  4  1  0
  8 12  1  0
 12 13  2  0
 13 15  1  0
 15 17  2  0
 17 19  1  0
 19 21  2  0
 21 12  1  0
  8  9  1  0
  8 10  1  0
  8 11  1  0
 13 14  1  0
 15 16  1  0
 17 18  1  0
 19 20  1  0
 21 22  1  0
M  CHG  1   6  -1
M  END
>  <PDB_ID>  (1704) 
pdb3nxb

>  <RESIDUE_NAME>  (1704) 
GLU   PHE

>  <FRAG_NAME>  (1704) 
ACET   MBZ

>  <FRAG_ATOM_NUM>  (1704) 
fragi: 7  fragj: 15

>  <atom.prop.CHAIN_ID>  (1704) 
A A A A A A A Z Z Z Z Z Z Z Z Z Z Z Z Z Z Z

>  <atom.prop.IS_HEAVY_ATOM>  (1704) 
1 0 0 0 1 1 1 1 0 0 0 1 1 0 1 0 1 0 1 0 1 0

>  <DIFUSE_FUNC_ATOM>  (1704) 
atom 6   atom 7   

>  <FINAL_SINGLE_POINT_ENERGY>  (1704) 
0

>  <NONCOV_INTER_ENERGY_QM>  (1704) 
0

>  <FF_Energy>  (1704) 
-1.79

>  <QM_Energy>  (1704) 
-6.83

>  <source>  (1704) 
ACET_MBZ_01

>  <Index>  (1704) 
34363

$$$$
ACET-pdb3nxk-A-ASP-301:MBZ-pdb3nxk-A-PHE-182
     RDKit          3D

 22 21  0  0  0  0  0  0  0  0999 V2000
    4.9003   -3.2008   -2.5206 C   0  0  0  0  0  0  0  0  0  0  0  0
    5.3258   -2.3079   -2.5964 H   0  0  0  0  0  0  0  0  0  0  0  0
    4.4449   -3.4457   -3.3662 H   0  0  0  0  0  0  0  0  0  0  0  0
    5.6802   -3.9366   -2.3247 H   0  0  0  0  0  0  0  0  0  0  0  0
    3.8754   -3.1574   -1.4114 C   0  0  0  0  0  0  0  0  0  0  0  0
    3.1078   -4.1318   -1.3054 O   0  0  0  0  0  1  0  0  0  0  0  0
    3.8478   -2.1703   -0.6366 O   0  0  0  0  0  0  0  0  0  0  0  0
   -0.0017    2.8820   -0.0004 C   0  0  0  0  0  0  0  0  0  0  0  0
    0.6548    3.1944    0.6734 H   0  0  0  0  0  0  0  0  0  0  0  0
   -0.9153    3.1937    0.2240 H   0  0  0  0  0  0  0  0  0  0  0  0
    0.2714    3.3320   -0.9549 H   0  0  0  0  0  0  0  0  0  0  0  0
   -0.0008    1.3909   -0.0031 C   0  0  0  0  0  0  0  0  0  0  0  0
   -1.1891    0.6896    0.0014 C   0  0  0  0  0  0  0  0  0  0  0  0
   -2.0584    1.1824    0.0042 H   0  0  0  0  0  0  0  0  0  0  0  0
   -1.1946   -0.6899    0.0000 C   0  0  0  0  0  0  0  0  0  0  0  0
   -2.0731   -1.1866    0.0019 H   0  0  0  0  0  0  0  0  0  0  0  0
    0.0007   -1.3846   -0.0017 C   0  0  0  0  0  0  0  0  0  0  0  0
   -0.0051   -2.3849   -0.0049 H   0  0  0  0  0  0  0  0  0  0  0  0
    1.1946   -0.6927   -0.0000 C   0  0  0  0  0  0  0  0  0  0  0  0
    2.0777   -1.1928   -0.0002 H   0  0  0  0  0  0  0  0  0  0  0  0
    1.1892    0.6868    0.0034 C   0  0  0  0  0  0  0  0  0  0  0  0
    2.0590    1.1865    0.0097 H   0  0  0  0  0  0  0  0  0  0  0  0
  1  5  1  0
  5  6  1  0
  5  7  2  0
  1  2  1  0
  1  3  1  0
  1  4  1  0
  8 12  1  0
 12 13  2  0
 13 15  1  0
 15 17  2  0
 17 19  1  0
 19 21  2  0
 21 12  1  0
  8  9  1  0
  8 10  1  0
  8 11  1  0
 13 14  1  0
 15 16  1  0
 17 18  1  0
 19 20  1  0
 21 22  1  0
M  CHG  1   6  -1
M  END
>  <PDB_ID>  (1705) 
pdb3nxk

>  <RESIDUE_NAME>  (1705) 
ASP   PHE

>  <FRAG_NAME>  (1705) 
ACET   MBZ

>  <FRAG_ATOM_NUM>  (1705) 
fragi: 7  fragj: 15

>  <atom.prop.CHAIN_ID>  (1705) 
A A A A A A A Z Z Z Z Z Z Z Z Z Z Z Z Z Z Z

>  <atom.prop.IS_HEAVY_ATOM>  (1705) 
1 0 0 0 1 1 1 1 0 0 0 1 1 0 1 0 1 0 1 0 1 0

>  <DIFUSE_FUNC_ATOM>  (1705) 
atom 6   atom 7   

>  <FINAL_SINGLE_POINT_ENERGY>  (1705) 
0

>  <NONCOV_INTER_ENERGY_QM>  (1705) 
0

>  <FF_Energy>  (1705) 
0.2

>  <QM_Energy>  (1705) 
-6.73

>  <source>  (1705) 
ACET_MBZ_01

>  <Index>  (1705) 
34417

$$$$
ACET-pdb3nws-B-ASP-178:MBZ-pdb3nws-B-PHE-17
     RDKit          3D

 22 21  0  0  0  0  0  0  0  0999 V2000
    0.8839   -0.1896   -2.9710 C   0  0  0  0  0  0  0  0  0  0  0  0
   -0.1074   -0.2277   -2.8867 H   0  0  0  0  0  0  0  0  0  0  0  0
    1.3114   -0.4916   -2.1251 H   0  0  0  0  0  0  0  0  0  0  0  0
    1.1800   -0.8788   -3.7619 H   0  0  0  0  0  0  0  0  0  0  0  0
    1.2961    1.2352   -3.2466 C   0  0  0  0  0  0  0  0  0  0  0  0
    2.5137    1.5119   -3.3492 O   0  0  0  0  0  1  0  0  0  0  0  0
    0.3935    2.0904   -3.3102 O   0  0  0  0  0  0  0  0  0  0  0  0
   -0.0189    2.8865    0.0447 C   0  0  0  0  0  0  0  0  0  0  0  0
   -0.7740    3.2133   -0.4949 H   0  0  0  0  0  0  0  0  0  0  0  0
    0.8463    3.2181   -0.2875 H   0  0  0  0  0  0  0  0  0  0  0  0
   -0.1505    3.2582    1.0609 H   0  0  0  0  0  0  0  0  0  0  0  0
   -0.0059    1.3925   -0.0197 C   0  0  0  0  0  0  0  0  0  0  0  0
   -1.1994    0.6783    0.0109 C   0  0  0  0  0  0  0  0  0  0  0  0
   -2.0658    1.1757    0.0399 H   0  0  0  0  0  0  0  0  0  0  0  0
   -1.2015   -0.6932    0.0000 C   0  0  0  0  0  0  0  0  0  0  0  0
   -2.0650   -1.2053   -0.0008 H   0  0  0  0  0  0  0  0  0  0  0  0
    0.0218   -1.3905   -0.0084 C   0  0  0  0  0  0  0  0  0  0  0  0
    0.0120   -2.3862   -0.0209 H   0  0  0  0  0  0  0  0  0  0  0  0
    1.2015   -0.6857   -0.0000 C   0  0  0  0  0  0  0  0  0  0  0  0
    2.0939   -1.1723   -0.0053 H   0  0  0  0  0  0  0  0  0  0  0  0
    1.1835    0.6987    0.0173 C   0  0  0  0  0  0  0  0  0  0  0  0
    2.0521    1.2013    0.0560 H   0  0  0  0  0  0  0  0  0  0  0  0
  1  5  1  0
  5  6  1  0
  5  7  2  0
  1  2  1  0
  1  3  1  0
  1  4  1  0
  8 12  1  0
 12 13  2  0
 13 15  1  0
 15 17  2  0
 17 19  1  0
 19 21  2  0
 21 12  1  0
  8  9  1  0
  8 10  1  0
  8 11  1  0
 13 14  1  0
 15 16  1  0
 17 18  1  0
 19 20  1  0
 21 22  1  0
M  CHG  1   6  -1
M  END
>  <PDB_ID>  (1706) 
pdb3nws

>  <RESIDUE_NAME>  (1706) 
ASP   PHE

>  <FRAG_NAME>  (1706) 
ACET   MBZ

>  <FRAG_ATOM_NUM>  (1706) 
fragi: 7  fragj: 15

>  <atom.prop.CHAIN_ID>  (1706) 
A A A A A A A Z Z Z Z Z Z Z Z Z Z Z Z Z Z Z

>  <atom.prop.IS_HEAVY_ATOM>  (1706) 
1 0 0 0 1 1 1 1 0 0 0 1 1 0 1 0 1 0 1 0 1 0

>  <DIFUSE_FUNC_ATOM>  (1706) 
atom 6   atom 7   

>  <FINAL_SINGLE_POINT_ENERGY>  (1706) 
0

>  <NONCOV_INTER_ENERGY_QM>  (1706) 
0

>  <FF_Energy>  (1706) 
12.44

>  <QM_Energy>  (1706) 
0.36

>  <source>  (1706) 
ACET_MBZ_01

>  <Index>  (1706) 
34479

$$$$
ACET-pdb3nws-C-ASP-178:MBZ-pdb3nws-C-PHE-17
     RDKit          3D

 22 21  0  0  0  0  0  0  0  0999 V2000
    0.5388   -0.0417   -3.1044 C   0  0  0  0  0  0  0  0  0  0  0  0
   -0.4326    0.1687   -3.0552 H   0  0  0  0  0  0  0  0  0  0  0  0
    0.8608   -0.3918   -2.2311 H   0  0  0  0  0  0  0  0  0  0  0  0
    0.6707   -0.8283   -3.8474 H   0  0  0  0  0  0  0  0  0  0  0  0
    1.2960    1.1952   -3.4510 C   0  0  0  0  0  0  0  0  0  0  0  0
    2.4979    1.0704   -3.7666 O   0  0  0  0  0  1  0  0  0  0  0  0
    0.7014    2.2901   -3.3956 O   0  0  0  0  0  0  0  0  0  0  0  0
   -0.0068    2.8962    0.0439 C   0  0  0  0  0  0  0  0  0  0  0  0
   -0.8093    3.2221   -0.4259 H   0  0  0  0  0  0  0  0  0  0  0  0
    0.8236    3.2233   -0.3739 H   0  0  0  0  0  0  0  0  0  0  0  0
   -0.0395    3.2842    1.0619 H   0  0  0  0  0  0  0  0  0  0  0  0
   -0.0044    1.3989   -0.0113 C   0  0  0  0  0  0  0  0  0  0  0  0
   -1.2024    0.6950    0.0058 C   0  0  0  0  0  0  0  0  0  0  0  0
   -2.0673    1.1890    0.0212 H   0  0  0  0  0  0  0  0  0  0  0  0
   -1.2080   -0.6897   -0.0000 C   0  0  0  0  0  0  0  0  0  0  0  0
   -2.0762   -1.1926   -0.0032 H   0  0  0  0  0  0  0  0  0  0  0  0
    0.0115   -1.3972   -0.0001 C   0  0  0  0  0  0  0  0  0  0  0  0
   -0.0013   -2.3908   -0.0010 H   0  0  0  0  0  0  0  0  0  0  0  0
    1.2080   -0.6974    0.0000 C   0  0  0  0  0  0  0  0  0  0  0  0
    2.0911   -1.1910   -0.0025 H   0  0  0  0  0  0  0  0  0  0  0  0
    1.1953    0.6903    0.0056 C   0  0  0  0  0  0  0  0  0  0  0  0
    2.0617    1.1933    0.0216 H   0  0  0  0  0  0  0  0  0  0  0  0
  1  5  1  0
  5  6  1  0
  5  7  2  0
  1  2  1  0
  1  3  1  0
  1  4  1  0
  8 12  1  0
 12 13  2  0
 13 15  1  0
 15 17  2  0
 17 19  1  0
 19 21  2  0
 21 12  1  0
  8  9  1  0
  8 10  1  0
  8 11  1  0
 13 14  1  0
 15 16  1  0
 17 18  1  0
 19 20  1  0
 21 22  1  0
M  CHG  1   6  -1
M  END
>  <PDB_ID>  (1707) 
pdb3nws

>  <RESIDUE_NAME>  (1707) 
ASP   PHE

>  <FRAG_NAME>  (1707) 
ACET   MBZ

>  <FRAG_ATOM_NUM>  (1707) 
fragi: 7  fragj: 15

>  <atom.prop.CHAIN_ID>  (1707) 
A A A A A A A Z Z Z Z Z Z Z Z Z Z Z Z Z Z Z

>  <atom.prop.IS_HEAVY_ATOM>  (1707) 
1 0 0 0 1 1 1 1 0 0 0 1 1 0 1 0 1 0 1 0 1 0

>  <DIFUSE_FUNC_ATOM>  (1707) 
atom 6   atom 7   

>  <FINAL_SINGLE_POINT_ENERGY>  (1707) 
0

>  <NONCOV_INTER_ENERGY_QM>  (1707) 
0

>  <FF_Energy>  (1707) 
5.85

>  <QM_Energy>  (1707) 
-1.32

>  <source>  (1707) 
ACET_MBZ_01

>  <Index>  (1707) 
34560

$$$$
ACET-pdb4lmo-C-GLU-515:MBZ-pdb4lmo-B-PHE-297
     RDKit          3D

 22 21  0  0  0  0  0  0  0  0999 V2000
   -0.2214    3.2642   -4.9499 C   0  0  0  0  0  0  0  0  0  0  0  0
   -1.1362    3.5845   -5.0914 H   0  0  0  0  0  0  0  0  0  0  0  0
   -0.1311    2.2985   -5.0943 H   0  0  0  0  0  0  0  0  0  0  0  0
    0.4358    3.7809   -5.6493 H   0  0  0  0  0  0  0  0  0  0  0  0
    0.1473    3.5489   -3.5082 C   0  0  0  0  0  0  0  0  0  0  0  0
   -0.3576    4.5472   -2.9505 O   0  0  0  0  0  1  0  0  0  0  0  0
    0.9423    2.7727   -2.9365 O   0  0  0  0  0  0  0  0  0  0  0  0
   -0.0042    2.9035   -0.0054 C   0  0  0  0  0  0  0  0  0  0  0  0
   -0.9150    3.2064   -0.2488 H   0  0  0  0  0  0  0  0  0  0  0  0
    0.6623    3.2092   -0.6719 H   0  0  0  0  0  0  0  0  0  0  0  0
    0.2520    3.3572    0.9520 H   0  0  0  0  0  0  0  0  0  0  0  0
    0.0001    1.4008    0.0022 C   0  0  0  0  0  0  0  0  0  0  0  0
   -1.1963    0.6920   -0.0018 C   0  0  0  0  0  0  0  0  0  0  0  0
   -2.0632    1.1830   -0.0075 H   0  0  0  0  0  0  0  0  0  0  0  0
   -1.2006   -0.6956   -0.0000 C   0  0  0  0  0  0  0  0  0  0  0  0
   -2.0777   -1.1901    0.0012 H   0  0  0  0  0  0  0  0  0  0  0  0
   -0.0008   -1.3904    0.0016 C   0  0  0  0  0  0  0  0  0  0  0  0
   -0.0050   -2.3903    0.0036 H   0  0  0  0  0  0  0  0  0  0  0  0
    1.2006   -0.6975    0.0000 C   0  0  0  0  0  0  0  0  0  0  0  0
    2.0809   -1.1972    0.0018 H   0  0  0  0  0  0  0  0  0  0  0  0
    1.1970    0.6906   -0.0020 C   0  0  0  0  0  0  0  0  0  0  0  0
    2.0653    1.1880   -0.0078 H   0  0  0  0  0  0  0  0  0  0  0  0
  1  5  1  0
  5  6  1  0
  5  7  2  0
  1  2  1  0
  1  3  1  0
  1  4  1  0
  8 12  1  0
 12 13  2  0
 13 15  1  0
 15 17  2  0
 17 19  1  0
 19 21  2  0
 21 12  1  0
  8  9  1  0
  8 10  1  0
  8 11  1  0
 13 14  1  0
 15 16  1  0
 17 18  1  0
 19 20  1  0
 21 22  1  0
M  CHG  1   6  -1
M  END
>  <PDB_ID>  (1708) 
pdb4lmo

>  <RESIDUE_NAME>  (1708) 
GLU   PHE

>  <FRAG_NAME>  (1708) 
ACET   MBZ

>  <FRAG_ATOM_NUM>  (1708) 
fragi: 7  fragj: 15

>  <atom.prop.CHAIN_ID>  (1708) 
A A A A A A A Z Z Z Z Z Z Z Z Z Z Z Z Z Z Z

>  <atom.prop.IS_HEAVY_ATOM>  (1708) 
1 0 0 0 1 1 1 1 0 0 0 1 1 0 1 0 1 0 1 0 1 0

>  <DIFUSE_FUNC_ATOM>  (1708) 
atom 6   atom 7   

>  <FINAL_SINGLE_POINT_ENERGY>  (1708) 
0

>  <NONCOV_INTER_ENERGY_QM>  (1708) 
0

>  <FF_Energy>  (1708) 
1.7

>  <QM_Energy>  (1708) 
-5.65

>  <source>  (1708) 
ACET_MBZ_01

>  <Index>  (1708) 
34605

$$$$
ACET-pdb4lp8-A-GLU-116:MBZ-pdb4lp8-A-PHE-64
     RDKit          3D

 22 21  0  0  0  0  0  0  0  0999 V2000
    0.2145    0.3038    3.8821 C   0  0  0  0  0  0  0  0  0  0  0  0
    0.4060    0.2559    4.8554 H   0  0  0  0  0  0  0  0  0  0  0  0
    0.9288   -0.1526    3.3636 H   0  0  0  0  0  0  0  0  0  0  0  0
   -0.7272   -0.2122    3.6948 H   0  0  0  0  0  0  0  0  0  0  0  0
    0.2241    1.7548    3.4881 C   0  0  0  0  0  0  0  0  0  0  0  0
   -0.8065    2.4348    3.6891 O   0  0  0  0  0  1  0  0  0  0  0  0
    1.2709    2.2143    2.9826 O   0  0  0  0  0  0  0  0  0  0  0  0
    0.0014    2.9258   -0.0239 C   0  0  0  0  0  0  0  0  0  0  0  0
    0.8917    3.2320    0.2718 H   0  0  0  0  0  0  0  0  0  0  0  0
   -0.7113    3.2375    0.5845 H   0  0  0  0  0  0  0  0  0  0  0  0
   -0.1885    3.3614   -1.0048 H   0  0  0  0  0  0  0  0  0  0  0  0
   -0.0004    1.4095   -0.0077 C   0  0  0  0  0  0  0  0  0  0  0  0
   -1.1961    0.6960    0.0216 C   0  0  0  0  0  0  0  0  0  0  0  0
   -2.0636    1.1782    0.0573 H   0  0  0  0  0  0  0  0  0  0  0  0
   -1.1943   -0.7032    0.0000 C   0  0  0  0  0  0  0  0  0  0  0  0
   -2.0729   -1.1936   -0.0135 H   0  0  0  0  0  0  0  0  0  0  0  0
    0.0028   -1.3926   -0.0015 C   0  0  0  0  0  0  0  0  0  0  0  0
   -0.0028   -2.3962   -0.0040 H   0  0  0  0  0  0  0  0  0  0  0  0
    1.1943   -0.7049   -0.0000 C   0  0  0  0  0  0  0  0  0  0  0  0
    2.0806   -1.1960    0.0117 H   0  0  0  0  0  0  0  0  0  0  0  0
    1.1937    0.6951   -0.0124 C   0  0  0  0  0  0  0  0  0  0  0  0
    2.0649    1.1839   -0.0253 H   0  0  0  0  0  0  0  0  0  0  0  0
  1  5  1  0
  5  6  1  0
  5  7  2  0
  1  2  1  0
  1  3  1  0
  1  4  1  0
  8 12  1  0
 12 13  2  0
 13 15  1  0
 15 17  2  0
 17 19  1  0
 19 21  2  0
 21 12  1  0
  8  9  1  0
  8 10  1  0
  8 11  1  0
 13 14  1  0
 15 16  1  0
 17 18  1  0
 19 20  1  0
 21 22  1  0
M  CHG  1   6  -1
M  END
>  <PDB_ID>  (1709) 
pdb4lp8

>  <RESIDUE_NAME>  (1709) 
GLU   PHE

>  <FRAG_NAME>  (1709) 
ACET   MBZ

>  <FRAG_ATOM_NUM>  (1709) 
fragi: 7  fragj: 15

>  <atom.prop.CHAIN_ID>  (1709) 
A A A A A A A Z Z Z Z Z Z Z Z Z Z Z Z Z Z Z

>  <atom.prop.IS_HEAVY_ATOM>  (1709) 
1 0 0 0 1 1 1 1 0 0 0 1 1 0 1 0 1 0 1 0 1 0

>  <DIFUSE_FUNC_ATOM>  (1709) 
atom 6   atom 7   

>  <FINAL_SINGLE_POINT_ENERGY>  (1709) 
0

>  <NONCOV_INTER_ENERGY_QM>  (1709) 
0

>  <FF_Energy>  (1709) 
0.62

>  <QM_Energy>  (1709) 
-5.35

>  <source>  (1709) 
ACET_MBZ_01

>  <Index>  (1709) 
34754

$$$$
ACET-pdb3o2q-E-GLU-180:MBZ-pdb3o2q-E-PHE-187
     RDKit          3D

 22 21  0  0  0  0  0  0  0  0999 V2000
   -4.0907    1.5961    1.0944 C   0  0  0  0  0  0  0  0  0  0  0  0
   -3.3992    1.1868    1.6714 H   0  0  0  0  0  0  0  0  0  0  0  0
   -3.7629    1.7079    0.1672 H   0  0  0  0  0  0  0  0  0  0  0  0
   -4.9665    0.9474    1.0824 H   0  0  0  0  0  0  0  0  0  0  0  0
   -4.3354    3.0260    1.6486 C   0  0  0  0  0  0  0  0  0  0  0  0
   -5.4848    3.3737    2.0452 O   0  0  0  0  0  1  0  0  0  0  0  0
   -3.3625    3.8164    1.6832 O   0  0  0  0  0  0  0  0  0  0  0  0
   -0.0121    2.9151    0.0019 C   0  0  0  0  0  0  0  0  0  0  0  0
   -0.8801    3.2172   -0.3667 H   0  0  0  0  0  0  0  0  0  0  0  0
    0.7410    3.2232   -0.5624 H   0  0  0  0  0  0  0  0  0  0  0  0
    0.1055    3.3638    0.9882 H   0  0  0  0  0  0  0  0  0  0  0  0
   -0.0063    1.4069   -0.0007 C   0  0  0  0  0  0  0  0  0  0  0  0
   -1.1907    0.7036   -0.0085 C   0  0  0  0  0  0  0  0  0  0  0  0
   -2.0639    1.1838   -0.0212 H   0  0  0  0  0  0  0  0  0  0  0  0
   -1.1959   -0.6983    0.0000 C   0  0  0  0  0  0  0  0  0  0  0  0
   -2.0697   -1.1907    0.0059 H   0  0  0  0  0  0  0  0  0  0  0  0
    0.0165   -1.4094    0.0019 C   0  0  0  0  0  0  0  0  0  0  0  0
    0.0001   -2.4018    0.0040 H   0  0  0  0  0  0  0  0  0  0  0  0
    1.1959   -0.7073   -0.0000 C   0  0  0  0  0  0  0  0  0  0  0  0
    2.0906   -1.1817   -0.0051 H   0  0  0  0  0  0  0  0  0  0  0  0
    1.1805    0.7045    0.0073 C   0  0  0  0  0  0  0  0  0  0  0  0
    2.0557    1.1921    0.0177 H   0  0  0  0  0  0  0  0  0  0  0  0
  1  5  1  0
  5  6  1  0
  5  7  2  0
  1  2  1  0
  1  3  1  0
  1  4  1  0
  8 12  1  0
 12 13  2  0
 13 15  1  0
 15 17  2  0
 17 19  1  0
 19 21  2  0
 21 12  1  0
  8  9  1  0
  8 10  1  0
  8 11  1  0
 13 14  1  0
 15 16  1  0
 17 18  1  0
 19 20  1  0
 21 22  1  0
M  CHG  1   6  -1
M  END
>  <PDB_ID>  (1710) 
pdb3o2q

>  <RESIDUE_NAME>  (1710) 
GLU   PHE

>  <FRAG_NAME>  (1710) 
ACET   MBZ

>  <FRAG_ATOM_NUM>  (1710) 
fragi: 7  fragj: 15

>  <atom.prop.CHAIN_ID>  (1710) 
A A A A A A A Z Z Z Z Z Z Z Z Z Z Z Z Z Z Z

>  <atom.prop.IS_HEAVY_ATOM>  (1710) 
1 0 0 0 1 1 1 1 0 0 0 1 1 0 1 0 1 0 1 0 1 0

>  <DIFUSE_FUNC_ATOM>  (1710) 
atom 6   atom 7   

>  <FINAL_SINGLE_POINT_ENERGY>  (1710) 
0

>  <NONCOV_INTER_ENERGY_QM>  (1710) 
0

>  <FF_Energy>  (1710) 
5.26

>  <QM_Energy>  (1710) 
-1.96

>  <source>  (1710) 
ACET_MBZ_01

>  <Index>  (1710) 
34802

$$$$
ACET-pdb4lf1-F-ASP-126:MBZ-pdb4lf1-F-PHE-354
     RDKit          3D

 22 21  0  0  0  0  0  0  0  0999 V2000
    4.4338    0.4517   -1.8742 C   0  0  0  0  0  0  0  0  0  0  0  0
    4.8065    0.4627   -2.7944 H   0  0  0  0  0  0  0  0  0  0  0  0
    3.6304   -0.1290   -1.8303 H   0  0  0  0  0  0  0  0  0  0  0  0
    5.1894    0.0204   -1.2175 H   0  0  0  0  0  0  0  0  0  0  0  0
    4.0291    1.8815   -1.4914 C   0  0  0  0  0  0  0  0  0  0  0  0
    4.4869    2.4098   -0.4575 O   0  0  0  0  0  1  0  0  0  0  0  0
    3.2449    2.4796   -2.2494 O   0  0  0  0  0  0  0  0  0  0  0  0
    0.0137    2.8982    0.0014 C   0  0  0  0  0  0  0  0  0  0  0  0
    0.9110    3.2007    0.2932 H   0  0  0  0  0  0  0  0  0  0  0  0
   -0.6873    3.2107    0.6286 H   0  0  0  0  0  0  0  0  0  0  0  0
   -0.1872    3.3509   -0.9695 H   0  0  0  0  0  0  0  0  0  0  0  0
    0.0033    1.4008   -0.0016 C   0  0  0  0  0  0  0  0  0  0  0  0
   -1.1999    0.6952    0.0060 C   0  0  0  0  0  0  0  0  0  0  0  0
   -2.0622    1.1879    0.0145 H   0  0  0  0  0  0  0  0  0  0  0  0
   -1.2037   -0.6947   -0.0000 C   0  0  0  0  0  0  0  0  0  0  0  0
   -2.0817   -1.1887   -0.0015 H   0  0  0  0  0  0  0  0  0  0  0  0
   -0.0052   -1.3924   -0.0017 C   0  0  0  0  0  0  0  0  0  0  0  0
   -0.0065   -2.3899   -0.0047 H   0  0  0  0  0  0  0  0  0  0  0  0
    1.2037   -0.6944   -0.0000 C   0  0  0  0  0  0  0  0  0  0  0  0
    2.0804   -1.2009    0.0044 H   0  0  0  0  0  0  0  0  0  0  0  0
    1.2018    0.6856   -0.0027 C   0  0  0  0  0  0  0  0  0  0  0  0
    2.0690    1.1865   -0.0062 H   0  0  0  0  0  0  0  0  0  0  0  0
  1  5  1  0
  5  6  1  0
  5  7  2  0
  1  2  1  0
  1  3  1  0
  1  4  1  0
  8 12  1  0
 12 13  2  0
 13 15  1  0
 15 17  2  0
 17 19  1  0
 19 21  2  0
 21 12  1  0
  8  9  1  0
  8 10  1  0
  8 11  1  0
 13 14  1  0
 15 16  1  0
 17 18  1  0
 19 20  1  0
 21 22  1  0
M  CHG  1   6  -1
M  END
>  <PDB_ID>  (1711) 
pdb4lf1

>  <RESIDUE_NAME>  (1711) 
ASP   PHE

>  <FRAG_NAME>  (1711) 
ACET   MBZ

>  <FRAG_ATOM_NUM>  (1711) 
fragi: 7  fragj: 15

>  <atom.prop.CHAIN_ID>  (1711) 
A A A A A A A Z Z Z Z Z Z Z Z Z Z Z Z Z Z Z

>  <atom.prop.IS_HEAVY_ATOM>  (1711) 
1 0 0 0 1 1 1 1 0 0 0 1 1 0 1 0 1 0 1 0 1 0

>  <DIFUSE_FUNC_ATOM>  (1711) 
atom 6   atom 7   

>  <FINAL_SINGLE_POINT_ENERGY>  (1711) 
0

>  <NONCOV_INTER_ENERGY_QM>  (1711) 
0

>  <FF_Energy>  (1711) 
-1.45

>  <QM_Energy>  (1711) 
-6.47

>  <source>  (1711) 
ACET_MBZ_01

>  <Index>  (1711) 
34825

$$$$
ACET-pdb4lrz-E-GLU-276:MBZ-pdb4lrz-E-PHE-281
     RDKit          3D

 22 21  0  0  0  0  0  0  0  0999 V2000
    5.8727   -0.2411   -1.0895 C   0  0  0  0  0  0  0  0  0  0  0  0
    6.7547   -0.5999   -1.3399 H   0  0  0  0  0  0  0  0  0  0  0  0
    5.9316    0.6844   -0.7586 H   0  0  0  0  0  0  0  0  0  0  0  0
    5.2475   -0.2387   -1.9824 H   0  0  0  0  0  0  0  0  0  0  0  0
    5.3287   -1.1046    0.0491 C   0  0  0  0  0  0  0  0  0  0  0  0
    4.1048   -1.3794    0.0843 O   0  0  0  0  0  1  0  0  0  0  0  0
    6.1381   -1.4933    0.9256 O   0  0  0  0  0  0  0  0  0  0  0  0
   -0.0304    2.9449   -0.0101 C   0  0  0  0  0  0  0  0  0  0  0  0
   -0.0721    3.2501    0.9294 H   0  0  0  0  0  0  0  0  0  0  0  0
   -0.8325    3.2251   -0.5152 H   0  0  0  0  0  0  0  0  0  0  0  0
    0.8356    3.4168   -0.4743 H   0  0  0  0  0  0  0  0  0  0  0  0
   -0.0011    1.4166    0.0010 C   0  0  0  0  0  0  0  0  0  0  0  0
   -1.2129    0.6922   -0.0035 C   0  0  0  0  0  0  0  0  0  0  0  0
   -2.0754    1.1839   -0.0107 H   0  0  0  0  0  0  0  0  0  0  0  0
   -1.2205   -0.7101    0.0000 C   0  0  0  0  0  0  0  0  0  0  0  0
   -2.0873   -1.2039    0.0023 H   0  0  0  0  0  0  0  0  0  0  0  0
    0.0003   -1.4071    0.0026 C   0  0  0  0  0  0  0  0  0  0  0  0
    0.0031   -2.4007    0.0058 H   0  0  0  0  0  0  0  0  0  0  0  0
    1.2205   -0.6974   -0.0000 C   0  0  0  0  0  0  0  0  0  0  0  0
    2.0948   -1.1954   -0.0002 H   0  0  0  0  0  0  0  0  0  0  0  0
    1.2137    0.7058   -0.0001 C   0  0  0  0  0  0  0  0  0  0  0  0
    2.0738    1.2035   -0.0016 H   0  0  0  0  0  0  0  0  0  0  0  0
  1  5  1  0
  5  6  1  0
  5  7  2  0
  1  2  1  0
  1  3  1  0
  1  4  1  0
  8 12  1  0
 12 13  2  0
 13 15  1  0
 15 17  2  0
 17 19  1  0
 19 21  2  0
 21 12  1  0
  8  9  1  0
  8 10  1  0
  8 11  1  0
 13 14  1  0
 15 16  1  0
 17 18  1  0
 19 20  1  0
 21 22  1  0
M  CHG  1   6  -1
M  END
>  <PDB_ID>  (1712) 
pdb4lrz

>  <RESIDUE_NAME>  (1712) 
GLU   PHE

>  <FRAG_NAME>  (1712) 
ACET   MBZ

>  <FRAG_ATOM_NUM>  (1712) 
fragi: 7  fragj: 15

>  <atom.prop.CHAIN_ID>  (1712) 
A A A A A A A Z Z Z Z Z Z Z Z Z Z Z Z Z Z Z

>  <atom.prop.IS_HEAVY_ATOM>  (1712) 
1 0 0 0 1 1 1 1 0 0 0 1 1 0 1 0 1 0 1 0 1 0

>  <DIFUSE_FUNC_ATOM>  (1712) 
atom 6   atom 7   

>  <FINAL_SINGLE_POINT_ENERGY>  (1712) 
0

>  <NONCOV_INTER_ENERGY_QM>  (1712) 
0

>  <FF_Energy>  (1712) 
4.02

>  <QM_Energy>  (1712) 
-6.13

>  <source>  (1712) 
ACET_MBZ_01

>  <Index>  (1712) 
34933

$$$$
ACET-pdb3o72-B-ASP-166:MBZ-pdb3o72-B-PHE-163
     RDKit          3D

 22 21  0  0  0  0  0  0  0  0999 V2000
    4.0788    5.6822   -0.8786 C   0  0  0  0  0  0  0  0  0  0  0  0
    3.4788    5.8497   -1.6567 H   0  0  0  0  0  0  0  0  0  0  0  0
    5.0156    5.5530   -1.1917 H   0  0  0  0  0  0  0  0  0  0  0  0
    4.0553    6.5642   -0.2386 H   0  0  0  0  0  0  0  0  0  0  0  0
    3.6224    4.4196   -0.1765 C   0  0  0  0  0  0  0  0  0  0  0  0
    3.1513    4.5003    0.9709 O   0  0  0  0  0  1  0  0  0  0  0  0
    3.7518    3.3389   -0.7847 O   0  0  0  0  0  0  0  0  0  0  0  0
    0.0108    2.9039   -0.0183 C   0  0  0  0  0  0  0  0  0  0  0  0
    0.8225    3.2126    0.4463 H   0  0  0  0  0  0  0  0  0  0  0  0
   -0.8105    3.2169    0.4274 H   0  0  0  0  0  0  0  0  0  0  0  0
    0.0236    3.3227   -1.0246 H   0  0  0  0  0  0  0  0  0  0  0  0
    0.0066    1.3964   -0.0007 C   0  0  0  0  0  0  0  0  0  0  0  0
   -1.1907    0.6873   -0.0036 C   0  0  0  0  0  0  0  0  0  0  0  0
   -2.0563    1.1824   -0.0094 H   0  0  0  0  0  0  0  0  0  0  0  0
   -1.1947   -0.6921    0.0000 C   0  0  0  0  0  0  0  0  0  0  0  0
   -2.0764   -1.1875   -0.0004 H   0  0  0  0  0  0  0  0  0  0  0  0
   -0.0050   -1.3848    0.0057 C   0  0  0  0  0  0  0  0  0  0  0  0
   -0.0074   -2.3869    0.0135 H   0  0  0  0  0  0  0  0  0  0  0  0
    1.1947   -0.6947    0.0000 C   0  0  0  0  0  0  0  0  0  0  0  0
    2.0748   -1.1957   -0.0017 H   0  0  0  0  0  0  0  0  0  0  0  0
    1.1891    0.6879   -0.0014 C   0  0  0  0  0  0  0  0  0  0  0  0
    2.0650    1.1836   -0.0039 H   0  0  0  0  0  0  0  0  0  0  0  0
  1  5  1  0
  5  6  1  0
  5  7  2  0
  1  2  1  0
  1  3  1  0
  1  4  1  0
  8 12  1  0
 12 13  2  0
 13 15  1  0
 15 17  2  0
 17 19  1  0
 19 21  2  0
 21 12  1  0
  8  9  1  0
  8 10  1  0
  8 11  1  0
 13 14  1  0
 15 16  1  0
 17 18  1  0
 19 20  1  0
 21 22  1  0
M  CHG  1   6  -1
M  END
>  <PDB_ID>  (1713) 
pdb3o72

>  <RESIDUE_NAME>  (1713) 
ASP   PHE

>  <FRAG_NAME>  (1713) 
ACET   MBZ

>  <FRAG_ATOM_NUM>  (1713) 
fragi: 7  fragj: 15

>  <atom.prop.CHAIN_ID>  (1713) 
A A A A A A A Z Z Z Z Z Z Z Z Z Z Z Z Z Z Z

>  <atom.prop.IS_HEAVY_ATOM>  (1713) 
1 0 0 0 1 1 1 1 0 0 0 1 1 0 1 0 1 0 1 0 1 0

>  <DIFUSE_FUNC_ATOM>  (1713) 
atom 6   atom 7   

>  <FINAL_SINGLE_POINT_ENERGY>  (1713) 
0

>  <NONCOV_INTER_ENERGY_QM>  (1713) 
0

>  <FF_Energy>  (1713) 
-2.61

>  <QM_Energy>  (1713) 
-8.09

>  <source>  (1713) 
ACET_MBZ_01

>  <Index>  (1713) 
35011

$$$$
ACET-pdb4lsm-B-GLU-101:MBZ-pdb4lsm-B-PHE-106
     RDKit          3D

 22 21  0  0  0  0  0  0  0  0999 V2000
    3.4205    4.6720    0.0104 C   0  0  0  0  0  0  0  0  0  0  0  0
    2.7859    4.7377    0.7582 H   0  0  0  0  0  0  0  0  0  0  0  0
    3.0763    5.0900   -0.8093 H   0  0  0  0  0  0  0  0  0  0  0  0
    4.3366    5.1882    0.2976 H   0  0  0  0  0  0  0  0  0  0  0  0
    3.6493    3.2119   -0.2758 C   0  0  0  0  0  0  0  0  0  0  0  0
    3.9955    2.4943    0.6940 O   0  0  0  0  0  1  0  0  0  0  0  0
    3.4965    2.8109   -1.4679 O   0  0  0  0  0  0  0  0  0  0  0  0
   -0.0044    2.9176   -0.0081 C   0  0  0  0  0  0  0  0  0  0  0  0
    0.9127    3.2231   -0.2005 H   0  0  0  0  0  0  0  0  0  0  0  0
   -0.3193    3.2298    0.8723 H   0  0  0  0  0  0  0  0  0  0  0  0
   -0.6619    3.3441   -0.7656 H   0  0  0  0  0  0  0  0  0  0  0  0
   -0.0009    1.4054    0.0062 C   0  0  0  0  0  0  0  0  0  0  0  0
   -1.1959    0.6888    0.0012 C   0  0  0  0  0  0  0  0  0  0  0  0
   -2.0646    1.1784   -0.0032 H   0  0  0  0  0  0  0  0  0  0  0  0
   -1.1973   -0.6992    0.0000 C   0  0  0  0  0  0  0  0  0  0  0  0
   -2.0726   -1.1969    0.0063 H   0  0  0  0  0  0  0  0  0  0  0  0
    0.0065   -1.3956   -0.0078 C   0  0  0  0  0  0  0  0  0  0  0  0
    0.0017   -2.3929   -0.0198 H   0  0  0  0  0  0  0  0  0  0  0  0
    1.1973   -0.6953    0.0000 C   0  0  0  0  0  0  0  0  0  0  0  0
    2.0851   -1.1876    0.0067 H   0  0  0  0  0  0  0  0  0  0  0  0
    1.1903    0.6959    0.0004 C   0  0  0  0  0  0  0  0  0  0  0  0
    2.0613    1.1911   -0.0044 H   0  0  0  0  0  0  0  0  0  0  0  0
  1  5  1  0
  5  6  1  0
  5  7  2  0
  1  2  1  0
  1  3  1  0
  1  4  1  0
  8 12  1  0
 12 13  2  0
 13 15  1  0
 15 17  2  0
 17 19  1  0
 19 21  2  0
 21 12  1  0
  8  9  1  0
  8 10  1  0
  8 11  1  0
 13 14  1  0
 15 16  1  0
 17 18  1  0
 19 20  1  0
 21 22  1  0
M  CHG  1   6  -1
M  END
>  <PDB_ID>  (1714) 
pdb4lsm

>  <RESIDUE_NAME>  (1714) 
GLU   PHE

>  <FRAG_NAME>  (1714) 
ACET   MBZ

>  <FRAG_ATOM_NUM>  (1714) 
fragi: 7  fragj: 15

>  <atom.prop.CHAIN_ID>  (1714) 
A A A A A A A Z Z Z Z Z Z Z Z Z Z Z Z Z Z Z

>  <atom.prop.IS_HEAVY_ATOM>  (1714) 
1 0 0 0 1 1 1 1 0 0 0 1 1 0 1 0 1 0 1 0 1 0

>  <DIFUSE_FUNC_ATOM>  (1714) 
atom 6   atom 7   

>  <FINAL_SINGLE_POINT_ENERGY>  (1714) 
0

>  <NONCOV_INTER_ENERGY_QM>  (1714) 
0

>  <FF_Energy>  (1714) 
-1.71

>  <QM_Energy>  (1714) 
-8.18

>  <source>  (1714) 
ACET_MBZ_01

>  <Index>  (1714) 
35143

$$$$
ACET-pdb3oa6-A-GLU-15:MBZ-pdb3oa6-A-PHE-11
     RDKit          3D

 22 21  0  0  0  0  0  0  0  0999 V2000
   -5.1111    3.8753    1.1502 C   0  0  0  0  0  0  0  0  0  0  0  0
   -5.3591    3.2447    1.8610 H   0  0  0  0  0  0  0  0  0  0  0  0
   -5.8942    4.2888    0.7265 H   0  0  0  0  0  0  0  0  0  0  0  0
   -4.5051    4.6655    1.5932 H   0  0  0  0  0  0  0  0  0  0  0  0
   -4.3734    3.0774    0.0671 C   0  0  0  0  0  0  0  0  0  0  0  0
   -3.2174    3.4350   -0.2557 O   0  0  0  0  0  1  0  0  0  0  0  0
   -4.9405    2.0794   -0.4585 O   0  0  0  0  0  0  0  0  0  0  0  0
    0.0088    2.8686    0.0358 C   0  0  0  0  0  0  0  0  0  0  0  0
    0.8958    3.1758    0.3554 H   0  0  0  0  0  0  0  0  0  0  0  0
   -0.7112    3.1770    0.6440 H   0  0  0  0  0  0  0  0  0  0  0  0
   -0.1655    3.3351   -0.9338 H   0  0  0  0  0  0  0  0  0  0  0  0
    0.0023    1.3862    0.0075 C   0  0  0  0  0  0  0  0  0  0  0  0
   -1.1744    0.6936    0.0060 C   0  0  0  0  0  0  0  0  0  0  0  0
   -2.0474    1.1810    0.0079 H   0  0  0  0  0  0  0  0  0  0  0  0
   -1.1753   -0.6849    0.0000 C   0  0  0  0  0  0  0  0  0  0  0  0
   -2.0673   -1.1732    0.0061 H   0  0  0  0  0  0  0  0  0  0  0  0
   -0.0083   -1.3698   -0.0125 C   0  0  0  0  0  0  0  0  0  0  0  0
   -0.0180   -2.3810   -0.0314 H   0  0  0  0  0  0  0  0  0  0  0  0
    1.1753   -0.7017   -0.0000 C   0  0  0  0  0  0  0  0  0  0  0  0
    2.0601   -1.2035    0.0115 H   0  0  0  0  0  0  0  0  0  0  0  0
    1.1804    0.6766   -0.0011 C   0  0  0  0  0  0  0  0  0  0  0  0
    2.0567    1.1684   -0.0091 H   0  0  0  0  0  0  0  0  0  0  0  0
  1  5  1  0
  5  6  1  0
  5  7  2  0
  1  2  1  0
  1  3  1  0
  1  4  1  0
  8 12  1  0
 12 13  2  0
 13 15  1  0
 15 17  2  0
 17 19  1  0
 19 21  2  0
 21 12  1  0
  8  9  1  0
  8 10  1  0
  8 11  1  0
 13 14  1  0
 15 16  1  0
 17 18  1  0
 19 20  1  0
 21 22  1  0
M  CHG  1   6  -1
M  END
>  <PDB_ID>  (1715) 
pdb3oa6

>  <RESIDUE_NAME>  (1715) 
GLU   PHE

>  <FRAG_NAME>  (1715) 
ACET   MBZ

>  <FRAG_ATOM_NUM>  (1715) 
fragi: 7  fragj: 15

>  <atom.prop.CHAIN_ID>  (1715) 
A A A A A A A Z Z Z Z Z Z Z Z Z Z Z Z Z Z Z

>  <atom.prop.IS_HEAVY_ATOM>  (1715) 
1 0 0 0 1 1 1 1 0 0 0 1 1 0 1 0 1 0 1 0 1 0

>  <DIFUSE_FUNC_ATOM>  (1715) 
atom 6   atom 7   

>  <FINAL_SINGLE_POINT_ENERGY>  (1715) 
0

>  <NONCOV_INTER_ENERGY_QM>  (1715) 
0

>  <FF_Energy>  (1715) 
-2.52

>  <QM_Energy>  (1715) 
-8.17

>  <source>  (1715) 
ACET_MBZ_01

>  <Index>  (1715) 
35239

$$$$
ACET-pdb3oa6-B-GLU-15:MBZ-pdb3oa6-B-PHE-11
     RDKit          3D

 22 21  0  0  0  0  0  0  0  0999 V2000
   -5.1016    3.8866    1.1713 C   0  0  0  0  0  0  0  0  0  0  0  0
   -5.3565    3.2648    1.8892 H   0  0  0  0  0  0  0  0  0  0  0  0
   -5.8851    4.3048    0.7472 H   0  0  0  0  0  0  0  0  0  0  0  0
   -4.4808    4.6726    1.6012 H   0  0  0  0  0  0  0  0  0  0  0  0
   -4.3926    3.0513    0.0818 C   0  0  0  0  0  0  0  0  0  0  0  0
   -3.1949    3.3029   -0.2167 O   0  0  0  0  0  1  0  0  0  0  0  0
   -5.0333    2.1089   -0.4628 O   0  0  0  0  0  0  0  0  0  0  0  0
    0.0077    2.8603    0.0110 C   0  0  0  0  0  0  0  0  0  0  0  0
    0.8989    3.1684    0.3173 H   0  0  0  0  0  0  0  0  0  0  0  0
   -0.7053    3.1823    0.6201 H   0  0  0  0  0  0  0  0  0  0  0  0
   -0.1729    3.3091   -0.9658 H   0  0  0  0  0  0  0  0  0  0  0  0
   -0.0057    1.3815    0.0054 C   0  0  0  0  0  0  0  0  0  0  0  0
   -1.1777    0.6980    0.0115 C   0  0  0  0  0  0  0  0  0  0  0  0
   -2.0514    1.1789    0.0227 H   0  0  0  0  0  0  0  0  0  0  0  0
   -1.1692   -0.6802   -0.0000 C   0  0  0  0  0  0  0  0  0  0  0  0
   -2.0588   -1.1749   -0.0016 H   0  0  0  0  0  0  0  0  0  0  0  0
    0.0018   -1.3614   -0.0069 C   0  0  0  0  0  0  0  0  0  0  0  0
   -0.0119   -2.3752   -0.0178 H   0  0  0  0  0  0  0  0  0  0  0  0
    1.1692   -0.6957   -0.0000 C   0  0  0  0  0  0  0  0  0  0  0  0
    2.0602   -1.2068    0.0141 H   0  0  0  0  0  0  0  0  0  0  0  0
    1.1816    0.6579   -0.0099 C   0  0  0  0  0  0  0  0  0  0  0  0
    2.0530    1.1621   -0.0296 H   0  0  0  0  0  0  0  0  0  0  0  0
  1  5  1  0
  5  6  1  0
  5  7  2  0
  1  2  1  0
  1  3  1  0
  1  4  1  0
  8 12  1  0
 12 13  2  0
 13 15  1  0
 15 17  2  0
 17 19  1  0
 19 21  2  0
 21 12  1  0
  8  9  1  0
  8 10  1  0
  8 11  1  0
 13 14  1  0
 15 16  1  0
 17 18  1  0
 19 20  1  0
 21 22  1  0
M  CHG  1   6  -1
M  END
>  <PDB_ID>  (1716) 
pdb3oa6

>  <RESIDUE_NAME>  (1716) 
GLU   PHE

>  <FRAG_NAME>  (1716) 
ACET   MBZ

>  <FRAG_ATOM_NUM>  (1716) 
fragi: 7  fragj: 15

>  <atom.prop.CHAIN_ID>  (1716) 
A A A A A A A Z Z Z Z Z Z Z Z Z Z Z Z Z Z Z

>  <atom.prop.IS_HEAVY_ATOM>  (1716) 
1 0 0 0 1 1 1 1 0 0 0 1 1 0 1 0 1 0 1 0 1 0

>  <DIFUSE_FUNC_ATOM>  (1716) 
atom 6   atom 7   

>  <FINAL_SINGLE_POINT_ENERGY>  (1716) 
0

>  <NONCOV_INTER_ENERGY_QM>  (1716) 
0

>  <FF_Energy>  (1716) 
-2.1

>  <QM_Energy>  (1716) 
-8.26

>  <source>  (1716) 
ACET_MBZ_01

>  <Index>  (1716) 
35241

$$$$
ACET-pdb3nv9-B-ASP-193:MBZ-pdb3nv9-B-PHE-363
     RDKit          3D

 22 21  0  0  0  0  0  0  0  0999 V2000
    3.4982    2.9658   -4.1637 C   0  0  0  0  0  0  0  0  0  0  0  0
    2.7568    2.8535   -4.8183 H   0  0  0  0  0  0  0  0  0  0  0  0
    4.2916    2.4384   -4.4512 H   0  0  0  0  0  0  0  0  0  0  0  0
    3.7810    4.0184   -4.1582 H   0  0  0  0  0  0  0  0  0  0  0  0
    3.0298    2.4375   -2.8029 C   0  0  0  0  0  0  0  0  0  0  0  0
    3.1740    3.1079   -1.7419 O   0  0  0  0  0  1  0  0  0  0  0  0
    2.5746    1.2496   -2.8014 O   0  0  0  0  0  0  0  0  0  0  0  0
    0.0401    2.9692   -0.0435 C   0  0  0  0  0  0  0  0  0  0  0  0
   -0.5909    3.2533   -0.7548 H   0  0  0  0  0  0  0  0  0  0  0  0
    0.9685    3.2353   -0.2699 H   0  0  0  0  0  0  0  0  0  0  0  0
   -0.2394    3.4850    0.8752 H   0  0  0  0  0  0  0  0  0  0  0  0
    0.0062    1.4320    0.0097 C   0  0  0  0  0  0  0  0  0  0  0  0
   -1.2033    0.7202   -0.0117 C   0  0  0  0  0  0  0  0  0  0  0  0
   -2.0667    1.1992   -0.0369 H   0  0  0  0  0  0  0  0  0  0  0  0
   -1.2110   -0.7064   -0.0000 C   0  0  0  0  0  0  0  0  0  0  0  0
   -2.0937   -1.1821   -0.0096 H   0  0  0  0  0  0  0  0  0  0  0  0
   -0.0080   -1.4254    0.0258 C   0  0  0  0  0  0  0  0  0  0  0  0
   -0.0178   -2.4137    0.0616 H   0  0  0  0  0  0  0  0  0  0  0  0
    1.2110   -0.7236    0.0000 C   0  0  0  0  0  0  0  0  0  0  0  0
    2.0863   -1.2097   -0.0005 H   0  0  0  0  0  0  0  0  0  0  0  0
    1.2051    0.7033   -0.0237 C   0  0  0  0  0  0  0  0  0  0  0  0
    2.0774    1.1836   -0.0658 H   0  0  0  0  0  0  0  0  0  0  0  0
  1  5  1  0
  5  6  1  0
  5  7  2  0
  1  2  1  0
  1  3  1  0
  1  4  1  0
  8 12  1  0
 12 13  2  0
 13 15  1  0
 15 17  2  0
 17 19  1  0
 19 21  2  0
 21 12  1  0
  8  9  1  0
  8 10  1  0
  8 11  1  0
 13 14  1  0
 15 16  1  0
 17 18  1  0
 19 20  1  0
 21 22  1  0
M  CHG  1   6  -1
M  END
>  <PDB_ID>  (1717) 
pdb3nv9

>  <RESIDUE_NAME>  (1717) 
ASP   PHE

>  <FRAG_NAME>  (1717) 
ACET   MBZ

>  <FRAG_ATOM_NUM>  (1717) 
fragi: 7  fragj: 15

>  <atom.prop.CHAIN_ID>  (1717) 
A A A A A A A Z Z Z Z Z Z Z Z Z Z Z Z Z Z Z

>  <atom.prop.IS_HEAVY_ATOM>  (1717) 
1 0 0 0 1 1 1 1 0 0 0 1 1 0 1 0 1 0 1 0 1 0

>  <DIFUSE_FUNC_ATOM>  (1717) 
atom 6   atom 7   

>  <FINAL_SINGLE_POINT_ENERGY>  (1717) 
0

>  <NONCOV_INTER_ENERGY_QM>  (1717) 
0

>  <FF_Energy>  (1717) 
-0.66

>  <QM_Energy>  (1717) 
-6.78

>  <source>  (1717) 
ACET_MBZ_01

>  <Index>  (1717) 
35263

$$$$
ACET-pdb4m1b-A-ASP-64:MBZ-pdb4m1b-A-PHE-90
     RDKit          3D

 22 21  0  0  0  0  0  0  0  0999 V2000
    3.0391    5.6808    2.5983 C   0  0  0  0  0  0  0  0  0  0  0  0
    3.8857    5.8775    3.0781 H   0  0  0  0  0  0  0  0  0  0  0  0
    2.3463    6.3556    2.8209 H   0  0  0  0  0  0  0  0  0  0  0  0
    3.2371    5.7420    1.5281 H   0  0  0  0  0  0  0  0  0  0  0  0
    2.5383    4.3044    3.0369 C   0  0  0  0  0  0  0  0  0  0  0  0
    2.5371    3.3666    2.2002 O   0  0  0  0  0  1  0  0  0  0  0  0
    2.1613    4.1661    4.2302 O   0  0  0  0  0  0  0  0  0  0  0  0
   -0.0071    2.9119    0.0109 C   0  0  0  0  0  0  0  0  0  0  0  0
    0.8125    3.2168    0.4701 H   0  0  0  0  0  0  0  0  0  0  0  0
   -0.8200    3.2124    0.4836 H   0  0  0  0  0  0  0  0  0  0  0  0
   -0.0168    3.3511   -0.9867 H   0  0  0  0  0  0  0  0  0  0  0  0
   -0.0028    1.4056    0.0072 C   0  0  0  0  0  0  0  0  0  0  0  0
   -1.1998    0.6936   -0.0015 C   0  0  0  0  0  0  0  0  0  0  0  0
   -2.0672    1.1817   -0.0104 H   0  0  0  0  0  0  0  0  0  0  0  0
   -1.2072   -0.7042    0.0000 C   0  0  0  0  0  0  0  0  0  0  0  0
   -2.0783   -1.1979    0.0046 H   0  0  0  0  0  0  0  0  0  0  0  0
    0.0069   -1.4025   -0.0032 C   0  0  0  0  0  0  0  0  0  0  0  0
    0.0058   -2.3961   -0.0087 H   0  0  0  0  0  0  0  0  0  0  0  0
    1.2072   -0.6940    0.0000 C   0  0  0  0  0  0  0  0  0  0  0  0
    2.0910   -1.1862    0.0054 H   0  0  0  0  0  0  0  0  0  0  0  0
    1.1957    0.7015   -0.0025 C   0  0  0  0  0  0  0  0  0  0  0  0
    2.0628    1.1990   -0.0119 H   0  0  0  0  0  0  0  0  0  0  0  0
  1  5  1  0
  5  6  1  0
  5  7  2  0
  1  2  1  0
  1  3  1  0
  1  4  1  0
  8 12  1  0
 12 13  2  0
 13 15  1  0
 15 17  2  0
 17 19  1  0
 19 21  2  0
 21 12  1  0
  8  9  1  0
  8 10  1  0
  8 11  1  0
 13 14  1  0
 15 16  1  0
 17 18  1  0
 19 20  1  0
 21 22  1  0
M  CHG  1   6  -1
M  END
>  <PDB_ID>  (1718) 
pdb4m1b

>  <RESIDUE_NAME>  (1718) 
ASP   PHE

>  <FRAG_NAME>  (1718) 
ACET   MBZ

>  <FRAG_ATOM_NUM>  (1718) 
fragi: 7  fragj: 15

>  <atom.prop.CHAIN_ID>  (1718) 
A A A A A A A Z Z Z Z Z Z Z Z Z Z Z Z Z Z Z

>  <atom.prop.IS_HEAVY_ATOM>  (1718) 
1 0 0 0 1 1 1 1 0 0 0 1 1 0 1 0 1 0 1 0 1 0

>  <DIFUSE_FUNC_ATOM>  (1718) 
atom 6   atom 7   

>  <FINAL_SINGLE_POINT_ENERGY>  (1718) 
0

>  <NONCOV_INTER_ENERGY_QM>  (1718) 
0

>  <FF_Energy>  (1718) 
-0.38

>  <QM_Energy>  (1718) 
-5.48

>  <source>  (1718) 
ACET_MBZ_01

>  <Index>  (1718) 
35364

$$$$
ACET-pdb3od9-B-ASP-65:MBZ-pdb3od9-B-PHE-62
     RDKit          3D

 22 21  0  0  0  0  0  0  0  0999 V2000
   -1.2172    4.9257    2.9086 C   0  0  0  0  0  0  0  0  0  0  0  0
   -0.5108    4.9722    2.2095 H   0  0  0  0  0  0  0  0  0  0  0  0
   -0.8058    4.7926    3.8051 H   0  0  0  0  0  0  0  0  0  0  0  0
   -1.7384    5.8830    2.9197 H   0  0  0  0  0  0  0  0  0  0  0  0
   -2.1288    3.7603    2.6085 C   0  0  0  0  0  0  0  0  0  0  0  0
   -3.1169    3.9411    1.8719 O   0  0  0  0  0  1  0  0  0  0  0  0
   -1.8352    2.6470    3.0973 O   0  0  0  0  0  0  0  0  0  0  0  0
   -0.0020    2.9016    0.0056 C   0  0  0  0  0  0  0  0  0  0  0  0
    0.8019    3.2059    0.4953 H   0  0  0  0  0  0  0  0  0  0  0  0
   -0.8302    3.2053    0.4532 H   0  0  0  0  0  0  0  0  0  0  0  0
    0.0237    3.3528   -0.9864 H   0  0  0  0  0  0  0  0  0  0  0  0
   -0.0013    1.3962   -0.0014 C   0  0  0  0  0  0  0  0  0  0  0  0
   -1.1902    0.6913    0.0003 C   0  0  0  0  0  0  0  0  0  0  0  0
   -2.0602    1.1805    0.0006 H   0  0  0  0  0  0  0  0  0  0  0  0
   -1.1931   -0.6942    0.0000 C   0  0  0  0  0  0  0  0  0  0  0  0
   -2.0723   -1.1885    0.0019 H   0  0  0  0  0  0  0  0  0  0  0  0
    0.0007   -1.3863   -0.0011 C   0  0  0  0  0  0  0  0  0  0  0  0
   -0.0040   -2.3878   -0.0030 H   0  0  0  0  0  0  0  0  0  0  0  0
    1.1931   -0.6948   -0.0000 C   0  0  0  0  0  0  0  0  0  0  0  0
    2.0778   -1.1941    0.0007 H   0  0  0  0  0  0  0  0  0  0  0  0
    1.1908    0.6878    0.0022 C   0  0  0  0  0  0  0  0  0  0  0  0
    2.0603    1.1858    0.0055 H   0  0  0  0  0  0  0  0  0  0  0  0
  1  5  1  0
  5  6  1  0
  5  7  2  0
  1  2  1  0
  1  3  1  0
  1  4  1  0
  8 12  1  0
 12 13  2  0
 13 15  1  0
 15 17  2  0
 17 19  1  0
 19 21  2  0
 21 12  1  0
  8  9  1  0
  8 10  1  0
  8 11  1  0
 13 14  1  0
 15 16  1  0
 17 18  1  0
 19 20  1  0
 21 22  1  0
M  CHG  1   6  -1
M  END
>  <PDB_ID>  (1719) 
pdb3od9

>  <RESIDUE_NAME>  (1719) 
ASP   PHE

>  <FRAG_NAME>  (1719) 
ACET   MBZ

>  <FRAG_ATOM_NUM>  (1719) 
fragi: 7  fragj: 15

>  <atom.prop.CHAIN_ID>  (1719) 
A A A A A A A Z Z Z Z Z Z Z Z Z Z Z Z Z Z Z

>  <atom.prop.IS_HEAVY_ATOM>  (1719) 
1 0 0 0 1 1 1 1 0 0 0 1 1 0 1 0 1 0 1 0 1 0

>  <DIFUSE_FUNC_ATOM>  (1719) 
atom 6   atom 7   

>  <FINAL_SINGLE_POINT_ENERGY>  (1719) 
0

>  <NONCOV_INTER_ENERGY_QM>  (1719) 
0

>  <FF_Energy>  (1719) 
-0.03

>  <QM_Energy>  (1719) 
-5.4

>  <source>  (1719) 
ACET_MBZ_01

>  <Index>  (1719) 
35576

$$$$
ACET-pdb3obi-C-ASP-14:MBZ-pdb3obi-C-PHE-47
     RDKit          3D

 22 21  0  0  0  0  0  0  0  0999 V2000
   -3.3492    4.8401   -2.4248 C   0  0  0  0  0  0  0  0  0  0  0  0
   -3.3745    5.0134   -1.4550 H   0  0  0  0  0  0  0  0  0  0  0  0
   -4.0669    5.3170   -2.9018 H   0  0  0  0  0  0  0  0  0  0  0  0
   -2.3905    5.1879   -2.8096 H   0  0  0  0  0  0  0  0  0  0  0  0
   -3.5562    3.3113   -2.6468 C   0  0  0  0  0  0  0  0  0  0  0  0
   -2.6406    2.5430   -2.2478 O   0  0  0  0  0  1  0  0  0  0  0  0
   -4.6155    2.8732   -3.2042 O   0  0  0  0  0  0  0  0  0  0  0  0
   -0.0068    2.8916    0.0274 C   0  0  0  0  0  0  0  0  0  0  0  0
   -0.6803    3.2032   -0.6223 H   0  0  0  0  0  0  0  0  0  0  0  0
    0.8975    3.2095   -0.2020 H   0  0  0  0  0  0  0  0  0  0  0  0
   -0.2677    3.3031    1.0025 H   0  0  0  0  0  0  0  0  0  0  0  0
    0.0054    1.3917    0.0039 C   0  0  0  0  0  0  0  0  0  0  0  0
   -1.1935    0.6790   -0.0022 C   0  0  0  0  0  0  0  0  0  0  0  0
   -2.0581    1.1770   -0.0094 H   0  0  0  0  0  0  0  0  0  0  0  0
   -1.1952   -0.6960   -0.0000 C   0  0  0  0  0  0  0  0  0  0  0  0
   -2.0758   -1.1931    0.0073 H   0  0  0  0  0  0  0  0  0  0  0  0
   -0.0076   -1.3792   -0.0055 C   0  0  0  0  0  0  0  0  0  0  0  0
   -0.0018   -2.3830   -0.0141 H   0  0  0  0  0  0  0  0  0  0  0  0
    1.1952   -0.6854   -0.0000 C   0  0  0  0  0  0  0  0  0  0  0  0
    2.0735   -1.1936    0.0024 H   0  0  0  0  0  0  0  0  0  0  0  0
    1.1958    0.6900    0.0038 C   0  0  0  0  0  0  0  0  0  0  0  0
    2.0647    1.1889    0.0062 H   0  0  0  0  0  0  0  0  0  0  0  0
  1  5  1  0
  5  6  1  0
  5  7  2  0
  1  2  1  0
  1  3  1  0
  1  4  1  0
  8 12  1  0
 12 13  2  0
 13 15  1  0
 15 17  2  0
 17 19  1  0
 19 21  2  0
 21 12  1  0
  8  9  1  0
  8 10  1  0
  8 11  1  0
 13 14  1  0
 15 16  1  0
 17 18  1  0
 19 20  1  0
 21 22  1  0
M  CHG  1   6  -1
M  END
>  <PDB_ID>  (1720) 
pdb3obi

>  <RESIDUE_NAME>  (1720) 
ASP   PHE

>  <FRAG_NAME>  (1720) 
ACET   MBZ

>  <FRAG_ATOM_NUM>  (1720) 
fragi: 7  fragj: 15

>  <atom.prop.CHAIN_ID>  (1720) 
A A A A A A A Z Z Z Z Z Z Z Z Z Z Z Z Z Z Z

>  <atom.prop.IS_HEAVY_ATOM>  (1720) 
1 0 0 0 1 1 1 1 0 0 0 1 1 0 1 0 1 0 1 0 1 0

>  <DIFUSE_FUNC_ATOM>  (1720) 
atom 6   atom 7   

>  <FINAL_SINGLE_POINT_ENERGY>  (1720) 
0

>  <NONCOV_INTER_ENERGY_QM>  (1720) 
0

>  <FF_Energy>  (1720) 
-0.58

>  <QM_Energy>  (1720) 
-5.84

>  <source>  (1720) 
ACET_MBZ_01

>  <Index>  (1720) 
35618

$$$$
ACET-pdb3og4-B-GLU-52:MBZ-pdb3og4-B-PHE-38
     RDKit          3D

 22 21  0  0  0  0  0  0  0  0999 V2000
   -5.3221    2.8633   -1.1832 C   0  0  0  0  0  0  0  0  0  0  0  0
   -5.1629    2.8351   -2.1503 H   0  0  0  0  0  0  0  0  0  0  0  0
   -4.6495    3.3923   -0.7040 H   0  0  0  0  0  0  0  0  0  0  0  0
   -6.3042    3.3010   -1.0041 H   0  0  0  0  0  0  0  0  0  0  0  0
   -5.2285    1.4344   -0.6659 C   0  0  0  0  0  0  0  0  0  0  0  0
   -6.1024    0.6081   -1.0217 O   0  0  0  0  0  1  0  0  0  0  0  0
   -4.2779    1.1410    0.0937 O   0  0  0  0  0  0  0  0  0  0  0  0
    0.0023    2.8961   -0.0077 C   0  0  0  0  0  0  0  0  0  0  0  0
    0.5406    3.2083    0.7592 H   0  0  0  0  0  0  0  0  0  0  0  0
   -0.9334    3.2055    0.0577 H   0  0  0  0  0  0  0  0  0  0  0  0
    0.4322    3.3252   -0.9127 H   0  0  0  0  0  0  0  0  0  0  0  0
   -0.0002    1.3967    0.0027 C   0  0  0  0  0  0  0  0  0  0  0  0
   -1.1906    0.6922   -0.0038 C   0  0  0  0  0  0  0  0  0  0  0  0
   -2.0597    1.1817   -0.0127 H   0  0  0  0  0  0  0  0  0  0  0  0
   -1.1946   -0.6940   -0.0000 C   0  0  0  0  0  0  0  0  0  0  0  0
   -2.0728   -1.1884    0.0045 H   0  0  0  0  0  0  0  0  0  0  0  0
    0.0020   -1.3875   -0.0000 C   0  0  0  0  0  0  0  0  0  0  0  0
   -0.0044   -2.3889   -0.0003 H   0  0  0  0  0  0  0  0  0  0  0  0
    1.1946   -0.6972   -0.0000 C   0  0  0  0  0  0  0  0  0  0  0  0
    2.0790   -1.1925    0.0006 H   0  0  0  0  0  0  0  0  0  0  0  0
    1.1888    0.6897    0.0012 C   0  0  0  0  0  0  0  0  0  0  0  0
    2.0607    1.1860   -0.0001 H   0  0  0  0  0  0  0  0  0  0  0  0
  1  5  1  0
  5  6  1  0
  5  7  2  0
  1  2  1  0
  1  3  1  0
  1  4  1  0
  8 12  1  0
 12 13  2  0
 13 15  1  0
 15 17  2  0
 17 19  1  0
 19 21  2  0
 21 12  1  0
  8  9  1  0
  8 10  1  0
  8 11  1  0
 13 14  1  0
 15 16  1  0
 17 18  1  0
 19 20  1  0
 21 22  1  0
M  CHG  1   6  -1
M  END
>  <PDB_ID>  (1721) 
pdb3og4

>  <RESIDUE_NAME>  (1721) 
GLU   PHE

>  <FRAG_NAME>  (1721) 
ACET   MBZ

>  <FRAG_ATOM_NUM>  (1721) 
fragi: 7  fragj: 15

>  <atom.prop.CHAIN_ID>  (1721) 
A A A A A A A Z Z Z Z Z Z Z Z Z Z Z Z Z Z Z

>  <atom.prop.IS_HEAVY_ATOM>  (1721) 
1 0 0 0 1 1 1 1 0 0 0 1 1 0 1 0 1 0 1 0 1 0

>  <DIFUSE_FUNC_ATOM>  (1721) 
atom 6   atom 7   

>  <FINAL_SINGLE_POINT_ENERGY>  (1721) 
0

>  <NONCOV_INTER_ENERGY_QM>  (1721) 
0

>  <FF_Energy>  (1721) 
-1.06

>  <QM_Energy>  (1721) 
-6.8

>  <source>  (1721) 
ACET_MBZ_01

>  <Index>  (1721) 
35626

$$$$
ACET-pdb4m7r-B-GLU-163:MBZ-pdb4m7r-B-PHE-180
     RDKit          3D

 22 21  0  0  0  0  0  0  0  0999 V2000
    3.2164   -4.3858   -0.4813 C   0  0  0  0  0  0  0  0  0  0  0  0
    2.4677   -4.7907    0.0119 H   0  0  0  0  0  0  0  0  0  0  0  0
    4.0227   -4.9480   -0.4604 H   0  0  0  0  0  0  0  0  0  0  0  0
    2.9114   -4.2676   -1.5211 H   0  0  0  0  0  0  0  0  0  0  0  0
    3.5603   -3.0658    0.2083 C   0  0  0  0  0  0  0  0  0  0  0  0
    4.0718   -2.1388   -0.4683 O   0  0  0  0  0  1  0  0  0  0  0  0
    3.3195   -2.9603    1.4357 O   0  0  0  0  0  0  0  0  0  0  0  0
    0.0216    2.8949    0.0184 C   0  0  0  0  0  0  0  0  0  0  0  0
    0.9586    3.1914   -0.1088 H   0  0  0  0  0  0  0  0  0  0  0  0
   -0.3326    3.2023    0.8908 H   0  0  0  0  0  0  0  0  0  0  0  0
   -0.5812    3.3544   -0.7650 H   0  0  0  0  0  0  0  0  0  0  0  0
    0.0020    1.3949    0.0099 C   0  0  0  0  0  0  0  0  0  0  0  0
   -1.1932    0.6967    0.0033 C   0  0  0  0  0  0  0  0  0  0  0  0
   -2.0582    1.1859   -0.0003 H   0  0  0  0  0  0  0  0  0  0  0  0
   -1.1946   -0.6923   -0.0000 C   0  0  0  0  0  0  0  0  0  0  0  0
   -2.0746   -1.1858    0.0078 H   0  0  0  0  0  0  0  0  0  0  0  0
    0.0005   -1.3881   -0.0121 C   0  0  0  0  0  0  0  0  0  0  0  0
   -0.0053   -2.3886   -0.0299 H   0  0  0  0  0  0  0  0  0  0  0  0
    1.1946   -0.6955    0.0000 C   0  0  0  0  0  0  0  0  0  0  0  0
    2.0777   -1.1967    0.0112 H   0  0  0  0  0  0  0  0  0  0  0  0
    1.1907    0.6842   -0.0011 C   0  0  0  0  0  0  0  0  0  0  0  0
    2.0625    1.1830   -0.0110 H   0  0  0  0  0  0  0  0  0  0  0  0
  1  5  1  0
  5  6  1  0
  5  7  2  0
  1  2  1  0
  1  3  1  0
  1  4  1  0
  8 12  1  0
 12 13  2  0
 13 15  1  0
 15 17  2  0
 17 19  1  0
 19 21  2  0
 21 12  1  0
  8  9  1  0
  8 10  1  0
  8 11  1  0
 13 14  1  0
 15 16  1  0
 17 18  1  0
 19 20  1  0
 21 22  1  0
M  CHG  1   6  -1
M  END
>  <PDB_ID>  (1722) 
pdb4m7r

>  <RESIDUE_NAME>  (1722) 
GLU   PHE

>  <FRAG_NAME>  (1722) 
ACET   MBZ

>  <FRAG_ATOM_NUM>  (1722) 
fragi: 7  fragj: 15

>  <atom.prop.CHAIN_ID>  (1722) 
A A A A A A A Z Z Z Z Z Z Z Z Z Z Z Z Z Z Z

>  <atom.prop.IS_HEAVY_ATOM>  (1722) 
1 0 0 0 1 1 1 1 0 0 0 1 1 0 1 0 1 0 1 0 1 0

>  <DIFUSE_FUNC_ATOM>  (1722) 
atom 6   atom 7   

>  <FINAL_SINGLE_POINT_ENERGY>  (1722) 
0

>  <NONCOV_INTER_ENERGY_QM>  (1722) 
0

>  <FF_Energy>  (1722) 
0.35

>  <QM_Energy>  (1722) 
-6.06

>  <source>  (1722) 
ACET_MBZ_01

>  <Index>  (1722) 
35635

$$$$
ACET-pdb3og9-A-GLU-194:MBZ-pdb3og9-A-PHE-130
     RDKit          3D

 22 21  0  0  0  0  0  0  0  0999 V2000
   -3.4821    0.6244    2.9350 C   0  0  0  0  0  0  0  0  0  0  0  0
   -3.4447    0.4840    3.8940 H   0  0  0  0  0  0  0  0  0  0  0  0
   -2.7313    0.2542    2.4438 H   0  0  0  0  0  0  0  0  0  0  0  0
   -4.4055    0.1914    2.5505 H   0  0  0  0  0  0  0  0  0  0  0  0
   -3.4708    2.1465    2.6986 C   0  0  0  0  0  0  0  0  0  0  0  0
   -3.8577    2.9016    3.5992 O   0  0  0  0  0  1  0  0  0  0  0  0
   -3.1345    2.5747    1.5778 O   0  0  0  0  0  0  0  0  0  0  0  0
   -0.0009    2.9484    0.0084 C   0  0  0  0  0  0  0  0  0  0  0  0
    0.9329    3.2395    0.1548 H   0  0  0  0  0  0  0  0  0  0  0  0
   -0.5884    3.2400    0.7485 H   0  0  0  0  0  0  0  0  0  0  0  0
   -0.3609    3.4047   -0.9137 H   0  0  0  0  0  0  0  0  0  0  0  0
   -0.0070    1.4279   -0.0074 C   0  0  0  0  0  0  0  0  0  0  0  0
   -1.2051    0.7140    0.0050 C   0  0  0  0  0  0  0  0  0  0  0  0
   -2.0746    1.1820    0.0160 H   0  0  0  0  0  0  0  0  0  0  0  0
   -1.2022   -0.7157    0.0000 C   0  0  0  0  0  0  0  0  0  0  0  0
   -2.0745   -1.1999   -0.0019 H   0  0  0  0  0  0  0  0  0  0  0  0
    0.0152   -1.4165    0.0002 C   0  0  0  0  0  0  0  0  0  0  0  0
    0.0031   -2.4126    0.0001 H   0  0  0  0  0  0  0  0  0  0  0  0
    1.2022   -0.7174   -0.0000 C   0  0  0  0  0  0  0  0  0  0  0  0
    2.0939   -1.1926    0.0000 H   0  0  0  0  0  0  0  0  0  0  0  0
    1.1969    0.7078    0.0022 C   0  0  0  0  0  0  0  0  0  0  0  0
    2.0665    1.1909    0.0102 H   0  0  0  0  0  0  0  0  0  0  0  0
  1  5  1  0
  5  6  1  0
  5  7  2  0
  1  2  1  0
  1  3  1  0
  1  4  1  0
  8 12  1  0
 12 13  2  0
 13 15  1  0
 15 17  2  0
 17 19  1  0
 19 21  2  0
 21 12  1  0
  8  9  1  0
  8 10  1  0
  8 11  1  0
 13 14  1  0
 15 16  1  0
 17 18  1  0
 19 20  1  0
 21 22  1  0
M  CHG  1   6  -1
M  END
>  <PDB_ID>  (1723) 
pdb3og9

>  <RESIDUE_NAME>  (1723) 
GLU   PHE

>  <FRAG_NAME>  (1723) 
ACET   MBZ

>  <FRAG_ATOM_NUM>  (1723) 
fragi: 7  fragj: 15

>  <atom.prop.CHAIN_ID>  (1723) 
A A A A A A A Z Z Z Z Z Z Z Z Z Z Z Z Z Z Z

>  <atom.prop.IS_HEAVY_ATOM>  (1723) 
1 0 0 0 1 1 1 1 0 0 0 1 1 0 1 0 1 0 1 0 1 0

>  <DIFUSE_FUNC_ATOM>  (1723) 
atom 6   atom 7   

>  <FINAL_SINGLE_POINT_ENERGY>  (1723) 
0

>  <NONCOV_INTER_ENERGY_QM>  (1723) 
0

>  <FF_Energy>  (1723) 
-1.23

>  <QM_Energy>  (1723) 
-7.27

>  <source>  (1723) 
ACET_MBZ_01

>  <Index>  (1723) 
35640

$$$$
ACET-pdb3ogz-A-GLU-482:MBZ-pdb3ogz-A-PHE-495
     RDKit          3D

 22 21  0  0  0  0  0  0  0  0999 V2000
    5.4590    3.3509    0.7185 C   0  0  0  0  0  0  0  0  0  0  0  0
    5.5977    3.4819    1.6817 H   0  0  0  0  0  0  0  0  0  0  0  0
    5.6960    4.1473    0.1941 H   0  0  0  0  0  0  0  0  0  0  0  0
    6.0912    2.5250    0.3924 H   0  0  0  0  0  0  0  0  0  0  0  0
    3.9916    3.0742    0.4966 C   0  0  0  0  0  0  0  0  0  0  0  0
    3.5960    2.8621   -0.6720 O   0  0  0  0  0  1  0  0  0  0  0  0
    3.2369    3.0604    1.4909 O   0  0  0  0  0  0  0  0  0  0  0  0
    0.0030    2.9070   -0.0075 C   0  0  0  0  0  0  0  0  0  0  0  0
    0.8405    3.2123    0.4151 H   0  0  0  0  0  0  0  0  0  0  0  0
   -0.7905    3.2147    0.4925 H   0  0  0  0  0  0  0  0  0  0  0  0
   -0.0443    3.3391   -1.0071 H   0  0  0  0  0  0  0  0  0  0  0  0
    0.0010    1.3999   -0.0010 C   0  0  0  0  0  0  0  0  0  0  0  0
   -1.1940    0.6926   -0.0045 C   0  0  0  0  0  0  0  0  0  0  0  0
   -2.0610    1.1836   -0.0113 H   0  0  0  0  0  0  0  0  0  0  0  0
   -1.1963   -0.6930    0.0000 C   0  0  0  0  0  0  0  0  0  0  0  0
   -2.0752   -1.1894    0.0004 H   0  0  0  0  0  0  0  0  0  0  0  0
    0.0019   -1.3925    0.0060 C   0  0  0  0  0  0  0  0  0  0  0  0
   -0.0065   -2.3912    0.0137 H   0  0  0  0  0  0  0  0  0  0  0  0
    1.1963   -0.6993    0.0000 C   0  0  0  0  0  0  0  0  0  0  0  0
    2.0809   -1.1933   -0.0028 H   0  0  0  0  0  0  0  0  0  0  0  0
    1.1911    0.6923   -0.0004 C   0  0  0  0  0  0  0  0  0  0  0  0
    2.0627    1.1860   -0.0013 H   0  0  0  0  0  0  0  0  0  0  0  0
  1  5  1  0
  5  6  1  0
  5  7  2  0
  1  2  1  0
  1  3  1  0
  1  4  1  0
  8 12  1  0
 12 13  2  0
 13 15  1  0
 15 17  2  0
 17 19  1  0
 19 21  2  0
 21 12  1  0
  8  9  1  0
  8 10  1  0
  8 11  1  0
 13 14  1  0
 15 16  1  0
 17 18  1  0
 19 20  1  0
 21 22  1  0
M  CHG  1   6  -1
M  END
>  <PDB_ID>  (1724) 
pdb3ogz

>  <RESIDUE_NAME>  (1724) 
GLU   PHE

>  <FRAG_NAME>  (1724) 
ACET   MBZ

>  <FRAG_ATOM_NUM>  (1724) 
fragi: 7  fragj: 15

>  <atom.prop.CHAIN_ID>  (1724) 
A A A A A A A Z Z Z Z Z Z Z Z Z Z Z Z Z Z Z

>  <atom.prop.IS_HEAVY_ATOM>  (1724) 
1 0 0 0 1 1 1 1 0 0 0 1 1 0 1 0 1 0 1 0 1 0

>  <DIFUSE_FUNC_ATOM>  (1724) 
atom 6   atom 7   

>  <FINAL_SINGLE_POINT_ENERGY>  (1724) 
0

>  <NONCOV_INTER_ENERGY_QM>  (1724) 
0

>  <FF_Energy>  (1724) 
-1.88

>  <QM_Energy>  (1724) 
-9.64

>  <source>  (1724) 
ACET_MBZ_01

>  <Index>  (1724) 
35664

$$$$
ACET-pdb3okr-A-ASP-221:MBZ-pdb3okr-A-PHE-214
     RDKit          3D

 22 21  0  0  0  0  0  0  0  0999 V2000
    4.5657   -1.7297    0.0400 C   0  0  0  0  0  0  0  0  0  0  0  0
    5.1596   -2.2228   -0.5865 H   0  0  0  0  0  0  0  0  0  0  0  0
    3.7058   -1.5034   -0.4050 H   0  0  0  0  0  0  0  0  0  0  0  0
    4.3465   -2.3857    0.8825 H   0  0  0  0  0  0  0  0  0  0  0  0
    5.2573   -0.4374    0.4510 C   0  0  0  0  0  0  0  0  0  0  0  0
    5.0529    0.0327    1.6001 O   0  0  0  0  0  1  0  0  0  0  0  0
    6.0144    0.1018   -0.3912 O   0  0  0  0  0  0  0  0  0  0  0  0
   -0.0002    2.9189   -0.0185 C   0  0  0  0  0  0  0  0  0  0  0  0
    0.9133    3.2268    0.1829 H   0  0  0  0  0  0  0  0  0  0  0  0
   -0.6504    3.2303    0.6533 H   0  0  0  0  0  0  0  0  0  0  0  0
   -0.2885    3.3435   -0.9800 H   0  0  0  0  0  0  0  0  0  0  0  0
    0.0027    1.4027    0.0009 C   0  0  0  0  0  0  0  0  0  0  0  0
   -1.1902    0.6959   -0.0004 C   0  0  0  0  0  0  0  0  0  0  0  0
   -2.0598    1.1829   -0.0027 H   0  0  0  0  0  0  0  0  0  0  0  0
   -1.1991   -0.7032   -0.0000 C   0  0  0  0  0  0  0  0  0  0  0  0
   -2.0826   -1.1861    0.0034 H   0  0  0  0  0  0  0  0  0  0  0  0
   -0.0107   -1.3971   -0.0028 C   0  0  0  0  0  0  0  0  0  0  0  0
   -0.0047   -2.3942   -0.0078 H   0  0  0  0  0  0  0  0  0  0  0  0
    1.1991   -0.6943    0.0000 C   0  0  0  0  0  0  0  0  0  0  0  0
    2.0769   -1.1971    0.0025 H   0  0  0  0  0  0  0  0  0  0  0  0
    1.1982    0.6960    0.0023 C   0  0  0  0  0  0  0  0  0  0  0  0
    2.0669    1.1904    0.0042 H   0  0  0  0  0  0  0  0  0  0  0  0
  1  5  1  0
  5  6  1  0
  5  7  2  0
  1  2  1  0
  1  3  1  0
  1  4  1  0
  8 12  1  0
 12 13  2  0
 13 15  1  0
 15 17  2  0
 17 19  1  0
 19 21  2  0
 21 12  1  0
  8  9  1  0
  8 10  1  0
  8 11  1  0
 13 14  1  0
 15 16  1  0
 17 18  1  0
 19 20  1  0
 21 22  1  0
M  CHG  1   6  -1
M  END
>  <PDB_ID>  (1725) 
pdb3okr

>  <RESIDUE_NAME>  (1725) 
ASP   PHE

>  <FRAG_NAME>  (1725) 
ACET   MBZ

>  <FRAG_ATOM_NUM>  (1725) 
fragi: 7  fragj: 15

>  <atom.prop.CHAIN_ID>  (1725) 
A A A A A A A Z Z Z Z Z Z Z Z Z Z Z Z Z Z Z

>  <atom.prop.IS_HEAVY_ATOM>  (1725) 
1 0 0 0 1 1 1 1 0 0 0 1 1 0 1 0 1 0 1 0 1 0

>  <DIFUSE_FUNC_ATOM>  (1725) 
atom 6   atom 7   

>  <FINAL_SINGLE_POINT_ENERGY>  (1725) 
0

>  <NONCOV_INTER_ENERGY_QM>  (1725) 
0

>  <FF_Energy>  (1725) 
5.11

>  <QM_Energy>  (1725) 
-1.53

>  <source>  (1725) 
ACET_MBZ_01

>  <Index>  (1725) 
35821

$$$$
ACET-pdb4m23-C-ASP-255:MBZ-pdb4m23-C-PHE-258
     RDKit          3D

 22 21  0  0  0  0  0  0  0  0999 V2000
    4.1845    4.4525    1.0535 C   0  0  0  0  0  0  0  0  0  0  0  0
    4.6698    4.5904    1.9046 H   0  0  0  0  0  0  0  0  0  0  0  0
    3.2783    4.8467    1.0896 H   0  0  0  0  0  0  0  0  0  0  0  0
    4.7423    4.9449    0.2570 H   0  0  0  0  0  0  0  0  0  0  0  0
    4.0423    2.9362    0.8198 C   0  0  0  0  0  0  0  0  0  0  0  0
    4.2382    2.4687   -0.3110 O   0  0  0  0  0  1  0  0  0  0  0  0
    3.7413    2.2263    1.7832 O   0  0  0  0  0  0  0  0  0  0  0  0
   -0.0017    2.9015   -0.0315 C   0  0  0  0  0  0  0  0  0  0  0  0
    0.8720    3.2174    0.2889 H   0  0  0  0  0  0  0  0  0  0  0  0
   -0.7423    3.2224    0.5299 H   0  0  0  0  0  0  0  0  0  0  0  0
   -0.1505    3.2959   -1.0367 H   0  0  0  0  0  0  0  0  0  0  0  0
   -0.0008    1.3995    0.0051 C   0  0  0  0  0  0  0  0  0  0  0  0
   -1.2058    0.6902   -0.0061 C   0  0  0  0  0  0  0  0  0  0  0  0
   -2.0670    1.1920   -0.0194 H   0  0  0  0  0  0  0  0  0  0  0  0
   -1.2139   -0.6862   -0.0000 C   0  0  0  0  0  0  0  0  0  0  0  0
   -2.0859   -1.1884   -0.0060 H   0  0  0  0  0  0  0  0  0  0  0  0
   -0.0053   -1.3891    0.0164 C   0  0  0  0  0  0  0  0  0  0  0  0
   -0.0172   -2.3888    0.0397 H   0  0  0  0  0  0  0  0  0  0  0  0
    1.2139   -0.7048   -0.0000 C   0  0  0  0  0  0  0  0  0  0  0  0
    2.0834   -1.2080    0.0004 H   0  0  0  0  0  0  0  0  0  0  0  0
    1.2119    0.6903   -0.0154 C   0  0  0  0  0  0  0  0  0  0  0  0
    2.0715    1.1894   -0.0415 H   0  0  0  0  0  0  0  0  0  0  0  0
  1  5  1  0
  5  6  1  0
  5  7  2  0
  1  2  1  0
  1  3  1  0
  1  4  1  0
  8 12  1  0
 12 13  2  0
 13 15  1  0
 15 17  2  0
 17 19  1  0
 19 21  2  0
 21 12  1  0
  8  9  1  0
  8 10  1  0
  8 11  1  0
 13 14  1  0
 15 16  1  0
 17 18  1  0
 19 20  1  0
 21 22  1  0
M  CHG  1   6  -1
M  END
>  <PDB_ID>  (1726) 
pdb4m23

>  <RESIDUE_NAME>  (1726) 
ASP   PHE

>  <FRAG_NAME>  (1726) 
ACET   MBZ

>  <FRAG_ATOM_NUM>  (1726) 
fragi: 7  fragj: 15

>  <atom.prop.CHAIN_ID>  (1726) 
A A A A A A A Z Z Z Z Z Z Z Z Z Z Z Z Z Z Z

>  <atom.prop.IS_HEAVY_ATOM>  (1726) 
1 0 0 0 1 1 1 1 0 0 0 1 1 0 1 0 1 0 1 0 1 0

>  <DIFUSE_FUNC_ATOM>  (1726) 
atom 6   atom 7   

>  <FINAL_SINGLE_POINT_ENERGY>  (1726) 
0

>  <NONCOV_INTER_ENERGY_QM>  (1726) 
0

>  <FF_Energy>  (1726) 
-2.38

>  <QM_Energy>  (1726) 
-7.74

>  <source>  (1726) 
ACET_MBZ_01

>  <Index>  (1726) 
35856

$$$$
ACET-pdb3olm-A-ASP-698:MBZ-pdb3olm-A-PHE-748
     RDKit          3D

 22 21  0  0  0  0  0  0  0  0999 V2000
    4.5840    2.2953    1.8911 C   0  0  0  0  0  0  0  0  0  0  0  0
    5.5692    2.4153    1.9196 H   0  0  0  0  0  0  0  0  0  0  0  0
    4.3534    1.3504    1.6948 H   0  0  0  0  0  0  0  0  0  0  0  0
    4.1864    2.5412    2.8758 H   0  0  0  0  0  0  0  0  0  0  0  0
    4.0154    3.1759    0.7982 C   0  0  0  0  0  0  0  0  0  0  0  0
    3.9428    4.4047    1.0057 O   0  0  0  0  0  1  0  0  0  0  0  0
    3.6485    2.6424   -0.2702 O   0  0  0  0  0  0  0  0  0  0  0  0
   -0.0028    2.8904   -0.0017 C   0  0  0  0  0  0  0  0  0  0  0  0
    0.7588    3.2014    0.5475 H   0  0  0  0  0  0  0  0  0  0  0  0
   -0.8653    3.1986    0.3713 H   0  0  0  0  0  0  0  0  0  0  0  0
    0.1039    3.3286   -0.9939 H   0  0  0  0  0  0  0  0  0  0  0  0
   -0.0006    1.3921    0.0002 C   0  0  0  0  0  0  0  0  0  0  0  0
   -1.1913    0.6864    0.0006 C   0  0  0  0  0  0  0  0  0  0  0  0
   -2.0594    1.1795    0.0001 H   0  0  0  0  0  0  0  0  0  0  0  0
   -1.1953   -0.6921   -0.0000 C   0  0  0  0  0  0  0  0  0  0  0  0
   -2.0724   -1.1902   -0.0003 H   0  0  0  0  0  0  0  0  0  0  0  0
    0.0009   -1.3830    0.0009 C   0  0  0  0  0  0  0  0  0  0  0  0
   -0.0028   -2.3851    0.0015 H   0  0  0  0  0  0  0  0  0  0  0  0
    1.1953   -0.6913    0.0000 C   0  0  0  0  0  0  0  0  0  0  0  0
    2.0788   -1.1921    0.0019 H   0  0  0  0  0  0  0  0  0  0  0  0
    1.1910    0.6879   -0.0017 C   0  0  0  0  0  0  0  0  0  0  0  0
    2.0599    1.1883   -0.0049 H   0  0  0  0  0  0  0  0  0  0  0  0
  1  5  1  0
  5  6  1  0
  5  7  2  0
  1  2  1  0
  1  3  1  0
  1  4  1  0
  8 12  1  0
 12 13  2  0
 13 15  1  0
 15 17  2  0
 17 19  1  0
 19 21  2  0
 21 12  1  0
  8  9  1  0
  8 10  1  0
  8 11  1  0
 13 14  1  0
 15 16  1  0
 17 18  1  0
 19 20  1  0
 21 22  1  0
M  CHG  1   6  -1
M  END
>  <PDB_ID>  (1727) 
pdb3olm

>  <RESIDUE_NAME>  (1727) 
ASP   PHE

>  <FRAG_NAME>  (1727) 
ACET   MBZ

>  <FRAG_ATOM_NUM>  (1727) 
fragi: 7  fragj: 15

>  <atom.prop.CHAIN_ID>  (1727) 
A A A A A A A Z Z Z Z Z Z Z Z Z Z Z Z Z Z Z

>  <atom.prop.IS_HEAVY_ATOM>  (1727) 
1 0 0 0 1 1 1 1 0 0 0 1 1 0 1 0 1 0 1 0 1 0

>  <DIFUSE_FUNC_ATOM>  (1727) 
atom 6   atom 7   

>  <FINAL_SINGLE_POINT_ENERGY>  (1727) 
0

>  <NONCOV_INTER_ENERGY_QM>  (1727) 
0

>  <FF_Energy>  (1727) 
-0.5

>  <QM_Energy>  (1727) 
-7.84

>  <source>  (1727) 
ACET_MBZ_01

>  <Index>  (1727) 
35917

$$$$
ACET-pdb3olj-C-GLU-286:MBZ-pdb3olj-C-PHE-337
     RDKit          3D

 22 21  0  0  0  0  0  0  0  0999 V2000
   -2.3837    1.8658    3.2520 C   0  0  0  0  0  0  0  0  0  0  0  0
   -2.6796    2.1164    4.1573 H   0  0  0  0  0  0  0  0  0  0  0  0
   -1.4020    1.8681    3.1716 H   0  0  0  0  0  0  0  0  0  0  0  0
   -2.7323    0.8515    3.0578 H   0  0  0  0  0  0  0  0  0  0  0  0
   -2.9310    2.8946    2.2816 C   0  0  0  0  0  0  0  0  0  0  0  0
   -3.9425    2.6111    1.6004 O   0  0  0  0  0  1  0  0  0  0  0  0
   -2.3420    3.9956    2.1921 O   0  0  0  0  0  0  0  0  0  0  0  0
    0.0028    2.9109    0.0037 C   0  0  0  0  0  0  0  0  0  0  0  0
    0.9401    3.2135    0.0929 H   0  0  0  0  0  0  0  0  0  0  0  0
   -0.5463    3.2110    0.7697 H   0  0  0  0  0  0  0  0  0  0  0  0
   -0.4103    3.3581   -0.9004 H   0  0  0  0  0  0  0  0  0  0  0  0
    0.0026    1.4042   -0.0043 C   0  0  0  0  0  0  0  0  0  0  0  0
   -1.1974    0.6934    0.0001 C   0  0  0  0  0  0  0  0  0  0  0  0
   -2.0636    1.1839    0.0022 H   0  0  0  0  0  0  0  0  0  0  0  0
   -1.2063   -0.7022   -0.0000 C   0  0  0  0  0  0  0  0  0  0  0  0
   -2.0808   -1.1935   -0.0036 H   0  0  0  0  0  0  0  0  0  0  0  0
   -0.0002   -1.3998    0.0065 C   0  0  0  0  0  0  0  0  0  0  0  0
    0.0006   -2.3950    0.0150 H   0  0  0  0  0  0  0  0  0  0  0  0
    1.2063   -0.6935    0.0000 C   0  0  0  0  0  0  0  0  0  0  0  0
    2.0859   -1.1905   -0.0016 H   0  0  0  0  0  0  0  0  0  0  0  0
    1.1951    0.6980   -0.0022 C   0  0  0  0  0  0  0  0  0  0  0  0
    2.0654    1.1951   -0.0033 H   0  0  0  0  0  0  0  0  0  0  0  0
  1  5  1  0
  5  6  1  0
  5  7  2  0
  1  2  1  0
  1  3  1  0
  1  4  1  0
  8 12  1  0
 12 13  2  0
 13 15  1  0
 15 17  2  0
 17 19  1  0
 19 21  2  0
 21 12  1  0
  8  9  1  0
  8 10  1  0
  8 11  1  0
 13 14  1  0
 15 16  1  0
 17 18  1  0
 19 20  1  0
 21 22  1  0
M  CHG  1   6  -1
M  END
>  <PDB_ID>  (1728) 
pdb3olj

>  <RESIDUE_NAME>  (1728) 
GLU   PHE

>  <FRAG_NAME>  (1728) 
ACET   MBZ

>  <FRAG_ATOM_NUM>  (1728) 
fragi: 7  fragj: 15

>  <atom.prop.CHAIN_ID>  (1728) 
A A A A A A A Z Z Z Z Z Z Z Z Z Z Z Z Z Z Z

>  <atom.prop.IS_HEAVY_ATOM>  (1728) 
1 0 0 0 1 1 1 1 0 0 0 1 1 0 1 0 1 0 1 0 1 0

>  <DIFUSE_FUNC_ATOM>  (1728) 
atom 6   atom 7   

>  <FINAL_SINGLE_POINT_ENERGY>  (1728) 
0

>  <NONCOV_INTER_ENERGY_QM>  (1728) 
0

>  <FF_Energy>  (1728) 
-2.5

>  <QM_Energy>  (1728) 
-7.91

>  <source>  (1728) 
ACET_MBZ_01

>  <Index>  (1728) 
35936

$$$$
ACET-pdb3oma-A-GLU-54:MBZ-pdb3oma-A-PHE-62
     RDKit          3D

 22 21  0  0  0  0  0  0  0  0999 V2000
   -4.7142    3.8175   -1.5160 C   0  0  0  0  0  0  0  0  0  0  0  0
   -4.5812    4.7707   -1.6484 H   0  0  0  0  0  0  0  0  0  0  0  0
   -5.6429    3.5358   -1.5390 H   0  0  0  0  0  0  0  0  0  0  0  0
   -4.1895    3.2962   -2.3167 H   0  0  0  0  0  0  0  0  0  0  0  0
   -4.1428    3.4469   -0.1414 C   0  0  0  0  0  0  0  0  0  0  0  0
   -4.6764    2.5350    0.5384 O   0  0  0  0  0  1  0  0  0  0  0  0
   -3.1085    4.0199    0.2278 O   0  0  0  0  0  0  0  0  0  0  0  0
   -0.0080    2.8991    0.0399 C   0  0  0  0  0  0  0  0  0  0  0  0
   -0.8138    3.2176   -0.4338 H   0  0  0  0  0  0  0  0  0  0  0  0
    0.8187    3.2233   -0.3913 H   0  0  0  0  0  0  0  0  0  0  0  0
   -0.0359    3.3144    1.0473 H   0  0  0  0  0  0  0  0  0  0  0  0
   -0.0013    1.4003    0.0053 C   0  0  0  0  0  0  0  0  0  0  0  0
   -1.2034    0.6867    0.0073 C   0  0  0  0  0  0  0  0  0  0  0  0
   -2.0679    1.1808    0.0130 H   0  0  0  0  0  0  0  0  0  0  0  0
   -1.2108   -0.7020    0.0000 C   0  0  0  0  0  0  0  0  0  0  0  0
   -2.0821   -1.1972    0.0043 H   0  0  0  0  0  0  0  0  0  0  0  0
   -0.0034   -1.3918   -0.0110 C   0  0  0  0  0  0  0  0  0  0  0  0
    0.0017   -2.3900   -0.0273 H   0  0  0  0  0  0  0  0  0  0  0  0
    1.2108   -0.6874    0.0000 C   0  0  0  0  0  0  0  0  0  0  0  0
    2.0851   -1.1958    0.0103 H   0  0  0  0  0  0  0  0  0  0  0  0
    1.2081    0.6941   -0.0016 C   0  0  0  0  0  0  0  0  0  0  0  0
    2.0682    1.1988   -0.0089 H   0  0  0  0  0  0  0  0  0  0  0  0
  1  5  1  0
  5  6  1  0
  5  7  2  0
  1  2  1  0
  1  3  1  0
  1  4  1  0
  8 12  1  0
 12 13  2  0
 13 15  1  0
 15 17  2  0
 17 19  1  0
 19 21  2  0
 21 12  1  0
  8  9  1  0
  8 10  1  0
  8 11  1  0
 13 14  1  0
 15 16  1  0
 17 18  1  0
 19 20  1  0
 21 22  1  0
M  CHG  1   6  -1
M  END
>  <PDB_ID>  (1729) 
pdb3oma

>  <RESIDUE_NAME>  (1729) 
GLU   PHE

>  <FRAG_NAME>  (1729) 
ACET   MBZ

>  <FRAG_ATOM_NUM>  (1729) 
fragi: 7  fragj: 15

>  <atom.prop.CHAIN_ID>  (1729) 
A A A A A A A Z Z Z Z Z Z Z Z Z Z Z Z Z Z Z

>  <atom.prop.IS_HEAVY_ATOM>  (1729) 
1 0 0 0 1 1 1 1 0 0 0 1 1 0 1 0 1 0 1 0 1 0

>  <DIFUSE_FUNC_ATOM>  (1729) 
atom 6   atom 7   

>  <FINAL_SINGLE_POINT_ENERGY>  (1729) 
0

>  <NONCOV_INTER_ENERGY_QM>  (1729) 
0

>  <FF_Energy>  (1729) 
-2.61

>  <QM_Energy>  (1729) 
-7.73

>  <source>  (1729) 
ACET_MBZ_01

>  <Index>  (1729) 
36009

$$$$
ACET-pdb3oma-B-GLU-128:MBZ-pdb3oma-B-PHE-124
     RDKit          3D

 22 21  0  0  0  0  0  0  0  0999 V2000
    4.2628    2.8867    2.8079 C   0  0  0  0  0  0  0  0  0  0  0  0
    4.9017    2.2321    3.1546 H   0  0  0  0  0  0  0  0  0  0  0  0
    3.3309    2.6344    2.9697 H   0  0  0  0  0  0  0  0  0  0  0  0
    4.4501    3.8408    3.3006 H   0  0  0  0  0  0  0  0  0  0  0  0
    4.4611    2.9649    1.2937 C   0  0  0  0  0  0  0  0  0  0  0  0
    5.1117    3.9310    0.8229 O   0  0  0  0  0  1  0  0  0  0  0  0
    3.9785    2.0650    0.5679 O   0  0  0  0  0  0  0  0  0  0  0  0
    0.0012    2.9082    0.0265 C   0  0  0  0  0  0  0  0  0  0  0  0
   -0.6433    3.2314   -0.6451 H   0  0  0  0  0  0  0  0  0  0  0  0
    0.9160    3.2230   -0.1597 H   0  0  0  0  0  0  0  0  0  0  0  0
   -0.2970    3.3160    0.9924 H   0  0  0  0  0  0  0  0  0  0  0  0
    0.0028    1.4097   -0.0036 C   0  0  0  0  0  0  0  0  0  0  0  0
   -1.2021    0.6940   -0.0014 C   0  0  0  0  0  0  0  0  0  0  0  0
   -2.0660    1.1905   -0.0017 H   0  0  0  0  0  0  0  0  0  0  0  0
   -1.2140   -0.6977    0.0000 C   0  0  0  0  0  0  0  0  0  0  0  0
   -2.0888   -1.1898    0.0022 H   0  0  0  0  0  0  0  0  0  0  0  0
   -0.0069   -1.4049    0.0001 C   0  0  0  0  0  0  0  0  0  0  0  0
   -0.0118   -2.3990    0.0001 H   0  0  0  0  0  0  0  0  0  0  0  0
    1.2140   -0.7052   -0.0000 C   0  0  0  0  0  0  0  0  0  0  0  0
    2.0862   -1.2000   -0.0019 H   0  0  0  0  0  0  0  0  0  0  0  0
    1.2062    0.7041    0.0049 C   0  0  0  0  0  0  0  0  0  0  0  0
    2.0720    1.1958    0.0140 H   0  0  0  0  0  0  0  0  0  0  0  0
  1  5  1  0
  5  6  1  0
  5  7  2  0
  1  2  1  0
  1  3  1  0
  1  4  1  0
  8 12  1  0
 12 13  2  0
 13 15  1  0
 15 17  2  0
 17 19  1  0
 19 21  2  0
 21 12  1  0
  8  9  1  0
  8 10  1  0
  8 11  1  0
 13 14  1  0
 15 16  1  0
 17 18  1  0
 19 20  1  0
 21 22  1  0
M  CHG  1   6  -1
M  END
>  <PDB_ID>  (1730) 
pdb3oma

>  <RESIDUE_NAME>  (1730) 
GLU   PHE

>  <FRAG_NAME>  (1730) 
ACET   MBZ

>  <FRAG_ATOM_NUM>  (1730) 
fragi: 7  fragj: 15

>  <atom.prop.CHAIN_ID>  (1730) 
A A A A A A A Z Z Z Z Z Z Z Z Z Z Z Z Z Z Z

>  <atom.prop.IS_HEAVY_ATOM>  (1730) 
1 0 0 0 1 1 1 1 0 0 0 1 1 0 1 0 1 0 1 0 1 0

>  <DIFUSE_FUNC_ATOM>  (1730) 
atom 6   atom 7   

>  <FINAL_SINGLE_POINT_ENERGY>  (1730) 
0

>  <NONCOV_INTER_ENERGY_QM>  (1730) 
0

>  <FF_Energy>  (1730) 
-0.39

>  <QM_Energy>  (1730) 
-7.2

>  <source>  (1730) 
ACET_MBZ_01

>  <Index>  (1730) 
36018

$$$$
ACET-pdb3oma-C-GLU-54:MBZ-pdb3oma-C-PHE-62
     RDKit          3D

 22 21  0  0  0  0  0  0  0  0999 V2000
   -4.5718    3.9444   -1.6367 C   0  0  0  0  0  0  0  0  0  0  0  0
   -4.3332    4.8850   -1.7729 H   0  0  0  0  0  0  0  0  0  0  0  0
   -5.5386    3.7890   -1.6673 H   0  0  0  0  0  0  0  0  0  0  0  0
   -4.1038    3.3555   -2.4255 H   0  0  0  0  0  0  0  0  0  0  0  0
   -4.0873    3.5450   -0.2448 C   0  0  0  0  0  0  0  0  0  0  0  0
   -4.7123    2.6559    0.3919 O   0  0  0  0  0  1  0  0  0  0  0  0
   -3.0656    4.1060    0.1914 O   0  0  0  0  0  0  0  0  0  0  0  0
   -0.0039    2.9005    0.0205 C   0  0  0  0  0  0  0  0  0  0  0  0
   -0.8121    3.2205   -0.4478 H   0  0  0  0  0  0  0  0  0  0  0  0
    0.8202    3.2188   -0.4199 H   0  0  0  0  0  0  0  0  0  0  0  0
   -0.0206    3.3190    1.0268 H   0  0  0  0  0  0  0  0  0  0  0  0
   -0.0047    1.4054   -0.0050 C   0  0  0  0  0  0  0  0  0  0  0  0
   -1.2021    0.6998    0.0020 C   0  0  0  0  0  0  0  0  0  0  0  0
   -2.0690    1.1870    0.0074 H   0  0  0  0  0  0  0  0  0  0  0  0
   -1.2092   -0.6986    0.0000 C   0  0  0  0  0  0  0  0  0  0  0  0
   -2.0805   -1.1923   -0.0015 H   0  0  0  0  0  0  0  0  0  0  0  0
    0.0048   -1.4009    0.0020 C   0  0  0  0  0  0  0  0  0  0  0  0
   -0.0012   -2.3960    0.0042 H   0  0  0  0  0  0  0  0  0  0  0  0
    1.2092   -0.6997   -0.0000 C   0  0  0  0  0  0  0  0  0  0  0  0
    2.0893   -1.1965   -0.0007 H   0  0  0  0  0  0  0  0  0  0  0  0
    1.2020    0.6940    0.0010 C   0  0  0  0  0  0  0  0  0  0  0  0
    2.0660    1.1937    0.0054 H   0  0  0  0  0  0  0  0  0  0  0  0
  1  5  1  0
  5  6  1  0
  5  7  2  0
  1  2  1  0
  1  3  1  0
  1  4  1  0
  8 12  1  0
 12 13  2  0
 13 15  1  0
 15 17  2  0
 17 19  1  0
 19 21  2  0
 21 12  1  0
  8  9  1  0
  8 10  1  0
  8 11  1  0
 13 14  1  0
 15 16  1  0
 17 18  1  0
 19 20  1  0
 21 22  1  0
M  CHG  1   6  -1
M  END
>  <PDB_ID>  (1731) 
pdb3oma

>  <RESIDUE_NAME>  (1731) 
GLU   PHE

>  <FRAG_NAME>  (1731) 
ACET   MBZ

>  <FRAG_ATOM_NUM>  (1731) 
fragi: 7  fragj: 15

>  <atom.prop.CHAIN_ID>  (1731) 
A A A A A A A Z Z Z Z Z Z Z Z Z Z Z Z Z Z Z

>  <atom.prop.IS_HEAVY_ATOM>  (1731) 
1 0 0 0 1 1 1 1 0 0 0 1 1 0 1 0 1 0 1 0 1 0

>  <DIFUSE_FUNC_ATOM>  (1731) 
atom 6   atom 7   

>  <FINAL_SINGLE_POINT_ENERGY>  (1731) 
0

>  <NONCOV_INTER_ENERGY_QM>  (1731) 
0

>  <FF_Energy>  (1731) 
-2.53

>  <QM_Energy>  (1731) 
-7.56

>  <source>  (1731) 
ACET_MBZ_01

>  <Index>  (1731) 
36021

$$$$
ACET-pdb3oox-A-GLU-96:MBZ-pdb3oox-A-PHE-58
     RDKit          3D

 22 21  0  0  0  0  0  0  0  0999 V2000
   -2.6526    0.4167    3.2030 C   0  0  0  0  0  0  0  0  0  0  0  0
   -2.2639    0.6070    4.0897 H   0  0  0  0  0  0  0  0  0  0  0  0
   -1.9960   -0.0072    2.6015 H   0  0  0  0  0  0  0  0  0  0  0  0
   -3.4785   -0.2807    3.3426 H   0  0  0  0  0  0  0  0  0  0  0  0
   -3.0659    1.7290    2.5869 C   0  0  0  0  0  0  0  0  0  0  0  0
   -4.1358    1.7811    1.9401 O   0  0  0  0  0  1  0  0  0  0  0  0
   -2.2869    2.6954    2.7482 O   0  0  0  0  0  0  0  0  0  0  0  0
   -0.0095    2.9165    0.0210 C   0  0  0  0  0  0  0  0  0  0  0  0
    0.9216    3.2266   -0.0633 H   0  0  0  0  0  0  0  0  0  0  0  0
   -0.4199    3.2042    0.8683 H   0  0  0  0  0  0  0  0  0  0  0  0
   -0.5835    3.3565   -0.7944 H   0  0  0  0  0  0  0  0  0  0  0  0
    0.0056    1.3941    0.0065 C   0  0  0  0  0  0  0  0  0  0  0  0
   -1.1936    0.6878    0.0105 C   0  0  0  0  0  0  0  0  0  0  0  0
   -2.0586    1.1772    0.0196 H   0  0  0  0  0  0  0  0  0  0  0  0
   -1.1985   -0.7063    0.0000 C   0  0  0  0  0  0  0  0  0  0  0  0
   -2.0782   -1.1943    0.0097 H   0  0  0  0  0  0  0  0  0  0  0  0
   -0.0082   -1.3845   -0.0210 C   0  0  0  0  0  0  0  0  0  0  0  0
   -0.0024   -2.3902   -0.0522 H   0  0  0  0  0  0  0  0  0  0  0  0
    1.1985   -0.6945   -0.0000 C   0  0  0  0  0  0  0  0  0  0  0  0
    2.0764   -1.1917    0.0143 H   0  0  0  0  0  0  0  0  0  0  0  0
    1.1963    0.7035    0.0040 C   0  0  0  0  0  0  0  0  0  0  0  0
    2.0650    1.1923    0.0041 H   0  0  0  0  0  0  0  0  0  0  0  0
  1  5  1  0
  5  6  1  0
  5  7  2  0
  1  2  1  0
  1  3  1  0
  1  4  1  0
  8 12  1  0
 12 13  2  0
 13 15  1  0
 15 17  2  0
 17 19  1  0
 19 21  2  0
 21 12  1  0
  8  9  1  0
  8 10  1  0
  8 11  1  0
 13 14  1  0
 15 16  1  0
 17 18  1  0
 19 20  1  0
 21 22  1  0
M  CHG  1   6  -1
M  END
>  <PDB_ID>  (1732) 
pdb3oox

>  <RESIDUE_NAME>  (1732) 
GLU   PHE

>  <FRAG_NAME>  (1732) 
ACET   MBZ

>  <FRAG_ATOM_NUM>  (1732) 
fragi: 7  fragj: 15

>  <atom.prop.CHAIN_ID>  (1732) 
A A A A A A A Z Z Z Z Z Z Z Z Z Z Z Z Z Z Z

>  <atom.prop.IS_HEAVY_ATOM>  (1732) 
1 0 0 0 1 1 1 1 0 0 0 1 1 0 1 0 1 0 1 0 1 0

>  <DIFUSE_FUNC_ATOM>  (1732) 
atom 6   atom 7   

>  <FINAL_SINGLE_POINT_ENERGY>  (1732) 
0

>  <NONCOV_INTER_ENERGY_QM>  (1732) 
0

>  <FF_Energy>  (1732) 
-1.56

>  <QM_Energy>  (1732) 
-7.18

>  <source>  (1732) 
ACET_MBZ_01

>  <Index>  (1732) 
36341

$$$$
ACET-pdb3oox-B-GLU-96:MBZ-pdb3oox-B-PHE-58
     RDKit          3D

 22 21  0  0  0  0  0  0  0  0999 V2000
   -2.9542    0.2856    3.0911 C   0  0  0  0  0  0  0  0  0  0  0  0
   -2.6737    0.4911    4.0144 H   0  0  0  0  0  0  0  0  0  0  0  0
   -2.2216   -0.1208    2.5704 H   0  0  0  0  0  0  0  0  0  0  0  0
   -3.7796   -0.4251    3.1347 H   0  0  0  0  0  0  0  0  0  0  0  0
   -3.3089    1.6094    2.4184 C   0  0  0  0  0  0  0  0  0  0  0  0
   -4.3431    1.7087    1.7258 O   0  0  0  0  0  1  0  0  0  0  0  0
   -2.5141    2.5680    2.6432 O   0  0  0  0  0  0  0  0  0  0  0  0
    0.0344    2.9162    0.0491 C   0  0  0  0  0  0  0  0  0  0  0  0
    0.9758    3.1973    0.0158 H   0  0  0  0  0  0  0  0  0  0  0  0
   -0.4148    3.2087    0.8728 H   0  0  0  0  0  0  0  0  0  0  0  0
   -0.4821    3.3732   -0.7950 H   0  0  0  0  0  0  0  0  0  0  0  0
   -0.0003    1.3995    0.0131 C   0  0  0  0  0  0  0  0  0  0  0  0
   -1.1993    0.7167    0.0145 C   0  0  0  0  0  0  0  0  0  0  0  0
   -2.0628    1.1852    0.0241 H   0  0  0  0  0  0  0  0  0  0  0  0
   -1.1928   -0.7081   -0.0000 C   0  0  0  0  0  0  0  0  0  0  0  0
   -2.0665   -1.1926    0.0018 H   0  0  0  0  0  0  0  0  0  0  0  0
    0.0168   -1.3909   -0.0151 C   0  0  0  0  0  0  0  0  0  0  0  0
    0.0104   -2.3947   -0.0371 H   0  0  0  0  0  0  0  0  0  0  0  0
    1.1928   -0.6990    0.0000 C   0  0  0  0  0  0  0  0  0  0  0  0
    2.0854   -1.1897    0.0221 H   0  0  0  0  0  0  0  0  0  0  0  0
    1.1828    0.6819   -0.0125 C   0  0  0  0  0  0  0  0  0  0  0  0
    2.0588    1.1805   -0.0418 H   0  0  0  0  0  0  0  0  0  0  0  0
  1  5  1  0
  5  6  1  0
  5  7  2  0
  1  2  1  0
  1  3  1  0
  1  4  1  0
  8 12  1  0
 12 13  2  0
 13 15  1  0
 15 17  2  0
 17 19  1  0
 19 21  2  0
 21 12  1  0
  8  9  1  0
  8 10  1  0
  8 11  1  0
 13 14  1  0
 15 16  1  0
 17 18  1  0
 19 20  1  0
 21 22  1  0
M  CHG  1   6  -1
M  END
>  <PDB_ID>  (1733) 
pdb3oox

>  <RESIDUE_NAME>  (1733) 
GLU   PHE

>  <FRAG_NAME>  (1733) 
ACET   MBZ

>  <FRAG_ATOM_NUM>  (1733) 
fragi: 7  fragj: 15

>  <atom.prop.CHAIN_ID>  (1733) 
A A A A A A A Z Z Z Z Z Z Z Z Z Z Z Z Z Z Z

>  <atom.prop.IS_HEAVY_ATOM>  (1733) 
1 0 0 0 1 1 1 1 0 0 0 1 1 0 1 0 1 0 1 0 1 0

>  <DIFUSE_FUNC_ATOM>  (1733) 
atom 6   atom 7   

>  <FINAL_SINGLE_POINT_ENERGY>  (1733) 
0

>  <NONCOV_INTER_ENERGY_QM>  (1733) 
0

>  <FF_Energy>  (1733) 
-1.47

>  <QM_Energy>  (1733) 
-7.1

>  <source>  (1733) 
ACET_MBZ_01

>  <Index>  (1733) 
36350

$$$$
ACET-pdb4mhn-A-ASP-193:MBZ-pdb4mhn-A-PHE-186
     RDKit          3D

 22 21  0  0  0  0  0  0  0  0999 V2000
    5.5302    4.6065    0.8838 C   0  0  0  0  0  0  0  0  0  0  0  0
    5.4358    4.7305    1.8650 H   0  0  0  0  0  0  0  0  0  0  0  0
    5.8940    5.4293    0.4631 H   0  0  0  0  0  0  0  0  0  0  0  0
    6.2392    3.7965    0.7124 H   0  0  0  0  0  0  0  0  0  0  0  0
    4.1422    4.3341    0.2945 C   0  0  0  0  0  0  0  0  0  0  0  0
    3.7526    3.1551    0.1134 O   0  0  0  0  0  1  0  0  0  0  0  0
    3.4254    5.3207    0.0298 O   0  0  0  0  0  0  0  0  0  0  0  0
    0.0008    2.9071   -0.0125 C   0  0  0  0  0  0  0  0  0  0  0  0
    0.7189    3.2172    0.5909 H   0  0  0  0  0  0  0  0  0  0  0  0
   -0.8873    3.2159    0.2908 H   0  0  0  0  0  0  0  0  0  0  0  0
    0.1844    3.3367   -0.9973 H   0  0  0  0  0  0  0  0  0  0  0  0
   -0.0005    1.4025   -0.0006 C   0  0  0  0  0  0  0  0  0  0  0  0
   -1.1954    0.6928   -0.0021 C   0  0  0  0  0  0  0  0  0  0  0  0
   -2.0629    1.1824   -0.0053 H   0  0  0  0  0  0  0  0  0  0  0  0
   -1.1983   -0.6959    0.0000 C   0  0  0  0  0  0  0  0  0  0  0  0
   -2.0761   -1.1909    0.0023 H   0  0  0  0  0  0  0  0  0  0  0  0
    0.0009   -1.3921    0.0008 C   0  0  0  0  0  0  0  0  0  0  0  0
   -0.0038   -2.3914    0.0019 H   0  0  0  0  0  0  0  0  0  0  0  0
    1.1983   -0.6972    0.0000 C   0  0  0  0  0  0  0  0  0  0  0  0
    2.0811   -1.1960   -0.0001 H   0  0  0  0  0  0  0  0  0  0  0  0
    1.1949    0.6899    0.0019 C   0  0  0  0  0  0  0  0  0  0  0  0
    2.0648    1.1874    0.0046 H   0  0  0  0  0  0  0  0  0  0  0  0
  1  5  1  0
  5  6  1  0
  5  7  2  0
  1  2  1  0
  1  3  1  0
  1  4  1  0
  8 12  1  0
 12 13  2  0
 13 15  1  0
 15 17  2  0
 17 19  1  0
 19 21  2  0
 21 12  1  0
  8  9  1  0
  8 10  1  0
  8 11  1  0
 13 14  1  0
 15 16  1  0
 17 18  1  0
 19 20  1  0
 21 22  1  0
M  CHG  1   6  -1
M  END
>  <PDB_ID>  (1734) 
pdb4mhn

>  <RESIDUE_NAME>  (1734) 
ASP   PHE

>  <FRAG_NAME>  (1734) 
ACET   MBZ

>  <FRAG_ATOM_NUM>  (1734) 
fragi: 7  fragj: 15

>  <atom.prop.CHAIN_ID>  (1734) 
A A A A A A A Z Z Z Z Z Z Z Z Z Z Z Z Z Z Z

>  <atom.prop.IS_HEAVY_ATOM>  (1734) 
1 0 0 0 1 1 1 1 0 0 0 1 1 0 1 0 1 0 1 0 1 0

>  <DIFUSE_FUNC_ATOM>  (1734) 
atom 6   atom 7   

>  <FINAL_SINGLE_POINT_ENERGY>  (1734) 
0

>  <NONCOV_INTER_ENERGY_QM>  (1734) 
0

>  <FF_Energy>  (1734) 
-2.44

>  <QM_Energy>  (1734) 
-7.65

>  <source>  (1734) 
ACET_MBZ_01

>  <Index>  (1734) 
36367

$$$$
ACET-pdb3opn-A-ASP-62:MBZ-pdb3opn-A-PHE-70
     RDKit          3D

 22 21  0  0  0  0  0  0  0  0999 V2000
    3.1597    6.0131   -2.4471 C   0  0  0  0  0  0  0  0  0  0  0  0
    3.1554    6.4624   -1.5614 H   0  0  0  0  0  0  0  0  0  0  0  0
    3.0140    6.6738   -3.1738 H   0  0  0  0  0  0  0  0  0  0  0  0
    4.1435    5.5665   -2.5917 H   0  0  0  0  0  0  0  0  0  0  0  0
    2.0345    4.9910   -2.4824 C   0  0  0  0  0  0  0  0  0  0  0  0
    2.3282    3.7704   -2.4508 O   0  0  0  0  0  1  0  0  0  0  0  0
    0.8498    5.4071   -2.5261 O   0  0  0  0  0  0  0  0  0  0  0  0
    0.0166    2.9193   -0.0126 C   0  0  0  0  0  0  0  0  0  0  0  0
   -0.0871    3.2131   -0.9491 H   0  0  0  0  0  0  0  0  0  0  0  0
    0.8766    3.2168    0.3695 H   0  0  0  0  0  0  0  0  0  0  0  0
   -0.7837    3.3740    0.5713 H   0  0  0  0  0  0  0  0  0  0  0  0
    0.0030    1.4028    0.0010 C   0  0  0  0  0  0  0  0  0  0  0  0
   -1.1921    0.7007   -0.0075 C   0  0  0  0  0  0  0  0  0  0  0  0
   -2.0588    1.1894   -0.0198 H   0  0  0  0  0  0  0  0  0  0  0  0
   -1.2001   -0.6947   -0.0000 C   0  0  0  0  0  0  0  0  0  0  0  0
   -2.0813   -1.1823    0.0044 H   0  0  0  0  0  0  0  0  0  0  0  0
   -0.0055   -1.3967    0.0032 C   0  0  0  0  0  0  0  0  0  0  0  0
   -0.0098   -2.3927    0.0072 H   0  0  0  0  0  0  0  0  0  0  0  0
    1.2001   -0.6997    0.0000 C   0  0  0  0  0  0  0  0  0  0  0  0
    2.0782   -1.1999   -0.0033 H   0  0  0  0  0  0  0  0  0  0  0  0
    1.1946    0.6877    0.0033 C   0  0  0  0  0  0  0  0  0  0  0  0
    2.0664    1.1848    0.0069 H   0  0  0  0  0  0  0  0  0  0  0  0
  1  5  1  0
  5  6  1  0
  5  7  2  0
  1  2  1  0
  1  3  1  0
  1  4  1  0
  8 12  1  0
 12 13  2  0
 13 15  1  0
 15 17  2  0
 17 19  1  0
 19 21  2  0
 21 12  1  0
  8  9  1  0
  8 10  1  0
  8 11  1  0
 13 14  1  0
 15 16  1  0
 17 18  1  0
 19 20  1  0
 21 22  1  0
M  CHG  1   6  -1
M  END
>  <PDB_ID>  (1735) 
pdb3opn

>  <RESIDUE_NAME>  (1735) 
ASP   PHE

>  <FRAG_NAME>  (1735) 
ACET   MBZ

>  <FRAG_ATOM_NUM>  (1735) 
fragi: 7  fragj: 15

>  <atom.prop.CHAIN_ID>  (1735) 
A A A A A A A Z Z Z Z Z Z Z Z Z Z Z Z Z Z Z

>  <atom.prop.IS_HEAVY_ATOM>  (1735) 
1 0 0 0 1 1 1 1 0 0 0 1 1 0 1 0 1 0 1 0 1 0

>  <DIFUSE_FUNC_ATOM>  (1735) 
atom 6   atom 7   

>  <FINAL_SINGLE_POINT_ENERGY>  (1735) 
0

>  <NONCOV_INTER_ENERGY_QM>  (1735) 
0

>  <FF_Energy>  (1735) 
-0.91

>  <QM_Energy>  (1735) 
-6.04

>  <source>  (1735) 
ACET_MBZ_01

>  <Index>  (1735) 
36405

$$$$
ACET-pdb4mi2-B-ASP-248:MBZ-pdb4mi2-B-PHE-264
     RDKit          3D

 22 21  0  0  0  0  0  0  0  0999 V2000
   -4.2853    1.7282    1.5433 C   0  0  0  0  0  0  0  0  0  0  0  0
   -4.8596    1.8183    2.3483 H   0  0  0  0  0  0  0  0  0  0  0  0
   -3.6010    1.0227    1.6786 H   0  0  0  0  0  0  0  0  0  0  0  0
   -4.9216    1.4200    0.7137 H   0  0  0  0  0  0  0  0  0  0  0  0
   -3.5971    3.0410    1.2789 C   0  0  0  0  0  0  0  0  0  0  0  0
   -3.7014    3.5448    0.1422 O   0  0  0  0  0  1  0  0  0  0  0  0
   -2.9536    3.5827    2.1923 O   0  0  0  0  0  0  0  0  0  0  0  0
    0.0010    2.8964    0.0202 C   0  0  0  0  0  0  0  0  0  0  0  0
    0.9429    3.2029    0.0654 H   0  0  0  0  0  0  0  0  0  0  0  0
   -0.5039    3.1920    0.8214 H   0  0  0  0  0  0  0  0  0  0  0  0
   -0.4578    3.3638   -0.8511 H   0  0  0  0  0  0  0  0  0  0  0  0
   -0.0002    1.3982   -0.0053 C   0  0  0  0  0  0  0  0  0  0  0  0
   -1.1911    0.6902    0.0051 C   0  0  0  0  0  0  0  0  0  0  0  0
   -2.0610    1.1805    0.0154 H   0  0  0  0  0  0  0  0  0  0  0  0
   -1.1961   -0.6966   -0.0000 C   0  0  0  0  0  0  0  0  0  0  0  0
   -2.0734   -1.1909   -0.0044 H   0  0  0  0  0  0  0  0  0  0  0  0
    0.0022   -1.3911    0.0036 C   0  0  0  0  0  0  0  0  0  0  0  0
   -0.0008   -2.3899    0.0083 H   0  0  0  0  0  0  0  0  0  0  0  0
    1.1961   -0.6936    0.0000 C   0  0  0  0  0  0  0  0  0  0  0  0
    2.0806   -1.1896    0.0016 H   0  0  0  0  0  0  0  0  0  0  0  0
    1.1891    0.6929   -0.0035 C   0  0  0  0  0  0  0  0  0  0  0  0
    2.0602    1.1902   -0.0056 H   0  0  0  0  0  0  0  0  0  0  0  0
  1  5  1  0
  5  6  1  0
  5  7  2  0
  1  2  1  0
  1  3  1  0
  1  4  1  0
  8 12  1  0
 12 13  2  0
 13 15  1  0
 15 17  2  0
 17 19  1  0
 19 21  2  0
 21 12  1  0
  8  9  1  0
  8 10  1  0
  8 11  1  0
 13 14  1  0
 15 16  1  0
 17 18  1  0
 19 20  1  0
 21 22  1  0
M  CHG  1   6  -1
M  END
>  <PDB_ID>  (1736) 
pdb4mi2

>  <RESIDUE_NAME>  (1736) 
ASP   PHE

>  <FRAG_NAME>  (1736) 
ACET   MBZ

>  <FRAG_ATOM_NUM>  (1736) 
fragi: 7  fragj: 15

>  <atom.prop.CHAIN_ID>  (1736) 
A A A A A A A Z Z Z Z Z Z Z Z Z Z Z Z Z Z Z

>  <atom.prop.IS_HEAVY_ATOM>  (1736) 
1 0 0 0 1 1 1 1 0 0 0 1 1 0 1 0 1 0 1 0 1 0

>  <DIFUSE_FUNC_ATOM>  (1736) 
atom 6   atom 7   

>  <FINAL_SINGLE_POINT_ENERGY>  (1736) 
0

>  <NONCOV_INTER_ENERGY_QM>  (1736) 
0

>  <FF_Energy>  (1736) 
-1.97

>  <QM_Energy>  (1736) 
-7.43

>  <source>  (1736) 
ACET_MBZ_01

>  <Index>  (1736) 
36410

$$$$
ACET-pdb4mi2-C-ASP-248:MBZ-pdb4mi2-C-PHE-264
     RDKit          3D

 22 21  0  0  0  0  0  0  0  0999 V2000
    4.4206    1.3842   -1.4426 C   0  0  0  0  0  0  0  0  0  0  0  0
    4.9486    1.3553   -2.2834 H   0  0  0  0  0  0  0  0  0  0  0  0
    3.7112    0.6896   -1.4506 H   0  0  0  0  0  0  0  0  0  0  0  0
    5.0957    1.1648   -0.6155 H   0  0  0  0  0  0  0  0  0  0  0  0
    3.7713    2.7470   -1.3181 C   0  0  0  0  0  0  0  0  0  0  0  0
    3.9729    3.4226   -0.2844 O   0  0  0  0  0  1  0  0  0  0  0  0
    3.0507    3.1548   -2.2507 O   0  0  0  0  0  0  0  0  0  0  0  0
    0.0042    2.9101   -0.0327 C   0  0  0  0  0  0  0  0  0  0  0  0
   -0.9391    3.2136   -0.0125 H   0  0  0  0  0  0  0  0  0  0  0  0
    0.4480    3.1886   -0.8740 H   0  0  0  0  0  0  0  0  0  0  0  0
    0.5283    3.3846    0.7969 H   0  0  0  0  0  0  0  0  0  0  0  0
    0.0014    1.3983    0.0063 C   0  0  0  0  0  0  0  0  0  0  0  0
   -1.1879    0.6933   -0.0002 C   0  0  0  0  0  0  0  0  0  0  0  0
   -2.0569    1.1824   -0.0067 H   0  0  0  0  0  0  0  0  0  0  0  0
   -1.1909   -0.6925    0.0000 C   0  0  0  0  0  0  0  0  0  0  0  0
   -2.0721   -1.1858    0.0025 H   0  0  0  0  0  0  0  0  0  0  0  0
    0.0007   -1.3889   -0.0009 C   0  0  0  0  0  0  0  0  0  0  0  0
   -0.0061   -2.3896   -0.0025 H   0  0  0  0  0  0  0  0  0  0  0  0
    1.1909   -0.6973   -0.0000 C   0  0  0  0  0  0  0  0  0  0  0  0
    2.0765   -1.1941    0.0053 H   0  0  0  0  0  0  0  0  0  0  0  0
    1.1858    0.6870   -0.0052 C   0  0  0  0  0  0  0  0  0  0  0  0
    2.0606    1.1820   -0.0188 H   0  0  0  0  0  0  0  0  0  0  0  0
  1  5  1  0
  5  6  1  0
  5  7  2  0
  1  2  1  0
  1  3  1  0
  1  4  1  0
  8 12  1  0
 12 13  2  0
 13 15  1  0
 15 17  2  0
 17 19  1  0
 19 21  2  0
 21 12  1  0
  8  9  1  0
  8 10  1  0
  8 11  1  0
 13 14  1  0
 15 16  1  0
 17 18  1  0
 19 20  1  0
 21 22  1  0
M  CHG  1   6  -1
M  END
>  <PDB_ID>  (1737) 
pdb4mi2

>  <RESIDUE_NAME>  (1737) 
ASP   PHE

>  <FRAG_NAME>  (1737) 
ACET   MBZ

>  <FRAG_ATOM_NUM>  (1737) 
fragi: 7  fragj: 15

>  <atom.prop.CHAIN_ID>  (1737) 
A A A A A A A Z Z Z Z Z Z Z Z Z Z Z Z Z Z Z

>  <atom.prop.IS_HEAVY_ATOM>  (1737) 
1 0 0 0 1 1 1 1 0 0 0 1 1 0 1 0 1 0 1 0 1 0

>  <DIFUSE_FUNC_ATOM>  (1737) 
atom 6   atom 7   

>  <FINAL_SINGLE_POINT_ENERGY>  (1737) 
0

>  <NONCOV_INTER_ENERGY_QM>  (1737) 
0

>  <FF_Energy>  (1737) 
-1.58

>  <QM_Energy>  (1737) 
-6.82

>  <source>  (1737) 
ACET_MBZ_01

>  <Index>  (1737) 
36411

$$$$
ACET-pdb4mie-A-ASP-179:MBZ-pdb4mie-A-PHE-125
     RDKit          3D

 22 21  0  0  0  0  0  0  0  0999 V2000
   -0.0418    0.5420    3.5358 C   0  0  0  0  0  0  0  0  0  0  0  0
    0.0629   -0.2575    2.9546 H   0  0  0  0  0  0  0  0  0  0  0  0
   -0.9000    1.0035    3.3415 H   0  0  0  0  0  0  0  0  0  0  0  0
   -0.0653    0.2055    4.5723 H   0  0  0  0  0  0  0  0  0  0  0  0
    1.0935    1.4882    3.2760 C   0  0  0  0  0  0  0  0  0  0  0  0
    2.2159    1.0151    3.1479 O   0  0  0  0  0  1  0  0  0  0  0  0
    0.8593    2.6990    3.2402 O   0  0  0  0  0  0  0  0  0  0  0  0
    0.0027    2.8657    0.0302 C   0  0  0  0  0  0  0  0  0  0  0  0
    0.9468    3.1738    0.0279 H   0  0  0  0  0  0  0  0  0  0  0  0
   -0.4577    3.1569    0.8607 H   0  0  0  0  0  0  0  0  0  0  0  0
   -0.5032    3.3365   -0.8127 H   0  0  0  0  0  0  0  0  0  0  0  0
    0.0012    1.3735   -0.0024 C   0  0  0  0  0  0  0  0  0  0  0  0
   -1.1639    0.6729    0.0068 C   0  0  0  0  0  0  0  0  0  0  0  0
   -2.0417    1.1654    0.0179 H   0  0  0  0  0  0  0  0  0  0  0  0
   -1.1582   -0.6793   -0.0000 C   0  0  0  0  0  0  0  0  0  0  0  0
   -2.0550   -1.1778    0.0013 H   0  0  0  0  0  0  0  0  0  0  0  0
   -0.0071   -1.3545   -0.0069 C   0  0  0  0  0  0  0  0  0  0  0  0
   -0.0107   -2.3691   -0.0176 H   0  0  0  0  0  0  0  0  0  0  0  0
    1.1582   -0.6840   -0.0000 C   0  0  0  0  0  0  0  0  0  0  0  0
    2.0519   -1.1930    0.0044 H   0  0  0  0  0  0  0  0  0  0  0  0
    1.1698    0.6714    0.0025 C   0  0  0  0  0  0  0  0  0  0  0  0
    2.0478    1.1677    0.0069 H   0  0  0  0  0  0  0  0  0  0  0  0
  1  5  1  0
  5  6  1  0
  5  7  2  0
  1  2  1  0
  1  3  1  0
  1  4  1  0
  8 12  1  0
 12 13  2  0
 13 15  1  0
 15 17  2  0
 17 19  1  0
 19 21  2  0
 21 12  1  0
  8  9  1  0
  8 10  1  0
  8 11  1  0
 13 14  1  0
 15 16  1  0
 17 18  1  0
 19 20  1  0
 21 22  1  0
M  CHG  1   6  -1
M  END
>  <PDB_ID>  (1738) 
pdb4mie

>  <RESIDUE_NAME>  (1738) 
ASP   PHE

>  <FRAG_NAME>  (1738) 
ACET   MBZ

>  <FRAG_ATOM_NUM>  (1738) 
fragi: 7  fragj: 15

>  <atom.prop.CHAIN_ID>  (1738) 
A A A A A A A Z Z Z Z Z Z Z Z Z Z Z Z Z Z Z

>  <atom.prop.IS_HEAVY_ATOM>  (1738) 
1 0 0 0 1 1 1 1 0 0 0 1 1 0 1 0 1 0 1 0 1 0

>  <DIFUSE_FUNC_ATOM>  (1738) 
atom 6   atom 7   

>  <FINAL_SINGLE_POINT_ENERGY>  (1738) 
0

>  <NONCOV_INTER_ENERGY_QM>  (1738) 
0

>  <FF_Energy>  (1738) 
0.11

>  <QM_Energy>  (1738) 
-5.78

>  <source>  (1738) 
ACET_MBZ_01

>  <Index>  (1738) 
36415

$$$$
ACET-pdb4mie-C-ASP-179:MBZ-pdb4mie-C-PHE-125
     RDKit          3D

 22 21  0  0  0  0  0  0  0  0999 V2000
   -0.4961    0.3941    3.5079 C   0  0  0  0  0  0  0  0  0  0  0  0
   -0.3032   -0.3603    2.8897 H   0  0  0  0  0  0  0  0  0  0  0  0
   -1.3534    0.8321    3.2621 H   0  0  0  0  0  0  0  0  0  0  0  0
   -0.5886   -0.0030    4.5187 H   0  0  0  0  0  0  0  0  0  0  0  0
    0.6180    1.4114    3.3888 C   0  0  0  0  0  0  0  0  0  0  0  0
    1.7810    1.0062    3.3265 O   0  0  0  0  0  1  0  0  0  0  0  0
    0.3152    2.6030    3.3549 O   0  0  0  0  0  0  0  0  0  0  0  0
    0.0082    2.8621    0.0270 C   0  0  0  0  0  0  0  0  0  0  0  0
    0.9514    3.1660    0.0772 H   0  0  0  0  0  0  0  0  0  0  0  0
   -0.4986    3.1565    0.8277 H   0  0  0  0  0  0  0  0  0  0  0  0
   -0.4462    3.3329   -0.8447 H   0  0  0  0  0  0  0  0  0  0  0  0
    0.0020    1.3685   -0.0041 C   0  0  0  0  0  0  0  0  0  0  0  0
   -1.1769    0.6669    0.0043 C   0  0  0  0  0  0  0  0  0  0  0  0
   -2.0475    1.1726    0.0120 H   0  0  0  0  0  0  0  0  0  0  0  0
   -1.1788   -0.6756    0.0000 C   0  0  0  0  0  0  0  0  0  0  0  0
   -2.0622   -1.1847    0.0005 H   0  0  0  0  0  0  0  0  0  0  0  0
   -0.0040   -1.3518   -0.0033 C   0  0  0  0  0  0  0  0  0  0  0  0
   -0.0047   -2.3633   -0.0088 H   0  0  0  0  0  0  0  0  0  0  0  0
    1.1788   -0.6740   -0.0000 C   0  0  0  0  0  0  0  0  0  0  0  0
    2.0623   -1.1919    0.0021 H   0  0  0  0  0  0  0  0  0  0  0  0
    1.1789    0.6660    0.0031 C   0  0  0  0  0  0  0  0  0  0  0  0
    2.0514    1.1784    0.0103 H   0  0  0  0  0  0  0  0  0  0  0  0
  1  5  1  0
  5  6  1  0
  5  7  2  0
  1  2  1  0
  1  3  1  0
  1  4  1  0
  8 12  1  0
 12 13  2  0
 13 15  1  0
 15 17  2  0
 17 19  1  0
 19 21  2  0
 21 12  1  0
  8  9  1  0
  8 10  1  0
  8 11  1  0
 13 14  1  0
 15 16  1  0
 17 18  1  0
 19 20  1  0
 21 22  1  0
M  CHG  1   6  -1
M  END
>  <PDB_ID>  (1739) 
pdb4mie

>  <RESIDUE_NAME>  (1739) 
ASP   PHE

>  <FRAG_NAME>  (1739) 
ACET   MBZ

>  <FRAG_ATOM_NUM>  (1739) 
fragi: 7  fragj: 15

>  <atom.prop.CHAIN_ID>  (1739) 
A A A A A A A Z Z Z Z Z Z Z Z Z Z Z Z Z Z Z

>  <atom.prop.IS_HEAVY_ATOM>  (1739) 
1 0 0 0 1 1 1 1 0 0 0 1 1 0 1 0 1 0 1 0 1 0

>  <DIFUSE_FUNC_ATOM>  (1739) 
atom 6   atom 7   

>  <FINAL_SINGLE_POINT_ENERGY>  (1739) 
0

>  <NONCOV_INTER_ENERGY_QM>  (1739) 
0

>  <FF_Energy>  (1739) 
0.57

>  <QM_Energy>  (1739) 
-5.24

>  <source>  (1739) 
ACET_MBZ_01

>  <Index>  (1739) 
36423

$$$$
ACET-pdb4mie-D-ASP-179:MBZ-pdb4mie-D-PHE-125
     RDKit          3D

 22 21  0  0  0  0  0  0  0  0999 V2000
    0.0600    0.3344    3.6222 C   0  0  0  0  0  0  0  0  0  0  0  0
    0.1676   -0.4724    3.0533 H   0  0  0  0  0  0  0  0  0  0  0  0
   -0.8163    0.7683    3.4519 H   0  0  0  0  0  0  0  0  0  0  0  0
    0.0857    0.0192    4.6653 H   0  0  0  0  0  0  0  0  0  0  0  0
    1.1582    1.3064    3.3059 C   0  0  0  0  0  0  0  0  0  0  0  0
    2.2679    0.8489    3.0965 O   0  0  0  0  0  1  0  0  0  0  0  0
    0.9270    2.5096    3.3086 O   0  0  0  0  0  0  0  0  0  0  0  0
    0.0075    2.8858    0.0204 C   0  0  0  0  0  0  0  0  0  0  0  0
    0.9379    3.1876   -0.1369 H   0  0  0  0  0  0  0  0  0  0  0  0
   -0.3164    3.1839    0.9087 H   0  0  0  0  0  0  0  0  0  0  0  0
   -0.6255    3.3470   -0.7376 H   0  0  0  0  0  0  0  0  0  0  0  0
    0.0015    1.3783    0.0076 C   0  0  0  0  0  0  0  0  0  0  0  0
   -1.1795    0.6701    0.0029 C   0  0  0  0  0  0  0  0  0  0  0  0
   -2.0509    1.1716    0.0008 H   0  0  0  0  0  0  0  0  0  0  0  0
   -1.1820   -0.6840    0.0000 C   0  0  0  0  0  0  0  0  0  0  0  0
   -2.0645   -1.1886    0.0070 H   0  0  0  0  0  0  0  0  0  0  0  0
   -0.0022   -1.3656   -0.0107 C   0  0  0  0  0  0  0  0  0  0  0  0
   -0.0004   -2.3712   -0.0272 H   0  0  0  0  0  0  0  0  0  0  0  0
    1.1820   -0.6760   -0.0000 C   0  0  0  0  0  0  0  0  0  0  0  0
    2.0684   -1.1869    0.0092 H   0  0  0  0  0  0  0  0  0  0  0  0
    1.1802    0.6772    0.0002 C   0  0  0  0  0  0  0  0  0  0  0  0
    2.0530    1.1841   -0.0062 H   0  0  0  0  0  0  0  0  0  0  0  0
  1  5  1  0
  5  6  1  0
  5  7  2  0
  1  2  1  0
  1  3  1  0
  1  4  1  0
  8 12  1  0
 12 13  2  0
 13 15  1  0
 15 17  2  0
 17 19  1  0
 19 21  2  0
 21 12  1  0
  8  9  1  0
  8 10  1  0
  8 11  1  0
 13 14  1  0
 15 16  1  0
 17 18  1  0
 19 20  1  0
 21 22  1  0
M  CHG  1   6  -1
M  END
>  <PDB_ID>  (1740) 
pdb4mie

>  <RESIDUE_NAME>  (1740) 
ASP   PHE

>  <FRAG_NAME>  (1740) 
ACET   MBZ

>  <FRAG_ATOM_NUM>  (1740) 
fragi: 7  fragj: 15

>  <atom.prop.CHAIN_ID>  (1740) 
A A A A A A A Z Z Z Z Z Z Z Z Z Z Z Z Z Z Z

>  <atom.prop.IS_HEAVY_ATOM>  (1740) 
1 0 0 0 1 1 1 1 0 0 0 1 1 0 1 0 1 0 1 0 1 0

>  <DIFUSE_FUNC_ATOM>  (1740) 
atom 6   atom 7   

>  <FINAL_SINGLE_POINT_ENERGY>  (1740) 
0

>  <NONCOV_INTER_ENERGY_QM>  (1740) 
0

>  <FF_Energy>  (1740) 
0.2

>  <QM_Energy>  (1740) 
-5.58

>  <source>  (1740) 
ACET_MBZ_01

>  <Index>  (1740) 
36428

$$$$
ACET-pdb3otd-B-ASP-76:MBZ-pdb3otd-B-PHE-33
     RDKit          3D

 22 21  0  0  0  0  0  0  0  0999 V2000
    2.7112    2.6008   -2.9804 C   0  0  0  0  0  0  0  0  0  0  0  0
    2.3354    3.3177   -3.5549 H   0  0  0  0  0  0  0  0  0  0  0  0
    2.0149    1.9294   -2.7582 H   0  0  0  0  0  0  0  0  0  0  0  0
    3.4951    2.0965   -3.5453 H   0  0  0  0  0  0  0  0  0  0  0  0
    3.2171    3.2280   -1.6841 C   0  0  0  0  0  0  0  0  0  0  0  0
    3.9714    2.5622   -0.9284 O   0  0  0  0  0  1  0  0  0  0  0  0
    2.8434    4.3942   -1.4136 O   0  0  0  0  0  0  0  0  0  0  0  0
   -0.0062    2.9116    0.0482 C   0  0  0  0  0  0  0  0  0  0  0  0
   -0.2990    3.2454   -0.8327 H   0  0  0  0  0  0  0  0  0  0  0  0
    0.9045    3.2161    0.2720 H   0  0  0  0  0  0  0  0  0  0  0  0
   -0.6855    3.3145    0.7994 H   0  0  0  0  0  0  0  0  0  0  0  0
    0.0019    1.4088    0.0003 C   0  0  0  0  0  0  0  0  0  0  0  0
   -1.1993    0.6962   -0.0015 C   0  0  0  0  0  0  0  0  0  0  0  0
   -2.0649    1.1873   -0.0054 H   0  0  0  0  0  0  0  0  0  0  0  0
   -1.2092   -0.7007   -0.0000 C   0  0  0  0  0  0  0  0  0  0  0  0
   -2.0850   -1.1908    0.0005 H   0  0  0  0  0  0  0  0  0  0  0  0
   -0.0037   -1.4022    0.0029 C   0  0  0  0  0  0  0  0  0  0  0  0
   -0.0062   -2.3977    0.0067 H   0  0  0  0  0  0  0  0  0  0  0  0
    1.2092   -0.7018    0.0000 C   0  0  0  0  0  0  0  0  0  0  0  0
    2.0851   -1.1967    0.0003 H   0  0  0  0  0  0  0  0  0  0  0  0
    1.2010    0.6996   -0.0017 C   0  0  0  0  0  0  0  0  0  0  0  0
    2.0691    1.1938   -0.0048 H   0  0  0  0  0  0  0  0  0  0  0  0
  1  5  1  0
  5  6  1  0
  5  7  2  0
  1  2  1  0
  1  3  1  0
  1  4  1  0
  8 12  1  0
 12 13  2  0
 13 15  1  0
 15 17  2  0
 17 19  1  0
 19 21  2  0
 21 12  1  0
  8  9  1  0
  8 10  1  0
  8 11  1  0
 13 14  1  0
 15 16  1  0
 17 18  1  0
 19 20  1  0
 21 22  1  0
M  CHG  1   6  -1
M  END
>  <PDB_ID>  (1741) 
pdb3otd

>  <RESIDUE_NAME>  (1741) 
ASP   PHE

>  <FRAG_NAME>  (1741) 
ACET   MBZ

>  <FRAG_ATOM_NUM>  (1741) 
fragi: 7  fragj: 15

>  <atom.prop.CHAIN_ID>  (1741) 
A A A A A A A Z Z Z Z Z Z Z Z Z Z Z Z Z Z Z

>  <atom.prop.IS_HEAVY_ATOM>  (1741) 
1 0 0 0 1 1 1 1 0 0 0 1 1 0 1 0 1 0 1 0 1 0

>  <DIFUSE_FUNC_ATOM>  (1741) 
atom 6   atom 7   

>  <FINAL_SINGLE_POINT_ENERGY>  (1741) 
0

>  <NONCOV_INTER_ENERGY_QM>  (1741) 
0

>  <FF_Energy>  (1741) 
-3.07

>  <QM_Energy>  (1741) 
-8.2

>  <source>  (1741) 
ACET_MBZ_01

>  <Index>  (1741) 
36786

$$$$
ACET-pdb4mmh-A-ASP-496:MBZ-pdb4mmh-A-PHE-516
     RDKit          3D

 22 21  0  0  0  0  0  0  0  0999 V2000
    3.6386    4.8050    0.4190 C   0  0  0  0  0  0  0  0  0  0  0  0
    2.7585    4.5142    0.0614 H   0  0  0  0  0  0  0  0  0  0  0  0
    4.1627    5.2711   -0.2844 H   0  0  0  0  0  0  0  0  0  0  0  0
    3.4585    5.5091    1.2313 H   0  0  0  0  0  0  0  0  0  0  0  0
    4.4119    3.5734    0.8646 C   0  0  0  0  0  0  0  0  0  0  0  0
    3.9320    2.4514    0.6013 O   0  0  0  0  0  1  0  0  0  0  0  0
    5.4890    3.7261    1.4801 O   0  0  0  0  0  0  0  0  0  0  0  0
    0.0254    2.8988   -0.0064 C   0  0  0  0  0  0  0  0  0  0  0  0
   -0.0102    3.1934   -0.9531 H   0  0  0  0  0  0  0  0  0  0  0  0
    0.8701    3.1957    0.4223 H   0  0  0  0  0  0  0  0  0  0  0  0
   -0.8021    3.3719    0.5222 H   0  0  0  0  0  0  0  0  0  0  0  0
    0.0015    1.3974    0.0121 C   0  0  0  0  0  0  0  0  0  0  0  0
   -1.1965    0.6864   -0.0010 C   0  0  0  0  0  0  0  0  0  0  0  0
   -2.0620    1.1772   -0.0126 H   0  0  0  0  0  0  0  0  0  0  0  0
   -1.1944   -0.6986    0.0000 C   0  0  0  0  0  0  0  0  0  0  0  0
   -2.0694   -1.1974    0.0146 H   0  0  0  0  0  0  0  0  0  0  0  0
    0.0051   -1.3841   -0.0167 C   0  0  0  0  0  0  0  0  0  0  0  0
    0.0037   -2.3866   -0.0418 H   0  0  0  0  0  0  0  0  0  0  0  0
    1.1944   -0.6897   -0.0000 C   0  0  0  0  0  0  0  0  0  0  0  0
    2.0801   -1.1888    0.0098 H   0  0  0  0  0  0  0  0  0  0  0  0
    1.1899    0.6885    0.0057 C   0  0  0  0  0  0  0  0  0  0  0  0
    2.0615    1.1886    0.0042 H   0  0  0  0  0  0  0  0  0  0  0  0
  1  5  1  0
  5  6  1  0
  5  7  2  0
  1  2  1  0
  1  3  1  0
  1  4  1  0
  8 12  1  0
 12 13  2  0
 13 15  1  0
 15 17  2  0
 17 19  1  0
 19 21  2  0
 21 12  1  0
  8  9  1  0
  8 10  1  0
  8 11  1  0
 13 14  1  0
 15 16  1  0
 17 18  1  0
 19 20  1  0
 21 22  1  0
M  CHG  1   6  -1
M  END
>  <PDB_ID>  (1742) 
pdb4mmh

>  <RESIDUE_NAME>  (1742) 
ASP   PHE

>  <FRAG_NAME>  (1742) 
ACET   MBZ

>  <FRAG_ATOM_NUM>  (1742) 
fragi: 7  fragj: 15

>  <atom.prop.CHAIN_ID>  (1742) 
A A A A A A A Z Z Z Z Z Z Z Z Z Z Z Z Z Z Z

>  <atom.prop.IS_HEAVY_ATOM>  (1742) 
1 0 0 0 1 1 1 1 0 0 0 1 1 0 1 0 1 0 1 0 1 0

>  <DIFUSE_FUNC_ATOM>  (1742) 
atom 6   atom 7   

>  <FINAL_SINGLE_POINT_ENERGY>  (1742) 
0

>  <NONCOV_INTER_ENERGY_QM>  (1742) 
0

>  <FF_Energy>  (1742) 
-2.07

>  <QM_Energy>  (1742) 
-7.12

>  <source>  (1742) 
ACET_MBZ_01

>  <Index>  (1742) 
36805

$$$$
ACET-pdb3owa-A-GLU-504:MBZ-pdb3owa-A-PHE-14
     RDKit          3D

 22 21  0  0  0  0  0  0  0  0999 V2000
   -3.5430    5.2923   -3.7044 C   0  0  0  0  0  0  0  0  0  0  0  0
   -2.8853    5.5465   -4.3912 H   0  0  0  0  0  0  0  0  0  0  0  0
   -4.2253    5.9893   -3.5729 H   0  0  0  0  0  0  0  0  0  0  0  0
   -4.0398    4.3762   -4.0239 H   0  0  0  0  0  0  0  0  0  0  0  0
   -2.7726    5.1607   -2.3710 C   0  0  0  0  0  0  0  0  0  0  0  0
   -2.9905    6.0055   -1.4708 O   0  0  0  0  0  1  0  0  0  0  0  0
   -1.9417    4.2288   -2.2130 O   0  0  0  0  0  0  0  0  0  0  0  0
    0.0111    2.9254   -0.0044 C   0  0  0  0  0  0  0  0  0  0  0  0
   -0.7734    3.2323   -0.5213 H   0  0  0  0  0  0  0  0  0  0  0  0
    0.8567    3.2221   -0.4208 H   0  0  0  0  0  0  0  0  0  0  0  0
   -0.0469    3.3727    0.9879 H   0  0  0  0  0  0  0  0  0  0  0  0
    0.0018    1.4114   -0.0023 C   0  0  0  0  0  0  0  0  0  0  0  0
   -1.1972    0.7032   -0.0091 C   0  0  0  0  0  0  0  0  0  0  0  0
   -2.0635    1.1877   -0.0216 H   0  0  0  0  0  0  0  0  0  0  0  0
   -1.2013   -0.7005    0.0000 C   0  0  0  0  0  0  0  0  0  0  0  0
   -2.0825   -1.1860    0.0022 H   0  0  0  0  0  0  0  0  0  0  0  0
   -0.0056   -1.3987    0.0070 C   0  0  0  0  0  0  0  0  0  0  0  0
   -0.0102   -2.3982    0.0171 H   0  0  0  0  0  0  0  0  0  0  0  0
    1.2013   -0.7072    0.0000 C   0  0  0  0  0  0  0  0  0  0  0  0
    2.0794   -1.2050   -0.0061 H   0  0  0  0  0  0  0  0  0  0  0  0
    1.2010    0.6918    0.0043 C   0  0  0  0  0  0  0  0  0  0  0  0
    2.0703    1.1839    0.0112 H   0  0  0  0  0  0  0  0  0  0  0  0
  1  5  1  0
  5  6  1  0
  5  7  2  0
  1  2  1  0
  1  3  1  0
  1  4  1  0
  8 12  1  0
 12 13  2  0
 13 15  1  0
 15 17  2  0
 17 19  1  0
 19 21  2  0
 21 12  1  0
  8  9  1  0
  8 10  1  0
  8 11  1  0
 13 14  1  0
 15 16  1  0
 17 18  1  0
 19 20  1  0
 21 22  1  0
M  CHG  1   6  -1
M  END
>  <PDB_ID>  (1743) 
pdb3owa

>  <RESIDUE_NAME>  (1743) 
GLU   PHE

>  <FRAG_NAME>  (1743) 
ACET   MBZ

>  <FRAG_ATOM_NUM>  (1743) 
fragi: 7  fragj: 15

>  <atom.prop.CHAIN_ID>  (1743) 
A A A A A A A Z Z Z Z Z Z Z Z Z Z Z Z Z Z Z

>  <atom.prop.IS_HEAVY_ATOM>  (1743) 
1 0 0 0 1 1 1 1 0 0 0 1 1 0 1 0 1 0 1 0 1 0

>  <DIFUSE_FUNC_ATOM>  (1743) 
atom 6   atom 7   

>  <FINAL_SINGLE_POINT_ENERGY>  (1743) 
0

>  <NONCOV_INTER_ENERGY_QM>  (1743) 
0

>  <FF_Energy>  (1743) 
-0.15

>  <QM_Energy>  (1743) 
-5.95

>  <source>  (1743) 
ACET_MBZ_01

>  <Index>  (1743) 
36961

$$$$
ACET-pdb3ox6-E-ASP-35:MBZ-pdb3ox6-E-PHE-31
     RDKit          3D

 22 21  0  0  0  0  0  0  0  0999 V2000
    0.9830   -0.7810   -4.5048 C   0  0  0  0  0  0  0  0  0  0  0  0
    0.1831   -0.2161   -4.7202 H   0  0  0  0  0  0  0  0  0  0  0  0
    0.7729   -1.7372   -4.7171 H   0  0  0  0  0  0  0  0  0  0  0  0
    1.8111   -0.4608   -5.1370 H   0  0  0  0  0  0  0  0  0  0  0  0
    1.2507   -0.6742   -3.0118 C   0  0  0  0  0  0  0  0  0  0  0  0
    2.3533   -0.2459   -2.6100 O   0  0  0  0  0  1  0  0  0  0  0  0
    0.3316   -1.0132   -2.2550 O   0  0  0  0  0  0  0  0  0  0  0  0
    0.0162    2.9163    0.0129 C   0  0  0  0  0  0  0  0  0  0  0  0
    0.4267    3.2119    0.8631 H   0  0  0  0  0  0  0  0  0  0  0  0
   -0.9218    3.2236   -0.0583 H   0  0  0  0  0  0  0  0  0  0  0  0
    0.5809    3.3583   -0.8080 H   0  0  0  0  0  0  0  0  0  0  0  0
    0.0033    1.4008    0.0124 C   0  0  0  0  0  0  0  0  0  0  0  0
   -1.1967    0.7032    0.0017 C   0  0  0  0  0  0  0  0  0  0  0  0
   -2.0615    1.1896   -0.0061 H   0  0  0  0  0  0  0  0  0  0  0  0
   -1.2092   -0.7044   -0.0000 C   0  0  0  0  0  0  0  0  0  0  0  0
   -2.0811   -1.1899    0.0088 H   0  0  0  0  0  0  0  0  0  0  0  0
    0.0011   -1.3961   -0.0124 C   0  0  0  0  0  0  0  0  0  0  0  0
    0.0054   -2.3923   -0.0309 H   0  0  0  0  0  0  0  0  0  0  0  0
    1.2092   -0.6876   -0.0000 C   0  0  0  0  0  0  0  0  0  0  0  0
    2.0863   -1.1914    0.0114 H   0  0  0  0  0  0  0  0  0  0  0  0
    1.1924    0.6840   -0.0018 C   0  0  0  0  0  0  0  0  0  0  0  0
    2.0649    1.1929   -0.0140 H   0  0  0  0  0  0  0  0  0  0  0  0
  1  5  1  0
  5  6  1  0
  5  7  2  0
  1  2  1  0
  1  3  1  0
  1  4  1  0
  8 12  1  0
 12 13  2  0
 13 15  1  0
 15 17  2  0
 17 19  1  0
 19 21  2  0
 21 12  1  0
  8  9  1  0
  8 10  1  0
  8 11  1  0
 13 14  1  0
 15 16  1  0
 17 18  1  0
 19 20  1  0
 21 22  1  0
M  CHG  1   6  -1
M  END
>  <PDB_ID>  (1744) 
pdb3ox6

>  <RESIDUE_NAME>  (1744) 
ASP   PHE

>  <FRAG_NAME>  (1744) 
ACET   MBZ

>  <FRAG_ATOM_NUM>  (1744) 
fragi: 7  fragj: 15

>  <atom.prop.CHAIN_ID>  (1744) 
A A A A A A A Z Z Z Z Z Z Z Z Z Z Z Z Z Z Z

>  <atom.prop.IS_HEAVY_ATOM>  (1744) 
1 0 0 0 1 1 1 1 0 0 0 1 1 0 1 0 1 0 1 0 1 0

>  <DIFUSE_FUNC_ATOM>  (1744) 
atom 6   atom 7   

>  <FINAL_SINGLE_POINT_ENERGY>  (1744) 
0

>  <NONCOV_INTER_ENERGY_QM>  (1744) 
0

>  <FF_Energy>  (1744) 
48.53

>  <QM_Energy>  (1744) 
15.68

>  <source>  (1744) 
ACET_MBZ_01

>  <Index>  (1744) 
36982

$$$$
ACET-pdb3p0c-B-ASP-52:MBZ-pdb3p0c-B-PHE-119
     RDKit          3D

 22 21  0  0  0  0  0  0  0  0999 V2000
   -0.1113    5.2410   -3.7210 C   0  0  0  0  0  0  0  0  0  0  0  0
    0.7818    4.9191   -3.9987 H   0  0  0  0  0  0  0  0  0  0  0  0
   -0.0401    5.9124   -2.9992 H   0  0  0  0  0  0  0  0  0  0  0  0
   -0.5813    5.7175   -4.5813 H   0  0  0  0  0  0  0  0  0  0  0  0
   -0.9204    4.0514   -3.2048 C   0  0  0  0  0  0  0  0  0  0  0  0
   -2.1403    4.2035   -3.0108 O   0  0  0  0  0  1  0  0  0  0  0  0
   -0.3480    2.9610   -3.0082 O   0  0  0  0  0  0  0  0  0  0  0  0
   -0.0054    2.9011    0.0223 C   0  0  0  0  0  0  0  0  0  0  0  0
   -0.8368    3.2150   -0.4070 H   0  0  0  0  0  0  0  0  0  0  0  0
    0.7951    3.2201   -0.4607 H   0  0  0  0  0  0  0  0  0  0  0  0
    0.0263    3.3258    1.0257 H   0  0  0  0  0  0  0  0  0  0  0  0
   -0.0012    1.4045    0.0038 C   0  0  0  0  0  0  0  0  0  0  0  0
   -1.2010    0.6955    0.0036 C   0  0  0  0  0  0  0  0  0  0  0  0
   -2.0668    1.1827    0.0046 H   0  0  0  0  0  0  0  0  0  0  0  0
   -1.2059   -0.7036   -0.0000 C   0  0  0  0  0  0  0  0  0  0  0  0
   -2.0787   -1.1961    0.0099 H   0  0  0  0  0  0  0  0  0  0  0  0
    0.0036   -1.3983   -0.0148 C   0  0  0  0  0  0  0  0  0  0  0  0
    0.0011   -2.3963   -0.0366 H   0  0  0  0  0  0  0  0  0  0  0  0
    1.2059   -0.6977    0.0000 C   0  0  0  0  0  0  0  0  0  0  0  0
    2.0879   -1.1911    0.0073 H   0  0  0  0  0  0  0  0  0  0  0  0
    1.1986    0.6995    0.0074 C   0  0  0  0  0  0  0  0  0  0  0  0
    2.0648    1.1952    0.0147 H   0  0  0  0  0  0  0  0  0  0  0  0
  1  5  1  0
  5  6  1  0
  5  7  2  0
  1  2  1  0
  1  3  1  0
  1  4  1  0
  8 12  1  0
 12 13  2  0
 13 15  1  0
 15 17  2  0
 17 19  1  0
 19 21  2  0
 21 12  1  0
  8  9  1  0
  8 10  1  0
  8 11  1  0
 13 14  1  0
 15 16  1  0
 17 18  1  0
 19 20  1  0
 21 22  1  0
M  CHG  1   6  -1
M  END
>  <PDB_ID>  (1745) 
pdb3p0c

>  <RESIDUE_NAME>  (1745) 
ASP   PHE

>  <FRAG_NAME>  (1745) 
ACET   MBZ

>  <FRAG_ATOM_NUM>  (1745) 
fragi: 7  fragj: 15

>  <atom.prop.CHAIN_ID>  (1745) 
A A A A A A A Z Z Z Z Z Z Z Z Z Z Z Z Z Z Z

>  <atom.prop.IS_HEAVY_ATOM>  (1745) 
1 0 0 0 1 1 1 1 0 0 0 1 1 0 1 0 1 0 1 0 1 0

>  <DIFUSE_FUNC_ATOM>  (1745) 
atom 6   atom 7   

>  <FINAL_SINGLE_POINT_ENERGY>  (1745) 
0

>  <NONCOV_INTER_ENERGY_QM>  (1745) 
0

>  <FF_Energy>  (1745) 
1.58

>  <QM_Energy>  (1745) 
-4.56

>  <source>  (1745) 
ACET_MBZ_01

>  <Index>  (1745) 
37104

$$$$
ACET-pdb3p2c-B-ASP-366:MBZ-pdb3p2c-B-PHE-286
     RDKit          3D

 22 21  0  0  0  0  0  0  0  0999 V2000
   -3.7712    4.6504   -3.4576 C   0  0  0  0  0  0  0  0  0  0  0  0
   -3.2828    4.6275   -4.3256 H   0  0  0  0  0  0  0  0  0  0  0  0
   -3.5855    5.5047   -2.9817 H   0  0  0  0  0  0  0  0  0  0  0  0
   -4.8402    4.5980   -3.6643 H   0  0  0  0  0  0  0  0  0  0  0  0
   -3.3015    3.5085   -2.6071 C   0  0  0  0  0  0  0  0  0  0  0  0
   -4.1309    3.0098   -1.7981 O   0  0  0  0  0  1  0  0  0  0  0  0
   -2.1175    3.0981   -2.7064 O   0  0  0  0  0  0  0  0  0  0  0  0
    0.1298    2.9265   -0.0288 C   0  0  0  0  0  0  0  0  0  0  0  0
    0.4115    3.2033   -0.9459 H   0  0  0  0  0  0  0  0  0  0  0  0
    0.8339    3.1838    0.6317 H   0  0  0  0  0  0  0  0  0  0  0  0
   -0.7679    3.4931    0.2184 H   0  0  0  0  0  0  0  0  0  0  0  0
    0.0066    1.4248   -0.0147 C   0  0  0  0  0  0  0  0  0  0  0  0
   -1.1989    0.7321   -0.0219 C   0  0  0  0  0  0  0  0  0  0  0  0
   -2.0602    1.1869   -0.0428 H   0  0  0  0  0  0  0  0  0  0  0  0
   -1.1773   -0.7120   -0.0000 C   0  0  0  0  0  0  0  0  0  0  0  0
   -2.0677   -1.1855    0.0057 H   0  0  0  0  0  0  0  0  0  0  0  0
    0.0075   -1.3982    0.0134 C   0  0  0  0  0  0  0  0  0  0  0  0
   -0.0103   -2.4093    0.0330 H   0  0  0  0  0  0  0  0  0  0  0  0
    1.1773   -0.7308   -0.0000 C   0  0  0  0  0  0  0  0  0  0  0  0
    2.0727   -1.2101   -0.0255 H   0  0  0  0  0  0  0  0  0  0  0  0
    1.1847    0.6839    0.0231 C   0  0  0  0  0  0  0  0  0  0  0  0
    2.0678    1.1572    0.0676 H   0  0  0  0  0  0  0  0  0  0  0  0
  1  5  1  0
  5  6  1  0
  5  7  2  0
  1  2  1  0
  1  3  1  0
  1  4  1  0
  8 12  1  0
 12 13  2  0
 13 15  1  0
 15 17  2  0
 17 19  1  0
 19 21  2  0
 21 12  1  0
  8  9  1  0
  8 10  1  0
  8 11  1  0
 13 14  1  0
 15 16  1  0
 17 18  1  0
 19 20  1  0
 21 22  1  0
M  CHG  1   6  -1
M  END
>  <PDB_ID>  (1746) 
pdb3p2c

>  <RESIDUE_NAME>  (1746) 
ASP   PHE

>  <FRAG_NAME>  (1746) 
ACET   MBZ

>  <FRAG_ATOM_NUM>  (1746) 
fragi: 7  fragj: 15

>  <atom.prop.CHAIN_ID>  (1746) 
A A A A A A A Z Z Z Z Z Z Z Z Z Z Z Z Z Z Z

>  <atom.prop.IS_HEAVY_ATOM>  (1746) 
1 0 0 0 1 1 1 1 0 0 0 1 1 0 1 0 1 0 1 0 1 0

>  <DIFUSE_FUNC_ATOM>  (1746) 
atom 6   atom 7   

>  <FINAL_SINGLE_POINT_ENERGY>  (1746) 
0

>  <NONCOV_INTER_ENERGY_QM>  (1746) 
0

>  <FF_Energy>  (1746) 
-0.61

>  <QM_Energy>  (1746) 
-5.62

>  <source>  (1746) 
ACET_MBZ_01

>  <Index>  (1746) 
37287

$$$$
ACET-pdb3p5m-A-ASP-232:MBZ-pdb3p5m-A-PHE-248
     RDKit          3D

 22 21  0  0  0  0  0  0  0  0999 V2000
   -4.0238    1.6493    2.3129 C   0  0  0  0  0  0  0  0  0  0  0  0
   -4.5252    1.7714    3.1640 H   0  0  0  0  0  0  0  0  0  0  0  0
   -3.3497    0.9246    2.4130 H   0  0  0  0  0  0  0  0  0  0  0  0
   -4.7387    1.3298    1.5546 H   0  0  0  0  0  0  0  0  0  0  0  0
   -3.3422    2.9184    1.9496 C   0  0  0  0  0  0  0  0  0  0  0  0
   -3.6015    3.4210    0.8439 O   0  0  0  0  0  1  0  0  0  0  0  0
   -2.5373    3.4024    2.7548 O   0  0  0  0  0  0  0  0  0  0  0  0
    0.0199    2.9103    0.0027 C   0  0  0  0  0  0  0  0  0  0  0  0
    0.9570    3.2111   -0.1079 H   0  0  0  0  0  0  0  0  0  0  0  0
   -0.3500    3.2077    0.8721 H   0  0  0  0  0  0  0  0  0  0  0  0
   -0.5737    3.3695   -0.7878 H   0  0  0  0  0  0  0  0  0  0  0  0
    0.0074    1.4119   -0.0189 C   0  0  0  0  0  0  0  0  0  0  0  0
   -1.2025    0.7073    0.0128 C   0  0  0  0  0  0  0  0  0  0  0  0
   -2.0645    1.1957    0.0432 H   0  0  0  0  0  0  0  0  0  0  0  0
   -1.2218   -0.7100    0.0000 C   0  0  0  0  0  0  0  0  0  0  0  0
   -2.0978   -1.1853   -0.0316 H   0  0  0  0  0  0  0  0  0  0  0  0
   -0.0183   -1.4083    0.0330 C   0  0  0  0  0  0  0  0  0  0  0  0
   -0.0058   -2.3991    0.0790 H   0  0  0  0  0  0  0  0  0  0  0  0
    1.2218   -0.6955   -0.0000 C   0  0  0  0  0  0  0  0  0  0  0  0
    2.0848   -1.2060   -0.0020 H   0  0  0  0  0  0  0  0  0  0  0  0
    1.2133    0.6945   -0.0269 C   0  0  0  0  0  0  0  0  0  0  0  0
    2.0779    1.1964   -0.0531 H   0  0  0  0  0  0  0  0  0  0  0  0
  1  5  1  0
  5  6  1  0
  5  7  2  0
  1  2  1  0
  1  3  1  0
  1  4  1  0
  8 12  1  0
 12 13  2  0
 13 15  1  0
 15 17  2  0
 17 19  1  0
 19 21  2  0
 21 12  1  0
  8  9  1  0
  8 10  1  0
  8 11  1  0
 13 14  1  0
 15 16  1  0
 17 18  1  0
 19 20  1  0
 21 22  1  0
M  CHG  1   6  -1
M  END
>  <PDB_ID>  (1747) 
pdb3p5m

>  <RESIDUE_NAME>  (1747) 
ASP   PHE

>  <FRAG_NAME>  (1747) 
ACET   MBZ

>  <FRAG_ATOM_NUM>  (1747) 
fragi: 7  fragj: 15

>  <atom.prop.CHAIN_ID>  (1747) 
A A A A A A A Z Z Z Z Z Z Z Z Z Z Z Z Z Z Z

>  <atom.prop.IS_HEAVY_ATOM>  (1747) 
1 0 0 0 1 1 1 1 0 0 0 1 1 0 1 0 1 0 1 0 1 0

>  <DIFUSE_FUNC_ATOM>  (1747) 
atom 6   atom 7   

>  <FINAL_SINGLE_POINT_ENERGY>  (1747) 
0

>  <NONCOV_INTER_ENERGY_QM>  (1747) 
0

>  <FF_Energy>  (1747) 
-2.33

>  <QM_Energy>  (1747) 
-7.73

>  <source>  (1747) 
ACET_MBZ_01

>  <Index>  (1747) 
37447

$$$$
ACET-pdb3p5m-B-ASP-232:MBZ-pdb3p5m-B-PHE-248
     RDKit          3D

 22 21  0  0  0  0  0  0  0  0999 V2000
   -4.2152    1.4412    1.6894 C   0  0  0  0  0  0  0  0  0  0  0  0
   -4.7529    1.5074    2.5218 H   0  0  0  0  0  0  0  0  0  0  0  0
   -3.4956    0.7654    1.7914 H   0  0  0  0  0  0  0  0  0  0  0  0
   -4.8751    1.1139    0.8860 H   0  0  0  0  0  0  0  0  0  0  0  0
   -3.6010    2.7733    1.3953 C   0  0  0  0  0  0  0  0  0  0  0  0
   -3.8447    3.3074    0.2946 O   0  0  0  0  0  1  0  0  0  0  0  0
   -2.8490    3.2944    2.2423 O   0  0  0  0  0  0  0  0  0  0  0  0
    0.0024    2.9240    0.0104 C   0  0  0  0  0  0  0  0  0  0  0  0
    0.9422    3.2280    0.0136 H   0  0  0  0  0  0  0  0  0  0  0  0
   -0.4790    3.2245    0.8184 H   0  0  0  0  0  0  0  0  0  0  0  0
   -0.4905    3.3595   -0.8588 H   0  0  0  0  0  0  0  0  0  0  0  0
    0.0025    1.4197    0.0056 C   0  0  0  0  0  0  0  0  0  0  0  0
   -1.2010    0.6978    0.0038 C   0  0  0  0  0  0  0  0  0  0  0  0
   -2.0700    1.1793    0.0037 H   0  0  0  0  0  0  0  0  0  0  0  0
   -1.2139   -0.7246   -0.0000 C   0  0  0  0  0  0  0  0  0  0  0  0
   -2.0881   -1.2009    0.0045 H   0  0  0  0  0  0  0  0  0  0  0  0
   -0.0061   -1.4145   -0.0085 C   0  0  0  0  0  0  0  0  0  0  0  0
    0.0096   -2.4070   -0.0212 H   0  0  0  0  0  0  0  0  0  0  0  0
    1.2139   -0.6940   -0.0000 C   0  0  0  0  0  0  0  0  0  0  0  0
    2.0908   -1.1875    0.0082 H   0  0  0  0  0  0  0  0  0  0  0  0
    1.2046    0.7157   -0.0010 C   0  0  0  0  0  0  0  0  0  0  0  0
    2.0709    1.2067   -0.0078 H   0  0  0  0  0  0  0  0  0  0  0  0
  1  5  1  0
  5  6  1  0
  5  7  2  0
  1  2  1  0
  1  3  1  0
  1  4  1  0
  8 12  1  0
 12 13  2  0
 13 15  1  0
 15 17  2  0
 17 19  1  0
 19 21  2  0
 21 12  1  0
  8  9  1  0
  8 10  1  0
  8 11  1  0
 13 14  1  0
 15 16  1  0
 17 18  1  0
 19 20  1  0
 21 22  1  0
M  CHG  1   6  -1
M  END
>  <PDB_ID>  (1748) 
pdb3p5m

>  <RESIDUE_NAME>  (1748) 
ASP   PHE

>  <FRAG_NAME>  (1748) 
ACET   MBZ

>  <FRAG_ATOM_NUM>  (1748) 
fragi: 7  fragj: 15

>  <atom.prop.CHAIN_ID>  (1748) 
A A A A A A A Z Z Z Z Z Z Z Z Z Z Z Z Z Z Z

>  <atom.prop.IS_HEAVY_ATOM>  (1748) 
1 0 0 0 1 1 1 1 0 0 0 1 1 0 1 0 1 0 1 0 1 0

>  <DIFUSE_FUNC_ATOM>  (1748) 
atom 6   atom 7   

>  <FINAL_SINGLE_POINT_ENERGY>  (1748) 
0

>  <NONCOV_INTER_ENERGY_QM>  (1748) 
0

>  <FF_Energy>  (1748) 
-1.52

>  <QM_Energy>  (1748) 
-7.68

>  <source>  (1748) 
ACET_MBZ_01

>  <Index>  (1748) 
37448

$$$$
ACET-pdb4n0v-B-ASP-167:MBZ-pdb4n0v-B-PHE-157
     RDKit          3D

 22 21  0  0  0  0  0  0  0  0999 V2000
   -4.4962    2.9802    2.6171 C   0  0  0  0  0  0  0  0  0  0  0  0
   -4.3187    2.4969    3.4668 H   0  0  0  0  0  0  0  0  0  0  0  0
   -4.9733    2.3931    1.9745 H   0  0  0  0  0  0  0  0  0  0  0  0
   -5.1567    3.8160    2.8484 H   0  0  0  0  0  0  0  0  0  0  0  0
   -3.2038    3.4305    2.0192 C   0  0  0  0  0  0  0  0  0  0  0  0
   -3.2245    3.7336    0.8103 O   0  0  0  0  0  1  0  0  0  0  0  0
   -2.1891    3.6130    2.7433 O   0  0  0  0  0  0  0  0  0  0  0  0
   -0.0013    2.9074    0.0291 C   0  0  0  0  0  0  0  0  0  0  0  0
    0.9031    3.2027    0.3016 H   0  0  0  0  0  0  0  0  0  0  0  0
   -0.6862    3.2110    0.6766 H   0  0  0  0  0  0  0  0  0  0  0  0
   -0.2270    3.3585   -0.9372 H   0  0  0  0  0  0  0  0  0  0  0  0
   -0.0072    1.3842    0.0373 C   0  0  0  0  0  0  0  0  0  0  0  0
   -1.1904    0.6841   -0.0184 C   0  0  0  0  0  0  0  0  0  0  0  0
   -2.0593    1.1767   -0.0738 H   0  0  0  0  0  0  0  0  0  0  0  0
   -1.1966   -0.6923   -0.0000 C   0  0  0  0  0  0  0  0  0  0  0  0
   -2.0665   -1.1928    0.0223 H   0  0  0  0  0  0  0  0  0  0  0  0
    0.0086   -1.3710   -0.0106 C   0  0  0  0  0  0  0  0  0  0  0  0
    0.0005   -2.3814   -0.0264 H   0  0  0  0  0  0  0  0  0  0  0  0
    1.1966   -0.6927    0.0000 C   0  0  0  0  0  0  0  0  0  0  0  0
    2.0803   -1.1891    0.0147 H   0  0  0  0  0  0  0  0  0  0  0  0
    1.1890    0.6876   -0.0083 C   0  0  0  0  0  0  0  0  0  0  0  0
    2.0537    1.1903   -0.0484 H   0  0  0  0  0  0  0  0  0  0  0  0
  1  5  1  0
  5  6  1  0
  5  7  2  0
  1  2  1  0
  1  3  1  0
  1  4  1  0
  8 12  1  0
 12 13  2  0
 13 15  1  0
 15 17  2  0
 17 19  1  0
 19 21  2  0
 21 12  1  0
  8  9  1  0
  8 10  1  0
  8 11  1  0
 13 14  1  0
 15 16  1  0
 17 18  1  0
 19 20  1  0
 21 22  1  0
M  CHG  1   6  -1
M  END
>  <PDB_ID>  (1749) 
pdb4n0v

>  <RESIDUE_NAME>  (1749) 
ASP   PHE

>  <FRAG_NAME>  (1749) 
ACET   MBZ

>  <FRAG_ATOM_NUM>  (1749) 
fragi: 7  fragj: 15

>  <atom.prop.CHAIN_ID>  (1749) 
A A A A A A A Z Z Z Z Z Z Z Z Z Z Z Z Z Z Z

>  <atom.prop.IS_HEAVY_ATOM>  (1749) 
1 0 0 0 1 1 1 1 0 0 0 1 1 0 1 0 1 0 1 0 1 0

>  <DIFUSE_FUNC_ATOM>  (1749) 
atom 6   atom 7   

>  <FINAL_SINGLE_POINT_ENERGY>  (1749) 
0

>  <NONCOV_INTER_ENERGY_QM>  (1749) 
0

>  <FF_Energy>  (1749) 
-1.64

>  <QM_Energy>  (1749) 
-7.89

>  <source>  (1749) 
ACET_MBZ_01

>  <Index>  (1749) 
37612

$$$$
ACET-pdb4n49-A-GLU-285:MBZ-pdb4n49-A-PHE-232
     RDKit          3D

 22 21  0  0  0  0  0  0  0  0999 V2000
   -4.9428    1.8212    0.8233 C   0  0  0  0  0  0  0  0  0  0  0  0
   -4.6104    0.9252    0.5838 H   0  0  0  0  0  0  0  0  0  0  0  0
   -5.8792    1.9512    0.5467 H   0  0  0  0  0  0  0  0  0  0  0  0
   -4.8902    1.9243    1.9072 H   0  0  0  0  0  0  0  0  0  0  0  0
   -4.0951    2.8430    0.0548 C   0  0  0  0  0  0  0  0  0  0  0  0
   -3.2173    3.5059    0.6391 O   0  0  0  0  0  1  0  0  0  0  0  0
   -4.3081    2.9805   -1.1603 O   0  0  0  0  0  0  0  0  0  0  0  0
   -0.0068    2.8986   -0.0310 C   0  0  0  0  0  0  0  0  0  0  0  0
    0.9132    3.2176    0.1323 H   0  0  0  0  0  0  0  0  0  0  0  0
   -0.6305    3.2189    0.6640 H   0  0  0  0  0  0  0  0  0  0  0  0
   -0.3355    3.3109   -0.9849 H   0  0  0  0  0  0  0  0  0  0  0  0
    0.0028    1.4023   -0.0010 C   0  0  0  0  0  0  0  0  0  0  0  0
   -1.2001    0.6818    0.0055 C   0  0  0  0  0  0  0  0  0  0  0  0
   -2.0647    1.1825    0.0132 H   0  0  0  0  0  0  0  0  0  0  0  0
   -1.2104   -0.6970   -0.0000 C   0  0  0  0  0  0  0  0  0  0  0  0
   -2.0841   -1.1960   -0.0026 H   0  0  0  0  0  0  0  0  0  0  0  0
   -0.0043   -1.3983   -0.0003 C   0  0  0  0  0  0  0  0  0  0  0  0
   -0.0061   -2.3940   -0.0010 H   0  0  0  0  0  0  0  0  0  0  0  0
    1.2104   -0.6975    0.0000 C   0  0  0  0  0  0  0  0  0  0  0  0
    2.0863   -1.1915    0.0048 H   0  0  0  0  0  0  0  0  0  0  0  0
    1.2017    0.7086   -0.0042 C   0  0  0  0  0  0  0  0  0  0  0  0
    2.0676    1.1995   -0.0107 H   0  0  0  0  0  0  0  0  0  0  0  0
  1  5  1  0
  5  6  1  0
  5  7  2  0
  1  2  1  0
  1  3  1  0
  1  4  1  0
  8 12  1  0
 12 13  2  0
 13 15  1  0
 15 17  2  0
 17 19  1  0
 19 21  2  0
 21 12  1  0
  8  9  1  0
  8 10  1  0
  8 11  1  0
 13 14  1  0
 15 16  1  0
 17 18  1  0
 19 20  1  0
 21 22  1  0
M  CHG  1   6  -1
M  END
>  <PDB_ID>  (1750) 
pdb4n49

>  <RESIDUE_NAME>  (1750) 
GLU   PHE

>  <FRAG_NAME>  (1750) 
ACET   MBZ

>  <FRAG_ATOM_NUM>  (1750) 
fragi: 7  fragj: 15

>  <atom.prop.CHAIN_ID>  (1750) 
A A A A A A A Z Z Z Z Z Z Z Z Z Z Z Z Z Z Z

>  <atom.prop.IS_HEAVY_ATOM>  (1750) 
1 0 0 0 1 1 1 1 0 0 0 1 1 0 1 0 1 0 1 0 1 0

>  <DIFUSE_FUNC_ATOM>  (1750) 
atom 6   atom 7   

>  <FINAL_SINGLE_POINT_ENERGY>  (1750) 
0

>  <NONCOV_INTER_ENERGY_QM>  (1750) 
0

>  <FF_Energy>  (1750) 
-1.99

>  <QM_Energy>  (1750) 
-7.57

>  <source>  (1750) 
ACET_MBZ_01

>  <Index>  (1750) 
37742

$$$$
ACET-pdb4n54-B-ASP-62:MBZ-pdb4n54-B-PHE-57
     RDKit          3D

 22 21  0  0  0  0  0  0  0  0999 V2000
   -3.3572    2.4313    3.2927 C   0  0  0  0  0  0  0  0  0  0  0  0
   -4.0288    3.1132    3.5679 H   0  0  0  0  0  0  0  0  0  0  0  0
   -2.5646    2.8749    2.8864 H   0  0  0  0  0  0  0  0  0  0  0  0
   -3.0243    1.9099    4.1901 H   0  0  0  0  0  0  0  0  0  0  0  0
   -3.9828    1.5125    2.2699 C   0  0  0  0  0  0  0  0  0  0  0  0
   -4.6166    0.5148    2.6602 O   0  0  0  0  0  1  0  0  0  0  0  0
   -3.8509    1.7984    1.0634 O   0  0  0  0  0  0  0  0  0  0  0  0
    0.0034    2.8828    0.0032 C   0  0  0  0  0  0  0  0  0  0  0  0
    0.8279    3.1849    0.4631 H   0  0  0  0  0  0  0  0  0  0  0  0
   -0.8048    3.1877    0.4893 H   0  0  0  0  0  0  0  0  0  0  0  0
   -0.0122    3.3309   -0.9902 H   0  0  0  0  0  0  0  0  0  0  0  0
    0.0013    1.3844   -0.0023 C   0  0  0  0  0  0  0  0  0  0  0  0
   -1.1797    0.6782    0.0081 C   0  0  0  0  0  0  0  0  0  0  0  0
   -2.0511    1.1723    0.0204 H   0  0  0  0  0  0  0  0  0  0  0  0
   -1.1784   -0.6863    0.0000 C   0  0  0  0  0  0  0  0  0  0  0  0
   -2.0630   -1.1867   -0.0001 H   0  0  0  0  0  0  0  0  0  0  0  0
   -0.0002   -1.3684   -0.0055 C   0  0  0  0  0  0  0  0  0  0  0  0
   -0.0044   -2.3767   -0.0138 H   0  0  0  0  0  0  0  0  0  0  0  0
    1.1784   -0.6866   -0.0000 C   0  0  0  0  0  0  0  0  0  0  0  0
    2.0671   -1.1900    0.0059 H   0  0  0  0  0  0  0  0  0  0  0  0
    1.1786    0.6787   -0.0004 C   0  0  0  0  0  0  0  0  0  0  0  0
    2.0545    1.1779   -0.0001 H   0  0  0  0  0  0  0  0  0  0  0  0
  1  5  1  0
  5  6  1  0
  5  7  2  0
  1  2  1  0
  1  3  1  0
  1  4  1  0
  8 12  1  0
 12 13  2  0
 13 15  1  0
 15 17  2  0
 17 19  1  0
 19 21  2  0
 21 12  1  0
  8  9  1  0
  8 10  1  0
  8 11  1  0
 13 14  1  0
 15 16  1  0
 17 18  1  0
 19 20  1  0
 21 22  1  0
M  CHG  1   6  -1
M  END
>  <PDB_ID>  (1751) 
pdb4n54

>  <RESIDUE_NAME>  (1751) 
ASP   PHE

>  <FRAG_NAME>  (1751) 
ACET   MBZ

>  <FRAG_ATOM_NUM>  (1751) 
fragi: 7  fragj: 15

>  <atom.prop.CHAIN_ID>  (1751) 
A A A A A A A Z Z Z Z Z Z Z Z Z Z Z Z Z Z Z

>  <atom.prop.IS_HEAVY_ATOM>  (1751) 
1 0 0 0 1 1 1 1 0 0 0 1 1 0 1 0 1 0 1 0 1 0

>  <DIFUSE_FUNC_ATOM>  (1751) 
atom 6   atom 7   

>  <FINAL_SINGLE_POINT_ENERGY>  (1751) 
0

>  <NONCOV_INTER_ENERGY_QM>  (1751) 
0

>  <FF_Energy>  (1751) 
-0.3

>  <QM_Energy>  (1751) 
-6.62

>  <source>  (1751) 
ACET_MBZ_01

>  <Index>  (1751) 
37823

$$$$
ACET-pdb4n54-B-ASP-189:MBZ-pdb4n54-B-PHE-127
     RDKit          3D

 22 21  0  0  0  0  0  0  0  0999 V2000
   -0.0702   -0.1247    3.8156 C   0  0  0  0  0  0  0  0  0  0  0  0
   -0.0798   -0.9012    3.1930 H   0  0  0  0  0  0  0  0  0  0  0  0
   -0.9265    0.3780    3.7512 H   0  0  0  0  0  0  0  0  0  0  0  0
    0.0249   -0.5060    4.8324 H   0  0  0  0  0  0  0  0  0  0  0  0
    1.0582    0.7838    3.4450 C   0  0  0  0  0  0  0  0  0  0  0  0
    2.1547    0.2756    3.2067 O   0  0  0  0  0  1  0  0  0  0  0  0
    0.8555    2.0014    3.3866 O   0  0  0  0  0  0  0  0  0  0  0  0
   -0.0043    2.8649    0.0068 C   0  0  0  0  0  0  0  0  0  0  0  0
    0.9131    3.1776   -0.1990 H   0  0  0  0  0  0  0  0  0  0  0  0
   -0.2887    3.1711    0.9066 H   0  0  0  0  0  0  0  0  0  0  0  0
   -0.6801    3.3068   -0.7255 H   0  0  0  0  0  0  0  0  0  0  0  0
    0.0004    1.3741    0.0029 C   0  0  0  0  0  0  0  0  0  0  0  0
   -1.1756    0.6665    0.0004 C   0  0  0  0  0  0  0  0  0  0  0  0
   -2.0496    1.1674   -0.0024 H   0  0  0  0  0  0  0  0  0  0  0  0
   -1.1771   -0.6838   -0.0000 C   0  0  0  0  0  0  0  0  0  0  0  0
   -2.0608   -1.1890    0.0018 H   0  0  0  0  0  0  0  0  0  0  0  0
   -0.0026   -1.3600   -0.0016 C   0  0  0  0  0  0  0  0  0  0  0  0
   -0.0009   -2.3700   -0.0047 H   0  0  0  0  0  0  0  0  0  0  0  0
    1.1771   -0.6768   -0.0000 C   0  0  0  0  0  0  0  0  0  0  0  0
    2.0650   -1.1858    0.0037 H   0  0  0  0  0  0  0  0  0  0  0  0
    1.1778    0.6800   -0.0016 C   0  0  0  0  0  0  0  0  0  0  0  0
    2.0502    1.1832   -0.0074 H   0  0  0  0  0  0  0  0  0  0  0  0
  1  5  1  0
  5  6  1  0
  5  7  2  0
  1  2  1  0
  1  3  1  0
  1  4  1  0
  8 12  1  0
 12 13  2  0
 13 15  1  0
 15 17  2  0
 17 19  1  0
 19 21  2  0
 21 12  1  0
  8  9  1  0
  8 10  1  0
  8 11  1  0
 13 14  1  0
 15 16  1  0
 17 18  1  0
 19 20  1  0
 21 22  1  0
M  CHG  1   6  -1
M  END
>  <PDB_ID>  (1752) 
pdb4n54

>  <RESIDUE_NAME>  (1752) 
ASP   PHE

>  <FRAG_NAME>  (1752) 
ACET   MBZ

>  <FRAG_ATOM_NUM>  (1752) 
fragi: 7  fragj: 15

>  <atom.prop.CHAIN_ID>  (1752) 
A A A A A A A Z Z Z Z Z Z Z Z Z Z Z Z Z Z Z

>  <atom.prop.IS_HEAVY_ATOM>  (1752) 
1 0 0 0 1 1 1 1 0 0 0 1 1 0 1 0 1 0 1 0 1 0

>  <DIFUSE_FUNC_ATOM>  (1752) 
atom 6   atom 7   

>  <FINAL_SINGLE_POINT_ENERGY>  (1752) 
0

>  <NONCOV_INTER_ENERGY_QM>  (1752) 
0

>  <FF_Energy>  (1752) 
0.85

>  <QM_Energy>  (1752) 
-4.68

>  <source>  (1752) 
ACET_MBZ_01

>  <Index>  (1752) 
37825

$$$$
ACET-pdb4n54-C-ASP-189:MBZ-pdb4n54-C-PHE-127
     RDKit          3D

 22 21  0  0  0  0  0  0  0  0999 V2000
   -0.0965    0.2027    4.0083 C   0  0  0  0  0  0  0  0  0  0  0  0
   -0.1297   -0.6259    3.4596 H   0  0  0  0  0  0  0  0  0  0  0  0
   -0.9326    0.7280    3.8943 H   0  0  0  0  0  0  0  0  0  0  0  0
   -0.0126   -0.0843    5.0565 H   0  0  0  0  0  0  0  0  0  0  0  0
    1.0723    1.0446    3.5429 C   0  0  0  0  0  0  0  0  0  0  0  0
    2.1524    0.4903    3.3144 O   0  0  0  0  0  1  0  0  0  0  0  0
    0.9128    2.2663    3.4034 O   0  0  0  0  0  0  0  0  0  0  0  0
   -0.0068    2.8660   -0.0047 C   0  0  0  0  0  0  0  0  0  0  0  0
    0.9114    3.1785   -0.2106 H   0  0  0  0  0  0  0  0  0  0  0  0
   -0.2941    3.1815    0.8902 H   0  0  0  0  0  0  0  0  0  0  0  0
   -0.6803    3.3003   -0.7435 H   0  0  0  0  0  0  0  0  0  0  0  0
   -0.0023    1.3800    0.0053 C   0  0  0  0  0  0  0  0  0  0  0  0
   -1.1790    0.6773    0.0032 C   0  0  0  0  0  0  0  0  0  0  0  0
   -2.0527    1.1704    0.0034 H   0  0  0  0  0  0  0  0  0  0  0  0
   -1.1797   -0.6886    0.0000 C   0  0  0  0  0  0  0  0  0  0  0  0
   -2.0595   -1.1904   -0.0011 H   0  0  0  0  0  0  0  0  0  0  0  0
    0.0069   -1.3712    0.0002 C   0  0  0  0  0  0  0  0  0  0  0  0
    0.0035   -2.3769   -0.0001 H   0  0  0  0  0  0  0  0  0  0  0  0
    1.1797   -0.6827    0.0000 C   0  0  0  0  0  0  0  0  0  0  0  0
    2.0727   -1.1803    0.0080 H   0  0  0  0  0  0  0  0  0  0  0  0
    1.1744    0.6851   -0.0087 C   0  0  0  0  0  0  0  0  0  0  0  0
    2.0483    1.1855   -0.0261 H   0  0  0  0  0  0  0  0  0  0  0  0
  1  5  1  0
  5  6  1  0
  5  7  2  0
  1  2  1  0
  1  3  1  0
  1  4  1  0
  8 12  1  0
 12 13  2  0
 13 15  1  0
 15 17  2  0
 17 19  1  0
 19 21  2  0
 21 12  1  0
  8  9  1  0
  8 10  1  0
  8 11  1  0
 13 14  1  0
 15 16  1  0
 17 18  1  0
 19 20  1  0
 21 22  1  0
M  CHG  1   6  -1
M  END
>  <PDB_ID>  (1753) 
pdb4n54

>  <RESIDUE_NAME>  (1753) 
ASP   PHE

>  <FRAG_NAME>  (1753) 
ACET   MBZ

>  <FRAG_ATOM_NUM>  (1753) 
fragi: 7  fragj: 15

>  <atom.prop.CHAIN_ID>  (1753) 
A A A A A A A Z Z Z Z Z Z Z Z Z Z Z Z Z Z Z

>  <atom.prop.IS_HEAVY_ATOM>  (1753) 
1 0 0 0 1 1 1 1 0 0 0 1 1 0 1 0 1 0 1 0 1 0

>  <DIFUSE_FUNC_ATOM>  (1753) 
atom 6   atom 7   

>  <FINAL_SINGLE_POINT_ENERGY>  (1753) 
0

>  <NONCOV_INTER_ENERGY_QM>  (1753) 
0

>  <FF_Energy>  (1753) 
0.61

>  <QM_Energy>  (1753) 
-4.51

>  <source>  (1753) 
ACET_MBZ_01

>  <Index>  (1753) 
37832

$$$$
ACET-pdb4n54-D-ASP-189:MBZ-pdb4n54-D-PHE-127
     RDKit          3D

 22 21  0  0  0  0  0  0  0  0999 V2000
   -0.9034    0.1132    3.7813 C   0  0  0  0  0  0  0  0  0  0  0  0
   -0.7983   -0.7154    3.2382 H   0  0  0  0  0  0  0  0  0  0  0  0
   -1.7441    0.5828    3.5287 H   0  0  0  0  0  0  0  0  0  0  0  0
   -0.9840   -0.1808    4.8279 H   0  0  0  0  0  0  0  0  0  0  0  0
    0.2625    1.0205    3.5222 C   0  0  0  0  0  0  0  0  0  0  0  0
    1.3914    0.5269    3.4748 O   0  0  0  0  0  1  0  0  0  0  0  0
    0.0558    2.2296    3.3548 O   0  0  0  0  0  0  0  0  0  0  0  0
   -0.0188    2.8574   -0.0068 C   0  0  0  0  0  0  0  0  0  0  0  0
    0.9189    3.1772    0.0236 H   0  0  0  0  0  0  0  0  0  0  0  0
   -0.5245    3.1653    0.7883 H   0  0  0  0  0  0  0  0  0  0  0  0
   -0.4906    3.2877   -0.8901 H   0  0  0  0  0  0  0  0  0  0  0  0
   -0.0057    1.3742   -0.0045 C   0  0  0  0  0  0  0  0  0  0  0  0
   -1.1796    0.6701    0.0033 C   0  0  0  0  0  0  0  0  0  0  0  0
   -2.0545    1.1663    0.0100 H   0  0  0  0  0  0  0  0  0  0  0  0
   -1.1774   -0.6851   -0.0000 C   0  0  0  0  0  0  0  0  0  0  0  0
   -2.0557   -1.1942   -0.0055 H   0  0  0  0  0  0  0  0  0  0  0  0
    0.0090   -1.3589    0.0060 C   0  0  0  0  0  0  0  0  0  0  0  0
    0.0046   -2.3705    0.0148 H   0  0  0  0  0  0  0  0  0  0  0  0
    1.1774   -0.6792    0.0000 C   0  0  0  0  0  0  0  0  0  0  0  0
    2.0705   -1.1818    0.0004 H   0  0  0  0  0  0  0  0  0  0  0  0
    1.1763    0.6789   -0.0048 C   0  0  0  0  0  0  0  0  0  0  0  0
    2.0467    1.1840   -0.0092 H   0  0  0  0  0  0  0  0  0  0  0  0
  1  5  1  0
  5  6  1  0
  5  7  2  0
  1  2  1  0
  1  3  1  0
  1  4  1  0
  8 12  1  0
 12 13  2  0
 13 15  1  0
 15 17  2  0
 17 19  1  0
 19 21  2  0
 21 12  1  0
  8  9  1  0
  8 10  1  0
  8 11  1  0
 13 14  1  0
 15 16  1  0
 17 18  1  0
 19 20  1  0
 21 22  1  0
M  CHG  1   6  -1
M  END
>  <PDB_ID>  (1754) 
pdb4n54

>  <RESIDUE_NAME>  (1754) 
ASP   PHE

>  <FRAG_NAME>  (1754) 
ACET   MBZ

>  <FRAG_ATOM_NUM>  (1754) 
fragi: 7  fragj: 15

>  <atom.prop.CHAIN_ID>  (1754) 
A A A A A A A Z Z Z Z Z Z Z Z Z Z Z Z Z Z Z

>  <atom.prop.IS_HEAVY_ATOM>  (1754) 
1 0 0 0 1 1 1 1 0 0 0 1 1 0 1 0 1 0 1 0 1 0

>  <DIFUSE_FUNC_ATOM>  (1754) 
atom 6   atom 7   

>  <FINAL_SINGLE_POINT_ENERGY>  (1754) 
0

>  <NONCOV_INTER_ENERGY_QM>  (1754) 
0

>  <FF_Energy>  (1754) 
1.49

>  <QM_Energy>  (1754) 
-4.25

>  <source>  (1754) 
ACET_MBZ_01

>  <Index>  (1754) 
37835

$$$$
ACET-pdb3p4x-B-GLU-509:MBZ-pdb3p4x-A-PHE-60
     RDKit          3D

 22 21  0  0  0  0  0  0  0  0999 V2000
    2.4611    2.9488    4.9781 C   0  0  0  0  0  0  0  0  0  0  0  0
    2.3826    2.1610    5.5620 H   0  0  0  0  0  0  0  0  0  0  0  0
    1.8338    3.6631    5.2339 H   0  0  0  0  0  0  0  0  0  0  0  0
    3.4753    3.3377    5.0681 H   0  0  0  0  0  0  0  0  0  0  0  0
    2.1141    2.5146    3.5704 C   0  0  0  0  0  0  0  0  0  0  0  0
    2.1091    1.2912    3.3026 O   0  0  0  0  0  1  0  0  0  0  0  0
    1.8430    3.3978    2.7289 O   0  0  0  0  0  0  0  0  0  0  0  0
    0.0047    2.9027   -0.0030 C   0  0  0  0  0  0  0  0  0  0  0  0
    0.8641    3.2061    0.3765 H   0  0  0  0  0  0  0  0  0  0  0  0
   -0.7611    3.2114    0.5382 H   0  0  0  0  0  0  0  0  0  0  0  0
   -0.0939    3.3326   -0.9997 H   0  0  0  0  0  0  0  0  0  0  0  0
    0.0008    1.3977    0.0023 C   0  0  0  0  0  0  0  0  0  0  0  0
   -1.1934    0.6913   -0.0007 C   0  0  0  0  0  0  0  0  0  0  0  0
   -2.0607    1.1826   -0.0049 H   0  0  0  0  0  0  0  0  0  0  0  0
   -1.1977   -0.6954    0.0000 C   0  0  0  0  0  0  0  0  0  0  0  0
   -2.0753   -1.1892    0.0015 H   0  0  0  0  0  0  0  0  0  0  0  0
   -0.0011   -1.3868    0.0004 C   0  0  0  0  0  0  0  0  0  0  0  0
   -0.0040   -2.3885    0.0010 H   0  0  0  0  0  0  0  0  0  0  0  0
    1.1977   -0.6945    0.0000 C   0  0  0  0  0  0  0  0  0  0  0  0
    2.0789   -1.1955    0.0026 H   0  0  0  0  0  0  0  0  0  0  0  0
    1.1938    0.6878   -0.0020 C   0  0  0  0  0  0  0  0  0  0  0  0
    2.0632    1.1870   -0.0077 H   0  0  0  0  0  0  0  0  0  0  0  0
  1  5  1  0
  5  6  1  0
  5  7  2  0
  1  2  1  0
  1  3  1  0
  1  4  1  0
  8 12  1  0
 12 13  2  0
 13 15  1  0
 15 17  2  0
 17 19  1  0
 19 21  2  0
 21 12  1  0
  8  9  1  0
  8 10  1  0
  8 11  1  0
 13 14  1  0
 15 16  1  0
 17 18  1  0
 19 20  1  0
 21 22  1  0
M  CHG  1   6  -1
M  END
>  <PDB_ID>  (1755) 
pdb3p4x

>  <RESIDUE_NAME>  (1755) 
GLU   PHE

>  <FRAG_NAME>  (1755) 
ACET   MBZ

>  <FRAG_ATOM_NUM>  (1755) 
fragi: 7  fragj: 15

>  <atom.prop.CHAIN_ID>  (1755) 
A A A A A A A Z Z Z Z Z Z Z Z Z Z Z Z Z Z Z

>  <atom.prop.IS_HEAVY_ATOM>  (1755) 
1 0 0 0 1 1 1 1 0 0 0 1 1 0 1 0 1 0 1 0 1 0

>  <DIFUSE_FUNC_ATOM>  (1755) 
atom 6   atom 7   

>  <FINAL_SINGLE_POINT_ENERGY>  (1755) 
0

>  <NONCOV_INTER_ENERGY_QM>  (1755) 
0

>  <FF_Energy>  (1755) 
1.04

>  <QM_Energy>  (1755) 
-4.58

>  <source>  (1755) 
ACET_MBZ_01

>  <Index>  (1755) 
37873

$$$$
ACET-pdb3pdi-A-ASP-286:MBZ-pdb3pdi-A-PHE-270
     RDKit          3D

 22 21  0  0  0  0  0  0  0  0999 V2000
    0.2348    1.1409    4.8231 C   0  0  0  0  0  0  0  0  0  0  0  0
   -0.4465    1.8222    4.5655 H   0  0  0  0  0  0  0  0  0  0  0  0
    0.7842    1.4830    5.5824 H   0  0  0  0  0  0  0  0  0  0  0  0
   -0.3043    0.2645    5.1827 H   0  0  0  0  0  0  0  0  0  0  0  0
    1.1204    0.8546    3.6550 C   0  0  0  0  0  0  0  0  0  0  0  0
    2.2760    1.3365    3.6603 O   0  0  0  0  0  1  0  0  0  0  0  0
    0.6435    0.1929    2.7182 O   0  0  0  0  0  0  0  0  0  0  0  0
   -0.0059    2.9039    0.0124 C   0  0  0  0  0  0  0  0  0  0  0  0
    0.8057    3.2047    0.4931 H   0  0  0  0  0  0  0  0  0  0  0  0
   -0.8273    3.1990    0.4791 H   0  0  0  0  0  0  0  0  0  0  0  0
    0.0009    3.3560   -0.9794 H   0  0  0  0  0  0  0  0  0  0  0  0
   -0.0006    1.3986   -0.0011 C   0  0  0  0  0  0  0  0  0  0  0  0
   -1.1870    0.6883    0.0044 C   0  0  0  0  0  0  0  0  0  0  0  0
   -2.0594    1.1771    0.0111 H   0  0  0  0  0  0  0  0  0  0  0  0
   -1.1925   -0.6983    0.0000 C   0  0  0  0  0  0  0  0  0  0  0  0
   -2.0731   -1.1899    0.0022 H   0  0  0  0  0  0  0  0  0  0  0  0
   -0.0010   -1.3883   -0.0063 C   0  0  0  0  0  0  0  0  0  0  0  0
   -0.0035   -2.3906   -0.0163 H   0  0  0  0  0  0  0  0  0  0  0  0
    1.1925   -0.6967    0.0000 C   0  0  0  0  0  0  0  0  0  0  0  0
    2.0777   -1.1909    0.0042 H   0  0  0  0  0  0  0  0  0  0  0  0
    1.1886    0.6964    0.0030 C   0  0  0  0  0  0  0  0  0  0  0  0
    2.0594    1.1889    0.0072 H   0  0  0  0  0  0  0  0  0  0  0  0
  1  5  1  0
  5  6  1  0
  5  7  2  0
  1  2  1  0
  1  3  1  0
  1  4  1  0
  8 12  1  0
 12 13  2  0
 13 15  1  0
 15 17  2  0
 17 19  1  0
 19 21  2  0
 21 12  1  0
  8  9  1  0
  8 10  1  0
  8 11  1  0
 13 14  1  0
 15 16  1  0
 17 18  1  0
 19 20  1  0
 21 22  1  0
M  CHG  1   6  -1
M  END
>  <PDB_ID>  (1756) 
pdb3pdi

>  <RESIDUE_NAME>  (1756) 
ASP   PHE

>  <FRAG_NAME>  (1756) 
ACET   MBZ

>  <FRAG_ATOM_NUM>  (1756) 
fragi: 7  fragj: 15

>  <atom.prop.CHAIN_ID>  (1756) 
A A A A A A A Z Z Z Z Z Z Z Z Z Z Z Z Z Z Z

>  <atom.prop.IS_HEAVY_ATOM>  (1756) 
1 0 0 0 1 1 1 1 0 0 0 1 1 0 1 0 1 0 1 0 1 0

>  <DIFUSE_FUNC_ATOM>  (1756) 
atom 6   atom 7   

>  <FINAL_SINGLE_POINT_ENERGY>  (1756) 
0

>  <NONCOV_INTER_ENERGY_QM>  (1756) 
0

>  <FF_Energy>  (1756) 
8.47

>  <QM_Energy>  (1756) 
2.04

>  <source>  (1756) 
ACET_MBZ_01

>  <Index>  (1756) 
37889

$$$$
ACET-pdb3pdi-C-ASP-286:MBZ-pdb3pdi-C-PHE-270
     RDKit          3D

 22 21  0  0  0  0  0  0  0  0999 V2000
    0.2598    1.1116    4.8012 C   0  0  0  0  0  0  0  0  0  0  0  0
   -0.4222    1.7818    4.5343 H   0  0  0  0  0  0  0  0  0  0  0  0
    0.8218    1.4600    5.5404 H   0  0  0  0  0  0  0  0  0  0  0  0
   -0.2681    0.2333    5.1729 H   0  0  0  0  0  0  0  0  0  0  0  0
    1.1521    0.8121    3.6021 C   0  0  0  0  0  0  0  0  0  0  0  0
    2.3300    1.2424    3.6167 O   0  0  0  0  0  1  0  0  0  0  0  0
    0.6646    0.1768    2.6326 O   0  0  0  0  0  0  0  0  0  0  0  0
    0.0019    2.9172    0.0201 C   0  0  0  0  0  0  0  0  0  0  0  0
    0.8200    3.2059    0.4949 H   0  0  0  0  0  0  0  0  0  0  0  0
   -0.8135    3.2094    0.4967 H   0  0  0  0  0  0  0  0  0  0  0  0
    0.0016    3.3770   -0.9681 H   0  0  0  0  0  0  0  0  0  0  0  0
   -0.0013    1.3973   -0.0010 C   0  0  0  0  0  0  0  0  0  0  0  0
   -1.2019    0.6847    0.0045 C   0  0  0  0  0  0  0  0  0  0  0  0
   -2.0652    1.1838    0.0107 H   0  0  0  0  0  0  0  0  0  0  0  0
   -1.2012   -0.6872    0.0000 C   0  0  0  0  0  0  0  0  0  0  0  0
   -2.0732   -1.1943    0.0023 H   0  0  0  0  0  0  0  0  0  0  0  0
    0.0048   -1.3808   -0.0066 C   0  0  0  0  0  0  0  0  0  0  0  0
   -0.0069   -2.3848   -0.0161 H   0  0  0  0  0  0  0  0  0  0  0  0
    1.2012   -0.6976    0.0000 C   0  0  0  0  0  0  0  0  0  0  0  0
    2.0816   -1.1985    0.0041 H   0  0  0  0  0  0  0  0  0  0  0  0
    1.1984    0.6836    0.0032 C   0  0  0  0  0  0  0  0  0  0  0  0
    2.0646    1.1848    0.0078 H   0  0  0  0  0  0  0  0  0  0  0  0
  1  5  1  0
  5  6  1  0
  5  7  2  0
  1  2  1  0
  1  3  1  0
  1  4  1  0
  8 12  1  0
 12 13  2  0
 13 15  1  0
 15 17  2  0
 17 19  1  0
 19 21  2  0
 21 12  1  0
  8  9  1  0
  8 10  1  0
  8 11  1  0
 13 14  1  0
 15 16  1  0
 17 18  1  0
 19 20  1  0
 21 22  1  0
M  CHG  1   6  -1
M  END
>  <PDB_ID>  (1757) 
pdb3pdi

>  <RESIDUE_NAME>  (1757) 
ASP   PHE

>  <FRAG_NAME>  (1757) 
ACET   MBZ

>  <FRAG_ATOM_NUM>  (1757) 
fragi: 7  fragj: 15

>  <atom.prop.CHAIN_ID>  (1757) 
A A A A A A A Z Z Z Z Z Z Z Z Z Z Z Z Z Z Z

>  <atom.prop.IS_HEAVY_ATOM>  (1757) 
1 0 0 0 1 1 1 1 0 0 0 1 1 0 1 0 1 0 1 0 1 0

>  <DIFUSE_FUNC_ATOM>  (1757) 
atom 6   atom 7   

>  <FINAL_SINGLE_POINT_ENERGY>  (1757) 
0

>  <NONCOV_INTER_ENERGY_QM>  (1757) 
0

>  <FF_Energy>  (1757) 
10.56

>  <QM_Energy>  (1757) 
3.09

>  <source>  (1757) 
ACET_MBZ_01

>  <Index>  (1757) 
37901

$$$$
ACET-pdb3pdi-E-ASP-286:MBZ-pdb3pdi-E-PHE-270
     RDKit          3D

 22 21  0  0  0  0  0  0  0  0999 V2000
    0.2832    1.1578    4.8005 C   0  0  0  0  0  0  0  0  0  0  0  0
   -0.3947    1.8303    4.5245 H   0  0  0  0  0  0  0  0  0  0  0  0
    0.8390    1.5104    5.5447 H   0  0  0  0  0  0  0  0  0  0  0  0
   -0.2545    0.2880    5.1781 H   0  0  0  0  0  0  0  0  0  0  0  0
    1.1878    0.8513    3.6095 C   0  0  0  0  0  0  0  0  0  0  0  0
    2.3689    1.2796    3.6238 O   0  0  0  0  0  1  0  0  0  0  0  0
    0.7099    0.2208    2.6441 O   0  0  0  0  0  0  0  0  0  0  0  0
   -0.0055    2.9057   -0.0014 C   0  0  0  0  0  0  0  0  0  0  0  0
    0.8103    3.2079    0.4672 H   0  0  0  0  0  0  0  0  0  0  0  0
   -0.8231    3.2035    0.4671 H   0  0  0  0  0  0  0  0  0  0  0  0
   -0.0064    3.3501   -0.9967 H   0  0  0  0  0  0  0  0  0  0  0  0
   -0.0019    1.3925   -0.0048 C   0  0  0  0  0  0  0  0  0  0  0  0
   -1.1996    0.6877    0.0002 C   0  0  0  0  0  0  0  0  0  0  0  0
   -2.0628    1.1880    0.0031 H   0  0  0  0  0  0  0  0  0  0  0  0
   -1.2024   -0.6821   -0.0000 C   0  0  0  0  0  0  0  0  0  0  0  0
   -2.0759   -1.1884   -0.0013 H   0  0  0  0  0  0  0  0  0  0  0  0
    0.0029   -1.3830    0.0036 C   0  0  0  0  0  0  0  0  0  0  0  0
   -0.0101   -2.3837    0.0085 H   0  0  0  0  0  0  0  0  0  0  0  0
    1.2024   -0.6973   -0.0000 C   0  0  0  0  0  0  0  0  0  0  0  0
    2.0818   -1.1995   -0.0020 H   0  0  0  0  0  0  0  0  0  0  0  0
    1.1985    0.6821    0.0010 C   0  0  0  0  0  0  0  0  0  0  0  0
    2.0636    1.1850    0.0049 H   0  0  0  0  0  0  0  0  0  0  0  0
  1  5  1  0
  5  6  1  0
  5  7  2  0
  1  2  1  0
  1  3  1  0
  1  4  1  0
  8 12  1  0
 12 13  2  0
 13 15  1  0
 15 17  2  0
 17 19  1  0
 19 21  2  0
 21 12  1  0
  8  9  1  0
  8 10  1  0
  8 11  1  0
 13 14  1  0
 15 16  1  0
 17 18  1  0
 19 20  1  0
 21 22  1  0
M  CHG  1   6  -1
M  END
>  <PDB_ID>  (1758) 
pdb3pdi

>  <RESIDUE_NAME>  (1758) 
ASP   PHE

>  <FRAG_NAME>  (1758) 
ACET   MBZ

>  <FRAG_ATOM_NUM>  (1758) 
fragi: 7  fragj: 15

>  <atom.prop.CHAIN_ID>  (1758) 
A A A A A A A Z Z Z Z Z Z Z Z Z Z Z Z Z Z Z

>  <atom.prop.IS_HEAVY_ATOM>  (1758) 
1 0 0 0 1 1 1 1 0 0 0 1 1 0 1 0 1 0 1 0 1 0

>  <DIFUSE_FUNC_ATOM>  (1758) 
atom 6   atom 7   

>  <FINAL_SINGLE_POINT_ENERGY>  (1758) 
0

>  <NONCOV_INTER_ENERGY_QM>  (1758) 
0

>  <FF_Energy>  (1758) 
10.28

>  <QM_Energy>  (1758) 
2.84

>  <source>  (1758) 
ACET_MBZ_01

>  <Index>  (1758) 
37909

$$$$
ACET-pdb3pdi-G-ASP-286:MBZ-pdb3pdi-G-PHE-270
     RDKit          3D

 22 21  0  0  0  0  0  0  0  0999 V2000
    0.2796    1.1945    4.8382 C   0  0  0  0  0  0  0  0  0  0  0  0
   -0.3953    1.8847    4.5972 H   0  0  0  0  0  0  0  0  0  0  0  0
    0.8606    1.5235    5.5750 H   0  0  0  0  0  0  0  0  0  0  0  0
   -0.2604    0.3236    5.2096 H   0  0  0  0  0  0  0  0  0  0  0  0
    1.1436    0.9031    3.6208 C   0  0  0  0  0  0  0  0  0  0  0  0
    2.3303    1.3489    3.5994 O   0  0  0  0  0  1  0  0  0  0  0  0
    0.6171    0.2689    2.6707 O   0  0  0  0  0  0  0  0  0  0  0  0
   -0.0046    2.8951    0.0004 C   0  0  0  0  0  0  0  0  0  0  0  0
    0.8225    3.2035    0.4470 H   0  0  0  0  0  0  0  0  0  0  0  0
   -0.8101    3.1986    0.4873 H   0  0  0  0  0  0  0  0  0  0  0  0
   -0.0309    3.3367   -0.9959 H   0  0  0  0  0  0  0  0  0  0  0  0
   -0.0002    1.3952   -0.0017 C   0  0  0  0  0  0  0  0  0  0  0  0
   -1.1886    0.6857   -0.0038 C   0  0  0  0  0  0  0  0  0  0  0  0
   -2.0589    1.1798   -0.0091 H   0  0  0  0  0  0  0  0  0  0  0  0
   -1.1928   -0.6918    0.0000 C   0  0  0  0  0  0  0  0  0  0  0  0
   -2.0749   -1.1868    0.0016 H   0  0  0  0  0  0  0  0  0  0  0  0
   -0.0053   -1.3807    0.0032 C   0  0  0  0  0  0  0  0  0  0  0  0
   -0.0106   -2.3869    0.0071 H   0  0  0  0  0  0  0  0  0  0  0  0
    1.1928   -0.6995    0.0000 C   0  0  0  0  0  0  0  0  0  0  0  0
    2.0730   -1.1990   -0.0026 H   0  0  0  0  0  0  0  0  0  0  0  0
    1.1941    0.6911    0.0023 C   0  0  0  0  0  0  0  0  0  0  0  0
    2.0618    1.1837    0.0059 H   0  0  0  0  0  0  0  0  0  0  0  0
  1  5  1  0
  5  6  1  0
  5  7  2  0
  1  2  1  0
  1  3  1  0
  1  4  1  0
  8 12  1  0
 12 13  2  0
 13 15  1  0
 15 17  2  0
 17 19  1  0
 19 21  2  0
 21 12  1  0
  8  9  1  0
  8 10  1  0
  8 11  1  0
 13 14  1  0
 15 16  1  0
 17 18  1  0
 19 20  1  0
 21 22  1  0
M  CHG  1   6  -1
M  END
>  <PDB_ID>  (1759) 
pdb3pdi

>  <RESIDUE_NAME>  (1759) 
ASP   PHE

>  <FRAG_NAME>  (1759) 
ACET   MBZ

>  <FRAG_ATOM_NUM>  (1759) 
fragi: 7  fragj: 15

>  <atom.prop.CHAIN_ID>  (1759) 
A A A A A A A Z Z Z Z Z Z Z Z Z Z Z Z Z Z Z

>  <atom.prop.IS_HEAVY_ATOM>  (1759) 
1 0 0 0 1 1 1 1 0 0 0 1 1 0 1 0 1 0 1 0 1 0

>  <DIFUSE_FUNC_ATOM>  (1759) 
atom 6   atom 7   

>  <FINAL_SINGLE_POINT_ENERGY>  (1759) 
0

>  <NONCOV_INTER_ENERGY_QM>  (1759) 
0

>  <FF_Energy>  (1759) 
9.62

>  <QM_Energy>  (1759) 
2.54

>  <source>  (1759) 
ACET_MBZ_01

>  <Index>  (1759) 
37918

$$$$
ACET-pdb3pe5-A-ASP-117:MBZ-pdb3pe5-A-PHE-196
     RDKit          3D

 22 21  0  0  0  0  0  0  0  0999 V2000
    1.4788    1.2601   -3.3112 C   0  0  0  0  0  0  0  0  0  0  0  0
    1.2210    0.6851   -2.5464 H   0  0  0  0  0  0  0  0  0  0  0  0
    2.0034    0.7490   -3.9777 H   0  0  0  0  0  0  0  0  0  0  0  0
    0.5675    1.6147   -3.7927 H   0  0  0  0  0  0  0  0  0  0  0  0
    2.3542    2.4061   -2.7819 C   0  0  0  0  0  0  0  0  0  0  0  0
    1.8328    3.5282   -2.5624 O   0  0  0  0  0  1  0  0  0  0  0  0
    3.5704    2.1828   -2.5904 O   0  0  0  0  0  0  0  0  0  0  0  0
    0.0115    2.9047   -0.0019 C   0  0  0  0  0  0  0  0  0  0  0  0
    0.2125    3.2134   -0.9207 H   0  0  0  0  0  0  0  0  0  0  0  0
    0.7055    3.2067    0.6361 H   0  0  0  0  0  0  0  0  0  0  0  0
   -0.9318    3.3605    0.2990 H   0  0  0  0  0  0  0  0  0  0  0  0
    0.0014    1.4014   -0.0050 C   0  0  0  0  0  0  0  0  0  0  0  0
   -1.1888    0.6914   -0.0003 C   0  0  0  0  0  0  0  0  0  0  0  0
   -2.0590    1.1770    0.0016 H   0  0  0  0  0  0  0  0  0  0  0  0
   -1.1916   -0.7019    0.0000 C   0  0  0  0  0  0  0  0  0  0  0  0
   -2.0742   -1.1902   -0.0045 H   0  0  0  0  0  0  0  0  0  0  0  0
   -0.0037   -1.3865    0.0079 C   0  0  0  0  0  0  0  0  0  0  0  0
   -0.0033   -2.3908    0.0189 H   0  0  0  0  0  0  0  0  0  0  0  0
    1.1916   -0.6965   -0.0000 C   0  0  0  0  0  0  0  0  0  0  0  0
    2.0750   -1.1951   -0.0026 H   0  0  0  0  0  0  0  0  0  0  0  0
    1.1911    0.6920   -0.0026 C   0  0  0  0  0  0  0  0  0  0  0  0
    2.0630    1.1853   -0.0032 H   0  0  0  0  0  0  0  0  0  0  0  0
  1  5  1  0
  5  6  1  0
  5  7  2  0
  1  2  1  0
  1  3  1  0
  1  4  1  0
  8 12  1  0
 12 13  2  0
 13 15  1  0
 15 17  2  0
 17 19  1  0
 19 21  2  0
 21 12  1  0
  8  9  1  0
  8 10  1  0
  8 11  1  0
 13 14  1  0
 15 16  1  0
 17 18  1  0
 19 20  1  0
 21 22  1  0
M  CHG  1   6  -1
M  END
>  <PDB_ID>  (1760) 
pdb3pe5

>  <RESIDUE_NAME>  (1760) 
ASP   PHE

>  <FRAG_NAME>  (1760) 
ACET   MBZ

>  <FRAG_ATOM_NUM>  (1760) 
fragi: 7  fragj: 15

>  <atom.prop.CHAIN_ID>  (1760) 
A A A A A A A Z Z Z Z Z Z Z Z Z Z Z Z Z Z Z

>  <atom.prop.IS_HEAVY_ATOM>  (1760) 
1 0 0 0 1 1 1 1 0 0 0 1 1 0 1 0 1 0 1 0 1 0

>  <DIFUSE_FUNC_ATOM>  (1760) 
atom 6   atom 7   

>  <FINAL_SINGLE_POINT_ENERGY>  (1760) 
0

>  <NONCOV_INTER_ENERGY_QM>  (1760) 
0

>  <FF_Energy>  (1760) 
-0.34

>  <QM_Energy>  (1760) 
-6.56

>  <source>  (1760) 
ACET_MBZ_01

>  <Index>  (1760) 
37939

$$$$
ACET-pdb4n7q-A-GLU-185:MBZ-pdb4n7q-A-PHE-221
     RDKit          3D

 22 21  0  0  0  0  0  0  0  0999 V2000
   -3.9340    2.2381    2.1379 C   0  0  0  0  0  0  0  0  0  0  0  0
   -4.3817    2.4253    2.9932 H   0  0  0  0  0  0  0  0  0  0  0  0
   -3.2567    1.5300    2.2204 H   0  0  0  0  0  0  0  0  0  0  0  0
   -4.6888    1.9056    1.4254 H   0  0  0  0  0  0  0  0  0  0  0  0
   -3.2160    3.5123    1.7069 C   0  0  0  0  0  0  0  0  0  0  0  0
   -2.6782    4.2218    2.5861 O   0  0  0  0  0  1  0  0  0  0  0  0
   -3.1682    3.8127    0.4958 O   0  0  0  0  0  0  0  0  0  0  0  0
   -0.0235    2.9012   -0.0630 C   0  0  0  0  0  0  0  0  0  0  0  0
    0.8393    3.2382    0.2579 H   0  0  0  0  0  0  0  0  0  0  0  0
   -0.7799    3.2260    0.4694 H   0  0  0  0  0  0  0  0  0  0  0  0
   -0.1592    3.2536   -1.0855 H   0  0  0  0  0  0  0  0  0  0  0  0
   -0.0021    1.4001    0.0151 C   0  0  0  0  0  0  0  0  0  0  0  0
   -1.1952    0.6929   -0.0084 C   0  0  0  0  0  0  0  0  0  0  0  0
   -2.0637    1.1811   -0.0331 H   0  0  0  0  0  0  0  0  0  0  0  0
   -1.2017   -0.7006    0.0000 C   0  0  0  0  0  0  0  0  0  0  0  0
   -2.0778   -1.1922    0.0069 H   0  0  0  0  0  0  0  0  0  0  0  0
    0.0004   -1.3931    0.0002 C   0  0  0  0  0  0  0  0  0  0  0  0
   -0.0009   -2.3932    0.0001 H   0  0  0  0  0  0  0  0  0  0  0  0
    1.2017   -0.6967   -0.0000 C   0  0  0  0  0  0  0  0  0  0  0  0
    2.0834   -1.1926    0.0062 H   0  0  0  0  0  0  0  0  0  0  0  0
    1.1970    0.6974   -0.0069 C   0  0  0  0  0  0  0  0  0  0  0  0
    2.0622    1.1932   -0.0286 H   0  0  0  0  0  0  0  0  0  0  0  0
  1  5  1  0
  5  6  1  0
  5  7  2  0
  1  2  1  0
  1  3  1  0
  1  4  1  0
  8 12  1  0
 12 13  2  0
 13 15  1  0
 15 17  2  0
 17 19  1  0
 19 21  2  0
 21 12  1  0
  8  9  1  0
  8 10  1  0
  8 11  1  0
 13 14  1  0
 15 16  1  0
 17 18  1  0
 19 20  1  0
 21 22  1  0
M  CHG  1   6  -1
M  END
>  <PDB_ID>  (1761) 
pdb4n7q

>  <RESIDUE_NAME>  (1761) 
GLU   PHE

>  <FRAG_NAME>  (1761) 
ACET   MBZ

>  <FRAG_ATOM_NUM>  (1761) 
fragi: 7  fragj: 15

>  <atom.prop.CHAIN_ID>  (1761) 
A A A A A A A Z Z Z Z Z Z Z Z Z Z Z Z Z Z Z

>  <atom.prop.IS_HEAVY_ATOM>  (1761) 
1 0 0 0 1 1 1 1 0 0 0 1 1 0 1 0 1 0 1 0 1 0

>  <DIFUSE_FUNC_ATOM>  (1761) 
atom 6   atom 7   

>  <FINAL_SINGLE_POINT_ENERGY>  (1761) 
0

>  <NONCOV_INTER_ENERGY_QM>  (1761) 
0

>  <FF_Energy>  (1761) 
-2.03

>  <QM_Energy>  (1761) 
-7.63

>  <source>  (1761) 
ACET_MBZ_01

>  <Index>  (1761) 
37970

$$$$
ACET-pdb3pea-E-ASP-189:MBZ-pdb3pea-E-PHE-181
     RDKit          3D

 22 21  0  0  0  0  0  0  0  0999 V2000
    0.1540    0.6561    3.2269 C   0  0  0  0  0  0  0  0  0  0  0  0
    0.8757    1.1844    2.7961 H   0  0  0  0  0  0  0  0  0  0  0  0
   -0.2647    0.0373    2.5746 H   0  0  0  0  0  0  0  0  0  0  0  0
    0.5976    0.0614    4.0254 H   0  0  0  0  0  0  0  0  0  0  0  0
   -0.9187    1.6266    3.7317 C   0  0  0  0  0  0  0  0  0  0  0  0
   -1.6905    1.2274    4.6287 O   0  0  0  0  0  1  0  0  0  0  0  0
   -0.9776    2.7784    3.2262 O   0  0  0  0  0  0  0  0  0  0  0  0
    0.0121    2.9417    0.0066 C   0  0  0  0  0  0  0  0  0  0  0  0
    0.9566    3.2338   -0.0563 H   0  0  0  0  0  0  0  0  0  0  0  0
   -0.3979    3.2479    0.8552 H   0  0  0  0  0  0  0  0  0  0  0  0
   -0.5295    3.4260   -0.8060 H   0  0  0  0  0  0  0  0  0  0  0  0
   -0.0093    1.4156   -0.0009 C   0  0  0  0  0  0  0  0  0  0  0  0
   -1.2043    0.6921    0.0112 C   0  0  0  0  0  0  0  0  0  0  0  0
   -2.0767    1.1703    0.0272 H   0  0  0  0  0  0  0  0  0  0  0  0
   -1.2104   -0.7235   -0.0000 C   0  0  0  0  0  0  0  0  0  0  0  0
   -2.0749   -1.2127   -0.0033 H   0  0  0  0  0  0  0  0  0  0  0  0
    0.0150   -1.4118   -0.0042 C   0  0  0  0  0  0  0  0  0  0  0  0
    0.0326   -2.3988   -0.0104 H   0  0  0  0  0  0  0  0  0  0  0  0
    1.2104   -0.6716    0.0000 C   0  0  0  0  0  0  0  0  0  0  0  0
    2.1001   -1.1742    0.0089 H   0  0  0  0  0  0  0  0  0  0  0  0
    1.1985    0.6991   -0.0061 C   0  0  0  0  0  0  0  0  0  0  0  0
    2.0613    1.2130   -0.0153 H   0  0  0  0  0  0  0  0  0  0  0  0
  1  5  1  0
  5  6  1  0
  5  7  2  0
  1  2  1  0
  1  3  1  0
  1  4  1  0
  8 12  1  0
 12 13  2  0
 13 15  1  0
 15 17  2  0
 17 19  1  0
 19 21  2  0
 21 12  1  0
  8  9  1  0
  8 10  1  0
  8 11  1  0
 13 14  1  0
 15 16  1  0
 17 18  1  0
 19 20  1  0
 21 22  1  0
M  CHG  1   6  -1
M  END
>  <PDB_ID>  (1762) 
pdb3pea

>  <RESIDUE_NAME>  (1762) 
ASP   PHE

>  <FRAG_NAME>  (1762) 
ACET   MBZ

>  <FRAG_ATOM_NUM>  (1762) 
fragi: 7  fragj: 15

>  <atom.prop.CHAIN_ID>  (1762) 
A A A A A A A Z Z Z Z Z Z Z Z Z Z Z Z Z Z Z

>  <atom.prop.IS_HEAVY_ATOM>  (1762) 
1 0 0 0 1 1 1 1 0 0 0 1 1 0 1 0 1 0 1 0 1 0

>  <DIFUSE_FUNC_ATOM>  (1762) 
atom 6   atom 7   

>  <FINAL_SINGLE_POINT_ENERGY>  (1762) 
0

>  <NONCOV_INTER_ENERGY_QM>  (1762) 
0

>  <FF_Energy>  (1762) 
0.66

>  <QM_Energy>  (1762) 
-4.67

>  <source>  (1762) 
ACET_MBZ_01

>  <Index>  (1762) 
37980

$$$$
ACET-pdb4n8x-B-GLU-89:MBZ-pdb4n8x-C-PHE-52
     RDKit          3D

 22 21  0  0  0  0  0  0  0  0999 V2000
   -0.7758   -0.4205   -3.4638 C   0  0  0  0  0  0  0  0  0  0  0  0
   -1.1782   -0.4258   -2.5659 H   0  0  0  0  0  0  0  0  0  0  0  0
   -0.8448   -1.2970   -3.9054 H   0  0  0  0  0  0  0  0  0  0  0  0
   -1.3161    0.3064   -4.0702 H   0  0  0  0  0  0  0  0  0  0  0  0
    0.7084   -0.1022   -3.3016 C   0  0  0  0  0  0  0  0  0  0  0  0
    1.0619    1.0906   -3.1674 O   0  0  0  0  0  1  0  0  0  0  0  0
    1.5243   -1.0528   -3.3088 O   0  0  0  0  0  0  0  0  0  0  0  0
   -0.0065    2.9052    0.0134 C   0  0  0  0  0  0  0  0  0  0  0  0
   -0.7373    3.2144   -0.5732 H   0  0  0  0  0  0  0  0  0  0  0  0
    0.8736    3.2178   -0.3039 H   0  0  0  0  0  0  0  0  0  0  0  0
   -0.1732    3.3267    1.0048 H   0  0  0  0  0  0  0  0  0  0  0  0
   -0.0008    1.4013   -0.0021 C   0  0  0  0  0  0  0  0  0  0  0  0
   -1.1929    0.6925    0.0018 C   0  0  0  0  0  0  0  0  0  0  0  0
   -2.0610    1.1820    0.0048 H   0  0  0  0  0  0  0  0  0  0  0  0
   -1.1952   -0.6938   -0.0000 C   0  0  0  0  0  0  0  0  0  0  0  0
   -2.0752   -1.1884    0.0013 H   0  0  0  0  0  0  0  0  0  0  0  0
    0.0003   -1.3902   -0.0017 C   0  0  0  0  0  0  0  0  0  0  0  0
   -0.0074   -2.3911   -0.0043 H   0  0  0  0  0  0  0  0  0  0  0  0
    1.1952   -0.7008    0.0000 C   0  0  0  0  0  0  0  0  0  0  0  0
    2.0786   -1.1969    0.0013 H   0  0  0  0  0  0  0  0  0  0  0  0
    1.1934    0.6910    0.0020 C   0  0  0  0  0  0  0  0  0  0  0  0
    2.0636    1.1850    0.0054 H   0  0  0  0  0  0  0  0  0  0  0  0
  1  5  1  0
  5  6  1  0
  5  7  2  0
  1  2  1  0
  1  3  1  0
  1  4  1  0
  8 12  1  0
 12 13  2  0
 13 15  1  0
 15 17  2  0
 17 19  1  0
 19 21  2  0
 21 12  1  0
  8  9  1  0
  8 10  1  0
  8 11  1  0
 13 14  1  0
 15 16  1  0
 17 18  1  0
 19 20  1  0
 21 22  1  0
M  CHG  1   6  -1
M  END
>  <PDB_ID>  (1763) 
pdb4n8x

>  <RESIDUE_NAME>  (1763) 
GLU   PHE

>  <FRAG_NAME>  (1763) 
ACET   MBZ

>  <FRAG_ATOM_NUM>  (1763) 
fragi: 7  fragj: 15

>  <atom.prop.CHAIN_ID>  (1763) 
A A A A A A A Z Z Z Z Z Z Z Z Z Z Z Z Z Z Z

>  <atom.prop.IS_HEAVY_ATOM>  (1763) 
1 0 0 0 1 1 1 1 0 0 0 1 1 0 1 0 1 0 1 0 1 0

>  <DIFUSE_FUNC_ATOM>  (1763) 
atom 6   atom 7   

>  <FINAL_SINGLE_POINT_ENERGY>  (1763) 
0

>  <NONCOV_INTER_ENERGY_QM>  (1763) 
0

>  <FF_Energy>  (1763) 
3.14

>  <QM_Energy>  (1763) 
-1.95

>  <source>  (1763) 
ACET_MBZ_01

>  <Index>  (1763) 
38106

$$$$
ACET-pdb4n8x-D-GLU-89:MBZ-pdb4n8x-E-PHE-52
     RDKit          3D

 22 21  0  0  0  0  0  0  0  0999 V2000
    2.8510    0.5608   -3.9452 C   0  0  0  0  0  0  0  0  0  0  0  0
    3.3359    0.0262   -4.6149 H   0  0  0  0  0  0  0  0  0  0  0  0
    2.6646    1.4728   -4.2648 H   0  0  0  0  0  0  0  0  0  0  0  0
    1.8967    0.0707   -3.7523 H   0  0  0  0  0  0  0  0  0  0  0  0
    3.7395    0.6756   -2.7139 C   0  0  0  0  0  0  0  0  0  0  0  0
    4.9407    0.9962   -2.8639 O   0  0  0  0  0  1  0  0  0  0  0  0
    3.2373    0.4581   -1.5939 O   0  0  0  0  0  0  0  0  0  0  0  0
   -0.0031    2.9082    0.0068 C   0  0  0  0  0  0  0  0  0  0  0  0
   -0.4141    3.2176   -0.8351 H   0  0  0  0  0  0  0  0  0  0  0  0
    0.9294    3.2192    0.0938 H   0  0  0  0  0  0  0  0  0  0  0  0
   -0.5740    3.3341    0.8319 H   0  0  0  0  0  0  0  0  0  0  0  0
    0.0035    1.4064    0.0001 C   0  0  0  0  0  0  0  0  0  0  0  0
   -1.1986    0.6956   -0.0020 C   0  0  0  0  0  0  0  0  0  0  0  0
   -2.0630    1.1859   -0.0063 H   0  0  0  0  0  0  0  0  0  0  0  0
   -1.2050   -0.7011    0.0000 C   0  0  0  0  0  0  0  0  0  0  0  0
   -2.0830   -1.1902    0.0040 H   0  0  0  0  0  0  0  0  0  0  0  0
   -0.0043   -1.3997   -0.0013 C   0  0  0  0  0  0  0  0  0  0  0  0
   -0.0045   -2.3964   -0.0033 H   0  0  0  0  0  0  0  0  0  0  0  0
    1.2050   -0.6985   -0.0000 C   0  0  0  0  0  0  0  0  0  0  0  0
    2.0831   -1.1963   -0.0001 H   0  0  0  0  0  0  0  0  0  0  0  0
    1.1993    0.6973    0.0032 C   0  0  0  0  0  0  0  0  0  0  0  0
    2.0684    1.1913    0.0070 H   0  0  0  0  0  0  0  0  0  0  0  0
  1  5  1  0
  5  6  1  0
  5  7  2  0
  1  2  1  0
  1  3  1  0
  1  4  1  0
  8 12  1  0
 12 13  2  0
 13 15  1  0
 15 17  2  0
 17 19  1  0
 19 21  2  0
 21 12  1  0
  8  9  1  0
  8 10  1  0
  8 11  1  0
 13 14  1  0
 15 16  1  0
 17 18  1  0
 19 20  1  0
 21 22  1  0
M  CHG  1   6  -1
M  END
>  <PDB_ID>  (1764) 
pdb4n8x

>  <RESIDUE_NAME>  (1764) 
GLU   PHE

>  <FRAG_NAME>  (1764) 
ACET   MBZ

>  <FRAG_ATOM_NUM>  (1764) 
fragi: 7  fragj: 15

>  <atom.prop.CHAIN_ID>  (1764) 
A A A A A A A Z Z Z Z Z Z Z Z Z Z Z Z Z Z Z

>  <atom.prop.IS_HEAVY_ATOM>  (1764) 
1 0 0 0 1 1 1 1 0 0 0 1 1 0 1 0 1 0 1 0 1 0

>  <DIFUSE_FUNC_ATOM>  (1764) 
atom 6   atom 7   

>  <FINAL_SINGLE_POINT_ENERGY>  (1764) 
0

>  <NONCOV_INTER_ENERGY_QM>  (1764) 
0

>  <FF_Energy>  (1764) 
8.3

>  <QM_Energy>  (1764) 
-2.16

>  <source>  (1764) 
ACET_MBZ_01

>  <Index>  (1764) 
38108

$$$$
ACET-pdb4n8x-G-GLU-89:MBZ-pdb4n8x-H-PHE-52
     RDKit          3D

 22 21  0  0  0  0  0  0  0  0999 V2000
   -1.3237   -4.0863   -1.3861 C   0  0  0  0  0  0  0  0  0  0  0  0
   -1.1230   -3.2259   -0.9491 H   0  0  0  0  0  0  0  0  0  0  0  0
   -1.2504   -4.8425   -0.7580 H   0  0  0  0  0  0  0  0  0  0  0  0
   -2.3489   -4.0476   -1.7542 H   0  0  0  0  0  0  0  0  0  0  0  0
   -0.2955   -4.2973   -2.4798 C   0  0  0  0  0  0  0  0  0  0  0  0
   -0.6062   -5.0001   -3.4629 O   0  0  0  0  0  1  0  0  0  0  0  0
    0.8341   -3.7736   -2.3508 O   0  0  0  0  0  0  0  0  0  0  0  0
   -0.0067    2.8943    0.0201 C   0  0  0  0  0  0  0  0  0  0  0  0
   -0.7102    3.2106   -0.5941 H   0  0  0  0  0  0  0  0  0  0  0  0
    0.8865    3.2132   -0.2503 H   0  0  0  0  0  0  0  0  0  0  0  0
   -0.2198    3.3088    1.0054 H   0  0  0  0  0  0  0  0  0  0  0  0
    0.0014    1.3963   -0.0024 C   0  0  0  0  0  0  0  0  0  0  0  0
   -1.1976    0.6856    0.0023 C   0  0  0  0  0  0  0  0  0  0  0  0
   -2.0623    1.1778    0.0062 H   0  0  0  0  0  0  0  0  0  0  0  0
   -1.1997   -0.6998   -0.0000 C   0  0  0  0  0  0  0  0  0  0  0  0
   -2.0763   -1.1953   -0.0013 H   0  0  0  0  0  0  0  0  0  0  0  0
   -0.0023   -1.3847    0.0016 C   0  0  0  0  0  0  0  0  0  0  0  0
    0.0009   -2.3875    0.0030 H   0  0  0  0  0  0  0  0  0  0  0  0
    1.1997   -0.6897    0.0000 C   0  0  0  0  0  0  0  0  0  0  0  0
    2.0800   -1.1934    0.0016 H   0  0  0  0  0  0  0  0  0  0  0  0
    1.1985    0.6922   -0.0015 C   0  0  0  0  0  0  0  0  0  0  0  0
    2.0642    1.1919   -0.0028 H   0  0  0  0  0  0  0  0  0  0  0  0
  1  5  1  0
  5  6  1  0
  5  7  2  0
  1  2  1  0
  1  3  1  0
  1  4  1  0
  8 12  1  0
 12 13  2  0
 13 15  1  0
 15 17  2  0
 17 19  1  0
 19 21  2  0
 21 12  1  0
  8  9  1  0
  8 10  1  0
  8 11  1  0
 13 14  1  0
 15 16  1  0
 17 18  1  0
 19 20  1  0
 21 22  1  0
M  CHG  1   6  -1
M  END
>  <PDB_ID>  (1765) 
pdb4n8x

>  <RESIDUE_NAME>  (1765) 
GLU   PHE

>  <FRAG_NAME>  (1765) 
ACET   MBZ

>  <FRAG_ATOM_NUM>  (1765) 
fragi: 7  fragj: 15

>  <atom.prop.CHAIN_ID>  (1765) 
A A A A A A A Z Z Z Z Z Z Z Z Z Z Z Z Z Z Z

>  <atom.prop.IS_HEAVY_ATOM>  (1765) 
1 0 0 0 1 1 1 1 0 0 0 1 1 0 1 0 1 0 1 0 1 0

>  <DIFUSE_FUNC_ATOM>  (1765) 
atom 6   atom 7   

>  <FINAL_SINGLE_POINT_ENERGY>  (1765) 
0

>  <NONCOV_INTER_ENERGY_QM>  (1765) 
0

>  <FF_Energy>  (1765) 
8.39

>  <QM_Energy>  (1765) 
0.15

>  <source>  (1765) 
ACET_MBZ_01

>  <Index>  (1765) 
38110

$$$$
ACET-pdb4n8x-P-GLU-89:MBZ-pdb4n8x-Q-PHE-52
     RDKit          3D

 22 21  0  0  0  0  0  0  0  0999 V2000
   -0.2991    0.5505   -4.7622 C   0  0  0  0  0  0  0  0  0  0  0  0
   -0.0078    0.2455   -5.6453 H   0  0  0  0  0  0  0  0  0  0  0  0
   -0.8101    1.3850   -4.7962 H   0  0  0  0  0  0  0  0  0  0  0  0
   -0.9287   -0.2226   -4.3216 H   0  0  0  0  0  0  0  0  0  0  0  0
    0.9309    0.7974   -3.9300 C   0  0  0  0  0  0  0  0  0  0  0  0
    0.8476    0.5543   -2.7202 O   0  0  0  0  0  1  0  0  0  0  0  0
    1.9738    1.2054   -4.4816 O   0  0  0  0  0  0  0  0  0  0  0  0
   -0.0016    2.8959    0.0010 C   0  0  0  0  0  0  0  0  0  0  0  0
   -0.8143    3.2086   -0.4677 H   0  0  0  0  0  0  0  0  0  0  0  0
    0.8185    3.2094   -0.4541 H   0  0  0  0  0  0  0  0  0  0  0  0
   -0.0101    3.3224    1.0040 H   0  0  0  0  0  0  0  0  0  0  0  0
   -0.0012    1.4035   -0.0102 C   0  0  0  0  0  0  0  0  0  0  0  0
   -1.2003    0.7018   -0.0017 C   0  0  0  0  0  0  0  0  0  0  0  0
   -2.0648    1.1940    0.0019 H   0  0  0  0  0  0  0  0  0  0  0  0
   -1.2079   -0.6892    0.0000 C   0  0  0  0  0  0  0  0  0  0  0  0
   -2.0830   -1.1841   -0.0001 H   0  0  0  0  0  0  0  0  0  0  0  0
    0.0011   -1.4006    0.0032 C   0  0  0  0  0  0  0  0  0  0  0  0
   -0.0132   -2.3955    0.0069 H   0  0  0  0  0  0  0  0  0  0  0  0
    1.2079   -0.7078   -0.0000 C   0  0  0  0  0  0  0  0  0  0  0  0
    2.0858   -1.2012   -0.0074 H   0  0  0  0  0  0  0  0  0  0  0  0
    1.2003    0.6923    0.0087 C   0  0  0  0  0  0  0  0  0  0  0  0
    2.0667    1.1876    0.0279 H   0  0  0  0  0  0  0  0  0  0  0  0
  1  5  1  0
  5  6  1  0
  5  7  2  0
  1  2  1  0
  1  3  1  0
  1  4  1  0
  8 12  1  0
 12 13  2  0
 13 15  1  0
 15 17  2  0
 17 19  1  0
 19 21  2  0
 21 12  1  0
  8  9  1  0
  8 10  1  0
  8 11  1  0
 13 14  1  0
 15 16  1  0
 17 18  1  0
 19 20  1  0
 21 22  1  0
M  CHG  1   6  -1
M  END
>  <PDB_ID>  (1766) 
pdb4n8x

>  <RESIDUE_NAME>  (1766) 
GLU   PHE

>  <FRAG_NAME>  (1766) 
ACET   MBZ

>  <FRAG_ATOM_NUM>  (1766) 
fragi: 7  fragj: 15

>  <atom.prop.CHAIN_ID>  (1766) 
A A A A A A A Z Z Z Z Z Z Z Z Z Z Z Z Z Z Z

>  <atom.prop.IS_HEAVY_ATOM>  (1766) 
1 0 0 0 1 1 1 1 0 0 0 1 1 0 1 0 1 0 1 0 1 0

>  <DIFUSE_FUNC_ATOM>  (1766) 
atom 6   atom 7   

>  <FINAL_SINGLE_POINT_ENERGY>  (1766) 
0

>  <NONCOV_INTER_ENERGY_QM>  (1766) 
0

>  <FF_Energy>  (1766) 
8.34

>  <QM_Energy>  (1766) 
1.71

>  <source>  (1766) 
ACET_MBZ_01

>  <Index>  (1766) 
38120

$$$$
ACET-pdb4nah-E-ASP-13:MBZ-pdb4nah-E-PHE-47
     RDKit          3D

 22 21  0  0  0  0  0  0  0  0999 V2000
    5.2174    4.0644    0.3664 C   0  0  0  0  0  0  0  0  0  0  0  0
    4.9792    4.9794    0.6665 H   0  0  0  0  0  0  0  0  0  0  0  0
    6.1581    4.0297    0.0560 H   0  0  0  0  0  0  0  0  0  0  0  0
    5.1027    3.3815    1.2082 H   0  0  0  0  0  0  0  0  0  0  0  0
    4.3072    3.7032   -0.8290 C   0  0  0  0  0  0  0  0  0  0  0  0
    3.1424    3.3328   -0.6007 O   0  0  0  0  0  1  0  0  0  0  0  0
    4.7562    3.7946   -1.9967 O   0  0  0  0  0  0  0  0  0  0  0  0
   -0.0036    2.8820    0.0213 C   0  0  0  0  0  0  0  0  0  0  0  0
    0.8960    3.1863    0.3191 H   0  0  0  0  0  0  0  0  0  0  0  0
   -0.6983    3.1724    0.6715 H   0  0  0  0  0  0  0  0  0  0  0  0
   -0.2194    3.3533   -0.9376 H   0  0  0  0  0  0  0  0  0  0  0  0
    0.0012    1.3956   -0.0116 C   0  0  0  0  0  0  0  0  0  0  0  0
   -1.1947    0.6860    0.0059 C   0  0  0  0  0  0  0  0  0  0  0  0
   -2.0615    1.1829    0.0214 H   0  0  0  0  0  0  0  0  0  0  0  0
   -1.2027   -0.6932    0.0000 C   0  0  0  0  0  0  0  0  0  0  0  0
   -2.0808   -1.1895   -0.0057 H   0  0  0  0  0  0  0  0  0  0  0  0
   -0.0046   -1.3919    0.0040 C   0  0  0  0  0  0  0  0  0  0  0  0
   -0.0071   -2.3890    0.0092 H   0  0  0  0  0  0  0  0  0  0  0  0
    1.2027   -0.6936   -0.0000 C   0  0  0  0  0  0  0  0  0  0  0  0
    2.0809   -1.1937   -0.0032 H   0  0  0  0  0  0  0  0  0  0  0  0
    1.1981    0.6971    0.0017 C   0  0  0  0  0  0  0  0  0  0  0  0
    2.0642    1.1937    0.0123 H   0  0  0  0  0  0  0  0  0  0  0  0
  1  5  1  0
  5  6  1  0
  5  7  2  0
  1  2  1  0
  1  3  1  0
  1  4  1  0
  8 12  1  0
 12 13  2  0
 13 15  1  0
 15 17  2  0
 17 19  1  0
 19 21  2  0
 21 12  1  0
  8  9  1  0
  8 10  1  0
  8 11  1  0
 13 14  1  0
 15 16  1  0
 17 18  1  0
 19 20  1  0
 21 22  1  0
M  CHG  1   6  -1
M  END
>  <PDB_ID>  (1767) 
pdb4nah

>  <RESIDUE_NAME>  (1767) 
ASP   PHE

>  <FRAG_NAME>  (1767) 
ACET   MBZ

>  <FRAG_ATOM_NUM>  (1767) 
fragi: 7  fragj: 15

>  <atom.prop.CHAIN_ID>  (1767) 
A A A A A A A Z Z Z Z Z Z Z Z Z Z Z Z Z Z Z

>  <atom.prop.IS_HEAVY_ATOM>  (1767) 
1 0 0 0 1 1 1 1 0 0 0 1 1 0 1 0 1 0 1 0 1 0

>  <DIFUSE_FUNC_ATOM>  (1767) 
atom 6   atom 7   

>  <FINAL_SINGLE_POINT_ENERGY>  (1767) 
0

>  <NONCOV_INTER_ENERGY_QM>  (1767) 
0

>  <FF_Energy>  (1767) 
-1.39

>  <QM_Energy>  (1767) 
-7.61

>  <source>  (1767) 
ACET_MBZ_01

>  <Index>  (1767) 
38146

$$$$
ACET-pdb4nas-A-ASP-248:MBZ-pdb4nas-A-PHE-90
     RDKit          3D

 22 21  0  0  0  0  0  0  0  0999 V2000
    4.5177    3.5957    1.3789 C   0  0  0  0  0  0  0  0  0  0  0  0
    4.4036    4.3059    2.0653 H   0  0  0  0  0  0  0  0  0  0  0  0
    5.4433    3.6092    1.0169 H   0  0  0  0  0  0  0  0  0  0  0  0
    4.3612    2.6324    1.8643 H   0  0  0  0  0  0  0  0  0  0  0  0
    3.5470    3.8352    0.2586 C   0  0  0  0  0  0  0  0  0  0  0  0
    3.4121    2.9285   -0.6038 O   0  0  0  0  0  1  0  0  0  0  0  0
    2.9358    4.9293    0.2367 O   0  0  0  0  0  0  0  0  0  0  0  0
   -0.0154    2.9011   -0.0030 C   0  0  0  0  0  0  0  0  0  0  0  0
    0.8281    3.2151    0.4001 H   0  0  0  0  0  0  0  0  0  0  0  0
   -0.8011    3.2030    0.5119 H   0  0  0  0  0  0  0  0  0  0  0  0
   -0.0867    3.3255   -1.0044 H   0  0  0  0  0  0  0  0  0  0  0  0
   -0.0035    1.3985    0.0039 C   0  0  0  0  0  0  0  0  0  0  0  0
   -1.1954    0.6822    0.0073 C   0  0  0  0  0  0  0  0  0  0  0  0
   -2.0656    1.1725    0.0141 H   0  0  0  0  0  0  0  0  0  0  0  0
   -1.1973   -0.7022   -0.0000 C   0  0  0  0  0  0  0  0  0  0  0  0
   -2.0706   -1.2009   -0.0016 H   0  0  0  0  0  0  0  0  0  0  0  0
    0.0070   -1.3910   -0.0026 C   0  0  0  0  0  0  0  0  0  0  0  0
    0.0046   -2.3918   -0.0069 H   0  0  0  0  0  0  0  0  0  0  0  0
    1.1973   -0.6930    0.0000 C   0  0  0  0  0  0  0  0  0  0  0  0
    2.0853   -1.1831    0.0094 H   0  0  0  0  0  0  0  0  0  0  0  0
    1.1919    0.7056   -0.0087 C   0  0  0  0  0  0  0  0  0  0  0  0
    2.0587    1.1979   -0.0252 H   0  0  0  0  0  0  0  0  0  0  0  0
  1  5  1  0
  5  6  1  0
  5  7  2  0
  1  2  1  0
  1  3  1  0
  1  4  1  0
  8 12  1  0
 12 13  2  0
 13 15  1  0
 15 17  2  0
 17 19  1  0
 19 21  2  0
 21 12  1  0
  8  9  1  0
  8 10  1  0
  8 11  1  0
 13 14  1  0
 15 16  1  0
 17 18  1  0
 19 20  1  0
 21 22  1  0
M  CHG  1   6  -1
M  END
>  <PDB_ID>  (1768) 
pdb4nas

>  <RESIDUE_NAME>  (1768) 
ASP   PHE

>  <FRAG_NAME>  (1768) 
ACET   MBZ

>  <FRAG_ATOM_NUM>  (1768) 
fragi: 7  fragj: 15

>  <atom.prop.CHAIN_ID>  (1768) 
A A A A A A A Z Z Z Z Z Z Z Z Z Z Z Z Z Z Z

>  <atom.prop.IS_HEAVY_ATOM>  (1768) 
1 0 0 0 1 1 1 1 0 0 0 1 1 0 1 0 1 0 1 0 1 0

>  <DIFUSE_FUNC_ATOM>  (1768) 
atom 6   atom 7   

>  <FINAL_SINGLE_POINT_ENERGY>  (1768) 
0

>  <NONCOV_INTER_ENERGY_QM>  (1768) 
0

>  <FF_Energy>  (1768) 
-1.52

>  <QM_Energy>  (1768) 
-8.69

>  <source>  (1768) 
ACET_MBZ_01

>  <Index>  (1768) 
38168

$$$$
ACET-pdb4nas-C-ASP-248:MBZ-pdb4nas-C-PHE-90
     RDKit          3D

 22 21  0  0  0  0  0  0  0  0999 V2000
    4.4596    3.6509    1.1482 C   0  0  0  0  0  0  0  0  0  0  0  0
    4.2663    4.3878    1.7832 H   0  0  0  0  0  0  0  0  0  0  0  0
    5.3727    3.7415    0.7721 H   0  0  0  0  0  0  0  0  0  0  0  0
    4.4045    2.7078    1.6920 H   0  0  0  0  0  0  0  0  0  0  0  0
    3.4509    3.7342   -0.0085 C   0  0  0  0  0  0  0  0  0  0  0  0
    3.3774    2.7869   -0.8350 O   0  0  0  0  0  1  0  0  0  0  0  0
    2.7332    4.7628   -0.0985 O   0  0  0  0  0  0  0  0  0  0  0  0
   -0.0047    2.8854    0.0050 C   0  0  0  0  0  0  0  0  0  0  0  0
    0.8656    3.1956    0.3550 H   0  0  0  0  0  0  0  0  0  0  0  0
   -0.7518    3.1894    0.5756 H   0  0  0  0  0  0  0  0  0  0  0  0
   -0.1410    3.3211   -0.9848 H   0  0  0  0  0  0  0  0  0  0  0  0
    0.0001    1.3895    0.0013 C   0  0  0  0  0  0  0  0  0  0  0  0
   -1.1875    0.6822   -0.0022 C   0  0  0  0  0  0  0  0  0  0  0  0
   -2.0576    1.1729   -0.0074 H   0  0  0  0  0  0  0  0  0  0  0  0
   -1.1872   -0.6967    0.0000 C   0  0  0  0  0  0  0  0  0  0  0  0
   -2.0686   -1.1931    0.0042 H   0  0  0  0  0  0  0  0  0  0  0  0
   -0.0008   -1.3775   -0.0026 C   0  0  0  0  0  0  0  0  0  0  0  0
    0.0011   -2.3832   -0.0071 H   0  0  0  0  0  0  0  0  0  0  0  0
    1.1872   -0.6863    0.0000 C   0  0  0  0  0  0  0  0  0  0  0  0
    2.0737   -1.1890    0.0006 H   0  0  0  0  0  0  0  0  0  0  0  0
    1.1882    0.6887    0.0036 C   0  0  0  0  0  0  0  0  0  0  0  0
    2.0575    1.1871    0.0075 H   0  0  0  0  0  0  0  0  0  0  0  0
  1  5  1  0
  5  6  1  0
  5  7  2  0
  1  2  1  0
  1  3  1  0
  1  4  1  0
  8 12  1  0
 12 13  2  0
 13 15  1  0
 15 17  2  0
 17 19  1  0
 19 21  2  0
 21 12  1  0
  8  9  1  0
  8 10  1  0
  8 11  1  0
 13 14  1  0
 15 16  1  0
 17 18  1  0
 19 20  1  0
 21 22  1  0
M  CHG  1   6  -1
M  END
>  <PDB_ID>  (1769) 
pdb4nas

>  <RESIDUE_NAME>  (1769) 
ASP   PHE

>  <FRAG_NAME>  (1769) 
ACET   MBZ

>  <FRAG_ATOM_NUM>  (1769) 
fragi: 7  fragj: 15

>  <atom.prop.CHAIN_ID>  (1769) 
A A A A A A A Z Z Z Z Z Z Z Z Z Z Z Z Z Z Z

>  <atom.prop.IS_HEAVY_ATOM>  (1769) 
1 0 0 0 1 1 1 1 0 0 0 1 1 0 1 0 1 0 1 0 1 0

>  <DIFUSE_FUNC_ATOM>  (1769) 
atom 6   atom 7   

>  <FINAL_SINGLE_POINT_ENERGY>  (1769) 
0

>  <NONCOV_INTER_ENERGY_QM>  (1769) 
0

>  <FF_Energy>  (1769) 
-0.53

>  <QM_Energy>  (1769) 
-8.27

>  <source>  (1769) 
ACET_MBZ_01

>  <Index>  (1769) 
38174

$$$$
ACET-pdb4nae-A-GLU-29:MBZ-pdb4nae-A-PHE-58
     RDKit          3D

 22 21  0  0  0  0  0  0  0  0999 V2000
   -3.2407    0.8407    3.2642 C   0  0  0  0  0  0  0  0  0  0  0  0
   -2.2860    0.6789    3.1088 H   0  0  0  0  0  0  0  0  0  0  0  0
   -3.8105    0.1494    2.8646 H   0  0  0  0  0  0  0  0  0  0  0  0
   -3.4154    0.8512    4.3400 H   0  0  0  0  0  0  0  0  0  0  0  0
   -3.5942    2.1736    2.5801 C   0  0  0  0  0  0  0  0  0  0  0  0
   -4.6926    2.7290    2.8337 O   0  0  0  0  0  1  0  0  0  0  0  0
   -2.7561    2.6830    1.7968 O   0  0  0  0  0  0  0  0  0  0  0  0
   -0.0083    2.8970   -0.0362 C   0  0  0  0  0  0  0  0  0  0  0  0
    0.8751    3.2093    0.2135 H   0  0  0  0  0  0  0  0  0  0  0  0
   -0.6648    3.2116    0.6050 H   0  0  0  0  0  0  0  0  0  0  0  0
   -0.2583    3.2896   -1.0219 H   0  0  0  0  0  0  0  0  0  0  0  0
   -0.0003    1.3948    0.0037 C   0  0  0  0  0  0  0  0  0  0  0  0
   -1.1915    0.6855   -0.0023 C   0  0  0  0  0  0  0  0  0  0  0  0
   -2.0000    1.1450   -0.0093 H   0  0  0  0  0  0  0  0  0  0  0  0
   -1.1937   -0.6983   -0.0000 C   0  0  0  0  0  0  0  0  0  0  0  0
   -1.9999   -1.1636    0.0047 H   0  0  0  0  0  0  0  0  0  0  0  0
    0.0005   -1.3837    0.0023 C   0  0  0  0  0  0  0  0  0  0  0  0
    0.0031   -2.3137    0.0116 H   0  0  0  0  0  0  0  0  0  0  0  0
    1.1937   -0.6896   -0.0000 C   0  0  0  0  0  0  0  0  0  0  0  0
    2.0005   -1.1522    0.0044 H   0  0  0  0  0  0  0  0  0  0  0  0
    1.1914    0.6913   -0.0038 C   0  0  0  0  0  0  0  0  0  0  0  0
    1.9982    1.1530   -0.0091 H   0  0  0  0  0  0  0  0  0  0  0  0
  1  5  1  0
  5  6  1  0
  5  7  2  0
  1  2  1  0
  1  3  1  0
  1  4  1  0
  8 12  1  0
 12 13  2  0
 13 15  1  0
 15 17  2  0
 17 19  1  0
 19 21  2  0
 21 12  1  0
  8  9  1  0
  8 10  1  0
  8 11  1  0
 13 14  1  0
 15 16  1  0
 17 18  1  0
 19 20  1  0
 21 22  1  0
M  CHG  1   6  -1
M  END
>  <PDB_ID>  (1770) 
pdb4nae

>  <RESIDUE_NAME>  (1770) 
GLU   PHE

>  <FRAG_NAME>  (1770) 
ACET   MBZ

>  <FRAG_ATOM_NUM>  (1770) 
fragi: 7  fragj: 15

>  <atom.prop.CHAIN_ID>  (1770) 
A A A A A A A Z Z Z Z Z Z Z Z Z Z Z Z Z Z Z

>  <atom.prop.IS_HEAVY_ATOM>  (1770) 
1 0 0 0 1 1 1 1 0 0 0 1 1 0 1 0 1 0 1 0 1 0

>  <DIFUSE_FUNC_ATOM>  (1770) 
atom 6   atom 7   

>  <FINAL_SINGLE_POINT_ENERGY>  (1770) 
0

>  <NONCOV_INTER_ENERGY_QM>  (1770) 
0

>  <FF_Energy>  (1770) 
-1.11

>  <QM_Energy>  (1770) 
-6.86

>  <source>  (1770) 
ACET_MBZ_01

>  <Index>  (1770) 
38186

$$$$
ACET-pdb4ncp-C-ASP-43:MBZ-pdb4ncp-A-PHE-34
     RDKit          3D

 22 21  0  0  0  0  0  0  0  0999 V2000
   -0.3050   -3.0600    3.6556 C   0  0  0  0  0  0  0  0  0  0  0  0
    0.0304   -2.9984    4.5843 H   0  0  0  0  0  0  0  0  0  0  0  0
    0.3602   -2.7157    3.0108 H   0  0  0  0  0  0  0  0  0  0  0  0
   -0.5175   -4.1037    3.4239 H   0  0  0  0  0  0  0  0  0  0  0  0
   -1.5695   -2.1728    3.5503 C   0  0  0  0  0  0  0  0  0  0  0  0
   -2.4787   -2.3025    4.4369 O   0  0  0  0  0  1  0  0  0  0  0  0
   -1.6575   -1.4065    2.5311 O   0  0  0  0  0  0  0  0  0  0  0  0
    0.0050    2.9232    0.0055 C   0  0  0  0  0  0  0  0  0  0  0  0
   -0.2782    3.2312   -0.8868 H   0  0  0  0  0  0  0  0  0  0  0  0
    0.9187    3.2196    0.2248 H   0  0  0  0  0  0  0  0  0  0  0  0
   -0.6723    3.3595    0.7396 H   0  0  0  0  0  0  0  0  0  0  0  0
   -0.0030    1.4068   -0.0010 C   0  0  0  0  0  0  0  0  0  0  0  0
   -1.2049    0.7014   -0.0003 C   0  0  0  0  0  0  0  0  0  0  0  0
   -2.0672    1.1930   -0.0011 H   0  0  0  0  0  0  0  0  0  0  0  0
   -1.2012   -0.6835    0.0000 C   0  0  0  0  0  0  0  0  0  0  0  0
   -2.0788   -1.1831   -0.0027 H   0  0  0  0  0  0  0  0  0  0  0  0
   -0.0027   -1.3768    0.0053 C   0  0  0  0  0  0  0  0  0  0  0  0
   -0.0221   -2.3870    0.0122 H   0  0  0  0  0  0  0  0  0  0  0  0
    1.2012   -0.7135   -0.0000 C   0  0  0  0  0  0  0  0  0  0  0  0
    2.0741   -1.2239    0.0005 H   0  0  0  0  0  0  0  0  0  0  0  0
    1.2107    0.6656   -0.0040 C   0  0  0  0  0  0  0  0  0  0  0  0
    2.0737    1.1686   -0.0097 H   0  0  0  0  0  0  0  0  0  0  0  0
  1  5  1  0
  5  6  1  0
  5  7  2  0
  1  2  1  0
  1  3  1  0
  1  4  1  0
  8 12  1  0
 12 13  2  0
 13 15  1  0
 15 17  2  0
 17 19  1  0
 19 21  2  0
 21 12  1  0
  8  9  1  0
  8 10  1  0
  8 11  1  0
 13 14  1  0
 15 16  1  0
 17 18  1  0
 19 20  1  0
 21 22  1  0
M  CHG  1   6  -1
M  END
>  <PDB_ID>  (1771) 
pdb4ncp

>  <RESIDUE_NAME>  (1771) 
ASP   PHE

>  <FRAG_NAME>  (1771) 
ACET   MBZ

>  <FRAG_ATOM_NUM>  (1771) 
fragi: 7  fragj: 15

>  <atom.prop.CHAIN_ID>  (1771) 
A A A A A A A Z Z Z Z Z Z Z Z Z Z Z Z Z Z Z

>  <atom.prop.IS_HEAVY_ATOM>  (1771) 
1 0 0 0 1 1 1 1 0 0 0 1 1 0 1 0 1 0 1 0 1 0

>  <DIFUSE_FUNC_ATOM>  (1771) 
atom 6   atom 7   

>  <FINAL_SINGLE_POINT_ENERGY>  (1771) 
0

>  <NONCOV_INTER_ENERGY_QM>  (1771) 
0

>  <FF_Energy>  (1771) 
5.63

>  <QM_Energy>  (1771) 
0.47

>  <source>  (1771) 
ACET_MBZ_01

>  <Index>  (1771) 
38329

$$$$
ACET-pdb4nfu-B-GLU-161:MBZ-pdb4nfu-B-PHE-97
     RDKit          3D

 22 21  0  0  0  0  0  0  0  0999 V2000
    3.2527    2.7749   -2.2889 C   0  0  0  0  0  0  0  0  0  0  0  0
    3.3384    2.2095   -3.0893 H   0  0  0  0  0  0  0  0  0  0  0  0
    2.9751    2.2591   -1.4983 H   0  0  0  0  0  0  0  0  0  0  0  0
    4.2230    3.2266   -2.0825 H   0  0  0  0  0  0  0  0  0  0  0  0
    2.1681    3.8010   -2.5680 C   0  0  0  0  0  0  0  0  0  0  0  0
    2.4208    5.0150   -2.4211 O   0  0  0  0  0  1  0  0  0  0  0  0
    1.0542    3.3872   -2.9402 O   0  0  0  0  0  0  0  0  0  0  0  0
    0.0017    2.8992   -0.0002 C   0  0  0  0  0  0  0  0  0  0  0  0
    0.7795    3.2040   -0.5276 H   0  0  0  0  0  0  0  0  0  0  0  0
    0.0607    3.2048    0.9383 H   0  0  0  0  0  0  0  0  0  0  0  0
   -0.8925    3.3414   -0.4394 H   0  0  0  0  0  0  0  0  0  0  0  0
   -0.0002    1.3948   -0.0002 C   0  0  0  0  0  0  0  0  0  0  0  0
   -1.1919    0.6887   -0.0001 C   0  0  0  0  0  0  0  0  0  0  0  0
   -2.0603    1.1801   -0.0009 H   0  0  0  0  0  0  0  0  0  0  0  0
   -1.1946   -0.6934    0.0000 C   0  0  0  0  0  0  0  0  0  0  0  0
   -2.0733   -1.1893    0.0010 H   0  0  0  0  0  0  0  0  0  0  0  0
    0.0004   -1.3849    0.0006 C   0  0  0  0  0  0  0  0  0  0  0  0
   -0.0038   -2.3875    0.0011 H   0  0  0  0  0  0  0  0  0  0  0  0
    1.1946   -0.6936    0.0000 C   0  0  0  0  0  0  0  0  0  0  0  0
    2.0781   -1.1937    0.0016 H   0  0  0  0  0  0  0  0  0  0  0  0
    1.1917    0.6884   -0.0003 C   0  0  0  0  0  0  0  0  0  0  0  0
    2.0612    1.1861   -0.0014 H   0  0  0  0  0  0  0  0  0  0  0  0
  1  5  1  0
  5  6  1  0
  5  7  2  0
  1  2  1  0
  1  3  1  0
  1  4  1  0
  8 12  1  0
 12 13  2  0
 13 15  1  0
 15 17  2  0
 17 19  1  0
 19 21  2  0
 21 12  1  0
  8  9  1  0
  8 10  1  0
  8 11  1  0
 13 14  1  0
 15 16  1  0
 17 18  1  0
 19 20  1  0
 21 22  1  0
M  CHG  1   6  -1
M  END
>  <PDB_ID>  (1772) 
pdb4nfu

>  <RESIDUE_NAME>  (1772) 
GLU   PHE

>  <FRAG_NAME>  (1772) 
ACET   MBZ

>  <FRAG_ATOM_NUM>  (1772) 
fragi: 7  fragj: 15

>  <atom.prop.CHAIN_ID>  (1772) 
A A A A A A A Z Z Z Z Z Z Z Z Z Z Z Z Z Z Z

>  <atom.prop.IS_HEAVY_ATOM>  (1772) 
1 0 0 0 1 1 1 1 0 0 0 1 1 0 1 0 1 0 1 0 1 0

>  <DIFUSE_FUNC_ATOM>  (1772) 
atom 6   atom 7   

>  <FINAL_SINGLE_POINT_ENERGY>  (1772) 
0

>  <NONCOV_INTER_ENERGY_QM>  (1772) 
0

>  <FF_Energy>  (1772) 
1.2

>  <QM_Energy>  (1772) 
-3.92

>  <source>  (1772) 
ACET_MBZ_01

>  <Index>  (1772) 
38546

$$$$
ACET-pdb3pn8-A-GLU-99:MBZ-pdb3pn8-A-PHE-94
     RDKit          3D

 22 21  0  0  0  0  0  0  0  0999 V2000
   -5.3815    2.5307   -1.3243 C   0  0  0  0  0  0  0  0  0  0  0  0
   -5.4831    2.5046   -2.3014 H   0  0  0  0  0  0  0  0  0  0  0  0
   -6.2043    2.8216   -0.8713 H   0  0  0  0  0  0  0  0  0  0  0  0
   -5.1304    1.5285   -0.9771 H   0  0  0  0  0  0  0  0  0  0  0  0
   -4.3017    3.5477   -1.0048 C   0  0  0  0  0  0  0  0  0  0  0  0
   -3.4832    3.2868   -0.0953 O   0  0  0  0  0  1  0  0  0  0  0  0
   -4.2722    4.6066   -1.6681 O   0  0  0  0  0  0  0  0  0  0  0  0
   -0.0033    2.8929   -0.0052 C   0  0  0  0  0  0  0  0  0  0  0  0
    0.8206    3.2046    0.4423 H   0  0  0  0  0  0  0  0  0  0  0  0
   -0.8126    3.2009    0.4718 H   0  0  0  0  0  0  0  0  0  0  0  0
   -0.0224    3.3246   -1.0058 H   0  0  0  0  0  0  0  0  0  0  0  0
    0.0005    1.3928    0.0023 C   0  0  0  0  0  0  0  0  0  0  0  0
   -1.1915    0.6887   -0.0015 C   0  0  0  0  0  0  0  0  0  0  0  0
   -2.0587    1.1826   -0.0069 H   0  0  0  0  0  0  0  0  0  0  0  0
   -1.1969   -0.6912   -0.0000 C   0  0  0  0  0  0  0  0  0  0  0  0
   -2.0761   -1.1871    0.0026 H   0  0  0  0  0  0  0  0  0  0  0  0
   -0.0024   -1.3846    0.0002 C   0  0  0  0  0  0  0  0  0  0  0  0
   -0.0054   -2.3855    0.0001 H   0  0  0  0  0  0  0  0  0  0  0  0
    1.1969   -0.6923    0.0000 C   0  0  0  0  0  0  0  0  0  0  0  0
    2.0772   -1.1953    0.0018 H   0  0  0  0  0  0  0  0  0  0  0  0
    1.1934    0.6865   -0.0009 C   0  0  0  0  0  0  0  0  0  0  0  0
    2.0618    1.1872   -0.0050 H   0  0  0  0  0  0  0  0  0  0  0  0
  1  5  1  0
  5  6  1  0
  5  7  2  0
  1  2  1  0
  1  3  1  0
  1  4  1  0
  8 12  1  0
 12 13  2  0
 13 15  1  0
 15 17  2  0
 17 19  1  0
 19 21  2  0
 21 12  1  0
  8  9  1  0
  8 10  1  0
  8 11  1  0
 13 14  1  0
 15 16  1  0
 17 18  1  0
 19 20  1  0
 21 22  1  0
M  CHG  1   6  -1
M  END
>  <PDB_ID>  (1773) 
pdb3pn8

>  <RESIDUE_NAME>  (1773) 
GLU   PHE

>  <FRAG_NAME>  (1773) 
ACET   MBZ

>  <FRAG_ATOM_NUM>  (1773) 
fragi: 7  fragj: 15

>  <atom.prop.CHAIN_ID>  (1773) 
A A A A A A A Z Z Z Z Z Z Z Z Z Z Z Z Z Z Z

>  <atom.prop.IS_HEAVY_ATOM>  (1773) 
1 0 0 0 1 1 1 1 0 0 0 1 1 0 1 0 1 0 1 0 1 0

>  <DIFUSE_FUNC_ATOM>  (1773) 
atom 6   atom 7   

>  <FINAL_SINGLE_POINT_ENERGY>  (1773) 
0

>  <NONCOV_INTER_ENERGY_QM>  (1773) 
0

>  <FF_Energy>  (1773) 
-2.3

>  <QM_Energy>  (1773) 
-7.57

>  <source>  (1773) 
ACET_MBZ_01

>  <Index>  (1773) 
38689

$$$$
ACET-pdb3pn8-B-ASP-72:MBZ-pdb3pn8-B-PHE-65
     RDKit          3D

 22 21  0  0  0  0  0  0  0  0999 V2000
   -4.9244   -0.3404    0.9512 C   0  0  0  0  0  0  0  0  0  0  0  0
   -4.0835   -0.5810    1.4208 H   0  0  0  0  0  0  0  0  0  0  0  0
   -4.8932   -0.6355    0.0048 H   0  0  0  0  0  0  0  0  0  0  0  0
   -5.7454   -0.8640    1.4410 H   0  0  0  0  0  0  0  0  0  0  0  0
   -5.0923    1.1641    0.9899 C   0  0  0  0  0  0  0  0  0  0  0  0
   -6.2259    1.6270    1.2527 O   0  0  0  0  0  1  0  0  0  0  0  0
   -4.0932    1.8810    0.7539 O   0  0  0  0  0  0  0  0  0  0  0  0
    0.0146    2.9055   -0.0581 C   0  0  0  0  0  0  0  0  0  0  0  0
   -0.6901    3.1911   -0.6976 H   0  0  0  0  0  0  0  0  0  0  0  0
    0.9111    3.1912   -0.3756 H   0  0  0  0  0  0  0  0  0  0  0  0
   -0.1756    3.4101    0.8891 H   0  0  0  0  0  0  0  0  0  0  0  0
    0.0013    1.4041    0.0077 C   0  0  0  0  0  0  0  0  0  0  0  0
   -1.1965    0.7009   -0.0058 C   0  0  0  0  0  0  0  0  0  0  0  0
   -2.0621    1.1892   -0.0207 H   0  0  0  0  0  0  0  0  0  0  0  0
   -1.2022   -0.6956   -0.0000 C   0  0  0  0  0  0  0  0  0  0  0  0
   -2.0790   -1.1863   -0.0007 H   0  0  0  0  0  0  0  0  0  0  0  0
    0.0008   -1.3958    0.0082 C   0  0  0  0  0  0  0  0  0  0  0  0
   -0.0078   -2.3945    0.0200 H   0  0  0  0  0  0  0  0  0  0  0  0
    1.2022   -0.7039    0.0000 C   0  0  0  0  0  0  0  0  0  0  0  0
    2.0827   -1.1988    0.0027 H   0  0  0  0  0  0  0  0  0  0  0  0
    1.1944    0.6903   -0.0102 C   0  0  0  0  0  0  0  0  0  0  0  0
    2.0653    1.1850   -0.0317 H   0  0  0  0  0  0  0  0  0  0  0  0
  1  5  1  0
  5  6  1  0
  5  7  2  0
  1  2  1  0
  1  3  1  0
  1  4  1  0
  8 12  1  0
 12 13  2  0
 13 15  1  0
 15 17  2  0
 17 19  1  0
 19 21  2  0
 21 12  1  0
  8  9  1  0
  8 10  1  0
  8 11  1  0
 13 14  1  0
 15 16  1  0
 17 18  1  0
 19 20  1  0
 21 22  1  0
M  CHG  1   6  -1
M  END
>  <PDB_ID>  (1774) 
pdb3pn8

>  <RESIDUE_NAME>  (1774) 
ASP   PHE

>  <FRAG_NAME>  (1774) 
ACET   MBZ

>  <FRAG_ATOM_NUM>  (1774) 
fragi: 7  fragj: 15

>  <atom.prop.CHAIN_ID>  (1774) 
A A A A A A A Z Z Z Z Z Z Z Z Z Z Z Z Z Z Z

>  <atom.prop.IS_HEAVY_ATOM>  (1774) 
1 0 0 0 1 1 1 1 0 0 0 1 1 0 1 0 1 0 1 0 1 0

>  <DIFUSE_FUNC_ATOM>  (1774) 
atom 6   atom 7   

>  <FINAL_SINGLE_POINT_ENERGY>  (1774) 
0

>  <NONCOV_INTER_ENERGY_QM>  (1774) 
0

>  <FF_Energy>  (1774) 
-1.61

>  <QM_Energy>  (1774) 
-6.65

>  <source>  (1774) 
ACET_MBZ_01

>  <Index>  (1774) 
38695

$$$$
ACET-pdb4nnh-B-GLU-318:MBZ-pdb4nnh-B-PHE-310
     RDKit          3D

 22 21  0  0  0  0  0  0  0  0999 V2000
   -3.6827    2.7325    1.4479 C   0  0  0  0  0  0  0  0  0  0  0  0
   -3.9342    2.3191    0.5919 H   0  0  0  0  0  0  0  0  0  0  0  0
   -3.0777    3.4983    1.3274 H   0  0  0  0  0  0  0  0  0  0  0  0
   -4.5901    3.0829    1.9399 H   0  0  0  0  0  0  0  0  0  0  0  0
   -2.8872    1.6550    2.2506 C   0  0  0  0  0  0  0  0  0  0  0  0
   -2.2167    2.0278    3.2509 O   0  0  0  0  0  1  0  0  0  0  0  0
   -2.9031    0.4310    1.8855 O   0  0  0  0  0  0  0  0  0  0  0  0
   -0.0029    2.9088    0.0032 C   0  0  0  0  0  0  0  0  0  0  0  0
    0.8495    3.2215    0.3816 H   0  0  0  0  0  0  0  0  0  0  0  0
   -0.7779    3.2192    0.5221 H   0  0  0  0  0  0  0  0  0  0  0  0
   -0.0904    3.3253   -1.0002 H   0  0  0  0  0  0  0  0  0  0  0  0
   -0.0002    1.3981    0.0194 C   0  0  0  0  0  0  0  0  0  0  0  0
   -1.1931    0.6980    0.0040 C   0  0  0  0  0  0  0  0  0  0  0  0
   -2.0604    1.1882   -0.0056 H   0  0  0  0  0  0  0  0  0  0  0  0
   -1.2012   -0.6933   -0.0000 C   0  0  0  0  0  0  0  0  0  0  0  0
   -2.0791   -1.1845    0.0045 H   0  0  0  0  0  0  0  0  0  0  0  0
   -0.0022   -1.3895   -0.0076 C   0  0  0  0  0  0  0  0  0  0  0  0
   -0.0095   -2.3911   -0.0195 H   0  0  0  0  0  0  0  0  0  0  0  0
    1.2012   -0.7012    0.0000 C   0  0  0  0  0  0  0  0  0  0  0  0
    2.0796   -1.1999    0.0181 H   0  0  0  0  0  0  0  0  0  0  0  0
    1.1955    0.6880   -0.0158 C   0  0  0  0  0  0  0  0  0  0  0  0
    2.0631    1.1850   -0.0542 H   0  0  0  0  0  0  0  0  0  0  0  0
  1  5  1  0
  5  6  1  0
  5  7  2  0
  1  2  1  0
  1  3  1  0
  1  4  1  0
  8 12  1  0
 12 13  2  0
 13 15  1  0
 15 17  2  0
 17 19  1  0
 19 21  2  0
 21 12  1  0
  8  9  1  0
  8 10  1  0
  8 11  1  0
 13 14  1  0
 15 16  1  0
 17 18  1  0
 19 20  1  0
 21 22  1  0
M  CHG  1   6  -1
M  END
>  <PDB_ID>  (1775) 
pdb4nnh

>  <RESIDUE_NAME>  (1775) 
GLU   PHE

>  <FRAG_NAME>  (1775) 
ACET   MBZ

>  <FRAG_ATOM_NUM>  (1775) 
fragi: 7  fragj: 15

>  <atom.prop.CHAIN_ID>  (1775) 
A A A A A A A Z Z Z Z Z Z Z Z Z Z Z Z Z Z Z

>  <atom.prop.IS_HEAVY_ATOM>  (1775) 
1 0 0 0 1 1 1 1 0 0 0 1 1 0 1 0 1 0 1 0 1 0

>  <DIFUSE_FUNC_ATOM>  (1775) 
atom 6   atom 7   

>  <FINAL_SINGLE_POINT_ENERGY>  (1775) 
0

>  <NONCOV_INTER_ENERGY_QM>  (1775) 
0

>  <FF_Energy>  (1775) 
14.01

>  <QM_Energy>  (1775) 
0.99

>  <source>  (1775) 
ACET_MBZ_01

>  <Index>  (1775) 
38924

$$$$
ACET-pdb3pu5-A-ASP-224:MBZ-pdb3pu5-A-PHE-219
     RDKit          3D

 22 21  0  0  0  0  0  0  0  0999 V2000
   -1.7521    2.8501   -2.9803 C   0  0  0  0  0  0  0  0  0  0  0  0
   -1.9389    2.0512   -2.4237 H   0  0  0  0  0  0  0  0  0  0  0  0
   -0.8107    3.1417   -2.8737 H   0  0  0  0  0  0  0  0  0  0  0  0
   -1.9035    2.5747   -4.0240 H   0  0  0  0  0  0  0  0  0  0  0  0
   -2.6702    3.9887   -2.5243 C   0  0  0  0  0  0  0  0  0  0  0  0
   -3.3029    4.6216   -3.3857 O   0  0  0  0  0  1  0  0  0  0  0  0
   -2.7547    4.2578   -1.3023 O   0  0  0  0  0  0  0  0  0  0  0  0
   -0.0035    2.9058   -0.0164 C   0  0  0  0  0  0  0  0  0  0  0  0
   -0.7680    3.2038   -0.5688 H   0  0  0  0  0  0  0  0  0  0  0  0
    0.8560    3.2060   -0.4024 H   0  0  0  0  0  0  0  0  0  0  0  0
   -0.1050    3.3672    0.9659 H   0  0  0  0  0  0  0  0  0  0  0  0
   -0.0032    1.3983    0.0048 C   0  0  0  0  0  0  0  0  0  0  0  0
   -1.1926    0.6951   -0.0051 C   0  0  0  0  0  0  0  0  0  0  0  0
   -2.0620    1.1809   -0.0171 H   0  0  0  0  0  0  0  0  0  0  0  0
   -1.1960   -0.6983   -0.0000 C   0  0  0  0  0  0  0  0  0  0  0  0
   -2.0735   -1.1904    0.0027 H   0  0  0  0  0  0  0  0  0  0  0  0
    0.0030   -1.3885    0.0026 C   0  0  0  0  0  0  0  0  0  0  0  0
    0.0007   -2.3895    0.0058 H   0  0  0  0  0  0  0  0  0  0  0  0
    1.1960   -0.6929   -0.0000 C   0  0  0  0  0  0  0  0  0  0  0  0
    2.0808   -1.1933    0.0010 H   0  0  0  0  0  0  0  0  0  0  0  0
    1.1928    0.6862   -0.0023 C   0  0  0  0  0  0  0  0  0  0  0  0
    2.0604    1.1873   -0.0099 H   0  0  0  0  0  0  0  0  0  0  0  0
  1  5  1  0
  5  6  1  0
  5  7  2  0
  1  2  1  0
  1  3  1  0
  1  4  1  0
  8 12  1  0
 12 13  2  0
 13 15  1  0
 15 17  2  0
 17 19  1  0
 19 21  2  0
 21 12  1  0
  8  9  1  0
  8 10  1  0
  8 11  1  0
 13 14  1  0
 15 16  1  0
 17 18  1  0
 19 20  1  0
 21 22  1  0
M  CHG  1   6  -1
M  END
>  <PDB_ID>  (1776) 
pdb3pu5

>  <RESIDUE_NAME>  (1776) 
ASP   PHE

>  <FRAG_NAME>  (1776) 
ACET   MBZ

>  <FRAG_ATOM_NUM>  (1776) 
fragi: 7  fragj: 15

>  <atom.prop.CHAIN_ID>  (1776) 
A A A A A A A Z Z Z Z Z Z Z Z Z Z Z Z Z Z Z

>  <atom.prop.IS_HEAVY_ATOM>  (1776) 
1 0 0 0 1 1 1 1 0 0 0 1 1 0 1 0 1 0 1 0 1 0

>  <DIFUSE_FUNC_ATOM>  (1776) 
atom 6   atom 7   

>  <FINAL_SINGLE_POINT_ENERGY>  (1776) 
0

>  <NONCOV_INTER_ENERGY_QM>  (1776) 
0

>  <FF_Energy>  (1776) 
-0.85

>  <QM_Energy>  (1776) 
-5.96

>  <source>  (1776) 
ACET_MBZ_01

>  <Index>  (1776) 
39044

$$$$
ACET-pdb4nm9-A-ASP-606:MBZ-pdb4nm9-A-PHE-656
     RDKit          3D

 22 21  0  0  0  0  0  0  0  0999 V2000
    5.2167    2.5069    2.3133 C   0  0  0  0  0  0  0  0  0  0  0  0
    4.9359    1.7008    2.8230 H   0  0  0  0  0  0  0  0  0  0  0  0
    5.8193    3.0733    2.8636 H   0  0  0  0  0  0  0  0  0  0  0  0
    5.7710    2.1754    1.4352 H   0  0  0  0  0  0  0  0  0  0  0  0
    3.9828    3.3113    1.9561 C   0  0  0  0  0  0  0  0  0  0  0  0
    4.0833    4.5486    1.7626 O   0  0  0  0  0  1  0  0  0  0  0  0
    2.9069    2.6984    1.8733 O   0  0  0  0  0  0  0  0  0  0  0  0
    0.0004    2.9006    0.0137 C   0  0  0  0  0  0  0  0  0  0  0  0
   -0.7923    3.2093   -0.4841 H   0  0  0  0  0  0  0  0  0  0  0  0
    0.8382    3.2094   -0.4046 H   0  0  0  0  0  0  0  0  0  0  0  0
   -0.0490    3.3161    1.0203 H   0  0  0  0  0  0  0  0  0  0  0  0
    0.0014    1.3938   -0.0064 C   0  0  0  0  0  0  0  0  0  0  0  0
   -1.1887    0.6920    0.0020 C   0  0  0  0  0  0  0  0  0  0  0  0
   -2.0581    1.1827    0.0081 H   0  0  0  0  0  0  0  0  0  0  0  0
   -1.1976   -0.6964    0.0000 C   0  0  0  0  0  0  0  0  0  0  0  0
   -2.0778   -1.1855   -0.0011 H   0  0  0  0  0  0  0  0  0  0  0  0
   -0.0068   -1.3862    0.0012 C   0  0  0  0  0  0  0  0  0  0  0  0
   -0.0059   -2.3880    0.0028 H   0  0  0  0  0  0  0  0  0  0  0  0
    1.1976   -0.6926   -0.0000 C   0  0  0  0  0  0  0  0  0  0  0  0
    2.0756   -1.1961   -0.0023 H   0  0  0  0  0  0  0  0  0  0  0  0
    1.1941    0.6895    0.0031 C   0  0  0  0  0  0  0  0  0  0  0  0
    2.0624    1.1879    0.0113 H   0  0  0  0  0  0  0  0  0  0  0  0
  1  5  1  0
  5  6  1  0
  5  7  2  0
  1  2  1  0
  1  3  1  0
  1  4  1  0
  8 12  1  0
 12 13  2  0
 13 15  1  0
 15 17  2  0
 17 19  1  0
 19 21  2  0
 21 12  1  0
  8  9  1  0
  8 10  1  0
  8 11  1  0
 13 14  1  0
 15 16  1  0
 17 18  1  0
 19 20  1  0
 21 22  1  0
M  CHG  1   6  -1
M  END
>  <PDB_ID>  (1777) 
pdb4nm9

>  <RESIDUE_NAME>  (1777) 
ASP   PHE

>  <FRAG_NAME>  (1777) 
ACET   MBZ

>  <FRAG_ATOM_NUM>  (1777) 
fragi: 7  fragj: 15

>  <atom.prop.CHAIN_ID>  (1777) 
A A A A A A A Z Z Z Z Z Z Z Z Z Z Z Z Z Z Z

>  <atom.prop.IS_HEAVY_ATOM>  (1777) 
1 0 0 0 1 1 1 1 0 0 0 1 1 0 1 0 1 0 1 0 1 0

>  <DIFUSE_FUNC_ATOM>  (1777) 
atom 6   atom 7   

>  <FINAL_SINGLE_POINT_ENERGY>  (1777) 
0

>  <NONCOV_INTER_ENERGY_QM>  (1777) 
0

>  <FF_Energy>  (1777) 
-1.02

>  <QM_Energy>  (1777) 
-6.06

>  <source>  (1777) 
ACET_MBZ_01

>  <Index>  (1777) 
39130

$$$$
ACET-pdb3pvs-B-GLU-143:MBZ-pdb3pvs-B-PHE-147
     RDKit          3D

 22 21  0  0  0  0  0  0  0  0999 V2000
    5.0123   -0.1092   -2.4627 C   0  0  0  0  0  0  0  0  0  0  0  0
    4.0700   -0.3596   -2.5756 H   0  0  0  0  0  0  0  0  0  0  0  0
    5.5800   -0.8754   -2.2300 H   0  0  0  0  0  0  0  0  0  0  0  0
    5.3727    0.3219   -3.3967 H   0  0  0  0  0  0  0  0  0  0  0  0
    5.0852    0.8760   -1.3084 C   0  0  0  0  0  0  0  0  0  0  0  0
    4.2391    0.7559   -0.3840 O   0  0  0  0  0  1  0  0  0  0  0  0
    5.9732    1.7681   -1.3317 O   0  0  0  0  0  0  0  0  0  0  0  0
    0.0509    2.9200    0.0038 C   0  0  0  0  0  0  0  0  0  0  0  0
    0.6820    3.2097   -0.7057 H   0  0  0  0  0  0  0  0  0  0  0  0
    0.3742    3.2070    0.8977 H   0  0  0  0  0  0  0  0  0  0  0  0
   -0.9003    3.4204   -0.1778 H   0  0  0  0  0  0  0  0  0  0  0  0
    0.0002    1.4085   -0.0088 C   0  0  0  0  0  0  0  0  0  0  0  0
   -1.2074    0.7067    0.0031 C   0  0  0  0  0  0  0  0  0  0  0  0
   -2.0683    1.1950    0.0123 H   0  0  0  0  0  0  0  0  0  0  0  0
   -1.2109   -0.6953   -0.0000 C   0  0  0  0  0  0  0  0  0  0  0  0
   -2.0801   -1.1906   -0.0012 H   0  0  0  0  0  0  0  0  0  0  0  0
    0.0082   -1.4005    0.0009 C   0  0  0  0  0  0  0  0  0  0  0  0
   -0.0054   -2.3968    0.0011 H   0  0  0  0  0  0  0  0  0  0  0  0
    1.2109   -0.7057    0.0000 C   0  0  0  0  0  0  0  0  0  0  0  0
    2.0904   -1.1998   -0.0025 H   0  0  0  0  0  0  0  0  0  0  0  0
    1.1990    0.6862    0.0048 C   0  0  0  0  0  0  0  0  0  0  0  0
    2.0684    1.1865    0.0179 H   0  0  0  0  0  0  0  0  0  0  0  0
  1  5  1  0
  5  6  1  0
  5  7  2  0
  1  2  1  0
  1  3  1  0
  1  4  1  0
  8 12  1  0
 12 13  2  0
 13 15  1  0
 15 17  2  0
 17 19  1  0
 19 21  2  0
 21 12  1  0
  8  9  1  0
  8 10  1  0
  8 11  1  0
 13 14  1  0
 15 16  1  0
 17 18  1  0
 19 20  1  0
 21 22  1  0
M  CHG  1   6  -1
M  END
>  <PDB_ID>  (1778) 
pdb3pvs

>  <RESIDUE_NAME>  (1778) 
GLU   PHE

>  <FRAG_NAME>  (1778) 
ACET   MBZ

>  <FRAG_ATOM_NUM>  (1778) 
fragi: 7  fragj: 15

>  <atom.prop.CHAIN_ID>  (1778) 
A A A A A A A Z Z Z Z Z Z Z Z Z Z Z Z Z Z Z

>  <atom.prop.IS_HEAVY_ATOM>  (1778) 
1 0 0 0 1 1 1 1 0 0 0 1 1 0 1 0 1 0 1 0 1 0

>  <DIFUSE_FUNC_ATOM>  (1778) 
atom 6   atom 7   

>  <FINAL_SINGLE_POINT_ENERGY>  (1778) 
0

>  <NONCOV_INTER_ENERGY_QM>  (1778) 
0

>  <FF_Energy>  (1778) 
-1.25

>  <QM_Energy>  (1778) 
-6.83

>  <source>  (1778) 
ACET_MBZ_01

>  <Index>  (1778) 
39238

$$$$
ACET-pdb4ntw-A-ASP-312:MBZ-pdb4ntw-A-PHE-300
     RDKit          3D

 22 21  0  0  0  0  0  0  0  0999 V2000
    5.2467    1.7845   -1.2545 C   0  0  0  0  0  0  0  0  0  0  0  0
    6.1225    2.1903   -1.4978 H   0  0  0  0  0  0  0  0  0  0  0  0
    5.0664    0.9889   -1.8234 H   0  0  0  0  0  0  0  0  0  0  0  0
    5.3132    1.4457   -0.2206 H   0  0  0  0  0  0  0  0  0  0  0  0
    4.1537    2.8052   -1.4747 C   0  0  0  0  0  0  0  0  0  0  0  0
    3.1800    2.8171   -0.6974 O   0  0  0  0  0  1  0  0  0  0  0  0
    4.2563    3.5886   -2.4481 O   0  0  0  0  0  0  0  0  0  0  0  0
   -0.0020    2.8997    0.0017 C   0  0  0  0  0  0  0  0  0  0  0  0
    0.9357    3.2088    0.0026 H   0  0  0  0  0  0  0  0  0  0  0  0
   -0.4854    3.2038    0.8072 H   0  0  0  0  0  0  0  0  0  0  0  0
   -0.4953    3.3359   -0.8669 H   0  0  0  0  0  0  0  0  0  0  0  0
    0.0018    1.3972   -0.0009 C   0  0  0  0  0  0  0  0  0  0  0  0
   -1.1946    0.6882    0.0036 C   0  0  0  0  0  0  0  0  0  0  0  0
   -2.0599    1.1847    0.0079 H   0  0  0  0  0  0  0  0  0  0  0  0
   -1.1997   -0.6906    0.0000 C   0  0  0  0  0  0  0  0  0  0  0  0
   -2.0776   -1.1882   -0.0020 H   0  0  0  0  0  0  0  0  0  0  0  0
   -0.0034   -1.3868    0.0004 C   0  0  0  0  0  0  0  0  0  0  0  0
   -0.0093   -2.3876    0.0005 H   0  0  0  0  0  0  0  0  0  0  0  0
    1.1997   -0.6963   -0.0000 C   0  0  0  0  0  0  0  0  0  0  0  0
    2.0781   -1.1976    0.0030 H   0  0  0  0  0  0  0  0  0  0  0  0
    1.1961    0.6884   -0.0031 C   0  0  0  0  0  0  0  0  0  0  0  0
    2.0653    1.1868   -0.0079 H   0  0  0  0  0  0  0  0  0  0  0  0
  1  5  1  0
  5  6  1  0
  5  7  2  0
  1  2  1  0
  1  3  1  0
  1  4  1  0
  8 12  1  0
 12 13  2  0
 13 15  1  0
 15 17  2  0
 17 19  1  0
 19 21  2  0
 21 12  1  0
  8  9  1  0
  8 10  1  0
  8 11  1  0
 13 14  1  0
 15 16  1  0
 17 18  1  0
 19 20  1  0
 21 22  1  0
M  CHG  1   6  -1
M  END
>  <PDB_ID>  (1779) 
pdb4ntw

>  <RESIDUE_NAME>  (1779) 
ASP   PHE

>  <FRAG_NAME>  (1779) 
ACET   MBZ

>  <FRAG_ATOM_NUM>  (1779) 
fragi: 7  fragj: 15

>  <atom.prop.CHAIN_ID>  (1779) 
A A A A A A A Z Z Z Z Z Z Z Z Z Z Z Z Z Z Z

>  <atom.prop.IS_HEAVY_ATOM>  (1779) 
1 0 0 0 1 1 1 1 0 0 0 1 1 0 1 0 1 0 1 0 1 0

>  <DIFUSE_FUNC_ATOM>  (1779) 
atom 6   atom 7   

>  <FINAL_SINGLE_POINT_ENERGY>  (1779) 
0

>  <NONCOV_INTER_ENERGY_QM>  (1779) 
0

>  <FF_Energy>  (1779) 
2.59

>  <QM_Energy>  (1779) 
-7.81

>  <source>  (1779) 
ACET_MBZ_01

>  <Index>  (1779) 
39350

$$$$
ACET-pdb4ntw-C-ASP-94:MBZ-pdb4ntw-C-PHE-5
     RDKit          3D

 22 21  0  0  0  0  0  0  0  0999 V2000
   -3.6442    2.4203   -2.4454 C   0  0  0  0  0  0  0  0  0  0  0  0
   -4.3638    3.0716   -2.6376 H   0  0  0  0  0  0  0  0  0  0  0  0
   -3.5085    2.3152   -1.4712 H   0  0  0  0  0  0  0  0  0  0  0  0
   -3.9413    1.4546   -2.8545 H   0  0  0  0  0  0  0  0  0  0  0  0
   -2.3371    2.9467   -3.0632 C   0  0  0  0  0  0  0  0  0  0  0  0
   -1.8949    2.3819   -4.0880 O   0  0  0  0  0  1  0  0  0  0  0  0
   -1.7512    3.9155   -2.5246 O   0  0  0  0  0  0  0  0  0  0  0  0
    0.0054    2.9292   -0.0095 C   0  0  0  0  0  0  0  0  0  0  0  0
   -0.2561    3.2201   -0.9175 H   0  0  0  0  0  0  0  0  0  0  0  0
    0.9217    3.2267    0.2134 H   0  0  0  0  0  0  0  0  0  0  0  0
   -0.6811    3.3880    0.7020 H   0  0  0  0  0  0  0  0  0  0  0  0
   -0.0011    1.4105    0.0066 C   0  0  0  0  0  0  0  0  0  0  0  0
   -1.1994    0.6985   -0.0046 C   0  0  0  0  0  0  0  0  0  0  0  0
   -2.0664    1.1848   -0.0177 H   0  0  0  0  0  0  0  0  0  0  0  0
   -1.2019   -0.6990   -0.0000 C   0  0  0  0  0  0  0  0  0  0  0  0
   -2.0785   -1.1917    0.0051 H   0  0  0  0  0  0  0  0  0  0  0  0
    0.0020   -1.3986   -0.0012 C   0  0  0  0  0  0  0  0  0  0  0  0
   -0.0052   -2.3971   -0.0038 H   0  0  0  0  0  0  0  0  0  0  0  0
    1.2019   -0.7045    0.0000 C   0  0  0  0  0  0  0  0  0  0  0  0
    2.0837   -1.1995    0.0030 H   0  0  0  0  0  0  0  0  0  0  0  0
    1.1985    0.6931   -0.0007 C   0  0  0  0  0  0  0  0  0  0  0  0
    2.0672    1.1869   -0.0075 H   0  0  0  0  0  0  0  0  0  0  0  0
  1  5  1  0
  5  6  1  0
  5  7  2  0
  1  2  1  0
  1  3  1  0
  1  4  1  0
  8 12  1  0
 12 13  2  0
 13 15  1  0
 15 17  2  0
 17 19  1  0
 19 21  2  0
 21 12  1  0
  8  9  1  0
  8 10  1  0
  8 11  1  0
 13 14  1  0
 15 16  1  0
 17 18  1  0
 19 20  1  0
 21 22  1  0
M  CHG  1   6  -1
M  END
>  <PDB_ID>  (1780) 
pdb4ntw

>  <RESIDUE_NAME>  (1780) 
ASP   PHE

>  <FRAG_NAME>  (1780) 
ACET   MBZ

>  <FRAG_ATOM_NUM>  (1780) 
fragi: 7  fragj: 15

>  <atom.prop.CHAIN_ID>  (1780) 
A A A A A A A Z Z Z Z Z Z Z Z Z Z Z Z Z Z Z

>  <atom.prop.IS_HEAVY_ATOM>  (1780) 
1 0 0 0 1 1 1 1 0 0 0 1 1 0 1 0 1 0 1 0 1 0

>  <DIFUSE_FUNC_ATOM>  (1780) 
atom 6   atom 7   

>  <FINAL_SINGLE_POINT_ENERGY>  (1780) 
0

>  <NONCOV_INTER_ENERGY_QM>  (1780) 
0

>  <FF_Energy>  (1780) 
0.21

>  <QM_Energy>  (1780) 
-5.17

>  <source>  (1780) 
ACET_MBZ_01

>  <Index>  (1780) 
39368

$$$$
ACET-pdb4nv1-D-GLU-44:MBZ-pdb4nv1-D-PHE-41
     RDKit          3D

 22 21  0  0  0  0  0  0  0  0999 V2000
   -4.3569    1.7872    2.9094 C   0  0  0  0  0  0  0  0  0  0  0  0
   -3.9893    0.8799    2.8875 H   0  0  0  0  0  0  0  0  0  0  0  0
   -5.1335    1.8693    3.5008 H   0  0  0  0  0  0  0  0  0  0  0  0
   -3.5803    2.4715    3.2507 H   0  0  0  0  0  0  0  0  0  0  0  0
   -4.8154    2.1261    1.5079 C   0  0  0  0  0  0  0  0  0  0  0  0
   -6.0284    2.3294    1.3228 O   0  0  0  0  0  1  0  0  0  0  0  0
   -3.9662    2.2005    0.6017 O   0  0  0  0  0  0  0  0  0  0  0  0
    0.0046    2.9079    0.0659 C   0  0  0  0  0  0  0  0  0  0  0  0
    0.9167    3.2200   -0.1760 H   0  0  0  0  0  0  0  0  0  0  0  0
   -0.2199    3.1750    0.9961 H   0  0  0  0  0  0  0  0  0  0  0  0
   -0.7005    3.4075   -0.5984 H   0  0  0  0  0  0  0  0  0  0  0  0
   -0.0042    1.4014    0.0005 C   0  0  0  0  0  0  0  0  0  0  0  0
   -1.1868    0.6733    0.0015 C   0  0  0  0  0  0  0  0  0  0  0  0
   -2.0633    1.1589    0.0023 H   0  0  0  0  0  0  0  0  0  0  0  0
   -1.1869   -0.7130    0.0000 C   0  0  0  0  0  0  0  0  0  0  0  0
   -2.0650   -1.2079    0.0115 H   0  0  0  0  0  0  0  0  0  0  0  0
    0.0060   -1.3958   -0.0151 C   0  0  0  0  0  0  0  0  0  0  0  0
    0.0199   -2.3904   -0.0372 H   0  0  0  0  0  0  0  0  0  0  0  0
    1.1869   -0.6767    0.0000 C   0  0  0  0  0  0  0  0  0  0  0  0
    2.0829   -1.1697    0.0029 H   0  0  0  0  0  0  0  0  0  0  0  0
    1.1850    0.7108    0.0131 C   0  0  0  0  0  0  0  0  0  0  0  0
    2.0531    1.2040    0.0310 H   0  0  0  0  0  0  0  0  0  0  0  0
  1  5  1  0
  5  6  1  0
  5  7  2  0
  1  2  1  0
  1  3  1  0
  1  4  1  0
  8 12  1  0
 12 13  2  0
 13 15  1  0
 15 17  2  0
 17 19  1  0
 19 21  2  0
 21 12  1  0
  8  9  1  0
  8 10  1  0
  8 11  1  0
 13 14  1  0
 15 16  1  0
 17 18  1  0
 19 20  1  0
 21 22  1  0
M  CHG  1   6  -1
M  END
>  <PDB_ID>  (1781) 
pdb4nv1

>  <RESIDUE_NAME>  (1781) 
GLU   PHE

>  <FRAG_NAME>  (1781) 
ACET   MBZ

>  <FRAG_ATOM_NUM>  (1781) 
fragi: 7  fragj: 15

>  <atom.prop.CHAIN_ID>  (1781) 
A A A A A A A Z Z Z Z Z Z Z Z Z Z Z Z Z Z Z

>  <atom.prop.IS_HEAVY_ATOM>  (1781) 
1 0 0 0 1 1 1 1 0 0 0 1 1 0 1 0 1 0 1 0 1 0

>  <DIFUSE_FUNC_ATOM>  (1781) 
atom 6   atom 7   

>  <FINAL_SINGLE_POINT_ENERGY>  (1781) 
0

>  <NONCOV_INTER_ENERGY_QM>  (1781) 
0

>  <FF_Energy>  (1781) 
-1.28

>  <QM_Energy>  (1781) 
-6.56

>  <source>  (1781) 
ACET_MBZ_01

>  <Index>  (1781) 
39414

$$$$
ACET-pdb4nv1-G-GLU-44:MBZ-pdb4nv1-G-PHE-41
     RDKit          3D

 22 21  0  0  0  0  0  0  0  0999 V2000
   -3.8315    3.1936    3.8891 C   0  0  0  0  0  0  0  0  0  0  0  0
   -3.9745    2.3418    4.3555 H   0  0  0  0  0  0  0  0  0  0  0  0
   -4.5558    3.8366    4.0528 H   0  0  0  0  0  0  0  0  0  0  0  0
   -2.8998    3.6280    4.2513 H   0  0  0  0  0  0  0  0  0  0  0  0
   -3.8045    2.9032    2.3984 C   0  0  0  0  0  0  0  0  0  0  0  0
   -4.5605    3.5373    1.6280 O   0  0  0  0  0  1  0  0  0  0  0  0
   -3.0076    2.0308    1.9976 O   0  0  0  0  0  0  0  0  0  0  0  0
    0.0316    2.9085    0.0193 C   0  0  0  0  0  0  0  0  0  0  0  0
    0.7638    3.2068   -0.5784 H   0  0  0  0  0  0  0  0  0  0  0  0
    0.1978    3.1949    0.9533 H   0  0  0  0  0  0  0  0  0  0  0  0
   -0.8898    3.3834   -0.3177 H   0  0  0  0  0  0  0  0  0  0  0  0
   -0.0000    1.4029   -0.0040 C   0  0  0  0  0  0  0  0  0  0  0  0
   -1.1881    0.6883    0.0011 C   0  0  0  0  0  0  0  0  0  0  0  0
   -2.0594    1.1792    0.0049 H   0  0  0  0  0  0  0  0  0  0  0  0
   -1.1928   -0.6951   -0.0000 C   0  0  0  0  0  0  0  0  0  0  0  0
   -2.0723   -1.1896    0.0058 H   0  0  0  0  0  0  0  0  0  0  0  0
    0.0014   -1.3907   -0.0067 C   0  0  0  0  0  0  0  0  0  0  0  0
   -0.0027   -2.3894   -0.0173 H   0  0  0  0  0  0  0  0  0  0  0  0
    1.1928   -0.6945    0.0000 C   0  0  0  0  0  0  0  0  0  0  0  0
    2.0783   -1.1917   -0.0008 H   0  0  0  0  0  0  0  0  0  0  0  0
    1.1867    0.6890    0.0096 C   0  0  0  0  0  0  0  0  0  0  0  0
    2.0605    1.1858    0.0259 H   0  0  0  0  0  0  0  0  0  0  0  0
  1  5  1  0
  5  6  1  0
  5  7  2  0
  1  2  1  0
  1  3  1  0
  1  4  1  0
  8 12  1  0
 12 13  2  0
 13 15  1  0
 15 17  2  0
 17 19  1  0
 19 21  2  0
 21 12  1  0
  8  9  1  0
  8 10  1  0
  8 11  1  0
 13 14  1  0
 15 16  1  0
 17 18  1  0
 19 20  1  0
 21 22  1  0
M  CHG  1   6  -1
M  END
>  <PDB_ID>  (1782) 
pdb4nv1

>  <RESIDUE_NAME>  (1782) 
GLU   PHE

>  <FRAG_NAME>  (1782) 
ACET   MBZ

>  <FRAG_ATOM_NUM>  (1782) 
fragi: 7  fragj: 15

>  <atom.prop.CHAIN_ID>  (1782) 
A A A A A A A Z Z Z Z Z Z Z Z Z Z Z Z Z Z Z

>  <atom.prop.IS_HEAVY_ATOM>  (1782) 
1 0 0 0 1 1 1 1 0 0 0 1 1 0 1 0 1 0 1 0 1 0

>  <DIFUSE_FUNC_ATOM>  (1782) 
atom 6   atom 7   

>  <FINAL_SINGLE_POINT_ENERGY>  (1782) 
0

>  <NONCOV_INTER_ENERGY_QM>  (1782) 
0

>  <FF_Energy>  (1782) 
-0.19

>  <QM_Energy>  (1782) 
-5.61

>  <source>  (1782) 
ACET_MBZ_01

>  <Index>  (1782) 
39423

$$$$
ACET-pdb3pyi-A-ASP-138:MBZ-pdb3pyi-A-PHE-143
     RDKit          3D

 22 21  0  0  0  0  0  0  0  0999 V2000
    3.6831    4.9079   -1.3437 C   0  0  0  0  0  0  0  0  0  0  0  0
    2.6909    4.8580   -1.3016 H   0  0  0  0  0  0  0  0  0  0  0  0
    3.9964    4.7935   -2.2802 H   0  0  0  0  0  0  0  0  0  0  0  0
    3.9753    5.9063   -1.0183 H   0  0  0  0  0  0  0  0  0  0  0  0
    4.2710    3.8222   -0.4872 C   0  0  0  0  0  0  0  0  0  0  0  0
    5.2413    4.1019    0.2435 O   0  0  0  0  0  1  0  0  0  0  0  0
    3.7673    2.6843   -0.5436 O   0  0  0  0  0  0  0  0  0  0  0  0
   -0.0083    2.8939   -0.0012 C   0  0  0  0  0  0  0  0  0  0  0  0
    0.8902    3.2057    0.2686 H   0  0  0  0  0  0  0  0  0  0  0  0
   -0.7009    3.1986    0.6360 H   0  0  0  0  0  0  0  0  0  0  0  0
   -0.2350    3.3318   -0.9733 H   0  0  0  0  0  0  0  0  0  0  0  0
   -0.0006    1.3950   -0.0009 C   0  0  0  0  0  0  0  0  0  0  0  0
   -1.1913    0.6871   -0.0011 C   0  0  0  0  0  0  0  0  0  0  0  0
   -2.0602    1.1794   -0.0031 H   0  0  0  0  0  0  0  0  0  0  0  0
   -1.1936   -0.6938    0.0000 C   0  0  0  0  0  0  0  0  0  0  0  0
   -2.0733   -1.1906    0.0006 H   0  0  0  0  0  0  0  0  0  0  0  0
   -0.0014   -1.3845    0.0023 C   0  0  0  0  0  0  0  0  0  0  0  0
   -0.0049   -2.3872    0.0048 H   0  0  0  0  0  0  0  0  0  0  0  0
    1.1936   -0.6947    0.0000 C   0  0  0  0  0  0  0  0  0  0  0  0
    2.0765   -1.1944   -0.0004 H   0  0  0  0  0  0  0  0  0  0  0  0
    1.1933    0.6910   -0.0003 C   0  0  0  0  0  0  0  0  0  0  0  0
    2.0610    1.1870   -0.0009 H   0  0  0  0  0  0  0  0  0  0  0  0
  1  5  1  0
  5  6  1  0
  5  7  2  0
  1  2  1  0
  1  3  1  0
  1  4  1  0
  8 12  1  0
 12 13  2  0
 13 15  1  0
 15 17  2  0
 17 19  1  0
 19 21  2  0
 21 12  1  0
  8  9  1  0
  8 10  1  0
  8 11  1  0
 13 14  1  0
 15 16  1  0
 17 18  1  0
 19 20  1  0
 21 22  1  0
M  CHG  1   6  -1
M  END
>  <PDB_ID>  (1783) 
pdb3pyi

>  <RESIDUE_NAME>  (1783) 
ASP   PHE

>  <FRAG_NAME>  (1783) 
ACET   MBZ

>  <FRAG_ATOM_NUM>  (1783) 
fragi: 7  fragj: 15

>  <atom.prop.CHAIN_ID>  (1783) 
A A A A A A A Z Z Z Z Z Z Z Z Z Z Z Z Z Z Z

>  <atom.prop.IS_HEAVY_ATOM>  (1783) 
1 0 0 0 1 1 1 1 0 0 0 1 1 0 1 0 1 0 1 0 1 0

>  <DIFUSE_FUNC_ATOM>  (1783) 
atom 6   atom 7   

>  <FINAL_SINGLE_POINT_ENERGY>  (1783) 
0

>  <NONCOV_INTER_ENERGY_QM>  (1783) 
0

>  <FF_Energy>  (1783) 
-2.03

>  <QM_Energy>  (1783) 
-7.38

>  <source>  (1783) 
ACET_MBZ_01

>  <Index>  (1783) 
39430

$$$$
ACET-pdb3q0y-C-ASP-72:MBZ-pdb3q0y-B-PHE-75
     RDKit          3D

 22 21  0  0  0  0  0  0  0  0999 V2000
    3.9460    4.8080   -3.6402 C   0  0  0  0  0  0  0  0  0  0  0  0
    3.6281    5.7442   -3.5607 H   0  0  0  0  0  0  0  0  0  0  0  0
    3.4373    4.3213   -4.3380 H   0  0  0  0  0  0  0  0  0  0  0  0
    4.9931    4.8327   -3.9421 H   0  0  0  0  0  0  0  0  0  0  0  0
    3.7310    4.1049   -2.2986 C   0  0  0  0  0  0  0  0  0  0  0  0
    4.6792    3.4768   -1.7806 O   0  0  0  0  0  1  0  0  0  0  0  0
    2.6019    4.1670   -1.7743 O   0  0  0  0  0  0  0  0  0  0  0  0
    0.0022    2.9215   -0.0171 C   0  0  0  0  0  0  0  0  0  0  0  0
   -0.6812    3.2148   -0.6666 H   0  0  0  0  0  0  0  0  0  0  0  0
    0.9053    3.2201   -0.2830 H   0  0  0  0  0  0  0  0  0  0  0  0
   -0.2317    3.3769    0.9452 H   0  0  0  0  0  0  0  0  0  0  0  0
    0.0029    1.4047   -0.0007 C   0  0  0  0  0  0  0  0  0  0  0  0
   -1.1923    0.6944   -0.0075 C   0  0  0  0  0  0  0  0  0  0  0  0
   -2.0598    1.1840   -0.0191 H   0  0  0  0  0  0  0  0  0  0  0  0
   -1.1955   -0.6949    0.0000 C   0  0  0  0  0  0  0  0  0  0  0  0
   -2.0794   -1.1853    0.0027 H   0  0  0  0  0  0  0  0  0  0  0  0
   -0.0060   -1.3964    0.0055 C   0  0  0  0  0  0  0  0  0  0  0  0
   -0.0113   -2.3936    0.0129 H   0  0  0  0  0  0  0  0  0  0  0  0
    1.1955   -0.7024    0.0000 C   0  0  0  0  0  0  0  0  0  0  0  0
    2.0767   -1.1992   -0.0042 H   0  0  0  0  0  0  0  0  0  0  0  0
    1.1954    0.6946    0.0027 C   0  0  0  0  0  0  0  0  0  0  0  0
    2.0667    1.1841    0.0059 H   0  0  0  0  0  0  0  0  0  0  0  0
  1  5  1  0
  5  6  1  0
  5  7  2  0
  1  2  1  0
  1  3  1  0
  1  4  1  0
  8 12  1  0
 12 13  2  0
 13 15  1  0
 15 17  2  0
 17 19  1  0
 19 21  2  0
 21 12  1  0
  8  9  1  0
  8 10  1  0
  8 11  1  0
 13 14  1  0
 15 16  1  0
 17 18  1  0
 19 20  1  0
 21 22  1  0
M  CHG  1   6  -1
M  END
>  <PDB_ID>  (1784) 
pdb3q0y

>  <RESIDUE_NAME>  (1784) 
ASP   PHE

>  <FRAG_NAME>  (1784) 
ACET   MBZ

>  <FRAG_ATOM_NUM>  (1784) 
fragi: 7  fragj: 15

>  <atom.prop.CHAIN_ID>  (1784) 
A A A A A A A Z Z Z Z Z Z Z Z Z Z Z Z Z Z Z

>  <atom.prop.IS_HEAVY_ATOM>  (1784) 
1 0 0 0 1 1 1 1 0 0 0 1 1 0 1 0 1 0 1 0 1 0

>  <DIFUSE_FUNC_ATOM>  (1784) 
atom 6   atom 7   

>  <FINAL_SINGLE_POINT_ENERGY>  (1784) 
0

>  <NONCOV_INTER_ENERGY_QM>  (1784) 
0

>  <FF_Energy>  (1784) 
-1.34

>  <QM_Energy>  (1784) 
-6.4

>  <source>  (1784) 
ACET_MBZ_01

>  <Index>  (1784) 
39492

$$$$
ACET-pdb3pyi-B-ASP-138:MBZ-pdb3pyi-B-PHE-143
     RDKit          3D

 22 21  0  0  0  0  0  0  0  0999 V2000
    3.6631    4.9340   -1.3467 C   0  0  0  0  0  0  0  0  0  0  0  0
    2.6708    4.8825   -1.2884 H   0  0  0  0  0  0  0  0  0  0  0  0
    3.9602    4.8103   -2.2875 H   0  0  0  0  0  0  0  0  0  0  0  0
    3.9618    5.9344   -1.0334 H   0  0  0  0  0  0  0  0  0  0  0  0
    4.2637    3.8513   -0.4929 C   0  0  0  0  0  0  0  0  0  0  0  0
    5.2494    4.1367    0.2177 O   0  0  0  0  0  1  0  0  0  0  0  0
    3.7473    2.7155   -0.5284 O   0  0  0  0  0  0  0  0  0  0  0  0
   -0.0045    2.8929    0.0071 C   0  0  0  0  0  0  0  0  0  0  0  0
    0.9002    3.2004    0.2659 H   0  0  0  0  0  0  0  0  0  0  0  0
   -0.6842    3.1960    0.6601 H   0  0  0  0  0  0  0  0  0  0  0  0
   -0.2456    3.3369   -0.9587 H   0  0  0  0  0  0  0  0  0  0  0  0
   -0.0024    1.3953    0.0013 C   0  0  0  0  0  0  0  0  0  0  0  0
   -1.1919    0.6899    0.0011 C   0  0  0  0  0  0  0  0  0  0  0  0
   -2.0616    1.1776    0.0003 H   0  0  0  0  0  0  0  0  0  0  0  0
   -1.1951   -0.6991   -0.0000 C   0  0  0  0  0  0  0  0  0  0  0  0
   -2.0709   -1.1941    0.0029 H   0  0  0  0  0  0  0  0  0  0  0  0
    0.0053   -1.3884   -0.0030 C   0  0  0  0  0  0  0  0  0  0  0  0
    0.0041   -2.3890   -0.0079 H   0  0  0  0  0  0  0  0  0  0  0  0
    1.1951   -0.6905    0.0000 C   0  0  0  0  0  0  0  0  0  0  0  0
    2.0817   -1.1869    0.0030 H   0  0  0  0  0  0  0  0  0  0  0  0
    1.1890    0.6928    0.0006 C   0  0  0  0  0  0  0  0  0  0  0  0
    2.0577    1.1913   -0.0004 H   0  0  0  0  0  0  0  0  0  0  0  0
  1  5  1  0
  5  6  1  0
  5  7  2  0
  1  2  1  0
  1  3  1  0
  1  4  1  0
  8 12  1  0
 12 13  2  0
 13 15  1  0
 15 17  2  0
 17 19  1  0
 19 21  2  0
 21 12  1  0
  8  9  1  0
  8 10  1  0
  8 11  1  0
 13 14  1  0
 15 16  1  0
 17 18  1  0
 19 20  1  0
 21 22  1  0
M  CHG  1   6  -1
M  END
>  <PDB_ID>  (1785) 
pdb3pyi

>  <RESIDUE_NAME>  (1785) 
ASP   PHE

>  <FRAG_NAME>  (1785) 
ACET   MBZ

>  <FRAG_ATOM_NUM>  (1785) 
fragi: 7  fragj: 15

>  <atom.prop.CHAIN_ID>  (1785) 
A A A A A A A Z Z Z Z Z Z Z Z Z Z Z Z Z Z Z

>  <atom.prop.IS_HEAVY_ATOM>  (1785) 
1 0 0 0 1 1 1 1 0 0 0 1 1 0 1 0 1 0 1 0 1 0

>  <DIFUSE_FUNC_ATOM>  (1785) 
atom 6   atom 7   

>  <FINAL_SINGLE_POINT_ENERGY>  (1785) 
0

>  <NONCOV_INTER_ENERGY_QM>  (1785) 
0

>  <FF_Energy>  (1785) 
-2.07

>  <QM_Energy>  (1785) 
-7.43

>  <source>  (1785) 
ACET_MBZ_01

>  <Index>  (1785) 
39525

$$$$
ACET-pdb3q15-D-GLU-110:MBZ-pdb3q15-D-PHE-102
     RDKit          3D

 22 21  0  0  0  0  0  0  0  0999 V2000
   -4.0527   -2.5165    0.4363 C   0  0  0  0  0  0  0  0  0  0  0  0
   -3.0792   -2.3817    0.4364 H   0  0  0  0  0  0  0  0  0  0  0  0
   -4.3257   -3.2636   -0.1414 H   0  0  0  0  0  0  0  0  0  0  0  0
   -4.3652   -2.7410    1.4561 H   0  0  0  0  0  0  0  0  0  0  0  0
   -4.6916   -1.2550   -0.1130 C   0  0  0  0  0  0  0  0  0  0  0  0
   -5.6679   -0.7644    0.4920 O   0  0  0  0  0  1  0  0  0  0  0  0
   -4.2146   -0.7516   -1.1522 O   0  0  0  0  0  0  0  0  0  0  0  0
   -0.0034    2.8963    0.0045 C   0  0  0  0  0  0  0  0  0  0  0  0
    0.8995    3.2035    0.2650 H   0  0  0  0  0  0  0  0  0  0  0  0
   -0.6867    3.1980    0.6528 H   0  0  0  0  0  0  0  0  0  0  0  0
   -0.2413    3.3408   -0.9619 H   0  0  0  0  0  0  0  0  0  0  0  0
    0.0007    1.3939   -0.0020 C   0  0  0  0  0  0  0  0  0  0  0  0
   -1.1915    0.6858    0.0020 C   0  0  0  0  0  0  0  0  0  0  0  0
   -2.0593    1.1788    0.0047 H   0  0  0  0  0  0  0  0  0  0  0  0
   -1.1942   -0.6937    0.0000 C   0  0  0  0  0  0  0  0  0  0  0  0
   -2.0730   -1.1904    0.0006 H   0  0  0  0  0  0  0  0  0  0  0  0
   -0.0010   -1.3832   -0.0006 C   0  0  0  0  0  0  0  0  0  0  0  0
   -0.0036   -2.3855   -0.0019 H   0  0  0  0  0  0  0  0  0  0  0  0
    1.1942   -0.6916    0.0000 C   0  0  0  0  0  0  0  0  0  0  0  0
    2.0765   -1.1933    0.0015 H   0  0  0  0  0  0  0  0  0  0  0  0
    1.1919    0.6888    0.0006 C   0  0  0  0  0  0  0  0  0  0  0  0
    2.0611    1.1872    0.0018 H   0  0  0  0  0  0  0  0  0  0  0  0
  1  5  1  0
  5  6  1  0
  5  7  2  0
  1  2  1  0
  1  3  1  0
  1  4  1  0
  8 12  1  0
 12 13  2  0
 13 15  1  0
 15 17  2  0
 17 19  1  0
 19 21  2  0
 21 12  1  0
  8  9  1  0
  8 10  1  0
  8 11  1  0
 13 14  1  0
 15 16  1  0
 17 18  1  0
 19 20  1  0
 21 22  1  0
M  CHG  1   6  -1
M  END
>  <PDB_ID>  (1786) 
pdb3q15

>  <RESIDUE_NAME>  (1786) 
GLU   PHE

>  <FRAG_NAME>  (1786) 
ACET   MBZ

>  <FRAG_ATOM_NUM>  (1786) 
fragi: 7  fragj: 15

>  <atom.prop.CHAIN_ID>  (1786) 
A A A A A A A Z Z Z Z Z Z Z Z Z Z Z Z Z Z Z

>  <atom.prop.IS_HEAVY_ATOM>  (1786) 
1 0 0 0 1 1 1 1 0 0 0 1 1 0 1 0 1 0 1 0 1 0

>  <DIFUSE_FUNC_ATOM>  (1786) 
atom 6   atom 7   

>  <FINAL_SINGLE_POINT_ENERGY>  (1786) 
0

>  <NONCOV_INTER_ENERGY_QM>  (1786) 
0

>  <FF_Energy>  (1786) 
12.31

>  <QM_Energy>  (1786) 
-2.17

>  <source>  (1786) 
ACET_MBZ_01

>  <Index>  (1786) 
39530

$$$$
ACET-pdb4nyz-B-ASP-346:MBZ-pdb4nyz-B-PHE-368
     RDKit          3D

 22 21  0  0  0  0  0  0  0  0999 V2000
    4.7987    3.9372    1.4301 C   0  0  0  0  0  0  0  0  0  0  0  0
    4.5949    4.6747    2.0629 H   0  0  0  0  0  0  0  0  0  0  0  0
    5.7729    3.8937    1.2474 H   0  0  0  0  0  0  0  0  0  0  0  0
    4.5001    2.9991    1.8981 H   0  0  0  0  0  0  0  0  0  0  0  0
    4.0683    4.2103    0.1148 C   0  0  0  0  0  0  0  0  0  0  0  0
    3.4000    3.3017   -0.4276 O   0  0  0  0  0  1  0  0  0  0  0  0
    4.1757    5.3487   -0.3891 O   0  0  0  0  0  0  0  0  0  0  0  0
   -0.0010    2.9025    0.0068 C   0  0  0  0  0  0  0  0  0  0  0  0
    0.8632    3.2077    0.3777 H   0  0  0  0  0  0  0  0  0  0  0  0
   -0.7592    3.2052    0.5649 H   0  0  0  0  0  0  0  0  0  0  0  0
   -0.1158    3.3511   -0.9799 H   0  0  0  0  0  0  0  0  0  0  0  0
    0.0006    1.3986   -0.0019 C   0  0  0  0  0  0  0  0  0  0  0  0
   -1.1946    0.6917   -0.0007 C   0  0  0  0  0  0  0  0  0  0  0  0
   -2.0615    1.1831   -0.0014 H   0  0  0  0  0  0  0  0  0  0  0  0
   -1.1981   -0.6942   -0.0000 C   0  0  0  0  0  0  0  0  0  0  0  0
   -2.0758   -1.1894    0.0018 H   0  0  0  0  0  0  0  0  0  0  0  0
   -0.0005   -1.3885   -0.0004 C   0  0  0  0  0  0  0  0  0  0  0  0
   -0.0047   -2.3892   -0.0012 H   0  0  0  0  0  0  0  0  0  0  0  0
    1.1981   -0.6963    0.0000 C   0  0  0  0  0  0  0  0  0  0  0  0
    2.0795   -1.1965   -0.0008 H   0  0  0  0  0  0  0  0  0  0  0  0
    1.1945    0.6887    0.0030 C   0  0  0  0  0  0  0  0  0  0  0  0
    2.0643    1.1864    0.0077 H   0  0  0  0  0  0  0  0  0  0  0  0
  1  5  1  0
  5  6  1  0
  5  7  2  0
  1  2  1  0
  1  3  1  0
  1  4  1  0
  8 12  1  0
 12 13  2  0
 13 15  1  0
 15 17  2  0
 17 19  1  0
 19 21  2  0
 21 12  1  0
  8  9  1  0
  8 10  1  0
  8 11  1  0
 13 14  1  0
 15 16  1  0
 17 18  1  0
 19 20  1  0
 21 22  1  0
M  CHG  1   6  -1
M  END
>  <PDB_ID>  (1787) 
pdb4nyz

>  <RESIDUE_NAME>  (1787) 
ASP   PHE

>  <FRAG_NAME>  (1787) 
ACET   MBZ

>  <FRAG_ATOM_NUM>  (1787) 
fragi: 7  fragj: 15

>  <atom.prop.CHAIN_ID>  (1787) 
A A A A A A A Z Z Z Z Z Z Z Z Z Z Z Z Z Z Z

>  <atom.prop.IS_HEAVY_ATOM>  (1787) 
1 0 0 0 1 1 1 1 0 0 0 1 1 0 1 0 1 0 1 0 1 0

>  <DIFUSE_FUNC_ATOM>  (1787) 
atom 6   atom 7   

>  <FINAL_SINGLE_POINT_ENERGY>  (1787) 
0

>  <NONCOV_INTER_ENERGY_QM>  (1787) 
0

>  <FF_Energy>  (1787) 
-2.2

>  <QM_Energy>  (1787) 
-7.5

>  <source>  (1787) 
ACET_MBZ_01

>  <Index>  (1787) 
39627

$$$$
ACET-pdb4o0l-B-GLU-50:MBZ-pdb4o0l-D-PHE-21
     RDKit          3D

 22 21  0  0  0  0  0  0  0  0999 V2000
    5.3368    1.1753    0.2997 C   0  0  0  0  0  0  0  0  0  0  0  0
    4.6422    0.7762    0.8611 H   0  0  0  0  0  0  0  0  0  0  0  0
    6.0731    1.5613    0.8158 H   0  0  0  0  0  0  0  0  0  0  0  0
    5.7448    0.3922   -0.3395 H   0  0  0  0  0  0  0  0  0  0  0  0
    4.7033    2.2850   -0.5079 C   0  0  0  0  0  0  0  0  0  0  0  0
    5.2842    2.6572   -1.5465 O   0  0  0  0  0  1  0  0  0  0  0  0
    3.6002    2.7714   -0.1427 O   0  0  0  0  0  0  0  0  0  0  0  0
   -0.0093    2.9066   -0.0514 C   0  0  0  0  0  0  0  0  0  0  0  0
    0.8425    3.2340    0.3197 H   0  0  0  0  0  0  0  0  0  0  0  0
   -0.7848    3.2245    0.4662 H   0  0  0  0  0  0  0  0  0  0  0  0
   -0.1024    3.3100   -1.0597 H   0  0  0  0  0  0  0  0  0  0  0  0
    0.0030    1.4003   -0.0080 C   0  0  0  0  0  0  0  0  0  0  0  0
   -1.1865    0.6940   -0.0236 C   0  0  0  0  0  0  0  0  0  0  0  0
   -2.0570    1.1746   -0.0536 H   0  0  0  0  0  0  0  0  0  0  0  0
   -1.1914   -0.7096   -0.0000 C   0  0  0  0  0  0  0  0  0  0  0  0
   -2.0696   -1.1946    0.0159 H   0  0  0  0  0  0  0  0  0  0  0  0
    0.0065   -1.3976    0.0032 C   0  0  0  0  0  0  0  0  0  0  0  0
    0.0101   -2.3957    0.0075 H   0  0  0  0  0  0  0  0  0  0  0  0
    1.1914   -0.6903    0.0000 C   0  0  0  0  0  0  0  0  0  0  0  0
    2.0826   -1.1756   -0.0216 H   0  0  0  0  0  0  0  0  0  0  0  0
    1.1769    0.7032    0.0284 C   0  0  0  0  0  0  0  0  0  0  0  0
    2.0546    1.1941    0.0760 H   0  0  0  0  0  0  0  0  0  0  0  0
  1  5  1  0
  5  6  1  0
  5  7  2  0
  1  2  1  0
  1  3  1  0
  1  4  1  0
  8 12  1  0
 12 13  2  0
 13 15  1  0
 15 17  2  0
 17 19  1  0
 19 21  2  0
 21 12  1  0
  8  9  1  0
  8 10  1  0
  8 11  1  0
 13 14  1  0
 15 16  1  0
 17 18  1  0
 19 20  1  0
 21 22  1  0
M  CHG  1   6  -1
M  END
>  <PDB_ID>  (1788) 
pdb4o0l

>  <RESIDUE_NAME>  (1788) 
GLU   PHE

>  <FRAG_NAME>  (1788) 
ACET   MBZ

>  <FRAG_ATOM_NUM>  (1788) 
fragi: 7  fragj: 15

>  <atom.prop.CHAIN_ID>  (1788) 
A A A A A A A Z Z Z Z Z Z Z Z Z Z Z Z Z Z Z

>  <atom.prop.IS_HEAVY_ATOM>  (1788) 
1 0 0 0 1 1 1 1 0 0 0 1 1 0 1 0 1 0 1 0 1 0

>  <DIFUSE_FUNC_ATOM>  (1788) 
atom 6   atom 7   

>  <FINAL_SINGLE_POINT_ENERGY>  (1788) 
0

>  <NONCOV_INTER_ENERGY_QM>  (1788) 
0

>  <FF_Energy>  (1788) 
-0.98

>  <QM_Energy>  (1788) 
-7.59

>  <source>  (1788) 
ACET_MBZ_01

>  <Index>  (1788) 
39678

$$$$
ACET-pdb4o1n-E-GLU-70:MBZ-pdb4o1n-E-PHE-35
     RDKit          3D

 22 21  0  0  0  0  0  0  0  0999 V2000
   -5.3359    2.0059    2.5535 C   0  0  0  0  0  0  0  0  0  0  0  0
   -6.2315    1.6306    2.4073 H   0  0  0  0  0  0  0  0  0  0  0  0
   -5.3349    2.7235    3.2239 H   0  0  0  0  0  0  0  0  0  0  0  0
   -4.6857    1.2062    2.9082 H   0  0  0  0  0  0  0  0  0  0  0  0
   -4.8726    2.6167    1.2288 C   0  0  0  0  0  0  0  0  0  0  0  0
   -4.0311    2.0336    0.5084 O   0  0  0  0  0  1  0  0  0  0  0  0
   -5.3578    3.7070    0.8887 O   0  0  0  0  0  0  0  0  0  0  0  0
   -0.0066    2.8996    0.0174 C   0  0  0  0  0  0  0  0  0  0  0  0
   -0.8740    3.2059   -0.3378 H   0  0  0  0  0  0  0  0  0  0  0  0
    0.7466    3.2146   -0.5374 H   0  0  0  0  0  0  0  0  0  0  0  0
    0.1137    3.3187    1.0163 H   0  0  0  0  0  0  0  0  0  0  0  0
   -0.0009    1.3929   -0.0052 C   0  0  0  0  0  0  0  0  0  0  0  0
   -1.1869    0.6872   -0.0024 C   0  0  0  0  0  0  0  0  0  0  0  0
   -2.0586    1.1789   -0.0034 H   0  0  0  0  0  0  0  0  0  0  0  0
   -1.1946   -0.6955   -0.0000 C   0  0  0  0  0  0  0  0  0  0  0  0
   -2.0725   -1.1904   -0.0008 H   0  0  0  0  0  0  0  0  0  0  0  0
    0.0017   -1.3883    0.0060 C   0  0  0  0  0  0  0  0  0  0  0  0
    0.0011   -2.3870    0.0139 H   0  0  0  0  0  0  0  0  0  0  0  0
    1.1946   -0.6877    0.0000 C   0  0  0  0  0  0  0  0  0  0  0  0
    2.0799   -1.1860   -0.0040 H   0  0  0  0  0  0  0  0  0  0  0  0
    1.1862    0.6915    0.0016 C   0  0  0  0  0  0  0  0  0  0  0  0
    2.0578    1.1917    0.0073 H   0  0  0  0  0  0  0  0  0  0  0  0
  1  5  1  0
  5  6  1  0
  5  7  2  0
  1  2  1  0
  1  3  1  0
  1  4  1  0
  8 12  1  0
 12 13  2  0
 13 15  1  0
 15 17  2  0
 17 19  1  0
 19 21  2  0
 21 12  1  0
  8  9  1  0
  8 10  1  0
  8 11  1  0
 13 14  1  0
 15 16  1  0
 17 18  1  0
 19 20  1  0
 21 22  1  0
M  CHG  1   6  -1
M  END
>  <PDB_ID>  (1789) 
pdb4o1n

>  <RESIDUE_NAME>  (1789) 
GLU   PHE

>  <FRAG_NAME>  (1789) 
ACET   MBZ

>  <FRAG_ATOM_NUM>  (1789) 
fragi: 7  fragj: 15

>  <atom.prop.CHAIN_ID>  (1789) 
A A A A A A A Z Z Z Z Z Z Z Z Z Z Z Z Z Z Z

>  <atom.prop.IS_HEAVY_ATOM>  (1789) 
1 0 0 0 1 1 1 1 0 0 0 1 1 0 1 0 1 0 1 0 1 0

>  <DIFUSE_FUNC_ATOM>  (1789) 
atom 6   atom 7   

>  <FINAL_SINGLE_POINT_ENERGY>  (1789) 
0

>  <NONCOV_INTER_ENERGY_QM>  (1789) 
0

>  <FF_Energy>  (1789) 
-0.82

>  <QM_Energy>  (1789) 
-7.15

>  <source>  (1789) 
ACET_MBZ_01

>  <Index>  (1789) 
39718

$$$$
ACET-pdb4o2i-B-GLU-229:MBZ-pdb4o2i-B-PHE-224
     RDKit          3D

 22 21  0  0  0  0  0  0  0  0999 V2000
   -4.5549    2.3765    2.8740 C   0  0  0  0  0  0  0  0  0  0  0  0
   -3.6804    2.2788    3.3149 H   0  0  0  0  0  0  0  0  0  0  0  0
   -4.9822    1.5059    2.7055 H   0  0  0  0  0  0  0  0  0  0  0  0
   -5.2045    2.9529    3.5326 H   0  0  0  0  0  0  0  0  0  0  0  0
   -4.3194    3.0406    1.5291 C   0  0  0  0  0  0  0  0  0  0  0  0
   -5.2596    3.6598    0.9815 O   0  0  0  0  0  1  0  0  0  0  0  0
   -3.1835    2.9379    1.0175 O   0  0  0  0  0  0  0  0  0  0  0  0
    0.0040    2.9168    0.0027 C   0  0  0  0  0  0  0  0  0  0  0  0
    0.9400    3.2189   -0.0954 H   0  0  0  0  0  0  0  0  0  0  0  0
   -0.3841    3.2167    0.8610 H   0  0  0  0  0  0  0  0  0  0  0  0
   -0.5774    3.3685   -0.8012 H   0  0  0  0  0  0  0  0  0  0  0  0
    0.0003    1.4047   -0.0060 C   0  0  0  0  0  0  0  0  0  0  0  0
   -1.1987    0.6884    0.0036 C   0  0  0  0  0  0  0  0  0  0  0  0
   -2.0653    1.1802    0.0112 H   0  0  0  0  0  0  0  0  0  0  0  0
   -1.2017   -0.7003    0.0000 C   0  0  0  0  0  0  0  0  0  0  0  0
   -2.0769   -1.1958   -0.0026 H   0  0  0  0  0  0  0  0  0  0  0  0
    0.0009   -1.3937    0.0019 C   0  0  0  0  0  0  0  0  0  0  0  0
   -0.0007   -2.3923    0.0038 H   0  0  0  0  0  0  0  0  0  0  0  0
    1.2017   -0.6950    0.0000 C   0  0  0  0  0  0  0  0  0  0  0  0
    2.0829   -1.1930   -0.0002 H   0  0  0  0  0  0  0  0  0  0  0  0
    1.1975    0.6958    0.0005 C   0  0  0  0  0  0  0  0  0  0  0  0
    2.0649    1.1921    0.0050 H   0  0  0  0  0  0  0  0  0  0  0  0
  1  5  1  0
  5  6  1  0
  5  7  2  0
  1  2  1  0
  1  3  1  0
  1  4  1  0
  8 12  1  0
 12 13  2  0
 13 15  1  0
 15 17  2  0
 17 19  1  0
 19 21  2  0
 21 12  1  0
  8  9  1  0
  8 10  1  0
  8 11  1  0
 13 14  1  0
 15 16  1  0
 17 18  1  0
 19 20  1  0
 21 22  1  0
M  CHG  1   6  -1
M  END
>  <PDB_ID>  (1790) 
pdb4o2i

>  <RESIDUE_NAME>  (1790) 
GLU   PHE

>  <FRAG_NAME>  (1790) 
ACET   MBZ

>  <FRAG_ATOM_NUM>  (1790) 
fragi: 7  fragj: 15

>  <atom.prop.CHAIN_ID>  (1790) 
A A A A A A A Z Z Z Z Z Z Z Z Z Z Z Z Z Z Z

>  <atom.prop.IS_HEAVY_ATOM>  (1790) 
1 0 0 0 1 1 1 1 0 0 0 1 1 0 1 0 1 0 1 0 1 0

>  <DIFUSE_FUNC_ATOM>  (1790) 
atom 6   atom 7   

>  <FINAL_SINGLE_POINT_ENERGY>  (1790) 
0

>  <NONCOV_INTER_ENERGY_QM>  (1790) 
0

>  <FF_Energy>  (1790) 
-1.11

>  <QM_Energy>  (1790) 
-7.39

>  <source>  (1790) 
ACET_MBZ_02

>  <Index>  (1790) 
18

$$$$
ACET-pdb3q63-B-ASP-42:MBZ-pdb3q63-B-PHE-51
     RDKit          3D

 22 21  0  0  0  0  0  0  0  0999 V2000
   -2.6294    5.6463   -2.5341 C   0  0  0  0  0  0  0  0  0  0  0  0
   -1.8895    6.1038   -3.0150 H   0  0  0  0  0  0  0  0  0  0  0  0
   -3.4654    6.1788   -2.5963 H   0  0  0  0  0  0  0  0  0  0  0  0
   -2.8047    4.6880   -3.0232 H   0  0  0  0  0  0  0  0  0  0  0  0
   -2.2444    5.5107   -1.0630 C   0  0  0  0  0  0  0  0  0  0  0  0
   -1.5730    6.4306   -0.5497 O   0  0  0  0  0  1  0  0  0  0  0  0
   -2.6195    4.5113   -0.4176 O   0  0  0  0  0  0  0  0  0  0  0  0
    0.0019    2.9144    0.0087 C   0  0  0  0  0  0  0  0  0  0  0  0
   -0.8832    3.2232   -0.3092 H   0  0  0  0  0  0  0  0  0  0  0  0
    0.7259    3.2234   -0.5900 H   0  0  0  0  0  0  0  0  0  0  0  0
    0.1735    3.3572    0.9898 H   0  0  0  0  0  0  0  0  0  0  0  0
    0.0010    1.4064   -0.0002 C   0  0  0  0  0  0  0  0  0  0  0  0
   -1.1975    0.6932   -0.0003 C   0  0  0  0  0  0  0  0  0  0  0  0
   -2.0644    1.1837   -0.0018 H   0  0  0  0  0  0  0  0  0  0  0  0
   -1.2032   -0.6999   -0.0000 C   0  0  0  0  0  0  0  0  0  0  0  0
   -2.0799   -1.1924    0.0016 H   0  0  0  0  0  0  0  0  0  0  0  0
   -0.0011   -1.3990    0.0004 C   0  0  0  0  0  0  0  0  0  0  0  0
   -0.0035   -2.3948    0.0004 H   0  0  0  0  0  0  0  0  0  0  0  0
    1.2032   -0.6973    0.0000 C   0  0  0  0  0  0  0  0  0  0  0  0
    2.0836   -1.1941    0.0015 H   0  0  0  0  0  0  0  0  0  0  0  0
    1.1975    0.6966    0.0000 C   0  0  0  0  0  0  0  0  0  0  0  0
    2.0663    1.1922   -0.0002 H   0  0  0  0  0  0  0  0  0  0  0  0
  1  5  1  0
  5  6  1  0
  5  7  2  0
  1  2  1  0
  1  3  1  0
  1  4  1  0
  8 12  1  0
 12 13  2  0
 13 15  1  0
 15 17  2  0
 17 19  1  0
 19 21  2  0
 21 12  1  0
  8  9  1  0
  8 10  1  0
  8 11  1  0
 13 14  1  0
 15 16  1  0
 17 18  1  0
 19 20  1  0
 21 22  1  0
M  CHG  1   6  -1
M  END
>  <PDB_ID>  (1791) 
pdb3q63

>  <RESIDUE_NAME>  (1791) 
ASP   PHE

>  <FRAG_NAME>  (1791) 
ACET   MBZ

>  <FRAG_ATOM_NUM>  (1791) 
fragi: 7  fragj: 15

>  <atom.prop.CHAIN_ID>  (1791) 
A A A A A A A Z Z Z Z Z Z Z Z Z Z Z Z Z Z Z

>  <atom.prop.IS_HEAVY_ATOM>  (1791) 
1 0 0 0 1 1 1 1 0 0 0 1 1 0 1 0 1 0 1 0 1 0

>  <DIFUSE_FUNC_ATOM>  (1791) 
atom 6   atom 7   

>  <FINAL_SINGLE_POINT_ENERGY>  (1791) 
0

>  <NONCOV_INTER_ENERGY_QM>  (1791) 
0

>  <FF_Energy>  (1791) 
0.46

>  <QM_Energy>  (1791) 
-6.3

>  <source>  (1791) 
ACET_MBZ_02

>  <Index>  (1791) 
131

$$$$
ACET-pdb3q63-D-ASP-42:MBZ-pdb3q63-D-PHE-51
     RDKit          3D

 22 21  0  0  0  0  0  0  0  0999 V2000
   -2.9723    5.4960   -2.1832 C   0  0  0  0  0  0  0  0  0  0  0  0
   -2.3656    6.0505   -2.7439 H   0  0  0  0  0  0  0  0  0  0  0  0
   -3.8678    5.9231   -2.1188 H   0  0  0  0  0  0  0  0  0  0  0  0
   -3.0965    4.5326   -2.6778 H   0  0  0  0  0  0  0  0  0  0  0  0
   -2.3814    5.3829   -0.7885 C   0  0  0  0  0  0  0  0  0  0  0  0
   -2.6831    4.4088   -0.0724 O   0  0  0  0  0  1  0  0  0  0  0  0
   -1.6220    6.2935   -0.4151 O   0  0  0  0  0  0  0  0  0  0  0  0
   -0.0100    2.9161    0.0071 C   0  0  0  0  0  0  0  0  0  0  0  0
   -0.8934    3.2163   -0.3209 H   0  0  0  0  0  0  0  0  0  0  0  0
    0.7187    3.2289   -0.5850 H   0  0  0  0  0  0  0  0  0  0  0  0
    0.1475    3.3606    0.9899 H   0  0  0  0  0  0  0  0  0  0  0  0
    0.0003    1.4065   -0.0002 C   0  0  0  0  0  0  0  0  0  0  0  0
   -1.1962    0.6948   -0.0002 C   0  0  0  0  0  0  0  0  0  0  0  0
   -2.0640    1.1865   -0.0021 H   0  0  0  0  0  0  0  0  0  0  0  0
   -1.2043   -0.6966   -0.0000 C   0  0  0  0  0  0  0  0  0  0  0  0
   -2.0824   -1.1877   -0.0001 H   0  0  0  0  0  0  0  0  0  0  0  0
   -0.0046   -1.3987    0.0016 C   0  0  0  0  0  0  0  0  0  0  0  0
   -0.0099   -2.3956    0.0036 H   0  0  0  0  0  0  0  0  0  0  0  0
    1.2043   -0.7026   -0.0000 C   0  0  0  0  0  0  0  0  0  0  0  0
    2.0824   -1.1995    0.0009 H   0  0  0  0  0  0  0  0  0  0  0  0
    1.2004    0.6966   -0.0012 C   0  0  0  0  0  0  0  0  0  0  0  0
    2.0681    1.1900   -0.0034 H   0  0  0  0  0  0  0  0  0  0  0  0
  1  5  1  0
  5  6  1  0
  5  7  2  0
  1  2  1  0
  1  3  1  0
  1  4  1  0
  8 12  1  0
 12 13  2  0
 13 15  1  0
 15 17  2  0
 17 19  1  0
 19 21  2  0
 21 12  1  0
  8  9  1  0
  8 10  1  0
  8 11  1  0
 13 14  1  0
 15 16  1  0
 17 18  1  0
 19 20  1  0
 21 22  1  0
M  CHG  1   6  -1
M  END
>  <PDB_ID>  (1792) 
pdb3q63

>  <RESIDUE_NAME>  (1792) 
ASP   PHE

>  <FRAG_NAME>  (1792) 
ACET   MBZ

>  <FRAG_ATOM_NUM>  (1792) 
fragi: 7  fragj: 15

>  <atom.prop.CHAIN_ID>  (1792) 
A A A A A A A Z Z Z Z Z Z Z Z Z Z Z Z Z Z Z

>  <atom.prop.IS_HEAVY_ATOM>  (1792) 
1 0 0 0 1 1 1 1 0 0 0 1 1 0 1 0 1 0 1 0 1 0

>  <DIFUSE_FUNC_ATOM>  (1792) 
atom 6   atom 7   

>  <FINAL_SINGLE_POINT_ENERGY>  (1792) 
0

>  <NONCOV_INTER_ENERGY_QM>  (1792) 
0

>  <FF_Energy>  (1792) 
0.65

>  <QM_Energy>  (1792) 
-6.31

>  <source>  (1792) 
ACET_MBZ_02

>  <Index>  (1792) 
133

$$$$
ACET-pdb3q63-F-ASP-42:MBZ-pdb3q63-F-PHE-51
     RDKit          3D

 22 21  0  0  0  0  0  0  0  0999 V2000
   -2.8885    5.8269   -2.2510 C   0  0  0  0  0  0  0  0  0  0  0  0
   -2.2947    6.3185   -2.8806 H   0  0  0  0  0  0  0  0  0  0  0  0
   -3.7411    6.3241   -2.1244 H   0  0  0  0  0  0  0  0  0  0  0  0
   -3.1297    4.8661   -2.7056 H   0  0  0  0  0  0  0  0  0  0  0  0
   -2.1843    5.7079   -0.9041 C   0  0  0  0  0  0  0  0  0  0  0  0
   -2.3922    4.7189   -0.1784 O   0  0  0  0  0  1  0  0  0  0  0  0
   -1.4281    6.6401   -0.5608 O   0  0  0  0  0  0  0  0  0  0  0  0
   -0.0042    2.9248   -0.0419 C   0  0  0  0  0  0  0  0  0  0  0  0
   -0.9292    3.2209   -0.2239 H   0  0  0  0  0  0  0  0  0  0  0  0
    0.6137    3.2110   -0.7580 H   0  0  0  0  0  0  0  0  0  0  0  0
    0.3200    3.3980    0.8850 H   0  0  0  0  0  0  0  0  0  0  0  0
   -0.0005    1.4119   -0.0008 C   0  0  0  0  0  0  0  0  0  0  0  0
   -1.1980    0.6998    0.0014 C   0  0  0  0  0  0  0  0  0  0  0  0
   -2.0665    1.1860    0.0024 H   0  0  0  0  0  0  0  0  0  0  0  0
   -1.2045   -0.7022   -0.0000 C   0  0  0  0  0  0  0  0  0  0  0  0
   -2.0817   -1.1903    0.0006 H   0  0  0  0  0  0  0  0  0  0  0  0
   -0.0013   -1.4050   -0.0008 C   0  0  0  0  0  0  0  0  0  0  0  0
   -0.0061   -2.3999   -0.0028 H   0  0  0  0  0  0  0  0  0  0  0  0
    1.2045   -0.7045    0.0000 C   0  0  0  0  0  0  0  0  0  0  0  0
    2.0850   -1.1972    0.0019 H   0  0  0  0  0  0  0  0  0  0  0  0
    1.1998    0.7001    0.0001 C   0  0  0  0  0  0  0  0  0  0  0  0
    2.0682    1.1909   -0.0001 H   0  0  0  0  0  0  0  0  0  0  0  0
  1  5  1  0
  5  6  1  0
  5  7  2  0
  1  2  1  0
  1  3  1  0
  1  4  1  0
  8 12  1  0
 12 13  2  0
 13 15  1  0
 15 17  2  0
 17 19  1  0
 19 21  2  0
 21 12  1  0
  8  9  1  0
  8 10  1  0
  8 11  1  0
 13 14  1  0
 15 16  1  0
 17 18  1  0
 19 20  1  0
 21 22  1  0
M  CHG  1   6  -1
M  END
>  <PDB_ID>  (1793) 
pdb3q63

>  <RESIDUE_NAME>  (1793) 
ASP   PHE

>  <FRAG_NAME>  (1793) 
ACET   MBZ

>  <FRAG_ATOM_NUM>  (1793) 
fragi: 7  fragj: 15

>  <atom.prop.CHAIN_ID>  (1793) 
A A A A A A A Z Z Z Z Z Z Z Z Z Z Z Z Z Z Z

>  <atom.prop.IS_HEAVY_ATOM>  (1793) 
1 0 0 0 1 1 1 1 0 0 0 1 1 0 1 0 1 0 1 0 1 0

>  <DIFUSE_FUNC_ATOM>  (1793) 
atom 6   atom 7   

>  <FINAL_SINGLE_POINT_ENERGY>  (1793) 
0

>  <NONCOV_INTER_ENERGY_QM>  (1793) 
0

>  <FF_Energy>  (1793) 
2.13

>  <QM_Energy>  (1793) 
-5.61

>  <source>  (1793) 
ACET_MBZ_02

>  <Index>  (1793) 
137

$$$$
ACET-pdb3q6s-A-GLU-151:MBZ-pdb3q6s-A-PHE-113
     RDKit          3D

 22 21  0  0  0  0  0  0  0  0999 V2000
   -2.6926    0.5852   -3.4320 C   0  0  0  0  0  0  0  0  0  0  0  0
   -2.0007    0.0734   -2.9569 H   0  0  0  0  0  0  0  0  0  0  0  0
   -2.4000    0.8657   -4.3273 H   0  0  0  0  0  0  0  0  0  0  0  0
   -3.5854   -0.0325   -3.5286 H   0  0  0  0  0  0  0  0  0  0  0  0
   -2.9416    1.8589   -2.6230 C   0  0  0  0  0  0  0  0  0  0  0  0
   -3.9769    1.9396   -1.9318 O   0  0  0  0  0  1  0  0  0  0  0  0
   -2.1033    2.7815   -2.6930 O   0  0  0  0  0  0  0  0  0  0  0  0
    0.0217    2.9120    0.0239 C   0  0  0  0  0  0  0  0  0  0  0  0
   -0.8168    3.2345   -0.3776 H   0  0  0  0  0  0  0  0  0  0  0  0
    0.8132    3.2156   -0.4745 H   0  0  0  0  0  0  0  0  0  0  0  0
    0.0865    3.3143    1.0348 H   0  0  0  0  0  0  0  0  0  0  0  0
    0.0020    1.3945   -0.0149 C   0  0  0  0  0  0  0  0  0  0  0  0
   -1.1976    0.6991    0.0086 C   0  0  0  0  0  0  0  0  0  0  0  0
   -2.0603    1.1806    0.0303 H   0  0  0  0  0  0  0  0  0  0  0  0
   -1.1921   -0.7006    0.0000 C   0  0  0  0  0  0  0  0  0  0  0  0
   -2.0658   -1.1954   -0.0049 H   0  0  0  0  0  0  0  0  0  0  0  0
    0.0126   -1.3817    0.0003 C   0  0  0  0  0  0  0  0  0  0  0  0
    0.0070   -2.3887    0.0001 H   0  0  0  0  0  0  0  0  0  0  0  0
    1.1921   -0.6944    0.0000 C   0  0  0  0  0  0  0  0  0  0  0  0
    2.0817   -1.1881   -0.0026 H   0  0  0  0  0  0  0  0  0  0  0  0
    1.1831    0.6831    0.0060 C   0  0  0  0  0  0  0  0  0  0  0  0
    2.0590    1.1829    0.0254 H   0  0  0  0  0  0  0  0  0  0  0  0
  1  5  1  0
  5  6  1  0
  5  7  2  0
  1  2  1  0
  1  3  1  0
  1  4  1  0
  8 12  1  0
 12 13  2  0
 13 15  1  0
 15 17  2  0
 17 19  1  0
 19 21  2  0
 21 12  1  0
  8  9  1  0
  8 10  1  0
  8 11  1  0
 13 14  1  0
 15 16  1  0
 17 18  1  0
 19 20  1  0
 21 22  1  0
M  CHG  1   6  -1
M  END
>  <PDB_ID>  (1794) 
pdb3q6s

>  <RESIDUE_NAME>  (1794) 
GLU   PHE

>  <FRAG_NAME>  (1794) 
ACET   MBZ

>  <FRAG_ATOM_NUM>  (1794) 
fragi: 7  fragj: 15

>  <atom.prop.CHAIN_ID>  (1794) 
A A A A A A A Z Z Z Z Z Z Z Z Z Z Z Z Z Z Z

>  <atom.prop.IS_HEAVY_ATOM>  (1794) 
1 0 0 0 1 1 1 1 0 0 0 1 1 0 1 0 1 0 1 0 1 0

>  <DIFUSE_FUNC_ATOM>  (1794) 
atom 6   atom 7   

>  <FINAL_SINGLE_POINT_ENERGY>  (1794) 
0

>  <NONCOV_INTER_ENERGY_QM>  (1794) 
0

>  <FF_Energy>  (1794) 
-1.51

>  <QM_Energy>  (1794) 
-7.34

>  <source>  (1794) 
ACET_MBZ_02

>  <Index>  (1794) 
145

$$$$
ACET-pdb3q6s-D-GLU-151:MBZ-pdb3q6s-D-PHE-113
     RDKit          3D

 22 21  0  0  0  0  0  0  0  0999 V2000
   -2.8350    0.8844   -3.7028 C   0  0  0  0  0  0  0  0  0  0  0  0
   -1.9517    0.4847   -3.5771 H   0  0  0  0  0  0  0  0  0  0  0  0
   -2.9812    1.2125   -4.6125 H   0  0  0  0  0  0  0  0  0  0  0  0
   -3.5980    0.1439   -3.4629 H   0  0  0  0  0  0  0  0  0  0  0  0
   -2.9103    2.1054   -2.7705 C   0  0  0  0  0  0  0  0  0  0  0  0
   -3.9852    2.3288   -2.1625 O   0  0  0  0  0  1  0  0  0  0  0  0
   -1.8882    2.8243   -2.6298 O   0  0  0  0  0  0  0  0  0  0  0  0
    0.0039    2.9139    0.0036 C   0  0  0  0  0  0  0  0  0  0  0  0
   -0.8826    3.2204   -0.3047 H   0  0  0  0  0  0  0  0  0  0  0  0
    0.7226    3.2167   -0.6015 H   0  0  0  0  0  0  0  0  0  0  0  0
    0.1878    3.3422    0.9889 H   0  0  0  0  0  0  0  0  0  0  0  0
   -0.0016    1.4047   -0.0061 C   0  0  0  0  0  0  0  0  0  0  0  0
   -1.1961    0.7113    0.0022 C   0  0  0  0  0  0  0  0  0  0  0  0
   -2.0640    1.1872    0.0089 H   0  0  0  0  0  0  0  0  0  0  0  0
   -1.1997   -0.7059    0.0000 C   0  0  0  0  0  0  0  0  0  0  0  0
   -2.0760   -1.1884    0.0006 H   0  0  0  0  0  0  0  0  0  0  0  0
    0.0058   -1.3991   -0.0012 C   0  0  0  0  0  0  0  0  0  0  0  0
    0.0014   -2.3986   -0.0029 H   0  0  0  0  0  0  0  0  0  0  0  0
    1.1997   -0.7023   -0.0000 C   0  0  0  0  0  0  0  0  0  0  0  0
    2.0846   -1.1942   -0.0017 H   0  0  0  0  0  0  0  0  0  0  0  0
    1.1920    0.6912    0.0051 C   0  0  0  0  0  0  0  0  0  0  0  0
    2.0628    1.1869    0.0159 H   0  0  0  0  0  0  0  0  0  0  0  0
  1  5  1  0
  5  6  1  0
  5  7  2  0
  1  2  1  0
  1  3  1  0
  1  4  1  0
  8 12  1  0
 12 13  2  0
 13 15  1  0
 15 17  2  0
 17 19  1  0
 19 21  2  0
 21 12  1  0
  8  9  1  0
  8 10  1  0
  8 11  1  0
 13 14  1  0
 15 16  1  0
 17 18  1  0
 19 20  1  0
 21 22  1  0
M  CHG  1   6  -1
M  END
>  <PDB_ID>  (1795) 
pdb3q6s

>  <RESIDUE_NAME>  (1795) 
GLU   PHE

>  <FRAG_NAME>  (1795) 
ACET   MBZ

>  <FRAG_ATOM_NUM>  (1795) 
fragi: 7  fragj: 15

>  <atom.prop.CHAIN_ID>  (1795) 
A A A A A A A Z Z Z Z Z Z Z Z Z Z Z Z Z Z Z

>  <atom.prop.IS_HEAVY_ATOM>  (1795) 
1 0 0 0 1 1 1 1 0 0 0 1 1 0 1 0 1 0 1 0 1 0

>  <DIFUSE_FUNC_ATOM>  (1795) 
atom 6   atom 7   

>  <FINAL_SINGLE_POINT_ENERGY>  (1795) 
0

>  <NONCOV_INTER_ENERGY_QM>  (1795) 
0

>  <FF_Energy>  (1795) 
-0.93

>  <QM_Energy>  (1795) 
-6.85

>  <source>  (1795) 
ACET_MBZ_02

>  <Index>  (1795) 
148

$$$$
ACET-pdb3q6a-D-GLU-94:MBZ-pdb3q6a-D-PHE-97
     RDKit          3D

 22 21  0  0  0  0  0  0  0  0999 V2000
    2.7255   -3.6687   -0.2482 C   0  0  0  0  0  0  0  0  0  0  0  0
    2.4204   -2.7408   -0.3858 H   0  0  0  0  0  0  0  0  0  0  0  0
    2.9788   -4.0997   -1.0979 H   0  0  0  0  0  0  0  0  0  0  0  0
    3.6048   -3.6436    0.3954 H   0  0  0  0  0  0  0  0  0  0  0  0
    1.5619   -4.4535    0.3339 C   0  0  0  0  0  0  0  0  0  0  0  0
    1.4306   -4.5339    1.5714 O   0  0  0  0  0  1  0  0  0  0  0  0
    0.7606   -4.9785   -0.4644 O   0  0  0  0  0  0  0  0  0  0  0  0
   -0.0031    2.8969    0.0141 C   0  0  0  0  0  0  0  0  0  0  0  0
    0.8525    3.2033    0.4058 H   0  0  0  0  0  0  0  0  0  0  0  0
   -0.7742    3.1985    0.5568 H   0  0  0  0  0  0  0  0  0  0  0  0
   -0.0960    3.3466   -0.9745 H   0  0  0  0  0  0  0  0  0  0  0  0
   -0.0000    1.3983    0.0016 C   0  0  0  0  0  0  0  0  0  0  0  0
   -1.1928    0.6917   -0.0007 C   0  0  0  0  0  0  0  0  0  0  0  0
   -2.0609    1.1833   -0.0039 H   0  0  0  0  0  0  0  0  0  0  0  0
   -1.1999   -0.6946    0.0000 C   0  0  0  0  0  0  0  0  0  0  0  0
   -2.0782   -1.1878    0.0025 H   0  0  0  0  0  0  0  0  0  0  0  0
   -0.0017   -1.3933   -0.0009 C   0  0  0  0  0  0  0  0  0  0  0  0
   -0.0049   -2.3906   -0.0026 H   0  0  0  0  0  0  0  0  0  0  0  0
    1.1999   -0.6950   -0.0000 C   0  0  0  0  0  0  0  0  0  0  0  0
    2.0811   -1.1943    0.0025 H   0  0  0  0  0  0  0  0  0  0  0  0
    1.1946    0.6929   -0.0000 C   0  0  0  0  0  0  0  0  0  0  0  0
    2.0630    1.1903   -0.0021 H   0  0  0  0  0  0  0  0  0  0  0  0
  1  5  1  0
  5  6  1  0
  5  7  2  0
  1  2  1  0
  1  3  1  0
  1  4  1  0
  8 12  1  0
 12 13  2  0
 13 15  1  0
 15 17  2  0
 17 19  1  0
 19 21  2  0
 21 12  1  0
  8  9  1  0
  8 10  1  0
  8 11  1  0
 13 14  1  0
 15 16  1  0
 17 18  1  0
 19 20  1  0
 21 22  1  0
M  CHG  1   6  -1
M  END
>  <PDB_ID>  (1796) 
pdb3q6a

>  <RESIDUE_NAME>  (1796) 
GLU   PHE

>  <FRAG_NAME>  (1796) 
ACET   MBZ

>  <FRAG_ATOM_NUM>  (1796) 
fragi: 7  fragj: 15

>  <atom.prop.CHAIN_ID>  (1796) 
A A A A A A A Z Z Z Z Z Z Z Z Z Z Z Z Z Z Z

>  <atom.prop.IS_HEAVY_ATOM>  (1796) 
1 0 0 0 1 1 1 1 0 0 0 1 1 0 1 0 1 0 1 0 1 0

>  <DIFUSE_FUNC_ATOM>  (1796) 
atom 6   atom 7   

>  <FINAL_SINGLE_POINT_ENERGY>  (1796) 
0

>  <NONCOV_INTER_ENERGY_QM>  (1796) 
0

>  <FF_Energy>  (1796) 
10.78

>  <QM_Energy>  (1796) 
-1.37

>  <source>  (1796) 
ACET_MBZ_02

>  <Index>  (1796) 
152

$$$$
ACET-pdb4o59-O-GLU-94:MBZ-pdb4o59-O-PHE-99
     RDKit          3D

 22 21  0  0  0  0  0  0  0  0999 V2000
    3.5042    5.0068    0.5559 C   0  0  0  0  0  0  0  0  0  0  0  0
    2.7122    5.1036    1.1419 H   0  0  0  0  0  0  0  0  0  0  0  0
    3.3607    5.4566   -0.3148 H   0  0  0  0  0  0  0  0  0  0  0  0
    4.3377    5.5069    1.0494 H   0  0  0  0  0  0  0  0  0  0  0  0
    3.7368    3.5678    0.3107 C   0  0  0  0  0  0  0  0  0  0  0  0
    3.8507    2.7461    1.3032 O   0  0  0  0  0  1  0  0  0  0  0  0
    3.8364    3.2338   -0.9201 O   0  0  0  0  0  0  0  0  0  0  0  0
    0.0495    2.8920    0.0404 C   0  0  0  0  0  0  0  0  0  0  0  0
    0.9944    3.1868    0.0779 H   0  0  0  0  0  0  0  0  0  0  0  0
   -0.4517    3.1994    0.8371 H   0  0  0  0  0  0  0  0  0  0  0  0
   -0.4004    3.3790   -0.8247 H   0  0  0  0  0  0  0  0  0  0  0  0
    0.0203    1.3870    0.0109 C   0  0  0  0  0  0  0  0  0  0  0  0
   -1.2015    0.7096    0.0185 C   0  0  0  0  0  0  0  0  0  0  0  0
   -2.0473    1.2087    0.0355 H   0  0  0  0  0  0  0  0  0  0  0  0
   -1.1980   -0.6734   -0.0000 C   0  0  0  0  0  0  0  0  0  0  0  0
   -2.0845   -1.1673    0.0159 H   0  0  0  0  0  0  0  0  0  0  0  0
   -0.0166   -1.3675   -0.0382 C   0  0  0  0  0  0  0  0  0  0  0  0
   -0.0361   -2.3797   -0.0963 H   0  0  0  0  0  0  0  0  0  0  0  0
    1.1980   -0.7161    0.0000 C   0  0  0  0  0  0  0  0  0  0  0  0
    2.0619   -1.2278    0.0218 H   0  0  0  0  0  0  0  0  0  0  0  0
    1.1978    0.6604    0.0089 C   0  0  0  0  0  0  0  0  0  0  0  0
    2.0782    1.1553    0.0133 H   0  0  0  0  0  0  0  0  0  0  0  0
  1  5  1  0
  5  6  1  0
  5  7  2  0
  1  2  1  0
  1  3  1  0
  1  4  1  0
  8 12  1  0
 12 13  2  0
 13 15  1  0
 15 17  2  0
 17 19  1  0
 19 21  2  0
 21 12  1  0
  8  9  1  0
  8 10  1  0
  8 11  1  0
 13 14  1  0
 15 16  1  0
 17 18  1  0
 19 20  1  0
 21 22  1  0
M  CHG  1   6  -1
M  END
>  <PDB_ID>  (1797) 
pdb4o59

>  <RESIDUE_NAME>  (1797) 
GLU   PHE

>  <FRAG_NAME>  (1797) 
ACET   MBZ

>  <FRAG_ATOM_NUM>  (1797) 
fragi: 7  fragj: 15

>  <atom.prop.CHAIN_ID>  (1797) 
A A A A A A A Z Z Z Z Z Z Z Z Z Z Z Z Z Z Z

>  <atom.prop.IS_HEAVY_ATOM>  (1797) 
1 0 0 0 1 1 1 1 0 0 0 1 1 0 1 0 1 0 1 0 1 0

>  <DIFUSE_FUNC_ATOM>  (1797) 
atom 6   atom 7   

>  <FINAL_SINGLE_POINT_ENERGY>  (1797) 
0

>  <NONCOV_INTER_ENERGY_QM>  (1797) 
0

>  <FF_Energy>  (1797) 
-2.75

>  <QM_Energy>  (1797) 
-7.78

>  <source>  (1797) 
ACET_MBZ_02

>  <Index>  (1797) 
280

$$$$
ACET-pdb3q8n-A-GLU-188:MBZ-pdb3q8n-B-PHE-185
     RDKit          3D

 22 21  0  0  0  0  0  0  0  0999 V2000
    5.1865    2.8868   -3.1312 C   0  0  0  0  0  0  0  0  0  0  0  0
    4.7095    3.6542   -3.5021 H   0  0  0  0  0  0  0  0  0  0  0  0
    5.2474    2.1335   -3.7498 H   0  0  0  0  0  0  0  0  0  0  0  0
    6.2001    3.2077   -2.8911 H   0  0  0  0  0  0  0  0  0  0  0  0
    4.3814    2.3988   -1.8895 C   0  0  0  0  0  0  0  0  0  0  0  0
    4.9185    1.4976   -1.1900 O   0  0  0  0  0  1  0  0  0  0  0  0
    3.2396    2.9347   -1.6203 O   0  0  0  0  0  0  0  0  0  0  0  0
    0.0065    2.8500   -0.0628 C   0  0  0  0  0  0  0  0  0  0  0  0
    0.9366    3.1710    0.0448 H   0  0  0  0  0  0  0  0  0  0  0  0
   -0.5736    3.1884    0.6650 H   0  0  0  0  0  0  0  0  0  0  0  0
   -0.3757    3.2436   -1.0046 H   0  0  0  0  0  0  0  0  0  0  0  0
    0.0070    1.3833   -0.0191 C   0  0  0  0  0  0  0  0  0  0  0  0
   -1.1863    0.7001    0.0046 C   0  0  0  0  0  0  0  0  0  0  0  0
   -2.0500    1.1876    0.0239 H   0  0  0  0  0  0  0  0  0  0  0  0
   -1.1899   -0.6921    0.0000 C   0  0  0  0  0  0  0  0  0  0  0  0
   -2.0806   -1.1744   -0.0234 H   0  0  0  0  0  0  0  0  0  0  0  0
   -0.0173   -1.3800    0.0283 C   0  0  0  0  0  0  0  0  0  0  0  0
   -0.0113   -2.3814    0.0686 H   0  0  0  0  0  0  0  0  0  0  0  0
    1.1899   -0.6879   -0.0000 C   0  0  0  0  0  0  0  0  0  0  0  0
    2.0653   -1.2060   -0.0088 H   0  0  0  0  0  0  0  0  0  0  0  0
    1.1966    0.6766   -0.0138 C   0  0  0  0  0  0  0  0  0  0  0  0
    2.0653    1.1780   -0.0210 H   0  0  0  0  0  0  0  0  0  0  0  0
  1  5  1  0
  5  6  1  0
  5  7  2  0
  1  2  1  0
  1  3  1  0
  1  4  1  0
  8 12  1  0
 12 13  2  0
 13 15  1  0
 15 17  2  0
 17 19  1  0
 19 21  2  0
 21 12  1  0
  8  9  1  0
  8 10  1  0
  8 11  1  0
 13 14  1  0
 15 16  1  0
 17 18  1  0
 19 20  1  0
 21 22  1  0
M  CHG  1   6  -1
M  END
>  <PDB_ID>  (1798) 
pdb3q8n

>  <RESIDUE_NAME>  (1798) 
GLU   PHE

>  <FRAG_NAME>  (1798) 
ACET   MBZ

>  <FRAG_ATOM_NUM>  (1798) 
fragi: 7  fragj: 15

>  <atom.prop.CHAIN_ID>  (1798) 
A A A A A A A Z Z Z Z Z Z Z Z Z Z Z Z Z Z Z

>  <atom.prop.IS_HEAVY_ATOM>  (1798) 
1 0 0 0 1 1 1 1 0 0 0 1 1 0 1 0 1 0 1 0 1 0

>  <DIFUSE_FUNC_ATOM>  (1798) 
atom 6   atom 7   

>  <FINAL_SINGLE_POINT_ENERGY>  (1798) 
0

>  <NONCOV_INTER_ENERGY_QM>  (1798) 
0

>  <FF_Energy>  (1798) 
-2.36

>  <QM_Energy>  (1798) 
-7.72

>  <source>  (1798) 
ACET_MBZ_02

>  <Index>  (1798) 
294

$$$$
ACET-pdb3q8n-D-GLU-372:MBZ-pdb3q8n-D-PHE-198
     RDKit          3D

 22 21  0  0  0  0  0  0  0  0999 V2000
   -2.3188    2.1305   -4.1814 C   0  0  0  0  0  0  0  0  0  0  0  0
   -2.0286    2.4503   -5.0738 H   0  0  0  0  0  0  0  0  0  0  0  0
   -3.3018    2.0014   -4.1561 H   0  0  0  0  0  0  0  0  0  0  0  0
   -1.8493    1.1627   -4.0056 H   0  0  0  0  0  0  0  0  0  0  0  0
   -1.9722    3.2104   -3.1709 C   0  0  0  0  0  0  0  0  0  0  0  0
   -0.8076    3.6615   -3.1094 O   0  0  0  0  0  1  0  0  0  0  0  0
   -2.8894    3.6267   -2.4490 O   0  0  0  0  0  0  0  0  0  0  0  0
   -0.0116    2.9288    0.0229 C   0  0  0  0  0  0  0  0  0  0  0  0
   -0.5735    3.2359   -0.7296 H   0  0  0  0  0  0  0  0  0  0  0  0
    0.9224    3.2388   -0.0735 H   0  0  0  0  0  0  0  0  0  0  0  0
   -0.4124    3.3728    0.9341 H   0  0  0  0  0  0  0  0  0  0  0  0
   -0.0039    1.4120    0.0120 C   0  0  0  0  0  0  0  0  0  0  0  0
   -1.2034    0.6838   -0.0043 C   0  0  0  0  0  0  0  0  0  0  0  0
   -2.0727    1.1744   -0.0203 H   0  0  0  0  0  0  0  0  0  0  0  0
   -1.2095   -0.7110    0.0000 C   0  0  0  0  0  0  0  0  0  0  0  0
   -2.0738   -1.2097    0.0130 H   0  0  0  0  0  0  0  0  0  0  0  0
    0.0134   -1.4045   -0.0129 C   0  0  0  0  0  0  0  0  0  0  0  0
    0.0127   -2.3993   -0.0322 H   0  0  0  0  0  0  0  0  0  0  0  0
    1.2095   -0.6939   -0.0000 C   0  0  0  0  0  0  0  0  0  0  0  0
    2.0966   -1.1772    0.0076 H   0  0  0  0  0  0  0  0  0  0  0  0
    1.1938    0.7136    0.0052 C   0  0  0  0  0  0  0  0  0  0  0  0
    2.0620    1.2074    0.0033 H   0  0  0  0  0  0  0  0  0  0  0  0
  1  5  1  0
  5  6  1  0
  5  7  2  0
  1  2  1  0
  1  3  1  0
  1  4  1  0
  8 12  1  0
 12 13  2  0
 13 15  1  0
 15 17  2  0
 17 19  1  0
 19 21  2  0
 21 12  1  0
  8  9  1  0
  8 10  1  0
  8 11  1  0
 13 14  1  0
 15 16  1  0
 17 18  1  0
 19 20  1  0
 21 22  1  0
M  CHG  1   6  -1
M  END
>  <PDB_ID>  (1799) 
pdb3q8n

>  <RESIDUE_NAME>  (1799) 
GLU   PHE

>  <FRAG_NAME>  (1799) 
ACET   MBZ

>  <FRAG_ATOM_NUM>  (1799) 
fragi: 7  fragj: 15

>  <atom.prop.CHAIN_ID>  (1799) 
A A A A A A A Z Z Z Z Z Z Z Z Z Z Z Z Z Z Z

>  <atom.prop.IS_HEAVY_ATOM>  (1799) 
1 0 0 0 1 1 1 1 0 0 0 1 1 0 1 0 1 0 1 0 1 0

>  <DIFUSE_FUNC_ATOM>  (1799) 
atom 6   atom 7   

>  <FINAL_SINGLE_POINT_ENERGY>  (1799) 
0

>  <NONCOV_INTER_ENERGY_QM>  (1799) 
0

>  <FF_Energy>  (1799) 
-0.77

>  <QM_Energy>  (1799) 
-6.59

>  <source>  (1799) 
ACET_MBZ_02

>  <Index>  (1799) 
307

$$$$
ACET-pdb3qac-A-GLU-371:MBZ-pdb3qac-A-PHE-391
     RDKit          3D

 22 21  0  0  0  0  0  0  0  0999 V2000
    3.9970   -2.7155   -0.1215 C   0  0  0  0  0  0  0  0  0  0  0  0
    3.2715   -2.2628   -0.5997 H   0  0  0  0  0  0  0  0  0  0  0  0
    3.9396   -3.6920   -0.1803 H   0  0  0  0  0  0  0  0  0  0  0  0
    4.9491   -2.3935   -0.5435 H   0  0  0  0  0  0  0  0  0  0  0  0
    3.8675   -2.3436    1.3544 C   0  0  0  0  0  0  0  0  0  0  0  0
    4.6353   -1.4609    1.8169 O   0  0  0  0  0  1  0  0  0  0  0  0
    3.0059   -2.9374    2.0485 O   0  0  0  0  0  0  0  0  0  0  0  0
   -0.0059    2.9044    0.0016 C   0  0  0  0  0  0  0  0  0  0  0  0
    0.9000    3.2137   -0.2398 H   0  0  0  0  0  0  0  0  0  0  0  0
   -0.2666    3.2085    0.9039 H   0  0  0  0  0  0  0  0  0  0  0  0
   -0.7078    3.3345   -0.7128 H   0  0  0  0  0  0  0  0  0  0  0  0
   -0.0005    1.4016    0.0007 C   0  0  0  0  0  0  0  0  0  0  0  0
   -1.1984    0.6925    0.0007 C   0  0  0  0  0  0  0  0  0  0  0  0
   -2.0653    1.1812    0.0000 H   0  0  0  0  0  0  0  0  0  0  0  0
   -1.2016   -0.7009   -0.0000 C   0  0  0  0  0  0  0  0  0  0  0  0
   -2.0756   -1.1954    0.0005 H   0  0  0  0  0  0  0  0  0  0  0  0
    0.0034   -1.3926   -0.0000 C   0  0  0  0  0  0  0  0  0  0  0  0
    0.0023   -2.3914   -0.0002 H   0  0  0  0  0  0  0  0  0  0  0  0
    1.2016   -0.6933    0.0000 C   0  0  0  0  0  0  0  0  0  0  0  0
    2.0847   -1.1917    0.0026 H   0  0  0  0  0  0  0  0  0  0  0  0
    1.1955    0.6928   -0.0014 C   0  0  0  0  0  0  0  0  0  0  0  0
    2.0636    1.1922   -0.0053 H   0  0  0  0  0  0  0  0  0  0  0  0
  1  5  1  0
  5  6  1  0
  5  7  2  0
  1  2  1  0
  1  3  1  0
  1  4  1  0
  8 12  1  0
 12 13  2  0
 13 15  1  0
 15 17  2  0
 17 19  1  0
 19 21  2  0
 21 12  1  0
  8  9  1  0
  8 10  1  0
  8 11  1  0
 13 14  1  0
 15 16  1  0
 17 18  1  0
 19 20  1  0
 21 22  1  0
M  CHG  1   6  -1
M  END
>  <PDB_ID>  (1800) 
pdb3qac

>  <RESIDUE_NAME>  (1800) 
GLU   PHE

>  <FRAG_NAME>  (1800) 
ACET   MBZ

>  <FRAG_ATOM_NUM>  (1800) 
fragi: 7  fragj: 15

>  <atom.prop.CHAIN_ID>  (1800) 
A A A A A A A Z Z Z Z Z Z Z Z Z Z Z Z Z Z Z

>  <atom.prop.IS_HEAVY_ATOM>  (1800) 
1 0 0 0 1 1 1 1 0 0 0 1 1 0 1 0 1 0 1 0 1 0

>  <DIFUSE_FUNC_ATOM>  (1800) 
atom 6   atom 7   

>  <FINAL_SINGLE_POINT_ENERGY>  (1800) 
0

>  <NONCOV_INTER_ENERGY_QM>  (1800) 
0

>  <FF_Energy>  (1800) 
7.05

>  <QM_Energy>  (1800) 
-1.43

>  <source>  (1800) 
ACET_MBZ_02

>  <Index>  (1800) 
429

$$$$
ACET-pdb3qb8-A-GLU-118:MBZ-pdb3qb8-A-PHE-18
     RDKit          3D

 22 21  0  0  0  0  0  0  0  0999 V2000
   -2.4642   -2.4171    2.3004 C   0  0  0  0  0  0  0  0  0  0  0  0
   -2.1526   -2.7270    3.1851 H   0  0  0  0  0  0  0  0  0  0  0  0
   -1.7070   -2.2791    1.6801 H   0  0  0  0  0  0  0  0  0  0  0  0
   -3.1017   -3.1953    1.8809 H   0  0  0  0  0  0  0  0  0  0  0  0
   -3.1389   -1.0410    2.5092 C   0  0  0  0  0  0  0  0  0  0  0  0
   -4.2159   -0.7130    1.9729 O   0  0  0  0  0  1  0  0  0  0  0  0
   -2.5243   -0.2614    3.2494 O   0  0  0  0  0  0  0  0  0  0  0  0
   -0.0157    2.9046    0.0655 C   0  0  0  0  0  0  0  0  0  0  0  0
   -0.8382    3.2283   -0.3590 H   0  0  0  0  0  0  0  0  0  0  0  0
    0.7952    3.2404   -0.3732 H   0  0  0  0  0  0  0  0  0  0  0  0
   -0.0090    3.2625    1.0950 H   0  0  0  0  0  0  0  0  0  0  0  0
   -0.0049    1.4042   -0.0095 C   0  0  0  0  0  0  0  0  0  0  0  0
   -1.2028    0.6985   -0.0025 C   0  0  0  0  0  0  0  0  0  0  0  0
   -2.0688    1.1937   -0.0008 H   0  0  0  0  0  0  0  0  0  0  0  0
   -1.2130   -0.6875    0.0000 C   0  0  0  0  0  0  0  0  0  0  0  0
   -2.0832   -1.1859    0.0038 H   0  0  0  0  0  0  0  0  0  0  0  0
    0.0024   -1.3943   -0.0011 C   0  0  0  0  0  0  0  0  0  0  0  0
   -0.0141   -2.3933   -0.0031 H   0  0  0  0  0  0  0  0  0  0  0  0
    1.2130   -0.7094   -0.0000 C   0  0  0  0  0  0  0  0  0  0  0  0
    2.0873   -1.2054   -0.0076 H   0  0  0  0  0  0  0  0  0  0  0  0
    1.2054    0.6884    0.0131 C   0  0  0  0  0  0  0  0  0  0  0  0
    2.0680    1.1877    0.0382 H   0  0  0  0  0  0  0  0  0  0  0  0
  1  5  1  0
  5  6  1  0
  5  7  2  0
  1  2  1  0
  1  3  1  0
  1  4  1  0
  8 12  1  0
 12 13  2  0
 13 15  1  0
 15 17  2  0
 17 19  1  0
 19 21  2  0
 21 12  1  0
  8  9  1  0
  8 10  1  0
  8 11  1  0
 13 14  1  0
 15 16  1  0
 17 18  1  0
 19 20  1  0
 21 22  1  0
M  CHG  1   6  -1
M  END
>  <PDB_ID>  (1801) 
pdb3qb8

>  <RESIDUE_NAME>  (1801) 
GLU   PHE

>  <FRAG_NAME>  (1801) 
ACET   MBZ

>  <FRAG_ATOM_NUM>  (1801) 
fragi: 7  fragj: 15

>  <atom.prop.CHAIN_ID>  (1801) 
A A A A A A A Z Z Z Z Z Z Z Z Z Z Z Z Z Z Z

>  <atom.prop.IS_HEAVY_ATOM>  (1801) 
1 0 0 0 1 1 1 1 0 0 0 1 1 0 1 0 1 0 1 0 1 0

>  <DIFUSE_FUNC_ATOM>  (1801) 
atom 6   atom 7   

>  <FINAL_SINGLE_POINT_ENERGY>  (1801) 
0

>  <NONCOV_INTER_ENERGY_QM>  (1801) 
0

>  <FF_Energy>  (1801) 
4.43

>  <QM_Energy>  (1801) 
-1.56

>  <source>  (1801) 
ACET_MBZ_02

>  <Index>  (1801) 
481

$$$$
ACET-pdb4o8w-F-GLU-88:MBZ-pdb4o8w-D-PHE-96
     RDKit          3D

 22 21  0  0  0  0  0  0  0  0999 V2000
   -4.3402    0.5042    1.5552 C   0  0  0  0  0  0  0  0  0  0  0  0
   -3.5439    0.5995    2.1510 H   0  0  0  0  0  0  0  0  0  0  0  0
   -4.0842   -0.0089    0.7361 H   0  0  0  0  0  0  0  0  0  0  0  0
   -5.0887   -0.0783    2.0925 H   0  0  0  0  0  0  0  0  0  0  0  0
   -4.7536    1.8774    1.1217 C   0  0  0  0  0  0  0  0  0  0  0  0
   -5.8558    2.3595    1.3368 O   0  0  0  0  0  1  0  0  0  0  0  0
   -3.8461    2.4715    0.5033 O   0  0  0  0  0  0  0  0  0  0  0  0
   -0.0005    2.8948    0.0338 C   0  0  0  0  0  0  0  0  0  0  0  0
   -0.7284    3.2150   -0.5495 H   0  0  0  0  0  0  0  0  0  0  0  0
    0.8809    3.2102   -0.2758 H   0  0  0  0  0  0  0  0  0  0  0  0
   -0.1695    3.2956    1.0333 H   0  0  0  0  0  0  0  0  0  0  0  0
    0.0012    1.3975   -0.0022 C   0  0  0  0  0  0  0  0  0  0  0  0
   -1.1971    0.6884    0.0023 C   0  0  0  0  0  0  0  0  0  0  0  0
   -2.0624    1.1821    0.0057 H   0  0  0  0  0  0  0  0  0  0  0  0
   -1.2017   -0.6971    0.0000 C   0  0  0  0  0  0  0  0  0  0  0  0
   -2.0772   -1.1932    0.0034 H   0  0  0  0  0  0  0  0  0  0  0  0
   -0.0004   -1.3926   -0.0053 C   0  0  0  0  0  0  0  0  0  0  0  0
   -0.0009   -2.3895   -0.0131 H   0  0  0  0  0  0  0  0  0  0  0  0
    1.2017   -0.6914    0.0000 C   0  0  0  0  0  0  0  0  0  0  0  0
    2.0825   -1.1909    0.0012 H   0  0  0  0  0  0  0  0  0  0  0  0
    1.1962    0.6952    0.0052 C   0  0  0  0  0  0  0  0  0  0  0  0
    2.0639    1.1932    0.0132 H   0  0  0  0  0  0  0  0  0  0  0  0
  1  5  1  0
  5  6  1  0
  5  7  2  0
  1  2  1  0
  1  3  1  0
  1  4  1  0
  8 12  1  0
 12 13  2  0
 13 15  1  0
 15 17  2  0
 17 19  1  0
 19 21  2  0
 21 12  1  0
  8  9  1  0
  8 10  1  0
  8 11  1  0
 13 14  1  0
 15 16  1  0
 17 18  1  0
 19 20  1  0
 21 22  1  0
M  CHG  1   6  -1
M  END
>  <PDB_ID>  (1802) 
pdb4o8w

>  <RESIDUE_NAME>  (1802) 
GLU   PHE

>  <FRAG_NAME>  (1802) 
ACET   MBZ

>  <FRAG_ATOM_NUM>  (1802) 
fragi: 7  fragj: 15

>  <atom.prop.CHAIN_ID>  (1802) 
A A A A A A A Z Z Z Z Z Z Z Z Z Z Z Z Z Z Z

>  <atom.prop.IS_HEAVY_ATOM>  (1802) 
1 0 0 0 1 1 1 1 0 0 0 1 1 0 1 0 1 0 1 0 1 0

>  <DIFUSE_FUNC_ATOM>  (1802) 
atom 6   atom 7   

>  <FINAL_SINGLE_POINT_ENERGY>  (1802) 
0

>  <NONCOV_INTER_ENERGY_QM>  (1802) 
0

>  <FF_Energy>  (1802) 
-1.31

>  <QM_Energy>  (1802) 
-7.28

>  <source>  (1802) 
ACET_MBZ_02

>  <Index>  (1802) 
505

$$$$
ACET-pdb4o95-A-ASP-403:MBZ-pdb4o95-A-PHE-407
     RDKit          3D

 22 21  0  0  0  0  0  0  0  0999 V2000
    4.1775    1.7048   -2.2406 C   0  0  0  0  0  0  0  0  0  0  0  0
    4.1995    0.8213   -1.7849 H   0  0  0  0  0  0  0  0  0  0  0  0
    4.9391    1.7878   -2.8732 H   0  0  0  0  0  0  0  0  0  0  0  0
    3.2535    1.7638   -2.8158 H   0  0  0  0  0  0  0  0  0  0  0  0
    4.2911    2.7959   -1.1943 C   0  0  0  0  0  0  0  0  0  0  0  0
    3.5220    2.7486   -0.1984 O   0  0  0  0  0  1  0  0  0  0  0  0
    5.1205    3.7146   -1.3852 O   0  0  0  0  0  0  0  0  0  0  0  0
    0.0121    2.9236    0.0105 C   0  0  0  0  0  0  0  0  0  0  0  0
    0.8889    3.2220   -0.3510 H   0  0  0  0  0  0  0  0  0  0  0  0
   -0.0906    3.2157    0.9550 H   0  0  0  0  0  0  0  0  0  0  0  0
   -0.7728    3.4024   -0.5751 H   0  0  0  0  0  0  0  0  0  0  0  0
    0.0040    1.4077   -0.0033 C   0  0  0  0  0  0  0  0  0  0  0  0
   -1.1941    0.6977    0.0042 C   0  0  0  0  0  0  0  0  0  0  0  0
   -2.0606    1.1796    0.0116 H   0  0  0  0  0  0  0  0  0  0  0  0
   -1.1925   -0.7052    0.0000 C   0  0  0  0  0  0  0  0  0  0  0  0
   -2.0741   -1.1915    0.0044 H   0  0  0  0  0  0  0  0  0  0  0  0
   -0.0015   -1.3917   -0.0082 C   0  0  0  0  0  0  0  0  0  0  0  0
   -0.0024   -2.3956   -0.0204 H   0  0  0  0  0  0  0  0  0  0  0  0
    1.1925   -0.7018   -0.0000 C   0  0  0  0  0  0  0  0  0  0  0  0
    2.0773   -1.1964    0.0021 H   0  0  0  0  0  0  0  0  0  0  0  0
    1.1915    0.6933    0.0072 C   0  0  0  0  0  0  0  0  0  0  0  0
    2.0656    1.1825    0.0196 H   0  0  0  0  0  0  0  0  0  0  0  0
  1  5  1  0
  5  6  1  0
  5  7  2  0
  1  2  1  0
  1  3  1  0
  1  4  1  0
  8 12  1  0
 12 13  2  0
 13 15  1  0
 15 17  2  0
 17 19  1  0
 19 21  2  0
 21 12  1  0
  8  9  1  0
  8 10  1  0
  8 11  1  0
 13 14  1  0
 15 16  1  0
 17 18  1  0
 19 20  1  0
 21 22  1  0
M  CHG  1   6  -1
M  END
>  <PDB_ID>  (1803) 
pdb4o95

>  <RESIDUE_NAME>  (1803) 
ASP   PHE

>  <FRAG_NAME>  (1803) 
ACET   MBZ

>  <FRAG_ATOM_NUM>  (1803) 
fragi: 7  fragj: 15

>  <atom.prop.CHAIN_ID>  (1803) 
A A A A A A A Z Z Z Z Z Z Z Z Z Z Z Z Z Z Z

>  <atom.prop.IS_HEAVY_ATOM>  (1803) 
1 0 0 0 1 1 1 1 0 0 0 1 1 0 1 0 1 0 1 0 1 0

>  <DIFUSE_FUNC_ATOM>  (1803) 
atom 6   atom 7   

>  <FINAL_SINGLE_POINT_ENERGY>  (1803) 
0

>  <NONCOV_INTER_ENERGY_QM>  (1803) 
0

>  <FF_Energy>  (1803) 
-0.21

>  <QM_Energy>  (1803) 
-8.18

>  <source>  (1803) 
ACET_MBZ_02

>  <Index>  (1803) 
527

$$$$
ACET-pdb4o59-P-ASP-312:MBZ-pdb4o59-P-PHE-315
     RDKit          3D

 22 21  0  0  0  0  0  0  0  0999 V2000
    1.4794    5.9816   -2.4111 C   0  0  0  0  0  0  0  0  0  0  0  0
    1.8510    5.7866   -3.3109 H   0  0  0  0  0  0  0  0  0  0  0  0
    2.0760    5.6260   -1.7018 H   0  0  0  0  0  0  0  0  0  0  0  0
    1.4152    7.0634   -2.2944 H   0  0  0  0  0  0  0  0  0  0  0  0
    0.1308    5.3235   -2.2890 C   0  0  0  0  0  0  0  0  0  0  0  0
   -0.7169    5.8655   -1.5570 O   0  0  0  0  0  1  0  0  0  0  0  0
   -0.0988    4.2747   -3.0261 O   0  0  0  0  0  0  0  0  0  0  0  0
    0.0629    2.8849   -0.0582 C   0  0  0  0  0  0  0  0  0  0  0  0
   -0.6519    3.1745   -0.6770 H   0  0  0  0  0  0  0  0  0  0  0  0
    0.9573    3.1330   -0.4024 H   0  0  0  0  0  0  0  0  0  0  0  0
   -0.0865    3.3958    0.8930 H   0  0  0  0  0  0  0  0  0  0  0  0
    0.0068    1.3878    0.0446 C   0  0  0  0  0  0  0  0  0  0  0  0
   -1.1902    0.7127    0.0231 C   0  0  0  0  0  0  0  0  0  0  0  0
   -2.0496    1.1994    0.0224 H   0  0  0  0  0  0  0  0  0  0  0  0
   -1.1853   -0.6763    0.0000 C   0  0  0  0  0  0  0  0  0  0  0  0
   -2.0773   -1.1649   -0.0022 H   0  0  0  0  0  0  0  0  0  0  0  0
   -0.0111   -1.3717   -0.0168 C   0  0  0  0  0  0  0  0  0  0  0  0
   -0.0285   -2.3815   -0.0422 H   0  0  0  0  0  0  0  0  0  0  0  0
    1.1853   -0.7094   -0.0000 C   0  0  0  0  0  0  0  0  0  0  0  0
    2.0605   -1.2216    0.0514 H   0  0  0  0  0  0  0  0  0  0  0  0
    1.1945    0.6569   -0.0509 C   0  0  0  0  0  0  0  0  0  0  0  0
    2.0597    1.1546   -0.1593 H   0  0  0  0  0  0  0  0  0  0  0  0
  1  5  1  0
  5  6  1  0
  5  7  2  0
  1  2  1  0
  1  3  1  0
  1  4  1  0
  8 12  1  0
 12 13  2  0
 13 15  1  0
 15 17  2  0
 17 19  1  0
 19 21  2  0
 21 12  1  0
  8  9  1  0
  8 10  1  0
  8 11  1  0
 13 14  1  0
 15 16  1  0
 17 18  1  0
 19 20  1  0
 21 22  1  0
M  CHG  1   6  -1
M  END
>  <PDB_ID>  (1804) 
pdb4o59

>  <RESIDUE_NAME>  (1804) 
ASP   PHE

>  <FRAG_NAME>  (1804) 
ACET   MBZ

>  <FRAG_ATOM_NUM>  (1804) 
fragi: 7  fragj: 15

>  <atom.prop.CHAIN_ID>  (1804) 
A A A A A A A Z Z Z Z Z Z Z Z Z Z Z Z Z Z Z

>  <atom.prop.IS_HEAVY_ATOM>  (1804) 
1 0 0 0 1 1 1 1 0 0 0 1 1 0 1 0 1 0 1 0 1 0

>  <DIFUSE_FUNC_ATOM>  (1804) 
atom 6   atom 7   

>  <FINAL_SINGLE_POINT_ENERGY>  (1804) 
0

>  <NONCOV_INTER_ENERGY_QM>  (1804) 
0

>  <FF_Energy>  (1804) 
-0.39

>  <QM_Energy>  (1804) 
-5.41

>  <source>  (1804) 
ACET_MBZ_02

>  <Index>  (1804) 
622

$$$$
ACET-pdb4oe4-B-ASP-161:MBZ-pdb4oe4-B-PHE-213
     RDKit          3D

 22 21  0  0  0  0  0  0  0  0999 V2000
    4.2494    1.2114    1.9822 C   0  0  0  0  0  0  0  0  0  0  0  0
    3.6623    0.4249    1.8147 H   0  0  0  0  0  0  0  0  0  0  0  0
    4.6589    1.1485    2.8864 H   0  0  0  0  0  0  0  0  0  0  0  0
    5.0520    1.1966    1.2449 H   0  0  0  0  0  0  0  0  0  0  0  0
    3.3949    2.4744    1.9246 C   0  0  0  0  0  0  0  0  0  0  0  0
    3.4635    3.2520    0.9510 O   0  0  0  0  0  1  0  0  0  0  0  0
    2.6299    2.6839    2.8846 O   0  0  0  0  0  0  0  0  0  0  0  0
    0.0048    2.8974    0.0115 C   0  0  0  0  0  0  0  0  0  0  0  0
   -0.7443    3.2104   -0.5488 H   0  0  0  0  0  0  0  0  0  0  0  0
    0.8755    3.2060   -0.3367 H   0  0  0  0  0  0  0  0  0  0  0  0
   -0.1245    3.3214    1.0073 H   0  0  0  0  0  0  0  0  0  0  0  0
    0.0020    1.3934   -0.0027 C   0  0  0  0  0  0  0  0  0  0  0  0
   -1.1932    0.6897   -0.0039 C   0  0  0  0  0  0  0  0  0  0  0  0
   -2.0588    1.1850   -0.0093 H   0  0  0  0  0  0  0  0  0  0  0  0
   -1.1989   -0.6894   -0.0000 C   0  0  0  0  0  0  0  0  0  0  0  0
   -2.0789   -1.1856    0.0033 H   0  0  0  0  0  0  0  0  0  0  0  0
   -0.0052   -1.3856    0.0015 C   0  0  0  0  0  0  0  0  0  0  0  0
   -0.0091   -2.3854    0.0028 H   0  0  0  0  0  0  0  0  0  0  0  0
    1.1989   -0.6939   -0.0000 C   0  0  0  0  0  0  0  0  0  0  0  0
    2.0769   -1.1996   -0.0036 H   0  0  0  0  0  0  0  0  0  0  0  0
    1.1964    0.6859    0.0051 C   0  0  0  0  0  0  0  0  0  0  0  0
    2.0638    1.1859    0.0138 H   0  0  0  0  0  0  0  0  0  0  0  0
  1  5  1  0
  5  6  1  0
  5  7  2  0
  1  2  1  0
  1  3  1  0
  1  4  1  0
  8 12  1  0
 12 13  2  0
 13 15  1  0
 15 17  2  0
 17 19  1  0
 19 21  2  0
 21 12  1  0
  8  9  1  0
  8 10  1  0
  8 11  1  0
 13 14  1  0
 15 16  1  0
 17 18  1  0
 19 20  1  0
 21 22  1  0
M  CHG  1   6  -1
M  END
>  <PDB_ID>  (1805) 
pdb4oe4

>  <RESIDUE_NAME>  (1805) 
ASP   PHE

>  <FRAG_NAME>  (1805) 
ACET   MBZ

>  <FRAG_ATOM_NUM>  (1805) 
fragi: 7  fragj: 15

>  <atom.prop.CHAIN_ID>  (1805) 
A A A A A A A Z Z Z Z Z Z Z Z Z Z Z Z Z Z Z

>  <atom.prop.IS_HEAVY_ATOM>  (1805) 
1 0 0 0 1 1 1 1 0 0 0 1 1 0 1 0 1 0 1 0 1 0

>  <DIFUSE_FUNC_ATOM>  (1805) 
atom 6   atom 7   

>  <FINAL_SINGLE_POINT_ENERGY>  (1805) 
0

>  <NONCOV_INTER_ENERGY_QM>  (1805) 
0

>  <FF_Energy>  (1805) 
-1.45

>  <QM_Energy>  (1805) 
-7.14

>  <source>  (1805) 
ACET_MBZ_02

>  <Index>  (1805) 
829

$$$$
ACET-pdb3qhq-A-GLU-178:MBZ-pdb3qhq-A-PHE-146
     RDKit          3D

 22 21  0  0  0  0  0  0  0  0999 V2000
   -0.2056    0.5467   -3.4573 C   0  0  0  0  0  0  0  0  0  0  0  0
    0.1401    0.1373   -2.6308 H   0  0  0  0  0  0  0  0  0  0  0  0
    0.1174    0.0800   -4.2625 H   0  0  0  0  0  0  0  0  0  0  0  0
   -1.2930    0.4731   -3.4385 H   0  0  0  0  0  0  0  0  0  0  0  0
    0.3057    1.9738   -3.5154 C   0  0  0  0  0  0  0  0  0  0  0  0
   -0.5026    2.9069   -3.7204 O   0  0  0  0  0  1  0  0  0  0  0  0
    1.5276    2.1604   -3.3527 O   0  0  0  0  0  0  0  0  0  0  0  0
    0.0176    2.9262   -0.0169 C   0  0  0  0  0  0  0  0  0  0  0  0
   -0.4396    3.2205   -0.8440 H   0  0  0  0  0  0  0  0  0  0  0  0
    0.9637    3.2169   -0.0078 H   0  0  0  0  0  0  0  0  0  0  0  0
   -0.4847    3.3966    0.8284 H   0  0  0  0  0  0  0  0  0  0  0  0
    0.0017    1.4077    0.0041 C   0  0  0  0  0  0  0  0  0  0  0  0
   -1.1993    0.6961   -0.0007 C   0  0  0  0  0  0  0  0  0  0  0  0
   -2.0643    1.1858   -0.0059 H   0  0  0  0  0  0  0  0  0  0  0  0
   -1.2053   -0.6998    0.0000 C   0  0  0  0  0  0  0  0  0  0  0  0
   -2.0813   -1.1914    0.0035 H   0  0  0  0  0  0  0  0  0  0  0  0
   -0.0016   -1.3995   -0.0026 C   0  0  0  0  0  0  0  0  0  0  0  0
   -0.0047   -2.3964   -0.0069 H   0  0  0  0  0  0  0  0  0  0  0  0
    1.2053   -0.7006   -0.0000 C   0  0  0  0  0  0  0  0  0  0  0  0
    2.0841   -1.1970    0.0036 H   0  0  0  0  0  0  0  0  0  0  0  0
    1.1992    0.6961   -0.0008 C   0  0  0  0  0  0  0  0  0  0  0  0
    2.0679    1.1903   -0.0053 H   0  0  0  0  0  0  0  0  0  0  0  0
  1  5  1  0
  5  6  1  0
  5  7  2  0
  1  2  1  0
  1  3  1  0
  1  4  1  0
  8 12  1  0
 12 13  2  0
 13 15  1  0
 15 17  2  0
 17 19  1  0
 19 21  2  0
 21 12  1  0
  8  9  1  0
  8 10  1  0
  8 11  1  0
 13 14  1  0
 15 16  1  0
 17 18  1  0
 19 20  1  0
 21 22  1  0
M  CHG  1   6  -1
M  END
>  <PDB_ID>  (1806) 
pdb3qhq

>  <RESIDUE_NAME>  (1806) 
GLU   PHE

>  <FRAG_NAME>  (1806) 
ACET   MBZ

>  <FRAG_ATOM_NUM>  (1806) 
fragi: 7  fragj: 15

>  <atom.prop.CHAIN_ID>  (1806) 
A A A A A A A Z Z Z Z Z Z Z Z Z Z Z Z Z Z Z

>  <atom.prop.IS_HEAVY_ATOM>  (1806) 
1 0 0 0 1 1 1 1 0 0 0 1 1 0 1 0 1 0 1 0 1 0

>  <DIFUSE_FUNC_ATOM>  (1806) 
atom 6   atom 7   

>  <FINAL_SINGLE_POINT_ENERGY>  (1806) 
0

>  <NONCOV_INTER_ENERGY_QM>  (1806) 
0

>  <FF_Energy>  (1806) 
-0.3

>  <QM_Energy>  (1806) 
-5.57

>  <source>  (1806) 
ACET_MBZ_02

>  <Index>  (1806) 
937

$$$$
ACET-pdb4oge-A-GLU-432:MBZ-pdb4oge-A-PHE-270
     RDKit          3D

 22 21  0  0  0  0  0  0  0  0999 V2000
   -0.1666   -0.1117    3.7237 C   0  0  0  0  0  0  0  0  0  0  0  0
   -0.1378   -0.7285    2.9552 H   0  0  0  0  0  0  0  0  0  0  0  0
   -0.4590   -0.5668    4.5476 H   0  0  0  0  0  0  0  0  0  0  0  0
    0.8429    0.2649    3.8886 H   0  0  0  0  0  0  0  0  0  0  0  0
   -1.2161    0.9711    3.4024 C   0  0  0  0  0  0  0  0  0  0  0  0
   -0.9115    2.1901    3.4300 O   0  0  0  0  0  1  0  0  0  0  0  0
   -2.3656    0.5848    3.1068 O   0  0  0  0  0  0  0  0  0  0  0  0
    0.0080    2.9074   -0.0174 C   0  0  0  0  0  0  0  0  0  0  0  0
    0.9462    3.2143    0.0241 H   0  0  0  0  0  0  0  0  0  0  0  0
   -0.5125    3.2273    0.7592 H   0  0  0  0  0  0  0  0  0  0  0  0
   -0.4386    3.3441   -0.9107 H   0  0  0  0  0  0  0  0  0  0  0  0
    0.0012    1.4071   -0.0050 C   0  0  0  0  0  0  0  0  0  0  0  0
   -1.2001    0.7014    0.0087 C   0  0  0  0  0  0  0  0  0  0  0  0
   -2.0645    1.1894    0.0234 H   0  0  0  0  0  0  0  0  0  0  0  0
   -1.2086   -0.6998    0.0000 C   0  0  0  0  0  0  0  0  0  0  0  0
   -2.0844   -1.1885   -0.0027 H   0  0  0  0  0  0  0  0  0  0  0  0
   -0.0015   -1.4043   -0.0027 C   0  0  0  0  0  0  0  0  0  0  0  0
   -0.0048   -2.3978   -0.0066 H   0  0  0  0  0  0  0  0  0  0  0  0
    1.2086   -0.6999    0.0000 C   0  0  0  0  0  0  0  0  0  0  0  0
    2.0865   -1.1970    0.0046 H   0  0  0  0  0  0  0  0  0  0  0  0
    1.2004    0.6954   -0.0010 C   0  0  0  0  0  0  0  0  0  0  0  0
    2.0680    1.1924    0.0001 H   0  0  0  0  0  0  0  0  0  0  0  0
  1  5  1  0
  5  6  1  0
  5  7  2  0
  1  2  1  0
  1  3  1  0
  1  4  1  0
  8 12  1  0
 12 13  2  0
 13 15  1  0
 15 17  2  0
 17 19  1  0
 19 21  2  0
 21 12  1  0
  8  9  1  0
  8 10  1  0
  8 11  1  0
 13 14  1  0
 15 16  1  0
 17 18  1  0
 19 20  1  0
 21 22  1  0
M  CHG  1   6  -1
M  END
>  <PDB_ID>  (1807) 
pdb4oge

>  <RESIDUE_NAME>  (1807) 
GLU   PHE

>  <FRAG_NAME>  (1807) 
ACET   MBZ

>  <FRAG_ATOM_NUM>  (1807) 
fragi: 7  fragj: 15

>  <atom.prop.CHAIN_ID>  (1807) 
A A A A A A A Z Z Z Z Z Z Z Z Z Z Z Z Z Z Z

>  <atom.prop.IS_HEAVY_ATOM>  (1807) 
1 0 0 0 1 1 1 1 0 0 0 1 1 0 1 0 1 0 1 0 1 0

>  <DIFUSE_FUNC_ATOM>  (1807) 
atom 6   atom 7   

>  <FINAL_SINGLE_POINT_ENERGY>  (1807) 
0

>  <NONCOV_INTER_ENERGY_QM>  (1807) 
0

>  <FF_Energy>  (1807) 
0.21

>  <QM_Energy>  (1807) 
-5.23

>  <source>  (1807) 
ACET_MBZ_02

>  <Index>  (1807) 
966

$$$$
ACET-pdb3qir-A-GLU-23:MBZ-pdb3qir-A-PHE-20
     RDKit          3D

 22 21  0  0  0  0  0  0  0  0999 V2000
   -3.1034    3.3200    2.7828 C   0  0  0  0  0  0  0  0  0  0  0  0
   -2.1643    3.6477    2.8779 H   0  0  0  0  0  0  0  0  0  0  0  0
   -3.1190    2.3240    2.8651 H   0  0  0  0  0  0  0  0  0  0  0  0
   -3.6828    3.7315    3.6093 H   0  0  0  0  0  0  0  0  0  0  0  0
   -3.5737    3.6712    1.4050 C   0  0  0  0  0  0  0  0  0  0  0  0
   -4.5439    4.3755    1.1716 O   0  0  0  0  0  1  0  0  0  0  0  0
   -2.8656    3.1506    0.5163 O   0  0  0  0  0  0  0  0  0  0  0  0
    0.0068    2.9094   -0.0126 C   0  0  0  0  0  0  0  0  0  0  0  0
   -0.5729    3.2072   -0.7594 H   0  0  0  0  0  0  0  0  0  0  0  0
    0.9411    3.2102   -0.1489 H   0  0  0  0  0  0  0  0  0  0  0  0
   -0.3616    3.3795    0.8991 H   0  0  0  0  0  0  0  0  0  0  0  0
    0.0021    1.4014    0.0074 C   0  0  0  0  0  0  0  0  0  0  0  0
   -1.1919    0.6882   -0.0052 C   0  0  0  0  0  0  0  0  0  0  0  0
   -2.0603    1.1739   -0.0193 H   0  0  0  0  0  0  0  0  0  0  0  0
   -1.1895   -0.7039   -0.0000 C   0  0  0  0  0  0  0  0  0  0  0  0
   -2.0695   -1.1955    0.0130 H   0  0  0  0  0  0  0  0  0  0  0  0
    0.0007   -1.3848   -0.0105 C   0  0  0  0  0  0  0  0  0  0  0  0
    0.0007   -2.3909   -0.0261 H   0  0  0  0  0  0  0  0  0  0  0  0
    1.1895   -0.6957   -0.0000 C   0  0  0  0  0  0  0  0  0  0  0  0
    2.0767   -1.1910    0.0031 H   0  0  0  0  0  0  0  0  0  0  0  0
    1.1891    0.6948    0.0083 C   0  0  0  0  0  0  0  0  0  0  0  0
    2.0616    1.1856    0.0137 H   0  0  0  0  0  0  0  0  0  0  0  0
  1  5  1  0
  5  6  1  0
  5  7  2  0
  1  2  1  0
  1  3  1  0
  1  4  1  0
  8 12  1  0
 12 13  2  0
 13 15  1  0
 15 17  2  0
 17 19  1  0
 19 21  2  0
 21 12  1  0
  8  9  1  0
  8 10  1  0
  8 11  1  0
 13 14  1  0
 15 16  1  0
 17 18  1  0
 19 20  1  0
 21 22  1  0
M  CHG  1   6  -1
M  END
>  <PDB_ID>  (1808) 
pdb3qir

>  <RESIDUE_NAME>  (1808) 
GLU   PHE

>  <FRAG_NAME>  (1808) 
ACET   MBZ

>  <FRAG_ATOM_NUM>  (1808) 
fragi: 7  fragj: 15

>  <atom.prop.CHAIN_ID>  (1808) 
A A A A A A A Z Z Z Z Z Z Z Z Z Z Z Z Z Z Z

>  <atom.prop.IS_HEAVY_ATOM>  (1808) 
1 0 0 0 1 1 1 1 0 0 0 1 1 0 1 0 1 0 1 0 1 0

>  <DIFUSE_FUNC_ATOM>  (1808) 
atom 6   atom 7   

>  <FINAL_SINGLE_POINT_ENERGY>  (1808) 
0

>  <NONCOV_INTER_ENERGY_QM>  (1808) 
0

>  <FF_Energy>  (1808) 
1.12

>  <QM_Energy>  (1808) 
-7.05

>  <source>  (1808) 
ACET_MBZ_02

>  <Index>  (1808) 
985

$$$$
ACET-pdb3qj3-B-ASP-65:MBZ-pdb3qj3-B-PHE-14
     RDKit          3D

 22 21  0  0  0  0  0  0  0  0999 V2000
    2.8237   -2.7157   -2.5135 C   0  0  0  0  0  0  0  0  0  0  0  0
    3.7102   -2.5710   -2.9352 H   0  0  0  0  0  0  0  0  0  0  0  0
    2.2994   -1.8737   -2.5013 H   0  0  0  0  0  0  0  0  0  0  0  0
    2.2788   -3.4467   -3.1107 H   0  0  0  0  0  0  0  0  0  0  0  0
    3.0473   -3.1677   -1.0625 C   0  0  0  0  0  0  0  0  0  0  0  0
    2.3530   -4.0834   -0.5552 O   0  0  0  0  0  1  0  0  0  0  0  0
    3.9496   -2.5916   -0.4297 O   0  0  0  0  0  0  0  0  0  0  0  0
   -0.0027    2.8936    0.0271 C   0  0  0  0  0  0  0  0  0  0  0  0
   -0.7958    3.2107   -0.4674 H   0  0  0  0  0  0  0  0  0  0  0  0
    0.8356    3.2115   -0.3860 H   0  0  0  0  0  0  0  0  0  0  0  0
   -0.0530    3.3079    1.0340 H   0  0  0  0  0  0  0  0  0  0  0  0
   -0.0007    1.3972    0.0022 C   0  0  0  0  0  0  0  0  0  0  0  0
   -1.2000    0.6897    0.0069 C   0  0  0  0  0  0  0  0  0  0  0  0
   -2.0642    1.1807    0.0143 H   0  0  0  0  0  0  0  0  0  0  0  0
   -1.1994   -0.6960   -0.0000 C   0  0  0  0  0  0  0  0  0  0  0  0
   -2.0737   -1.1951    0.0041 H   0  0  0  0  0  0  0  0  0  0  0  0
    0.0039   -1.3872   -0.0105 C   0  0  0  0  0  0  0  0  0  0  0  0
    0.0001   -2.3880   -0.0262 H   0  0  0  0  0  0  0  0  0  0  0  0
    1.1994   -0.6932    0.0000 C   0  0  0  0  0  0  0  0  0  0  0  0
    2.0825   -1.1934    0.0078 H   0  0  0  0  0  0  0  0  0  0  0  0
    1.1968    0.6895    0.0014 C   0  0  0  0  0  0  0  0  0  0  0  0
    2.0634    1.1889    0.0011 H   0  0  0  0  0  0  0  0  0  0  0  0
  1  5  1  0
  5  6  1  0
  5  7  2  0
  1  2  1  0
  1  3  1  0
  1  4  1  0
  8 12  1  0
 12 13  2  0
 13 15  1  0
 15 17  2  0
 17 19  1  0
 19 21  2  0
 21 12  1  0
  8  9  1  0
  8 10  1  0
  8 11  1  0
 13 14  1  0
 15 16  1  0
 17 18  1  0
 19 20  1  0
 21 22  1  0
M  CHG  1   6  -1
M  END
>  <PDB_ID>  (1809) 
pdb3qj3

>  <RESIDUE_NAME>  (1809) 
ASP   PHE

>  <FRAG_NAME>  (1809) 
ACET   MBZ

>  <FRAG_ATOM_NUM>  (1809) 
fragi: 7  fragj: 15

>  <atom.prop.CHAIN_ID>  (1809) 
A A A A A A A Z Z Z Z Z Z Z Z Z Z Z Z Z Z Z

>  <atom.prop.IS_HEAVY_ATOM>  (1809) 
1 0 0 0 1 1 1 1 0 0 0 1 1 0 1 0 1 0 1 0 1 0

>  <DIFUSE_FUNC_ATOM>  (1809) 
atom 6   atom 7   

>  <FINAL_SINGLE_POINT_ENERGY>  (1809) 
0

>  <NONCOV_INTER_ENERGY_QM>  (1809) 
0

>  <FF_Energy>  (1809) 
-1.63

>  <QM_Energy>  (1809) 
-6.79

>  <source>  (1809) 
ACET_MBZ_02

>  <Index>  (1809) 
1005

$$$$
ACET-pdb3qky-A-GLU-191:MBZ-pdb3qky-A-PHE-194
     RDKit          3D

 22 21  0  0  0  0  0  0  0  0999 V2000
    0.5292   -3.5992    2.0695 C   0  0  0  0  0  0  0  0  0  0  0  0
    0.3706   -3.0742    1.2578 H   0  0  0  0  0  0  0  0  0  0  0  0
    1.4176   -4.0136    2.0867 H   0  0  0  0  0  0  0  0  0  0  0  0
    0.4393   -2.9370    2.9306 H   0  0  0  0  0  0  0  0  0  0  0  0
   -0.5002   -4.7251    2.0943 C   0  0  0  0  0  0  0  0  0  0  0  0
   -0.1445   -5.8474    2.5198 O   0  0  0  0  0  1  0  0  0  0  0  0
   -1.6651   -4.4783    1.6978 O   0  0  0  0  0  0  0  0  0  0  0  0
    0.0000    2.8745   -0.0052 C   0  0  0  0  0  0  0  0  0  0  0  0
   -0.7331    3.1883   -0.5941 H   0  0  0  0  0  0  0  0  0  0  0  0
    0.8798    3.1883   -0.3364 H   0  0  0  0  0  0  0  0  0  0  0  0
   -0.1573    3.3200    0.9771 H   0  0  0  0  0  0  0  0  0  0  0  0
   -0.0003    1.3922    0.0005 C   0  0  0  0  0  0  0  0  0  0  0  0
   -1.1935    0.6906   -0.0044 C   0  0  0  0  0  0  0  0  0  0  0  0
   -2.0605    1.1827   -0.0126 H   0  0  0  0  0  0  0  0  0  0  0  0
   -1.1986   -0.6944    0.0000 C   0  0  0  0  0  0  0  0  0  0  0  0
   -2.0755   -1.1898    0.0035 H   0  0  0  0  0  0  0  0  0  0  0  0
   -0.0001   -1.3850    0.0011 C   0  0  0  0  0  0  0  0  0  0  0  0
   -0.0032   -2.3874    0.0024 H   0  0  0  0  0  0  0  0  0  0  0  0
    1.1986   -0.6928    0.0000 C   0  0  0  0  0  0  0  0  0  0  0  0
    2.0791   -1.1932   -0.0019 H   0  0  0  0  0  0  0  0  0  0  0  0
    1.1939    0.6894    0.0028 C   0  0  0  0  0  0  0  0  0  0  0  0
    2.0616    1.1890    0.0059 H   0  0  0  0  0  0  0  0  0  0  0  0
  1  5  1  0
  5  6  1  0
  5  7  2  0
  1  2  1  0
  1  3  1  0
  1  4  1  0
  8 12  1  0
 12 13  2  0
 13 15  1  0
 15 17  2  0
 17 19  1  0
 19 21  2  0
 21 12  1  0
  8  9  1  0
  8 10  1  0
  8 11  1  0
 13 14  1  0
 15 16  1  0
 17 18  1  0
 19 20  1  0
 21 22  1  0
M  CHG  1   6  -1
M  END
>  <PDB_ID>  (1810) 
pdb3qky

>  <RESIDUE_NAME>  (1810) 
GLU   PHE

>  <FRAG_NAME>  (1810) 
ACET   MBZ

>  <FRAG_ATOM_NUM>  (1810) 
fragi: 7  fragj: 15

>  <atom.prop.CHAIN_ID>  (1810) 
A A A A A A A Z Z Z Z Z Z Z Z Z Z Z Z Z Z Z

>  <atom.prop.IS_HEAVY_ATOM>  (1810) 
1 0 0 0 1 1 1 1 0 0 0 1 1 0 1 0 1 0 1 0 1 0

>  <DIFUSE_FUNC_ATOM>  (1810) 
atom 6   atom 7   

>  <FINAL_SINGLE_POINT_ENERGY>  (1810) 
0

>  <NONCOV_INTER_ENERGY_QM>  (1810) 
0

>  <FF_Energy>  (1810) 
42.45

>  <QM_Energy>  (1810) 
4.64

>  <source>  (1810) 
ACET_MBZ_02

>  <Index>  (1810) 
1091

$$$$
ACET-pdb4oif-B-ASP-260:MBZ-pdb4oif-B-PHE-267
     RDKit          3D

 22 21  0  0  0  0  0  0  0  0999 V2000
   -5.1732    3.1186    1.8186 C   0  0  0  0  0  0  0  0  0  0  0  0
   -4.6888    3.8881    2.2110 H   0  0  0  0  0  0  0  0  0  0  0  0
   -5.9954    2.9161    2.3312 H   0  0  0  0  0  0  0  0  0  0  0  0
   -5.4614    3.3801    0.8005 H   0  0  0  0  0  0  0  0  0  0  0  0
   -4.2617    1.8989    1.8575 C   0  0  0  0  0  0  0  0  0  0  0  0
   -4.2138    1.1813    0.8337 O   0  0  0  0  0  1  0  0  0  0  0  0
   -3.6105    1.6463    2.8937 O   0  0  0  0  0  0  0  0  0  0  0  0
   -0.0026    2.8985   -0.0132 C   0  0  0  0  0  0  0  0  0  0  0  0
   -0.3993    3.1941   -0.8707 H   0  0  0  0  0  0  0  0  0  0  0  0
    0.9346    3.2059    0.0716 H   0  0  0  0  0  0  0  0  0  0  0  0
   -0.5768    3.3525    0.7944 H   0  0  0  0  0  0  0  0  0  0  0  0
   -0.0015    1.3961    0.0039 C   0  0  0  0  0  0  0  0  0  0  0  0
   -1.1909    0.6894   -0.0048 C   0  0  0  0  0  0  0  0  0  0  0  0
   -2.0601    1.1834   -0.0161 H   0  0  0  0  0  0  0  0  0  0  0  0
   -1.1954   -0.6883    0.0000 C   0  0  0  0  0  0  0  0  0  0  0  0
   -2.0735   -1.1863    0.0039 H   0  0  0  0  0  0  0  0  0  0  0  0
    0.0016   -1.3879    0.0017 C   0  0  0  0  0  0  0  0  0  0  0  0
   -0.0078   -2.3878    0.0035 H   0  0  0  0  0  0  0  0  0  0  0  0
    1.1954   -0.6982   -0.0000 C   0  0  0  0  0  0  0  0  0  0  0  0
    2.0792   -1.1950    0.0004 H   0  0  0  0  0  0  0  0  0  0  0  0
    1.1909    0.6890   -0.0009 C   0  0  0  0  0  0  0  0  0  0  0  0
    2.0608    1.1856   -0.0054 H   0  0  0  0  0  0  0  0  0  0  0  0
  1  5  1  0
  5  6  1  0
  5  7  2  0
  1  2  1  0
  1  3  1  0
  1  4  1  0
  8 12  1  0
 12 13  2  0
 13 15  1  0
 15 17  2  0
 17 19  1  0
 19 21  2  0
 21 12  1  0
  8  9  1  0
  8 10  1  0
  8 11  1  0
 13 14  1  0
 15 16  1  0
 17 18  1  0
 19 20  1  0
 21 22  1  0
M  CHG  1   6  -1
M  END
>  <PDB_ID>  (1811) 
pdb4oif

>  <RESIDUE_NAME>  (1811) 
ASP   PHE

>  <FRAG_NAME>  (1811) 
ACET   MBZ

>  <FRAG_ATOM_NUM>  (1811) 
fragi: 7  fragj: 15

>  <atom.prop.CHAIN_ID>  (1811) 
A A A A A A A Z Z Z Z Z Z Z Z Z Z Z Z Z Z Z

>  <atom.prop.IS_HEAVY_ATOM>  (1811) 
1 0 0 0 1 1 1 1 0 0 0 1 1 0 1 0 1 0 1 0 1 0

>  <DIFUSE_FUNC_ATOM>  (1811) 
atom 6   atom 7   

>  <FINAL_SINGLE_POINT_ENERGY>  (1811) 
0

>  <NONCOV_INTER_ENERGY_QM>  (1811) 
0

>  <FF_Energy>  (1811) 
-0.99

>  <QM_Energy>  (1811) 
-6.03

>  <source>  (1811) 
ACET_MBZ_02

>  <Index>  (1811) 
1177

$$$$
ACET-pdb3qml-C-GLU-175:MBZ-pdb3qml-C-PHE-130
     RDKit          3D

 22 21  0  0  0  0  0  0  0  0999 V2000
   -0.0504    0.2666    3.2287 C   0  0  0  0  0  0  0  0  0  0  0  0
    0.5315   -0.1978    3.8670 H   0  0  0  0  0  0  0  0  0  0  0  0
    0.0298   -0.0870    2.3179 H   0  0  0  0  0  0  0  0  0  0  0  0
   -1.0834    0.1477    3.5556 H   0  0  0  0  0  0  0  0  0  0  0  0
    0.3634    1.7160    3.1976 C   0  0  0  0  0  0  0  0  0  0  0  0
    1.4698    1.9947    2.6997 O   0  0  0  0  0  1  0  0  0  0  0  0
   -0.4203    2.5745    3.6662 O   0  0  0  0  0  0  0  0  0  0  0  0
   -0.0005    2.8965   -0.0144 C   0  0  0  0  0  0  0  0  0  0  0  0
    0.8653    3.2096    0.3407 H   0  0  0  0  0  0  0  0  0  0  0  0
   -0.7564    3.2115    0.5356 H   0  0  0  0  0  0  0  0  0  0  0  0
   -0.1201    3.3158   -1.0134 H   0  0  0  0  0  0  0  0  0  0  0  0
   -0.0005    1.3961    0.0046 C   0  0  0  0  0  0  0  0  0  0  0  0
   -1.1921    0.6917   -0.0033 C   0  0  0  0  0  0  0  0  0  0  0  0
   -2.0595    1.1840   -0.0131 H   0  0  0  0  0  0  0  0  0  0  0  0
   -1.1967   -0.6914   -0.0000 C   0  0  0  0  0  0  0  0  0  0  0  0
   -2.0749   -1.1877    0.0030 H   0  0  0  0  0  0  0  0  0  0  0  0
   -0.0001   -1.3878    0.0009 C   0  0  0  0  0  0  0  0  0  0  0  0
   -0.0062   -2.3883    0.0017 H   0  0  0  0  0  0  0  0  0  0  0  0
    1.1967   -0.6955    0.0000 C   0  0  0  0  0  0  0  0  0  0  0  0
    2.0783   -1.1961    0.0024 H   0  0  0  0  0  0  0  0  0  0  0  0
    1.1928    0.6869   -0.0022 C   0  0  0  0  0  0  0  0  0  0  0  0
    2.0626    1.1860   -0.0091 H   0  0  0  0  0  0  0  0  0  0  0  0
  1  5  1  0
  5  6  1  0
  5  7  2  0
  1  2  1  0
  1  3  1  0
  1  4  1  0
  8 12  1  0
 12 13  2  0
 13 15  1  0
 15 17  2  0
 17 19  1  0
 19 21  2  0
 21 12  1  0
  8  9  1  0
  8 10  1  0
  8 11  1  0
 13 14  1  0
 15 16  1  0
 17 18  1  0
 19 20  1  0
 21 22  1  0
M  CHG  1   6  -1
M  END
>  <PDB_ID>  (1812) 
pdb3qml

>  <RESIDUE_NAME>  (1812) 
GLU   PHE

>  <FRAG_NAME>  (1812) 
ACET   MBZ

>  <FRAG_ATOM_NUM>  (1812) 
fragi: 7  fragj: 15

>  <atom.prop.CHAIN_ID>  (1812) 
A A A A A A A Z Z Z Z Z Z Z Z Z Z Z Z Z Z Z

>  <atom.prop.IS_HEAVY_ATOM>  (1812) 
1 0 0 0 1 1 1 1 0 0 0 1 1 0 1 0 1 0 1 0 1 0

>  <DIFUSE_FUNC_ATOM>  (1812) 
atom 6   atom 7   

>  <FINAL_SINGLE_POINT_ENERGY>  (1812) 
0

>  <NONCOV_INTER_ENERGY_QM>  (1812) 
0

>  <FF_Energy>  (1812) 
3.93

>  <QM_Energy>  (1812) 
-4.96

>  <source>  (1812) 
ACET_MBZ_02

>  <Index>  (1812) 
1234

$$$$
ACET-pdb4om9-A-ASP-878:MBZ-pdb4om9-A-PHE-915
     RDKit          3D

 22 21  0  0  0  0  0  0  0  0999 V2000
    1.3745    4.3091   -2.8913 C   0  0  0  0  0  0  0  0  0  0  0  0
    0.5271    4.7991   -2.7338 H   0  0  0  0  0  0  0  0  0  0  0  0
    1.2156    3.3320   -2.9289 H   0  0  0  0  0  0  0  0  0  0  0  0
    1.7929    4.6322   -3.8445 H   0  0  0  0  0  0  0  0  0  0  0  0
    2.3158    4.5955   -1.7161 C   0  0  0  0  0  0  0  0  0  0  0  0
    2.3783    5.7471   -1.2478 O   0  0  0  0  0  1  0  0  0  0  0  0
    2.9943    3.6645   -1.2516 O   0  0  0  0  0  0  0  0  0  0  0  0
   -0.0007    2.8991   -0.0033 C   0  0  0  0  0  0  0  0  0  0  0  0
   -0.5965    3.2013   -0.7329 H   0  0  0  0  0  0  0  0  0  0  0  0
    0.9282    3.2049   -0.1495 H   0  0  0  0  0  0  0  0  0  0  0  0
   -0.3567    3.3455    0.9252 H   0  0  0  0  0  0  0  0  0  0  0  0
    0.0005    1.3959    0.0029 C   0  0  0  0  0  0  0  0  0  0  0  0
   -1.1927    0.6880   -0.0023 C   0  0  0  0  0  0  0  0  0  0  0  0
   -2.0600    1.1801   -0.0090 H   0  0  0  0  0  0  0  0  0  0  0  0
   -1.1964   -0.6957    0.0000 C   0  0  0  0  0  0  0  0  0  0  0  0
   -2.0736   -1.1916    0.0022 H   0  0  0  0  0  0  0  0  0  0  0  0
    0.0004   -1.3861    0.0007 C   0  0  0  0  0  0  0  0  0  0  0  0
   -0.0016   -2.3876    0.0008 H   0  0  0  0  0  0  0  0  0  0  0  0
    1.1964   -0.6921   -0.0000 C   0  0  0  0  0  0  0  0  0  0  0  0
    2.0791   -1.1919    0.0019 H   0  0  0  0  0  0  0  0  0  0  0  0
    1.1918    0.6900   -0.0013 C   0  0  0  0  0  0  0  0  0  0  0  0
    2.0613    1.1885   -0.0067 H   0  0  0  0  0  0  0  0  0  0  0  0
  1  5  1  0
  5  6  1  0
  5  7  2  0
  1  2  1  0
  1  3  1  0
  1  4  1  0
  8 12  1  0
 12 13  2  0
 13 15  1  0
 15 17  2  0
 17 19  1  0
 19 21  2  0
 21 12  1  0
  8  9  1  0
  8 10  1  0
  8 11  1  0
 13 14  1  0
 15 16  1  0
 17 18  1  0
 19 20  1  0
 21 22  1  0
M  CHG  1   6  -1
M  END
>  <PDB_ID>  (1813) 
pdb4om9

>  <RESIDUE_NAME>  (1813) 
ASP   PHE

>  <FRAG_NAME>  (1813) 
ACET   MBZ

>  <FRAG_ATOM_NUM>  (1813) 
fragi: 7  fragj: 15

>  <atom.prop.CHAIN_ID>  (1813) 
A A A A A A A Z Z Z Z Z Z Z Z Z Z Z Z Z Z Z

>  <atom.prop.IS_HEAVY_ATOM>  (1813) 
1 0 0 0 1 1 1 1 0 0 0 1 1 0 1 0 1 0 1 0 1 0

>  <DIFUSE_FUNC_ATOM>  (1813) 
atom 6   atom 7   

>  <FINAL_SINGLE_POINT_ENERGY>  (1813) 
0

>  <NONCOV_INTER_ENERGY_QM>  (1813) 
0

>  <FF_Energy>  (1813) 
-0.93

>  <QM_Energy>  (1813) 
-6.95

>  <source>  (1813) 
ACET_MBZ_02

>  <Index>  (1813) 
1409

$$$$
ACET-pdb4omc-C-GLU-112:MBZ-pdb4omc-C-PHE-118
     RDKit          3D

 22 21  0  0  0  0  0  0  0  0999 V2000
    3.8688   -1.5572   -2.5306 C   0  0  0  0  0  0  0  0  0  0  0  0
    4.7121   -1.7264   -2.9893 H   0  0  0  0  0  0  0  0  0  0  0  0
    3.6407   -0.6121   -2.4622 H   0  0  0  0  0  0  0  0  0  0  0  0
    3.0724   -2.0695   -3.0704 H   0  0  0  0  0  0  0  0  0  0  0  0
    4.0099   -2.0970   -1.1007 C   0  0  0  0  0  0  0  0  0  0  0  0
    4.3306   -1.3231   -0.1767 O   0  0  0  0  0  1  0  0  0  0  0  0
    3.8014   -3.3094   -0.9000 O   0  0  0  0  0  0  0  0  0  0  0  0
   -0.0043    2.8935    0.0998 C   0  0  0  0  0  0  0  0  0  0  0  0
   -0.5830    3.2506   -0.6135 H   0  0  0  0  0  0  0  0  0  0  0  0
    0.9246    3.2139    0.0154 H   0  0  0  0  0  0  0  0  0  0  0  0
   -0.3939    3.2505    1.0531 H   0  0  0  0  0  0  0  0  0  0  0  0
    0.0012    1.4046    0.0004 C   0  0  0  0  0  0  0  0  0  0  0  0
   -1.2023    0.6945   -0.0009 C   0  0  0  0  0  0  0  0  0  0  0  0
   -2.0664    1.1846   -0.0040 H   0  0  0  0  0  0  0  0  0  0  0  0
   -1.2073   -0.7017   -0.0000 C   0  0  0  0  0  0  0  0  0  0  0  0
   -2.0807   -1.1949   -0.0004 H   0  0  0  0  0  0  0  0  0  0  0  0
    0.0009   -1.3973    0.0032 C   0  0  0  0  0  0  0  0  0  0  0  0
   -0.0015   -2.3954    0.0072 H   0  0  0  0  0  0  0  0  0  0  0  0
    1.2073   -0.6982   -0.0000 C   0  0  0  0  0  0  0  0  0  0  0  0
    2.0860   -1.1939    0.0012 H   0  0  0  0  0  0  0  0  0  0  0  0
    1.2002    0.6982   -0.0026 C   0  0  0  0  0  0  0  0  0  0  0  0
    2.0674    1.1944   -0.0074 H   0  0  0  0  0  0  0  0  0  0  0  0
  1  5  1  0
  5  6  1  0
  5  7  2  0
  1  2  1  0
  1  3  1  0
  1  4  1  0
  8 12  1  0
 12 13  2  0
 13 15  1  0
 15 17  2  0
 17 19  1  0
 19 21  2  0
 21 12  1  0
  8  9  1  0
  8 10  1  0
  8 11  1  0
 13 14  1  0
 15 16  1  0
 17 18  1  0
 19 20  1  0
 21 22  1  0
M  CHG  1   6  -1
M  END
>  <PDB_ID>  (1814) 
pdb4omc

>  <RESIDUE_NAME>  (1814) 
GLU   PHE

>  <FRAG_NAME>  (1814) 
ACET   MBZ

>  <FRAG_ATOM_NUM>  (1814) 
fragi: 7  fragj: 15

>  <atom.prop.CHAIN_ID>  (1814) 
A A A A A A A Z Z Z Z Z Z Z Z Z Z Z Z Z Z Z

>  <atom.prop.IS_HEAVY_ATOM>  (1814) 
1 0 0 0 1 1 1 1 0 0 0 1 1 0 1 0 1 0 1 0 1 0

>  <DIFUSE_FUNC_ATOM>  (1814) 
atom 6   atom 7   

>  <FINAL_SINGLE_POINT_ENERGY>  (1814) 
0

>  <NONCOV_INTER_ENERGY_QM>  (1814) 
0

>  <FF_Energy>  (1814) 
-0.08

>  <QM_Energy>  (1814) 
-6.16

>  <source>  (1814) 
ACET_MBZ_02

>  <Index>  (1814) 
1441

$$$$
ACET-pdb4onq-A-GLU-317:MBZ-pdb4onq-A-PHE-266
     RDKit          3D

 22 21  0  0  0  0  0  0  0  0999 V2000
    3.0249    0.4532   -3.4745 C   0  0  0  0  0  0  0  0  0  0  0  0
    3.4701    0.8445   -4.2612 H   0  0  0  0  0  0  0  0  0  0  0  0
    2.0458    0.5530   -3.5183 H   0  0  0  0  0  0  0  0  0  0  0  0
    3.2611   -0.6104   -3.4412 H   0  0  0  0  0  0  0  0  0  0  0  0
    3.5055    1.2207   -2.2505 C   0  0  0  0  0  0  0  0  0  0  0  0
    4.4161    0.7332   -1.5425 O   0  0  0  0  0  1  0  0  0  0  0  0
    2.9628    2.3194   -1.9967 O   0  0  0  0  0  0  0  0  0  0  0  0
   -0.0094    2.8408   -0.0090 C   0  0  0  0  0  0  0  0  0  0  0  0
    0.9286    3.1609    0.0589 H   0  0  0  0  0  0  0  0  0  0  0  0
   -0.5438    3.1573    0.7661 H   0  0  0  0  0  0  0  0  0  0  0  0
   -0.4448    3.2670   -0.9128 H   0  0  0  0  0  0  0  0  0  0  0  0
   -0.0013    1.3706    0.0006 C   0  0  0  0  0  0  0  0  0  0  0  0
   -1.1706    0.6791   -0.0018 C   0  0  0  0  0  0  0  0  0  0  0  0
   -2.0468    1.1739   -0.0061 H   0  0  0  0  0  0  0  0  0  0  0  0
   -1.1798   -0.6846    0.0000 C   0  0  0  0  0  0  0  0  0  0  0  0
   -2.0621   -1.1818    0.0060 H   0  0  0  0  0  0  0  0  0  0  0  0
    0.0017   -1.3665   -0.0041 C   0  0  0  0  0  0  0  0  0  0  0  0
   -0.0006   -2.3738   -0.0109 H   0  0  0  0  0  0  0  0  0  0  0  0
    1.1798   -0.6814   -0.0000 C   0  0  0  0  0  0  0  0  0  0  0  0
    2.0686   -1.1806    0.0006 H   0  0  0  0  0  0  0  0  0  0  0  0
    1.1702    0.6828    0.0054 C   0  0  0  0  0  0  0  0  0  0  0  0
    2.0464    1.1850    0.0117 H   0  0  0  0  0  0  0  0  0  0  0  0
  1  5  1  0
  5  6  1  0
  5  7  2  0
  1  2  1  0
  1  3  1  0
  1  4  1  0
  8 12  1  0
 12 13  2  0
 13 15  1  0
 15 17  2  0
 17 19  1  0
 19 21  2  0
 21 12  1  0
  8  9  1  0
  8 10  1  0
  8 11  1  0
 13 14  1  0
 15 16  1  0
 17 18  1  0
 19 20  1  0
 21 22  1  0
M  CHG  1   6  -1
M  END
>  <PDB_ID>  (1815) 
pdb4onq

>  <RESIDUE_NAME>  (1815) 
GLU   PHE

>  <FRAG_NAME>  (1815) 
ACET   MBZ

>  <FRAG_ATOM_NUM>  (1815) 
fragi: 7  fragj: 15

>  <atom.prop.CHAIN_ID>  (1815) 
A A A A A A A Z Z Z Z Z Z Z Z Z Z Z Z Z Z Z

>  <atom.prop.IS_HEAVY_ATOM>  (1815) 
1 0 0 0 1 1 1 1 0 0 0 1 1 0 1 0 1 0 1 0 1 0

>  <DIFUSE_FUNC_ATOM>  (1815) 
atom 6   atom 7   

>  <FINAL_SINGLE_POINT_ENERGY>  (1815) 
0

>  <NONCOV_INTER_ENERGY_QM>  (1815) 
0

>  <FF_Energy>  (1815) 
-1.66

>  <QM_Energy>  (1815) 
-7.42

>  <source>  (1815) 
ACET_MBZ_02

>  <Index>  (1815) 
1502

$$$$
ACET-pdb4oou-B-ASP-95:MBZ-pdb4oou-B-PHE-99
     RDKit          3D

 22 21  0  0  0  0  0  0  0  0999 V2000
   -3.3344    6.3946   -1.7967 C   0  0  0  0  0  0  0  0  0  0  0  0
   -3.9871    6.3767   -2.5461 H   0  0  0  0  0  0  0  0  0  0  0  0
   -2.5341    6.9284   -2.0472 H   0  0  0  0  0  0  0  0  0  0  0  0
   -3.8122    6.8855   -0.9489 H   0  0  0  0  0  0  0  0  0  0  0  0
   -2.9015    4.9751   -1.4906 C   0  0  0  0  0  0  0  0  0  0  0  0
   -3.5776    4.2340   -0.7395 O   0  0  0  0  0  1  0  0  0  0  0  0
   -1.8791    4.5938   -2.0504 O   0  0  0  0  0  0  0  0  0  0  0  0
    0.0027    2.9127    0.0462 C   0  0  0  0  0  0  0  0  0  0  0  0
   -0.6764    3.2364   -0.5939 H   0  0  0  0  0  0  0  0  0  0  0  0
    0.9076    3.2242   -0.1996 H   0  0  0  0  0  0  0  0  0  0  0  0
   -0.2373    3.3317    1.0234 H   0  0  0  0  0  0  0  0  0  0  0  0
    0.0006    1.4053    0.0064 C   0  0  0  0  0  0  0  0  0  0  0  0
   -1.1953    0.6964    0.0008 C   0  0  0  0  0  0  0  0  0  0  0  0
   -2.0625    1.1857   -0.0042 H   0  0  0  0  0  0  0  0  0  0  0  0
   -1.1998   -0.6959   -0.0000 C   0  0  0  0  0  0  0  0  0  0  0  0
   -2.0769   -1.1897    0.0098 H   0  0  0  0  0  0  0  0  0  0  0  0
    0.0027   -1.3961   -0.0125 C   0  0  0  0  0  0  0  0  0  0  0  0
   -0.0049   -2.3941   -0.0308 H   0  0  0  0  0  0  0  0  0  0  0  0
    1.1998   -0.7011    0.0000 C   0  0  0  0  0  0  0  0  0  0  0  0
    2.0826   -1.1954    0.0067 H   0  0  0  0  0  0  0  0  0  0  0  0
    1.1919    0.6914    0.0052 C   0  0  0  0  0  0  0  0  0  0  0  0
    2.0648    1.1866    0.0074 H   0  0  0  0  0  0  0  0  0  0  0  0
  1  5  1  0
  5  6  1  0
  5  7  2  0
  1  2  1  0
  1  3  1  0
  1  4  1  0
  8 12  1  0
 12 13  2  0
 13 15  1  0
 15 17  2  0
 17 19  1  0
 19 21  2  0
 21 12  1  0
  8  9  1  0
  8 10  1  0
  8 11  1  0
 13 14  1  0
 15 16  1  0
 17 18  1  0
 19 20  1  0
 21 22  1  0
M  CHG  1   6  -1
M  END
>  <PDB_ID>  (1816) 
pdb4oou

>  <RESIDUE_NAME>  (1816) 
ASP   PHE

>  <FRAG_NAME>  (1816) 
ACET   MBZ

>  <FRAG_ATOM_NUM>  (1816) 
fragi: 7  fragj: 15

>  <atom.prop.CHAIN_ID>  (1816) 
A A A A A A A Z Z Z Z Z Z Z Z Z Z Z Z Z Z Z

>  <atom.prop.IS_HEAVY_ATOM>  (1816) 
1 0 0 0 1 1 1 1 0 0 0 1 1 0 1 0 1 0 1 0 1 0

>  <DIFUSE_FUNC_ATOM>  (1816) 
atom 6   atom 7   

>  <FINAL_SINGLE_POINT_ENERGY>  (1816) 
0

>  <NONCOV_INTER_ENERGY_QM>  (1816) 
0

>  <FF_Energy>  (1816) 
-1.06

>  <QM_Energy>  (1816) 
-7.34

>  <source>  (1816) 
ACET_MBZ_02

>  <Index>  (1816) 
1616

$$$$
ACET-pdb4opm-A-GLU-279:MBZ-pdb4opm-A-PHE-173
     RDKit          3D

 22 21  0  0  0  0  0  0  0  0999 V2000
   -4.6455    3.0660    1.6538 C   0  0  0  0  0  0  0  0  0  0  0  0
   -4.9277    2.3135    1.0643 H   0  0  0  0  0  0  0  0  0  0  0  0
   -5.4057    3.6969    1.7862 H   0  0  0  0  0  0  0  0  0  0  0  0
   -4.3756    2.6514    2.6250 H   0  0  0  0  0  0  0  0  0  0  0  0
   -3.5532    3.8208    0.9307 C   0  0  0  0  0  0  0  0  0  0  0  0
   -2.5458    4.1934    1.5705 O   0  0  0  0  0  1  0  0  0  0  0  0
   -3.7274    4.0787   -0.2803 O   0  0  0  0  0  0  0  0  0  0  0  0
   -0.0038    2.9307   -0.0016 C   0  0  0  0  0  0  0  0  0  0  0  0
    0.9134    3.2346    0.2111 H   0  0  0  0  0  0  0  0  0  0  0  0
   -0.6486    3.2304    0.6874 H   0  0  0  0  0  0  0  0  0  0  0  0
   -0.2937    3.3893   -0.9469 H   0  0  0  0  0  0  0  0  0  0  0  0
   -0.0003    1.4117   -0.0037 C   0  0  0  0  0  0  0  0  0  0  0  0
   -1.1958    0.6970    0.0067 C   0  0  0  0  0  0  0  0  0  0  0  0
   -2.0645    1.1801    0.0180 H   0  0  0  0  0  0  0  0  0  0  0  0
   -1.1973   -0.7044   -0.0000 C   0  0  0  0  0  0  0  0  0  0  0  0
   -2.0770   -1.1927   -0.0013 H   0  0  0  0  0  0  0  0  0  0  0  0
   -0.0006   -1.3988   -0.0035 C   0  0  0  0  0  0  0  0  0  0  0  0
   -0.0051   -2.3987   -0.0093 H   0  0  0  0  0  0  0  0  0  0  0  0
    1.1973   -0.7051   -0.0000 C   0  0  0  0  0  0  0  0  0  0  0  0
    2.0812   -1.1969    0.0036 H   0  0  0  0  0  0  0  0  0  0  0  0
    1.1966    0.6995    0.0005 C   0  0  0  0  0  0  0  0  0  0  0  0
    2.0662    1.1878    0.0036 H   0  0  0  0  0  0  0  0  0  0  0  0
  1  5  1  0
  5  6  1  0
  5  7  2  0
  1  2  1  0
  1  3  1  0
  1  4  1  0
  8 12  1  0
 12 13  2  0
 13 15  1  0
 15 17  2  0
 17 19  1  0
 19 21  2  0
 21 12  1  0
  8  9  1  0
  8 10  1  0
  8 11  1  0
 13 14  1  0
 15 16  1  0
 17 18  1  0
 19 20  1  0
 21 22  1  0
M  CHG  1   6  -1
M  END
>  <PDB_ID>  (1817) 
pdb4opm

>  <RESIDUE_NAME>  (1817) 
GLU   PHE

>  <FRAG_NAME>  (1817) 
ACET   MBZ

>  <FRAG_ATOM_NUM>  (1817) 
fragi: 7  fragj: 15

>  <atom.prop.CHAIN_ID>  (1817) 
A A A A A A A Z Z Z Z Z Z Z Z Z Z Z Z Z Z Z

>  <atom.prop.IS_HEAVY_ATOM>  (1817) 
1 0 0 0 1 1 1 1 0 0 0 1 1 0 1 0 1 0 1 0 1 0

>  <DIFUSE_FUNC_ATOM>  (1817) 
atom 6   atom 7   

>  <FINAL_SINGLE_POINT_ENERGY>  (1817) 
0

>  <NONCOV_INTER_ENERGY_QM>  (1817) 
0

>  <FF_Energy>  (1817) 
-1.44

>  <QM_Energy>  (1817) 
-7.41

>  <source>  (1817) 
ACET_MBZ_02

>  <Index>  (1817) 
1673

$$$$
ACET-pdb4oqz-A-ASP-232:MBZ-pdb4oqz-A-PHE-278
     RDKit          3D

 22 21  0  0  0  0  0  0  0  0999 V2000
    4.7874    1.7313   -2.9994 C   0  0  0  0  0  0  0  0  0  0  0  0
    4.0064    1.8841   -3.6027 H   0  0  0  0  0  0  0  0  0  0  0  0
    5.1505    0.8129   -3.1464 H   0  0  0  0  0  0  0  0  0  0  0  0
    5.5646    2.4388   -3.2883 H   0  0  0  0  0  0  0  0  0  0  0  0
    4.3271    1.8549   -1.5570 C   0  0  0  0  0  0  0  0  0  0  0  0
    4.9755    1.2439   -0.6678 O   0  0  0  0  0  1  0  0  0  0  0  0
    3.3865    2.6422   -1.3009 O   0  0  0  0  0  0  0  0  0  0  0  0
    0.0027    2.9115   -0.0068 C   0  0  0  0  0  0  0  0  0  0  0  0
   -0.9478    3.2168   -0.0637 H   0  0  0  0  0  0  0  0  0  0  0  0
    0.4937    3.1996   -0.8295 H   0  0  0  0  0  0  0  0  0  0  0  0
    0.4592    3.4225    0.8409 H   0  0  0  0  0  0  0  0  0  0  0  0
    0.0019    1.4046    0.0257 C   0  0  0  0  0  0  0  0  0  0  0  0
   -1.1963    0.6941    0.0152 C   0  0  0  0  0  0  0  0  0  0  0  0
   -2.0624    1.1834    0.0168 H   0  0  0  0  0  0  0  0  0  0  0  0
   -1.1968   -0.6965   -0.0000 C   0  0  0  0  0  0  0  0  0  0  0  0
   -2.0754   -1.1907    0.0026 H   0  0  0  0  0  0  0  0  0  0  0  0
    0.0011   -1.3926   -0.0171 C   0  0  0  0  0  0  0  0  0  0  0  0
   -0.0054   -2.3917   -0.0423 H   0  0  0  0  0  0  0  0  0  0  0  0
    1.1968   -0.6999   -0.0000 C   0  0  0  0  0  0  0  0  0  0  0  0
    2.0801   -1.1959    0.0316 H   0  0  0  0  0  0  0  0  0  0  0  0
    1.1933    0.6903   -0.0238 C   0  0  0  0  0  0  0  0  0  0  0  0
    2.0629    1.1844   -0.0782 H   0  0  0  0  0  0  0  0  0  0  0  0
  1  5  1  0
  5  6  1  0
  5  7  2  0
  1  2  1  0
  1  3  1  0
  1  4  1  0
  8 12  1  0
 12 13  2  0
 13 15  1  0
 15 17  2  0
 17 19  1  0
 19 21  2  0
 21 12  1  0
  8  9  1  0
  8 10  1  0
  8 11  1  0
 13 14  1  0
 15 16  1  0
 17 18  1  0
 19 20  1  0
 21 22  1  0
M  CHG  1   6  -1
M  END
>  <PDB_ID>  (1818) 
pdb4oqz

>  <RESIDUE_NAME>  (1818) 
ASP   PHE

>  <FRAG_NAME>  (1818) 
ACET   MBZ

>  <FRAG_ATOM_NUM>  (1818) 
fragi: 7  fragj: 15

>  <atom.prop.CHAIN_ID>  (1818) 
A A A A A A A Z Z Z Z Z Z Z Z Z Z Z Z Z Z Z

>  <atom.prop.IS_HEAVY_ATOM>  (1818) 
1 0 0 0 1 1 1 1 0 0 0 1 1 0 1 0 1 0 1 0 1 0

>  <DIFUSE_FUNC_ATOM>  (1818) 
atom 6   atom 7   

>  <FINAL_SINGLE_POINT_ENERGY>  (1818) 
0

>  <NONCOV_INTER_ENERGY_QM>  (1818) 
0

>  <FF_Energy>  (1818) 
-1.79

>  <QM_Energy>  (1818) 
-8.18

>  <source>  (1818) 
ACET_MBZ_02

>  <Index>  (1818) 
1732

$$$$
ACET-pdb4ork-C-GLU-145:MBZ-pdb4ork-D-PHE-23
     RDKit          3D

 22 21  0  0  0  0  0  0  0  0999 V2000
   -5.2837    1.2299    0.2511 C   0  0  0  0  0  0  0  0  0  0  0  0
   -6.0421    1.3191    0.8688 H   0  0  0  0  0  0  0  0  0  0  0  0
   -4.7364    0.4370    0.4424 H   0  0  0  0  0  0  0  0  0  0  0  0
   -5.6727    1.1471   -0.7637 H   0  0  0  0  0  0  0  0  0  0  0  0
   -4.4046    2.4444    0.4282 C   0  0  0  0  0  0  0  0  0  0  0  0
   -3.4525    2.6041   -0.3515 O   0  0  0  0  0  1  0  0  0  0  0  0
   -4.6561    3.2413    1.3617 O   0  0  0  0  0  0  0  0  0  0  0  0
    0.0018    2.9290    0.0089 C   0  0  0  0  0  0  0  0  0  0  0  0
    0.9390    3.2246    0.0924 H   0  0  0  0  0  0  0  0  0  0  0  0
   -0.5432    3.2238    0.7771 H   0  0  0  0  0  0  0  0  0  0  0  0
   -0.4149    3.3790   -0.8922 H   0  0  0  0  0  0  0  0  0  0  0  0
   -0.0004    1.4050    0.0004 C   0  0  0  0  0  0  0  0  0  0  0  0
   -1.1937    0.6909    0.0014 C   0  0  0  0  0  0  0  0  0  0  0  0
   -2.0625    1.1840    0.0017 H   0  0  0  0  0  0  0  0  0  0  0  0
   -1.2027   -0.6955    0.0000 C   0  0  0  0  0  0  0  0  0  0  0  0
   -2.0796   -1.1895    0.0047 H   0  0  0  0  0  0  0  0  0  0  0  0
   -0.0014   -1.3973   -0.0052 C   0  0  0  0  0  0  0  0  0  0  0  0
   -0.0056   -2.3932   -0.0128 H   0  0  0  0  0  0  0  0  0  0  0  0
    1.2027   -0.6980   -0.0000 C   0  0  0  0  0  0  0  0  0  0  0  0
    2.0831   -1.1941    0.0031 H   0  0  0  0  0  0  0  0  0  0  0  0
    1.1954    0.6948    0.0035 C   0  0  0  0  0  0  0  0  0  0  0  0
    2.0643    1.1913    0.0075 H   0  0  0  0  0  0  0  0  0  0  0  0
  1  5  1  0
  5  6  1  0
  5  7  2  0
  1  2  1  0
  1  3  1  0
  1  4  1  0
  8 12  1  0
 12 13  2  0
 13 15  1  0
 15 17  2  0
 17 19  1  0
 19 21  2  0
 21 12  1  0
  8  9  1  0
  8 10  1  0
  8 11  1  0
 13 14  1  0
 15 16  1  0
 17 18  1  0
 19 20  1  0
 21 22  1  0
M  CHG  1   6  -1
M  END
>  <PDB_ID>  (1819) 
pdb4ork

>  <RESIDUE_NAME>  (1819) 
GLU   PHE

>  <FRAG_NAME>  (1819) 
ACET   MBZ

>  <FRAG_ATOM_NUM>  (1819) 
fragi: 7  fragj: 15

>  <atom.prop.CHAIN_ID>  (1819) 
A A A A A A A Z Z Z Z Z Z Z Z Z Z Z Z Z Z Z

>  <atom.prop.IS_HEAVY_ATOM>  (1819) 
1 0 0 0 1 1 1 1 0 0 0 1 1 0 1 0 1 0 1 0 1 0

>  <DIFUSE_FUNC_ATOM>  (1819) 
atom 6   atom 7   

>  <FINAL_SINGLE_POINT_ENERGY>  (1819) 
0

>  <NONCOV_INTER_ENERGY_QM>  (1819) 
0

>  <FF_Energy>  (1819) 
4.77

>  <QM_Energy>  (1819) 
-6.95

>  <source>  (1819) 
ACET_MBZ_02

>  <Index>  (1819) 
1755

$$$$
ACET-pdb3quf-B-ASP-414:MBZ-pdb3quf-B-PHE-227
     RDKit          3D

 22 21  0  0  0  0  0  0  0  0999 V2000
    4.5896    3.5442    0.9099 C   0  0  0  0  0  0  0  0  0  0  0  0
    4.5125    4.2761    1.5819 H   0  0  0  0  0  0  0  0  0  0  0  0
    5.5034    3.5411    0.5121 H   0  0  0  0  0  0  0  0  0  0  0  0
    4.4642    2.6013    1.4423 H   0  0  0  0  0  0  0  0  0  0  0  0
    3.5727    3.7633   -0.1814 C   0  0  0  0  0  0  0  0  0  0  0  0
    3.3081    2.8047   -0.9202 O   0  0  0  0  0  1  0  0  0  0  0  0
    3.1243    4.9360   -0.3208 O   0  0  0  0  0  0  0  0  0  0  0  0
   -0.0445    2.9105    0.0735 C   0  0  0  0  0  0  0  0  0  0  0  0
    0.8336    3.2253    0.3872 H   0  0  0  0  0  0  0  0  0  0  0  0
   -0.7722    3.1790    0.6786 H   0  0  0  0  0  0  0  0  0  0  0  0
   -0.2335    3.3704   -0.8964 H   0  0  0  0  0  0  0  0  0  0  0  0
   -0.0113    1.4020    0.0198 C   0  0  0  0  0  0  0  0  0  0  0  0
   -1.1982    0.6884    0.0093 C   0  0  0  0  0  0  0  0  0  0  0  0
   -2.0701    1.1662    0.0070 H   0  0  0  0  0  0  0  0  0  0  0  0
   -1.1891   -0.7071   -0.0000 C   0  0  0  0  0  0  0  0  0  0  0  0
   -2.0584   -1.2080    0.0276 H   0  0  0  0  0  0  0  0  0  0  0  0
    0.0197   -1.3830   -0.0457 C   0  0  0  0  0  0  0  0  0  0  0  0
    0.0147   -2.3870   -0.1133 H   0  0  0  0  0  0  0  0  0  0  0  0
    1.1891   -0.6930    0.0000 C   0  0  0  0  0  0  0  0  0  0  0  0
    2.0855   -1.1846    0.0243 H   0  0  0  0  0  0  0  0  0  0  0  0
    1.1897    0.6926    0.0166 C   0  0  0  0  0  0  0  0  0  0  0  0
    2.0543    1.1910    0.0258 H   0  0  0  0  0  0  0  0  0  0  0  0
  1  5  1  0
  5  6  1  0
  5  7  2  0
  1  2  1  0
  1  3  1  0
  1  4  1  0
  8 12  1  0
 12 13  2  0
 13 15  1  0
 15 17  2  0
 17 19  1  0
 19 21  2  0
 21 12  1  0
  8  9  1  0
  8 10  1  0
  8 11  1  0
 13 14  1  0
 15 16  1  0
 17 18  1  0
 19 20  1  0
 21 22  1  0
M  CHG  1   6  -1
M  END
>  <PDB_ID>  (1820) 
pdb3quf

>  <RESIDUE_NAME>  (1820) 
ASP   PHE

>  <FRAG_NAME>  (1820) 
ACET   MBZ

>  <FRAG_ATOM_NUM>  (1820) 
fragi: 7  fragj: 15

>  <atom.prop.CHAIN_ID>  (1820) 
A A A A A A A Z Z Z Z Z Z Z Z Z Z Z Z Z Z Z

>  <atom.prop.IS_HEAVY_ATOM>  (1820) 
1 0 0 0 1 1 1 1 0 0 0 1 1 0 1 0 1 0 1 0 1 0

>  <DIFUSE_FUNC_ATOM>  (1820) 
atom 6   atom 7   

>  <FINAL_SINGLE_POINT_ENERGY>  (1820) 
0

>  <NONCOV_INTER_ENERGY_QM>  (1820) 
0

>  <FF_Energy>  (1820) 
-0.97

>  <QM_Energy>  (1820) 
-7.76

>  <source>  (1820) 
ACET_MBZ_02

>  <Index>  (1820) 
1793

$$$$
ACET-pdb3qv1-C-GLU-94:MBZ-pdb3qv1-C-PHE-99
     RDKit          3D

 22 21  0  0  0  0  0  0  0  0999 V2000
    3.2994    5.2421    0.7978 C   0  0  0  0  0  0  0  0  0  0  0  0
    2.6310    5.2479    1.5452 H   0  0  0  0  0  0  0  0  0  0  0  0
    2.8777    5.6403   -0.0197 H   0  0  0  0  0  0  0  0  0  0  0  0
    4.1063    5.9124    1.0938 H   0  0  0  0  0  0  0  0  0  0  0  0
    3.6571    3.8263    0.4984 C   0  0  0  0  0  0  0  0  0  0  0  0
    3.8058    3.5058   -0.6809 O   0  0  0  0  0  1  0  0  0  0  0  0
    3.6450    2.9772    1.3997 O   0  0  0  0  0  0  0  0  0  0  0  0
   -0.0182    2.8808   -0.0652 C   0  0  0  0  0  0  0  0  0  0  0  0
    0.9053    3.2063    0.0152 H   0  0  0  0  0  0  0  0  0  0  0  0
   -0.5986    3.2224    0.6505 H   0  0  0  0  0  0  0  0  0  0  0  0
   -0.4164    3.2355   -1.0158 H   0  0  0  0  0  0  0  0  0  0  0  0
    0.0005    1.3876    0.0153 C   0  0  0  0  0  0  0  0  0  0  0  0
   -1.1926    0.6867   -0.0135 C   0  0  0  0  0  0  0  0  0  0  0  0
   -2.0579    1.1868   -0.0455 H   0  0  0  0  0  0  0  0  0  0  0  0
   -1.2018   -0.6858   -0.0000 C   0  0  0  0  0  0  0  0  0  0  0  0
   -2.0775   -1.1852    0.0071 H   0  0  0  0  0  0  0  0  0  0  0  0
   -0.0033   -1.3803    0.0050 C   0  0  0  0  0  0  0  0  0  0  0  0
   -0.0095   -2.3822    0.0120 H   0  0  0  0  0  0  0  0  0  0  0  0
    1.2018   -0.6930    0.0000 C   0  0  0  0  0  0  0  0  0  0  0  0
    2.0781   -1.1981    0.0023 H   0  0  0  0  0  0  0  0  0  0  0  0
    1.1955    0.6849   -0.0068 C   0  0  0  0  0  0  0  0  0  0  0  0
    2.0619    1.1878   -0.0284 H   0  0  0  0  0  0  0  0  0  0  0  0
  1  5  1  0
  5  6  1  0
  5  7  2  0
  1  2  1  0
  1  3  1  0
  1  4  1  0
  8 12  1  0
 12 13  2  0
 13 15  1  0
 15 17  2  0
 17 19  1  0
 19 21  2  0
 21 12  1  0
  8  9  1  0
  8 10  1  0
  8 11  1  0
 13 14  1  0
 15 16  1  0
 17 18  1  0
 19 20  1  0
 21 22  1  0
M  CHG  1   6  -1
M  END
>  <PDB_ID>  (1821) 
pdb3qv1

>  <RESIDUE_NAME>  (1821) 
GLU   PHE

>  <FRAG_NAME>  (1821) 
ACET   MBZ

>  <FRAG_ATOM_NUM>  (1821) 
fragi: 7  fragj: 15

>  <atom.prop.CHAIN_ID>  (1821) 
A A A A A A A Z Z Z Z Z Z Z Z Z Z Z Z Z Z Z

>  <atom.prop.IS_HEAVY_ATOM>  (1821) 
1 0 0 0 1 1 1 1 0 0 0 1 1 0 1 0 1 0 1 0 1 0

>  <DIFUSE_FUNC_ATOM>  (1821) 
atom 6   atom 7   

>  <FINAL_SINGLE_POINT_ENERGY>  (1821) 
0

>  <NONCOV_INTER_ENERGY_QM>  (1821) 
0

>  <FF_Energy>  (1821) 
-2.76

>  <QM_Energy>  (1821) 
-7.85

>  <source>  (1821) 
ACET_MBZ_02

>  <Index>  (1821) 
1815

$$$$
ACET-pdb4om9-A-ASP-860:MBZ-pdb4om9-A-PHE-835
     RDKit          3D

 22 21  0  0  0  0  0  0  0  0999 V2000
   -1.8066    4.6389    2.2171 C   0  0  0  0  0  0  0  0  0  0  0  0
   -1.7968    5.6066    1.9967 H   0  0  0  0  0  0  0  0  0  0  0  0
   -1.0461    4.1723    1.7834 H   0  0  0  0  0  0  0  0  0  0  0  0
   -1.6974    4.5351    3.2966 H   0  0  0  0  0  0  0  0  0  0  0  0
   -3.1078    4.0365    1.6954 C   0  0  0  0  0  0  0  0  0  0  0  0
   -3.7675    3.2947    2.4568 O   0  0  0  0  0  1  0  0  0  0  0  0
   -3.4633    4.2856    0.5192 O   0  0  0  0  0  0  0  0  0  0  0  0
   -0.0015    2.8942   -0.0213 C   0  0  0  0  0  0  0  0  0  0  0  0
    0.8552    3.2078    0.3550 H   0  0  0  0  0  0  0  0  0  0  0  0
   -0.7708    3.2088    0.5110 H   0  0  0  0  0  0  0  0  0  0  0  0
   -0.0974    3.3118   -1.0235 H   0  0  0  0  0  0  0  0  0  0  0  0
   -0.0004    1.3937    0.0007 C   0  0  0  0  0  0  0  0  0  0  0  0
   -1.1925    0.6868   -0.0025 C   0  0  0  0  0  0  0  0  0  0  0  0
   -2.0602    1.1793   -0.0075 H   0  0  0  0  0  0  0  0  0  0  0  0
   -1.1949   -0.6937    0.0000 C   0  0  0  0  0  0  0  0  0  0  0  0
   -2.0726   -1.1918   -0.0004 H   0  0  0  0  0  0  0  0  0  0  0  0
    0.0013   -1.3838    0.0042 C   0  0  0  0  0  0  0  0  0  0  0  0
   -0.0018   -2.3862    0.0095 H   0  0  0  0  0  0  0  0  0  0  0  0
    1.1949   -0.6915   -0.0000 C   0  0  0  0  0  0  0  0  0  0  0  0
    2.0785   -1.1916   -0.0001 H   0  0  0  0  0  0  0  0  0  0  0  0
    1.1916    0.6886   -0.0025 C   0  0  0  0  0  0  0  0  0  0  0  0
    2.0608    1.1879   -0.0070 H   0  0  0  0  0  0  0  0  0  0  0  0
  1  5  1  0
  5  6  1  0
  5  7  2  0
  1  2  1  0
  1  3  1  0
  1  4  1  0
  8 12  1  0
 12 13  2  0
 13 15  1  0
 15 17  2  0
 17 19  1  0
 19 21  2  0
 21 12  1  0
  8  9  1  0
  8 10  1  0
  8 11  1  0
 13 14  1  0
 15 16  1  0
 17 18  1  0
 19 20  1  0
 21 22  1  0
M  CHG  1   6  -1
M  END
>  <PDB_ID>  (1822) 
pdb4om9

>  <RESIDUE_NAME>  (1822) 
ASP   PHE

>  <FRAG_NAME>  (1822) 
ACET   MBZ

>  <FRAG_ATOM_NUM>  (1822) 
fragi: 7  fragj: 15

>  <atom.prop.CHAIN_ID>  (1822) 
A A A A A A A Z Z Z Z Z Z Z Z Z Z Z Z Z Z Z

>  <atom.prop.IS_HEAVY_ATOM>  (1822) 
1 0 0 0 1 1 1 1 0 0 0 1 1 0 1 0 1 0 1 0 1 0

>  <DIFUSE_FUNC_ATOM>  (1822) 
atom 6   atom 7   

>  <FINAL_SINGLE_POINT_ENERGY>  (1822) 
0

>  <NONCOV_INTER_ENERGY_QM>  (1822) 
0

>  <FF_Energy>  (1822) 
10.46

>  <QM_Energy>  (1822) 
-1.69

>  <source>  (1822) 
ACET_MBZ_02

>  <Index>  (1822) 
1869

$$$$
ACET-pdb3qwt-C-ASP-39:MBZ-pdb3qwt-C-PHE-44
     RDKit          3D

 22 21  0  0  0  0  0  0  0  0999 V2000
    4.9923    3.2117   -0.0113 C   0  0  0  0  0  0  0  0  0  0  0  0
    4.5670    3.1734    0.8836 H   0  0  0  0  0  0  0  0  0  0  0  0
    5.2759    4.1362   -0.2276 H   0  0  0  0  0  0  0  0  0  0  0  0
    5.8795    2.5788    0.0072 H   0  0  0  0  0  0  0  0  0  0  0  0
    3.9726    2.7598   -1.0541 C   0  0  0  0  0  0  0  0  0  0  0  0
    3.1248    3.5820   -1.4680 O   0  0  0  0  0  1  0  0  0  0  0  0
    4.0218    1.5806   -1.4644 O   0  0  0  0  0  0  0  0  0  0  0  0
   -0.0025    2.8861   -0.0044 C   0  0  0  0  0  0  0  0  0  0  0  0
    0.9280    3.1967    0.1264 H   0  0  0  0  0  0  0  0  0  0  0  0
   -0.5900    3.1957    0.7292 H   0  0  0  0  0  0  0  0  0  0  0  0
   -0.3718    3.3209   -0.9332 H   0  0  0  0  0  0  0  0  0  0  0  0
   -0.0004    1.3928   -0.0007 C   0  0  0  0  0  0  0  0  0  0  0  0
   -1.1923    0.6893    0.0015 C   0  0  0  0  0  0  0  0  0  0  0  0
   -2.0597    1.1808    0.0032 H   0  0  0  0  0  0  0  0  0  0  0  0
   -1.1940   -0.6924    0.0000 C   0  0  0  0  0  0  0  0  0  0  0  0
   -2.0729   -1.1895    0.0022 H   0  0  0  0  0  0  0  0  0  0  0  0
    0.0001   -1.3844   -0.0022 C   0  0  0  0  0  0  0  0  0  0  0  0
   -0.0042   -2.3865   -0.0056 H   0  0  0  0  0  0  0  0  0  0  0  0
    1.1940   -0.6937   -0.0000 C   0  0  0  0  0  0  0  0  0  0  0  0
    2.0779   -1.1949    0.0016 H   0  0  0  0  0  0  0  0  0  0  0  0
    1.1926    0.6883    0.0015 C   0  0  0  0  0  0  0  0  0  0  0  0
    2.0611    1.1859    0.0035 H   0  0  0  0  0  0  0  0  0  0  0  0
  1  5  1  0
  5  6  1  0
  5  7  2  0
  1  2  1  0
  1  3  1  0
  1  4  1  0
  8 12  1  0
 12 13  2  0
 13 15  1  0
 15 17  2  0
 17 19  1  0
 19 21  2  0
 21 12  1  0
  8  9  1  0
  8 10  1  0
  8 11  1  0
 13 14  1  0
 15 16  1  0
 17 18  1  0
 19 20  1  0
 21 22  1  0
M  CHG  1   6  -1
M  END
>  <PDB_ID>  (1823) 
pdb3qwt

>  <RESIDUE_NAME>  (1823) 
ASP   PHE

>  <FRAG_NAME>  (1823) 
ACET   MBZ

>  <FRAG_ATOM_NUM>  (1823) 
fragi: 7  fragj: 15

>  <atom.prop.CHAIN_ID>  (1823) 
A A A A A A A Z Z Z Z Z Z Z Z Z Z Z Z Z Z Z

>  <atom.prop.IS_HEAVY_ATOM>  (1823) 
1 0 0 0 1 1 1 1 0 0 0 1 1 0 1 0 1 0 1 0 1 0

>  <DIFUSE_FUNC_ATOM>  (1823) 
atom 6   atom 7   

>  <FINAL_SINGLE_POINT_ENERGY>  (1823) 
0

>  <NONCOV_INTER_ENERGY_QM>  (1823) 
0

>  <FF_Energy>  (1823) 
-1.79

>  <QM_Energy>  (1823) 
-7.09

>  <source>  (1823) 
ACET_MBZ_02

>  <Index>  (1823) 
1913

$$$$
ACET-pdb3r0l-D-ASP-89:MBZ-pdb3r0l-D-PHE-5
     RDKit          3D

 22 21  0  0  0  0  0  0  0  0999 V2000
   -2.6066    1.7806   -3.0756 C   0  0  0  0  0  0  0  0  0  0  0  0
   -3.2418    2.3146   -3.6236 H   0  0  0  0  0  0  0  0  0  0  0  0
   -2.7426    1.9647   -2.1086 H   0  0  0  0  0  0  0  0  0  0  0  0
   -2.7999    0.7233   -3.2565 H   0  0  0  0  0  0  0  0  0  0  0  0
   -1.1787    2.2072   -3.4478 C   0  0  0  0  0  0  0  0  0  0  0  0
   -0.3892    1.3218   -3.8435 O   0  0  0  0  0  1  0  0  0  0  0  0
   -0.8567    3.4076   -3.3416 O   0  0  0  0  0  0  0  0  0  0  0  0
    0.0233    2.9079   -0.0725 C   0  0  0  0  0  0  0  0  0  0  0  0
   -0.0388    3.1662   -1.0331 H   0  0  0  0  0  0  0  0  0  0  0  0
    0.8918    3.2154    0.3080 H   0  0  0  0  0  0  0  0  0  0  0  0
   -0.7742    3.4236    0.4623 H   0  0  0  0  0  0  0  0  0  0  0  0
   -0.0083    1.4087    0.0047 C   0  0  0  0  0  0  0  0  0  0  0  0
   -1.1898    0.6901    0.0036 C   0  0  0  0  0  0  0  0  0  0  0  0
   -2.0650    1.1737    0.0047 H   0  0  0  0  0  0  0  0  0  0  0  0
   -1.1856   -0.6942   -0.0000 C   0  0  0  0  0  0  0  0  0  0  0  0
   -2.0654   -1.1932   -0.0073 H   0  0  0  0  0  0  0  0  0  0  0  0
    0.0110   -1.3957    0.0083 C   0  0  0  0  0  0  0  0  0  0  0  0
    0.0021   -2.3912    0.0202 H   0  0  0  0  0  0  0  0  0  0  0  0
    1.1856   -0.6946   -0.0000 C   0  0  0  0  0  0  0  0  0  0  0  0
    2.0816   -1.1902    0.0070 H   0  0  0  0  0  0  0  0  0  0  0  0
    1.1871    0.6857   -0.0166 C   0  0  0  0  0  0  0  0  0  0  0  0
    2.0567    1.1843   -0.0459 H   0  0  0  0  0  0  0  0  0  0  0  0
  1  5  1  0
  5  6  1  0
  5  7  2  0
  1  2  1  0
  1  3  1  0
  1  4  1  0
  8 12  1  0
 12 13  2  0
 13 15  1  0
 15 17  2  0
 17 19  1  0
 19 21  2  0
 21 12  1  0
  8  9  1  0
  8 10  1  0
  8 11  1  0
 13 14  1  0
 15 16  1  0
 17 18  1  0
 19 20  1  0
 21 22  1  0
M  CHG  1   6  -1
M  END
>  <PDB_ID>  (1824) 
pdb3r0l

>  <RESIDUE_NAME>  (1824) 
ASP   PHE

>  <FRAG_NAME>  (1824) 
ACET   MBZ

>  <FRAG_ATOM_NUM>  (1824) 
fragi: 7  fragj: 15

>  <atom.prop.CHAIN_ID>  (1824) 
A A A A A A A Z Z Z Z Z Z Z Z Z Z Z Z Z Z Z

>  <atom.prop.IS_HEAVY_ATOM>  (1824) 
1 0 0 0 1 1 1 1 0 0 0 1 1 0 1 0 1 0 1 0 1 0

>  <DIFUSE_FUNC_ATOM>  (1824) 
atom 6   atom 7   

>  <FINAL_SINGLE_POINT_ENERGY>  (1824) 
0

>  <NONCOV_INTER_ENERGY_QM>  (1824) 
0

>  <FF_Energy>  (1824) 
0.91

>  <QM_Energy>  (1824) 
-4.2

>  <source>  (1824) 
ACET_MBZ_02

>  <Index>  (1824) 
2124

$$$$
ACET-pdb3r0k-B-ASP-253:MBZ-pdb3r0k-B-PHE-249
     RDKit          3D

 22 21  0  0  0  0  0  0  0  0999 V2000
   -3.5816    6.1876   -1.8772 C   0  0  0  0  0  0  0  0  0  0  0  0
   -3.2022    6.4001   -0.9794 H   0  0  0  0  0  0  0  0  0  0  0  0
   -4.4211    5.6606   -1.7738 H   0  0  0  0  0  0  0  0  0  0  0  0
   -3.8400    7.1309   -2.3582 H   0  0  0  0  0  0  0  0  0  0  0  0
   -2.5818    5.3740   -2.6541 C   0  0  0  0  0  0  0  0  0  0  0  0
   -2.4438    5.5572   -3.8802 O   0  0  0  0  0  1  0  0  0  0  0  0
   -1.9341    4.5270   -2.0152 O   0  0  0  0  0  0  0  0  0  0  0  0
   -0.0151    2.9191   -0.0258 C   0  0  0  0  0  0  0  0  0  0  0  0
   -0.3620    3.2023   -0.9065 H   0  0  0  0  0  0  0  0  0  0  0  0
    0.9115    3.2298    0.1159 H   0  0  0  0  0  0  0  0  0  0  0  0
   -0.6404    3.3754    0.7415 H   0  0  0  0  0  0  0  0  0  0  0  0
   -0.0064    1.4047    0.0047 C   0  0  0  0  0  0  0  0  0  0  0  0
   -1.1948    0.6916    0.0055 C   0  0  0  0  0  0  0  0  0  0  0  0
   -2.0674    1.1791    0.0087 H   0  0  0  0  0  0  0  0  0  0  0  0
   -1.2022   -0.7023    0.0000 C   0  0  0  0  0  0  0  0  0  0  0  0
   -2.0747   -1.1957   -0.0003 H   0  0  0  0  0  0  0  0  0  0  0  0
    0.0060   -1.3990   -0.0031 C   0  0  0  0  0  0  0  0  0  0  0  0
    0.0014   -2.3956   -0.0080 H   0  0  0  0  0  0  0  0  0  0  0  0
    1.2022   -0.6977   -0.0000 C   0  0  0  0  0  0  0  0  0  0  0  0
    2.0874   -1.1877    0.0086 H   0  0  0  0  0  0  0  0  0  0  0  0
    1.1952    0.7027   -0.0070 C   0  0  0  0  0  0  0  0  0  0  0  0
    2.0606    1.1977   -0.0213 H   0  0  0  0  0  0  0  0  0  0  0  0
  1  5  1  0
  5  6  1  0
  5  7  2  0
  1  2  1  0
  1  3  1  0
  1  4  1  0
  8 12  1  0
 12 13  2  0
 13 15  1  0
 15 17  2  0
 17 19  1  0
 19 21  2  0
 21 12  1  0
  8  9  1  0
  8 10  1  0
  8 11  1  0
 13 14  1  0
 15 16  1  0
 17 18  1  0
 19 20  1  0
 21 22  1  0
M  CHG  1   6  -1
M  END
>  <PDB_ID>  (1825) 
pdb3r0k

>  <RESIDUE_NAME>  (1825) 
ASP   PHE

>  <FRAG_NAME>  (1825) 
ACET   MBZ

>  <FRAG_ATOM_NUM>  (1825) 
fragi: 7  fragj: 15

>  <atom.prop.CHAIN_ID>  (1825) 
A A A A A A A Z Z Z Z Z Z Z Z Z Z Z Z Z Z Z

>  <atom.prop.IS_HEAVY_ATOM>  (1825) 
1 0 0 0 1 1 1 1 0 0 0 1 1 0 1 0 1 0 1 0 1 0

>  <DIFUSE_FUNC_ATOM>  (1825) 
atom 6   atom 7   

>  <FINAL_SINGLE_POINT_ENERGY>  (1825) 
0

>  <NONCOV_INTER_ENERGY_QM>  (1825) 
0

>  <FF_Energy>  (1825) 
-0.16

>  <QM_Energy>  (1825) 
-5.33

>  <source>  (1825) 
ACET_MBZ_02

>  <Index>  (1825) 
2137

$$$$
ACET-pdb3r23-B-ASP-127:MBZ-pdb3r23-B-PHE-123
     RDKit          3D

 22 21  0  0  0  0  0  0  0  0999 V2000
   -4.3843    1.8788   -3.3518 C   0  0  0  0  0  0  0  0  0  0  0  0
   -5.3735    1.9626   -3.3725 H   0  0  0  0  0  0  0  0  0  0  0  0
   -4.1142    0.9911   -3.0008 H   0  0  0  0  0  0  0  0  0  0  0  0
   -4.0208    1.9586   -4.3763 H   0  0  0  0  0  0  0  0  0  0  0  0
   -3.8215    2.9604   -2.4347 C   0  0  0  0  0  0  0  0  0  0  0  0
   -3.2309    2.5919   -1.3964 O   0  0  0  0  0  1  0  0  0  0  0  0
   -3.9768    4.1673   -2.7372 O   0  0  0  0  0  0  0  0  0  0  0  0
   -0.0084    2.9060    0.0109 C   0  0  0  0  0  0  0  0  0  0  0  0
    0.5432    3.2068    0.7757 H   0  0  0  0  0  0  0  0  0  0  0  0
   -0.9469    3.2038    0.1072 H   0  0  0  0  0  0  0  0  0  0  0  0
    0.3968    3.3586   -0.8941 H   0  0  0  0  0  0  0  0  0  0  0  0
   -0.0012    1.3984    0.0006 C   0  0  0  0  0  0  0  0  0  0  0  0
   -1.1925    0.6871   -0.0011 C   0  0  0  0  0  0  0  0  0  0  0  0
   -2.0616    1.1778   -0.0044 H   0  0  0  0  0  0  0  0  0  0  0  0
   -1.1955   -0.6965   -0.0000 C   0  0  0  0  0  0  0  0  0  0  0  0
   -2.0731   -1.1926    0.0028 H   0  0  0  0  0  0  0  0  0  0  0  0
    0.0013   -1.3887   -0.0014 C   0  0  0  0  0  0  0  0  0  0  0  0
   -0.0024   -2.3894   -0.0038 H   0  0  0  0  0  0  0  0  0  0  0  0
    1.1955   -0.6940   -0.0000 C   0  0  0  0  0  0  0  0  0  0  0  0
    2.0800   -1.1916    0.0010 H   0  0  0  0  0  0  0  0  0  0  0  0
    1.1923    0.6937    0.0018 C   0  0  0  0  0  0  0  0  0  0  0  0
    2.0613    1.1896    0.0031 H   0  0  0  0  0  0  0  0  0  0  0  0
  1  5  1  0
  5  6  1  0
  5  7  2  0
  1  2  1  0
  1  3  1  0
  1  4  1  0
  8 12  1  0
 12 13  2  0
 13 15  1  0
 15 17  2  0
 17 19  1  0
 19 21  2  0
 21 12  1  0
  8  9  1  0
  8 10  1  0
  8 11  1  0
 13 14  1  0
 15 16  1  0
 17 18  1  0
 19 20  1  0
 21 22  1  0
M  CHG  1   6  -1
M  END
>  <PDB_ID>  (1826) 
pdb3r23

>  <RESIDUE_NAME>  (1826) 
ASP   PHE

>  <FRAG_NAME>  (1826) 
ACET   MBZ

>  <FRAG_ATOM_NUM>  (1826) 
fragi: 7  fragj: 15

>  <atom.prop.CHAIN_ID>  (1826) 
A A A A A A A Z Z Z Z Z Z Z Z Z Z Z Z Z Z Z

>  <atom.prop.IS_HEAVY_ATOM>  (1826) 
1 0 0 0 1 1 1 1 0 0 0 1 1 0 1 0 1 0 1 0 1 0

>  <DIFUSE_FUNC_ATOM>  (1826) 
atom 6   atom 7   

>  <FINAL_SINGLE_POINT_ENERGY>  (1826) 
0

>  <NONCOV_INTER_ENERGY_QM>  (1826) 
0

>  <FF_Energy>  (1826) 
-0.86

>  <QM_Energy>  (1826) 
-6.89

>  <source>  (1826) 
ACET_MBZ_02

>  <Index>  (1826) 
2212

$$$$
ACET-pdb4p17-A-ASP-10:MBZ-pdb4p17-A-PHE-14
     RDKit          3D

 22 21  0  0  0  0  0  0  0  0999 V2000
    4.4378    5.2155    0.7254 C   0  0  0  0  0  0  0  0  0  0  0  0
    5.2758    4.9651    1.1456 H   0  0  0  0  0  0  0  0  0  0  0  0
    3.9566    5.8319    1.2996 H   0  0  0  0  0  0  0  0  0  0  0  0
    4.6561    5.7152   -0.2184 H   0  0  0  0  0  0  0  0  0  0  0  0
    3.6087    3.9765    0.5899 C   0  0  0  0  0  0  0  0  0  0  0  0
    3.5113    3.3739   -0.5213 O   0  0  0  0  0  1  0  0  0  0  0  0
    3.0721    3.5978    1.6582 O   0  0  0  0  0  0  0  0  0  0  0  0
    0.0201    2.8802   -0.0246 C   0  0  0  0  0  0  0  0  0  0  0  0
    0.8305    3.1742    0.4196 H   0  0  0  0  0  0  0  0  0  0  0  0
   -0.7567    3.1947    0.4640 H   0  0  0  0  0  0  0  0  0  0  0  0
   -0.0030    3.2992   -1.0305 H   0  0  0  0  0  0  0  0  0  0  0  0
    0.0007    1.3850    0.0009 C   0  0  0  0  0  0  0  0  0  0  0  0
   -1.1923    0.6907   -0.0096 C   0  0  0  0  0  0  0  0  0  0  0  0
   -1.9997    1.1524   -0.0125 H   0  0  0  0  0  0  0  0  0  0  0  0
   -1.1894   -0.6852   -0.0000 C   0  0  0  0  0  0  0  0  0  0  0  0
   -1.9938   -1.1528   -0.0011 H   0  0  0  0  0  0  0  0  0  0  0  0
    0.0068   -1.3724    0.0057 C   0  0  0  0  0  0  0  0  0  0  0  0
    0.0091   -2.3018    0.0113 H   0  0  0  0  0  0  0  0  0  0  0  0
    1.1894   -0.6860   -0.0000 C   0  0  0  0  0  0  0  0  0  0  0  0
    1.9962   -1.1491    0.0096 H   0  0  0  0  0  0  0  0  0  0  0  0
    1.1849    0.6679    0.0030 C   0  0  0  0  0  0  0  0  0  0  0  0
    1.9943    1.1265   -0.0009 H   0  0  0  0  0  0  0  0  0  0  0  0
  1  5  1  0
  5  6  1  0
  5  7  2  0
  1  2  1  0
  1  3  1  0
  1  4  1  0
  8 12  1  0
 12 13  2  0
 13 15  1  0
 15 17  2  0
 17 19  1  0
 19 21  2  0
 21 12  1  0
  8  9  1  0
  8 10  1  0
  8 11  1  0
 13 14  1  0
 15 16  1  0
 17 18  1  0
 19 20  1  0
 21 22  1  0
M  CHG  1   6  -1
M  END
>  <PDB_ID>  (1827) 
pdb4p17

>  <RESIDUE_NAME>  (1827) 
ASP   PHE

>  <FRAG_NAME>  (1827) 
ACET   MBZ

>  <FRAG_ATOM_NUM>  (1827) 
fragi: 7  fragj: 15

>  <atom.prop.CHAIN_ID>  (1827) 
A A A A A A A Z Z Z Z Z Z Z Z Z Z Z Z Z Z Z

>  <atom.prop.IS_HEAVY_ATOM>  (1827) 
1 0 0 0 1 1 1 1 0 0 0 1 1 0 1 0 1 0 1 0 1 0

>  <DIFUSE_FUNC_ATOM>  (1827) 
atom 6   atom 7   

>  <FINAL_SINGLE_POINT_ENERGY>  (1827) 
0

>  <NONCOV_INTER_ENERGY_QM>  (1827) 
0

>  <FF_Energy>  (1827) 
-2.39

>  <QM_Energy>  (1827) 
-8.59

>  <source>  (1827) 
ACET_MBZ_02

>  <Index>  (1827) 
2232

$$$$
ACET-pdb4p17-B-ASP-10:MBZ-pdb4p17-B-PHE-14
     RDKit          3D

 22 21  0  0  0  0  0  0  0  0999 V2000
    4.4248    5.4265    0.4940 C   0  0  0  0  0  0  0  0  0  0  0  0
    5.3006    5.2074    0.8477 H   0  0  0  0  0  0  0  0  0  0  0  0
    3.9697    6.0372    1.0956 H   0  0  0  0  0  0  0  0  0  0  0  0
    4.5485    5.9137   -0.4732 H   0  0  0  0  0  0  0  0  0  0  0  0
    3.6064    4.1317    0.4328 C   0  0  0  0  0  0  0  0  0  0  0  0
    3.4488    3.5747   -0.6644 O   0  0  0  0  0  1  0  0  0  0  0  0
    3.1314    3.6982    1.5010 O   0  0  0  0  0  0  0  0  0  0  0  0
   -0.0112    2.9047    0.0143 C   0  0  0  0  0  0  0  0  0  0  0  0
    0.8236    3.2032    0.4071 H   0  0  0  0  0  0  0  0  0  0  0  0
   -0.7551    3.1935    0.5666 H   0  0  0  0  0  0  0  0  0  0  0  0
   -0.1141    3.3517   -0.9745 H   0  0  0  0  0  0  0  0  0  0  0  0
   -0.0022    1.3987    0.0091 C   0  0  0  0  0  0  0  0  0  0  0  0
   -1.2014    0.6943    0.0126 C   0  0  0  0  0  0  0  0  0  0  0  0
   -2.0078    1.1567    0.0112 H   0  0  0  0  0  0  0  0  0  0  0  0
   -1.2012   -0.6955    0.0000 C   0  0  0  0  0  0  0  0  0  0  0  0
   -2.0058   -1.1622   -0.0067 H   0  0  0  0  0  0  0  0  0  0  0  0
    0.0142   -1.3901   -0.0279 C   0  0  0  0  0  0  0  0  0  0  0  0
    0.0165   -2.3204   -0.0208 H   0  0  0  0  0  0  0  0  0  0  0  0
    1.2012   -0.7027    0.0000 C   0  0  0  0  0  0  0  0  0  0  0  0
    2.0086   -1.1636   -0.0127 H   0  0  0  0  0  0  0  0  0  0  0  0
    1.1894    0.6952    0.0062 C   0  0  0  0  0  0  0  0  0  0  0  0
    1.9956    1.1599    0.0052 H   0  0  0  0  0  0  0  0  0  0  0  0
  1  5  1  0
  5  6  1  0
  5  7  2  0
  1  2  1  0
  1  3  1  0
  1  4  1  0
  8 12  1  0
 12 13  2  0
 13 15  1  0
 15 17  2  0
 17 19  1  0
 19 21  2  0
 21 12  1  0
  8  9  1  0
  8 10  1  0
  8 11  1  0
 13 14  1  0
 15 16  1  0
 17 18  1  0
 19 20  1  0
 21 22  1  0
M  CHG  1   6  -1
M  END
>  <PDB_ID>  (1828) 
pdb4p17

>  <RESIDUE_NAME>  (1828) 
ASP   PHE

>  <FRAG_NAME>  (1828) 
ACET   MBZ

>  <FRAG_ATOM_NUM>  (1828) 
fragi: 7  fragj: 15

>  <atom.prop.CHAIN_ID>  (1828) 
A A A A A A A Z Z Z Z Z Z Z Z Z Z Z Z Z Z Z

>  <atom.prop.IS_HEAVY_ATOM>  (1828) 
1 0 0 0 1 1 1 1 0 0 0 1 1 0 1 0 1 0 1 0 1 0

>  <DIFUSE_FUNC_ATOM>  (1828) 
atom 6   atom 7   

>  <FINAL_SINGLE_POINT_ENERGY>  (1828) 
0

>  <NONCOV_INTER_ENERGY_QM>  (1828) 
0

>  <FF_Energy>  (1828) 
-2.39

>  <QM_Energy>  (1828) 
-8.44

>  <source>  (1828) 
ACET_MBZ_02

>  <Index>  (1828) 
2234

$$$$
ACET-pdb4p39-D-ASP-701:MBZ-pdb4p39-D-PHE-728
     RDKit          3D

 22 21  0  0  0  0  0  0  0  0999 V2000
    5.2441   -0.0592   -1.1353 C   0  0  0  0  0  0  0  0  0  0  0  0
    6.1427    0.3594   -1.0622 H   0  0  0  0  0  0  0  0  0  0  0  0
    4.5404    0.5711   -0.8305 H   0  0  0  0  0  0  0  0  0  0  0  0
    5.0625   -0.2854   -2.1860 H   0  0  0  0  0  0  0  0  0  0  0  0
    5.2076   -1.2927   -0.2611 C   0  0  0  0  0  0  0  0  0  0  0  0
    6.2125   -2.0339   -0.2369 O   0  0  0  0  0  1  0  0  0  0  0  0
    4.1789   -1.5189    0.4070 O   0  0  0  0  0  0  0  0  0  0  0  0
    0.0018    2.9041    0.0092 C   0  0  0  0  0  0  0  0  0  0  0  0
    0.8547    3.2048    0.4087 H   0  0  0  0  0  0  0  0  0  0  0  0
   -0.7720    3.2049    0.5469 H   0  0  0  0  0  0  0  0  0  0  0  0
   -0.0822    3.3599   -0.9773 H   0  0  0  0  0  0  0  0  0  0  0  0
    0.0003    1.3971   -0.0051 C   0  0  0  0  0  0  0  0  0  0  0  0
   -1.1921    0.6878    0.0060 C   0  0  0  0  0  0  0  0  0  0  0  0
   -2.0601    1.1799    0.0167 H   0  0  0  0  0  0  0  0  0  0  0  0
   -1.1951   -0.6946    0.0000 C   0  0  0  0  0  0  0  0  0  0  0  0
   -2.0740   -1.1900   -0.0017 H   0  0  0  0  0  0  0  0  0  0  0  0
   -0.0007   -1.3868   -0.0022 C   0  0  0  0  0  0  0  0  0  0  0  0
   -0.0037   -2.3881   -0.0059 H   0  0  0  0  0  0  0  0  0  0  0  0
    1.1951   -0.6939    0.0000 C   0  0  0  0  0  0  0  0  0  0  0  0
    2.0783   -1.1937    0.0015 H   0  0  0  0  0  0  0  0  0  0  0  0
    1.1924    0.6905    0.0012 C   0  0  0  0  0  0  0  0  0  0  0  0
    2.0622    1.1876    0.0056 H   0  0  0  0  0  0  0  0  0  0  0  0
  1  5  1  0
  5  6  1  0
  5  7  2  0
  1  2  1  0
  1  3  1  0
  1  4  1  0
  8 12  1  0
 12 13  2  0
 13 15  1  0
 15 17  2  0
 17 19  1  0
 19 21  2  0
 21 12  1  0
  8  9  1  0
  8 10  1  0
  8 11  1  0
 13 14  1  0
 15 16  1  0
 17 18  1  0
 19 20  1  0
 21 22  1  0
M  CHG  1   6  -1
M  END
>  <PDB_ID>  (1829) 
pdb4p39

>  <RESIDUE_NAME>  (1829) 
ASP   PHE

>  <FRAG_NAME>  (1829) 
ACET   MBZ

>  <FRAG_ATOM_NUM>  (1829) 
fragi: 7  fragj: 15

>  <atom.prop.CHAIN_ID>  (1829) 
A A A A A A A Z Z Z Z Z Z Z Z Z Z Z Z Z Z Z

>  <atom.prop.IS_HEAVY_ATOM>  (1829) 
1 0 0 0 1 1 1 1 0 0 0 1 1 0 1 0 1 0 1 0 1 0

>  <DIFUSE_FUNC_ATOM>  (1829) 
atom 6   atom 7   

>  <FINAL_SINGLE_POINT_ENERGY>  (1829) 
0

>  <NONCOV_INTER_ENERGY_QM>  (1829) 
0

>  <FF_Energy>  (1829) 
-0.59

>  <QM_Energy>  (1829) 
-6.18

>  <source>  (1829) 
ACET_MBZ_02

>  <Index>  (1829) 
2288

$$$$
ACET-pdb4p37-B-GLU-319:MBZ-pdb4p37-B-PHE-496
     RDKit          3D

 22 21  0  0  0  0  0  0  0  0999 V2000
    5.1551    2.1661   -0.0900 C   0  0  0  0  0  0  0  0  0  0  0  0
    4.9276    1.4042    0.4989 H   0  0  0  0  0  0  0  0  0  0  0  0
    5.0624    3.0268    0.3891 H   0  0  0  0  0  0  0  0  0  0  0  0
    6.1923    2.0572   -0.4066 H   0  0  0  0  0  0  0  0  0  0  0  0
    4.1525    2.1730   -1.2288 C   0  0  0  0  0  0  0  0  0  0  0  0
    4.2382    1.2805   -2.1058 O   0  0  0  0  0  1  0  0  0  0  0  0
    3.2387    3.0299   -1.2057 O   0  0  0  0  0  0  0  0  0  0  0  0
    0.0008    2.9185   -0.0642 C   0  0  0  0  0  0  0  0  0  0  0  0
    0.8788    3.2408    0.2336 H   0  0  0  0  0  0  0  0  0  0  0  0
   -0.7339    3.2567    0.4926 H   0  0  0  0  0  0  0  0  0  0  0  0
   -0.1583    3.2917   -1.0759 H   0  0  0  0  0  0  0  0  0  0  0  0
   -0.0015    1.4070    0.0137 C   0  0  0  0  0  0  0  0  0  0  0  0
   -1.1956    0.6969   -0.0006 C   0  0  0  0  0  0  0  0  0  0  0  0
   -2.0641    1.1806   -0.0129 H   0  0  0  0  0  0  0  0  0  0  0  0
   -1.1929   -0.6987   -0.0000 C   0  0  0  0  0  0  0  0  0  0  0  0
   -2.0718   -1.1916    0.0149 H   0  0  0  0  0  0  0  0  0  0  0  0
    0.0036   -1.3912   -0.0183 C   0  0  0  0  0  0  0  0  0  0  0  0
   -0.0051   -2.3936   -0.0459 H   0  0  0  0  0  0  0  0  0  0  0  0
    1.1929   -0.7051   -0.0000 C   0  0  0  0  0  0  0  0  0  0  0  0
    2.0797   -1.1978    0.0114 H   0  0  0  0  0  0  0  0  0  0  0  0
    1.1934    0.6910    0.0052 C   0  0  0  0  0  0  0  0  0  0  0  0
    2.0643    1.1821    0.0015 H   0  0  0  0  0  0  0  0  0  0  0  0
  1  5  1  0
  5  6  1  0
  5  7  2  0
  1  2  1  0
  1  3  1  0
  1  4  1  0
  8 12  1  0
 12 13  2  0
 13 15  1  0
 15 17  2  0
 17 19  1  0
 19 21  2  0
 21 12  1  0
  8  9  1  0
  8 10  1  0
  8 11  1  0
 13 14  1  0
 15 16  1  0
 17 18  1  0
 19 20  1  0
 21 22  1  0
M  CHG  1   6  -1
M  END
>  <PDB_ID>  (1830) 
pdb4p37

>  <RESIDUE_NAME>  (1830) 
GLU   PHE

>  <FRAG_NAME>  (1830) 
ACET   MBZ

>  <FRAG_ATOM_NUM>  (1830) 
fragi: 7  fragj: 15

>  <atom.prop.CHAIN_ID>  (1830) 
A A A A A A A Z Z Z Z Z Z Z Z Z Z Z Z Z Z Z

>  <atom.prop.IS_HEAVY_ATOM>  (1830) 
1 0 0 0 1 1 1 1 0 0 0 1 1 0 1 0 1 0 1 0 1 0

>  <DIFUSE_FUNC_ATOM>  (1830) 
atom 6   atom 7   

>  <FINAL_SINGLE_POINT_ENERGY>  (1830) 
0

>  <NONCOV_INTER_ENERGY_QM>  (1830) 
0

>  <FF_Energy>  (1830) 
-1.32

>  <QM_Energy>  (1830) 
-6.73

>  <source>  (1830) 
ACET_MBZ_02

>  <Index>  (1830) 
2299

$$$$
ACET-pdb3r50-B-ASP-10:MBZ-pdb3r50-A-PHE-23
     RDKit          3D

 22 21  0  0  0  0  0  0  0  0999 V2000
    2.8999    1.4737   -3.4644 C   0  0  0  0  0  0  0  0  0  0  0  0
    3.0537    0.6466   -2.9340 H   0  0  0  0  0  0  0  0  0  0  0  0
    3.6894    1.6721   -4.0339 H   0  0  0  0  0  0  0  0  0  0  0  0
    2.0491    1.2950   -4.1218 H   0  0  0  0  0  0  0  0  0  0  0  0
    2.6973    2.6468   -2.4884 C   0  0  0  0  0  0  0  0  0  0  0  0
    2.0126    3.6204   -2.8395 O   0  0  0  0  0  1  0  0  0  0  0  0
    3.2587    2.6001   -1.3639 O   0  0  0  0  0  0  0  0  0  0  0  0
    0.0124    2.8869   -0.0375 C   0  0  0  0  0  0  0  0  0  0  0  0
   -0.6066    3.1855   -0.7510 H   0  0  0  0  0  0  0  0  0  0  0  0
    0.9378    3.1898   -0.2198 H   0  0  0  0  0  0  0  0  0  0  0  0
   -0.3094    3.3525    0.8940 H   0  0  0  0  0  0  0  0  0  0  0  0
    0.0040    1.3993   -0.0016 C   0  0  0  0  0  0  0  0  0  0  0  0
   -1.2045    0.6850    0.0055 C   0  0  0  0  0  0  0  0  0  0  0  0
   -2.0666    1.1743    0.0133 H   0  0  0  0  0  0  0  0  0  0  0  0
   -1.2062   -0.7148    0.0000 C   0  0  0  0  0  0  0  0  0  0  0  0
   -2.0793   -1.2073    0.0012 H   0  0  0  0  0  0  0  0  0  0  0  0
    0.0001   -1.3995   -0.0053 C   0  0  0  0  0  0  0  0  0  0  0  0
    0.0191   -2.3921   -0.0135 H   0  0  0  0  0  0  0  0  0  0  0  0
    1.2062   -0.6729   -0.0000 C   0  0  0  0  0  0  0  0  0  0  0  0
    2.0884   -1.1793    0.0046 H   0  0  0  0  0  0  0  0  0  0  0  0
    1.2003    0.7029    0.0014 C   0  0  0  0  0  0  0  0  0  0  0  0
    2.0657    1.2069    0.0038 H   0  0  0  0  0  0  0  0  0  0  0  0
  1  5  1  0
  5  6  1  0
  5  7  2  0
  1  2  1  0
  1  3  1  0
  1  4  1  0
  8 12  1  0
 12 13  2  0
 13 15  1  0
 15 17  2  0
 17 19  1  0
 19 21  2  0
 21 12  1  0
  8  9  1  0
  8 10  1  0
  8 11  1  0
 13 14  1  0
 15 16  1  0
 17 18  1  0
 19 20  1  0
 21 22  1  0
M  CHG  1   6  -1
M  END
>  <PDB_ID>  (1831) 
pdb3r50

>  <RESIDUE_NAME>  (1831) 
ASP   PHE

>  <FRAG_NAME>  (1831) 
ACET   MBZ

>  <FRAG_ATOM_NUM>  (1831) 
fragi: 7  fragj: 15

>  <atom.prop.CHAIN_ID>  (1831) 
A A A A A A A Z Z Z Z Z Z Z Z Z Z Z Z Z Z Z

>  <atom.prop.IS_HEAVY_ATOM>  (1831) 
1 0 0 0 1 1 1 1 0 0 0 1 1 0 1 0 1 0 1 0 1 0

>  <DIFUSE_FUNC_ATOM>  (1831) 
atom 6   atom 7   

>  <FINAL_SINGLE_POINT_ENERGY>  (1831) 
0

>  <NONCOV_INTER_ENERGY_QM>  (1831) 
0

>  <FF_Energy>  (1831) 
-1.22

>  <QM_Energy>  (1831) 
-8.63

>  <source>  (1831) 
ACET_MBZ_02

>  <Index>  (1831) 
2396

$$$$
ACET-pdb3r50-A-ASP-10:MBZ-pdb3r50-B-PHE-23
     RDKit          3D

 22 21  0  0  0  0  0  0  0  0999 V2000
    2.9503    1.6908   -3.3257 C   0  0  0  0  0  0  0  0  0  0  0  0
    3.0555    0.8619   -2.7853 H   0  0  0  0  0  0  0  0  0  0  0  0
    3.8015    1.9101   -3.7898 H   0  0  0  0  0  0  0  0  0  0  0  0
    2.1809    1.5169   -4.0780 H   0  0  0  0  0  0  0  0  0  0  0  0
    2.6091    2.8385   -2.3812 C   0  0  0  0  0  0  0  0  0  0  0  0
    1.8636    3.7405   -2.7919 O   0  0  0  0  0  1  0  0  0  0  0  0
    3.1145    2.8195   -1.2359 O   0  0  0  0  0  0  0  0  0  0  0  0
    0.0124    2.9592    0.0045 C   0  0  0  0  0  0  0  0  0  0  0  0
   -0.5401    3.2650   -0.7521 H   0  0  0  0  0  0  0  0  0  0  0  0
    0.9494    3.2524   -0.0814 H   0  0  0  0  0  0  0  0  0  0  0  0
   -0.3940    3.3990    0.9153 H   0  0  0  0  0  0  0  0  0  0  0  0
    0.0020    1.4341   -0.0004 C   0  0  0  0  0  0  0  0  0  0  0  0
   -1.2162    0.7192    0.0004 C   0  0  0  0  0  0  0  0  0  0  0  0
   -2.0776    1.2061   -0.0004 H   0  0  0  0  0  0  0  0  0  0  0  0
   -1.2375   -0.7100    0.0000 C   0  0  0  0  0  0  0  0  0  0  0  0
   -2.1050   -1.1894    0.0025 H   0  0  0  0  0  0  0  0  0  0  0  0
   -0.0048   -1.4374   -0.0022 C   0  0  0  0  0  0  0  0  0  0  0  0
   -0.0080   -2.4169   -0.0060 H   0  0  0  0  0  0  0  0  0  0  0  0
    1.2375   -0.7138   -0.0000 C   0  0  0  0  0  0  0  0  0  0  0  0
    2.1030   -1.2058    0.0015 H   0  0  0  0  0  0  0  0  0  0  0  0
    1.2190    0.7077    0.0023 C   0  0  0  0  0  0  0  0  0  0  0  0
    2.0835    1.2034    0.0053 H   0  0  0  0  0  0  0  0  0  0  0  0
  1  5  1  0
  5  6  1  0
  5  7  2  0
  1  2  1  0
  1  3  1  0
  1  4  1  0
  8 12  1  0
 12 13  2  0
 13 15  1  0
 15 17  2  0
 17 19  1  0
 19 21  2  0
 21 12  1  0
  8  9  1  0
  8 10  1  0
  8 11  1  0
 13 14  1  0
 15 16  1  0
 17 18  1  0
 19 20  1  0
 21 22  1  0
M  CHG  1   6  -1
M  END
>  <PDB_ID>  (1832) 
pdb3r50

>  <RESIDUE_NAME>  (1832) 
ASP   PHE

>  <FRAG_NAME>  (1832) 
ACET   MBZ

>  <FRAG_ATOM_NUM>  (1832) 
fragi: 7  fragj: 15

>  <atom.prop.CHAIN_ID>  (1832) 
A A A A A A A Z Z Z Z Z Z Z Z Z Z Z Z Z Z Z

>  <atom.prop.IS_HEAVY_ATOM>  (1832) 
1 0 0 0 1 1 1 1 0 0 0 1 1 0 1 0 1 0 1 0 1 0

>  <DIFUSE_FUNC_ATOM>  (1832) 
atom 6   atom 7   

>  <FINAL_SINGLE_POINT_ENERGY>  (1832) 
0

>  <NONCOV_INTER_ENERGY_QM>  (1832) 
0

>  <FF_Energy>  (1832) 
-0.7

>  <QM_Energy>  (1832) 
-8.82

>  <source>  (1832) 
ACET_MBZ_02

>  <Index>  (1832) 
2397

$$$$
ACET-pdb3r50-D-ASP-10:MBZ-pdb3r50-C-PHE-23
     RDKit          3D

 22 21  0  0  0  0  0  0  0  0999 V2000
    3.0383    1.3801   -3.4221 C   0  0  0  0  0  0  0  0  0  0  0  0
    3.1086    0.5906   -2.8175 H   0  0  0  0  0  0  0  0  0  0  0  0
    3.8705    1.4693   -3.9626 H   0  0  0  0  0  0  0  0  0  0  0  0
    2.2099    1.2040   -4.1085 H   0  0  0  0  0  0  0  0  0  0  0  0
    2.8622    2.6211   -2.5860 C   0  0  0  0  0  0  0  0  0  0  0  0
    2.2251    3.5885   -3.0673 O   0  0  0  0  0  1  0  0  0  0  0  0
    3.3874    2.6234   -1.4439 O   0  0  0  0  0  0  0  0  0  0  0  0
    0.0149    2.9080   -0.0809 C   0  0  0  0  0  0  0  0  0  0  0  0
   -0.6150    3.1806   -0.7965 H   0  0  0  0  0  0  0  0  0  0  0  0
    0.9392    3.1977   -0.2932 H   0  0  0  0  0  0  0  0  0  0  0  0
   -0.2889    3.4022    0.8419 H   0  0  0  0  0  0  0  0  0  0  0  0
    0.0056    1.4151   -0.0014 C   0  0  0  0  0  0  0  0  0  0  0  0
   -1.1954    0.7014    0.0027 C   0  0  0  0  0  0  0  0  0  0  0  0
   -2.0637    1.1803    0.0061 H   0  0  0  0  0  0  0  0  0  0  0  0
   -1.2046   -0.7193    0.0000 C   0  0  0  0  0  0  0  0  0  0  0  0
   -2.0842   -1.1964    0.0033 H   0  0  0  0  0  0  0  0  0  0  0  0
   -0.0033   -1.4213   -0.0054 C   0  0  0  0  0  0  0  0  0  0  0  0
    0.0082   -2.4070   -0.0132 H   0  0  0  0  0  0  0  0  0  0  0  0
    1.2046   -0.6934   -0.0000 C   0  0  0  0  0  0  0  0  0  0  0  0
    2.0888   -1.1811    0.0020 H   0  0  0  0  0  0  0  0  0  0  0  0
    1.1931    0.7176    0.0041 C   0  0  0  0  0  0  0  0  0  0  0  0
    2.0667    1.2036    0.0108 H   0  0  0  0  0  0  0  0  0  0  0  0
  1  5  1  0
  5  6  1  0
  5  7  2  0
  1  2  1  0
  1  3  1  0
  1  4  1  0
  8 12  1  0
 12 13  2  0
 13 15  1  0
 15 17  2  0
 17 19  1  0
 19 21  2  0
 21 12  1  0
  8  9  1  0
  8 10  1  0
  8 11  1  0
 13 14  1  0
 15 16  1  0
 17 18  1  0
 19 20  1  0
 21 22  1  0
M  CHG  1   6  -1
M  END
>  <PDB_ID>  (1833) 
pdb3r50

>  <RESIDUE_NAME>  (1833) 
ASP   PHE

>  <FRAG_NAME>  (1833) 
ACET   MBZ

>  <FRAG_ATOM_NUM>  (1833) 
fragi: 7  fragj: 15

>  <atom.prop.CHAIN_ID>  (1833) 
A A A A A A A Z Z Z Z Z Z Z Z Z Z Z Z Z Z Z

>  <atom.prop.IS_HEAVY_ATOM>  (1833) 
1 0 0 0 1 1 1 1 0 0 0 1 1 0 1 0 1 0 1 0 1 0

>  <DIFUSE_FUNC_ATOM>  (1833) 
atom 6   atom 7   

>  <FINAL_SINGLE_POINT_ENERGY>  (1833) 
0

>  <NONCOV_INTER_ENERGY_QM>  (1833) 
0

>  <FF_Energy>  (1833) 
-2.18

>  <QM_Energy>  (1833) 
-8.21

>  <source>  (1833) 
ACET_MBZ_02

>  <Index>  (1833) 
2399

$$$$
ACET-pdb3r6o-A-ASP-135:MBZ-pdb3r6o-A-PHE-269
     RDKit          3D

 22 21  0  0  0  0  0  0  0  0999 V2000
    5.5321    3.6395   -1.4832 C   0  0  0  0  0  0  0  0  0  0  0  0
    4.8418    4.1370   -1.9964 H   0  0  0  0  0  0  0  0  0  0  0  0
    5.8339    2.8408   -1.9918 H   0  0  0  0  0  0  0  0  0  0  0  0
    6.3909    4.2980   -1.3529 H   0  0  0  0  0  0  0  0  0  0  0  0
    4.9396    3.1908   -0.1711 C   0  0  0  0  0  0  0  0  0  0  0  0
    5.5850    3.3909    0.8722 O   0  0  0  0  0  1  0  0  0  0  0  0
    3.8045    2.6329   -0.1879 O   0  0  0  0  0  0  0  0  0  0  0  0
    0.0139    2.8863    0.0159 C   0  0  0  0  0  0  0  0  0  0  0  0
   -0.8376    3.2059   -0.3705 H   0  0  0  0  0  0  0  0  0  0  0  0
    0.7902    3.2022   -0.5071 H   0  0  0  0  0  0  0  0  0  0  0  0
    0.0981    3.3245    1.0104 H   0  0  0  0  0  0  0  0  0  0  0  0
    0.0107    1.3907    0.0080 C   0  0  0  0  0  0  0  0  0  0  0  0
   -1.1961    0.6776    0.0055 C   0  0  0  0  0  0  0  0  0  0  0  0
   -2.0572    1.1782    0.0067 H   0  0  0  0  0  0  0  0  0  0  0  0
   -1.2017   -0.7009    0.0000 C   0  0  0  0  0  0  0  0  0  0  0  0
   -2.0789   -1.1979    0.0034 H   0  0  0  0  0  0  0  0  0  0  0  0
   -0.0071   -1.3882   -0.0081 C   0  0  0  0  0  0  0  0  0  0  0  0
    0.0097   -2.3820   -0.0205 H   0  0  0  0  0  0  0  0  0  0  0  0
    1.2017   -0.6700   -0.0000 C   0  0  0  0  0  0  0  0  0  0  0  0
    2.0792   -1.1835    0.0114 H   0  0  0  0  0  0  0  0  0  0  0  0
    1.1924    0.6906   -0.0054 C   0  0  0  0  0  0  0  0  0  0  0  0
    2.0646    1.1980   -0.0205 H   0  0  0  0  0  0  0  0  0  0  0  0
  1  5  1  0
  5  6  1  0
  5  7  2  0
  1  2  1  0
  1  3  1  0
  1  4  1  0
  8 12  1  0
 12 13  2  0
 13 15  1  0
 15 17  2  0
 17 19  1  0
 19 21  2  0
 21 12  1  0
  8  9  1  0
  8 10  1  0
  8 11  1  0
 13 14  1  0
 15 16  1  0
 17 18  1  0
 19 20  1  0
 21 22  1  0
M  CHG  1   6  -1
M  END
>  <PDB_ID>  (1834) 
pdb3r6o

>  <RESIDUE_NAME>  (1834) 
ASP   PHE

>  <FRAG_NAME>  (1834) 
ACET   MBZ

>  <FRAG_ATOM_NUM>  (1834) 
fragi: 7  fragj: 15

>  <atom.prop.CHAIN_ID>  (1834) 
A A A A A A A Z Z Z Z Z Z Z Z Z Z Z Z Z Z Z

>  <atom.prop.IS_HEAVY_ATOM>  (1834) 
1 0 0 0 1 1 1 1 0 0 0 1 1 0 1 0 1 0 1 0 1 0

>  <DIFUSE_FUNC_ATOM>  (1834) 
atom 6   atom 7   

>  <FINAL_SINGLE_POINT_ENERGY>  (1834) 
0

>  <NONCOV_INTER_ENERGY_QM>  (1834) 
0

>  <FF_Energy>  (1834) 
-1.34

>  <QM_Energy>  (1834) 
-7.64

>  <source>  (1834) 
ACET_MBZ_02

>  <Index>  (1834) 
2494

$$$$
ACET-pdb3r77-A-ASP-162:MBZ-pdb3r77-A-PHE-128
     RDKit          3D

 22 21  0  0  0  0  0  0  0  0999 V2000
   -3.0227    1.2636   -3.0656 C   0  0  0  0  0  0  0  0  0  0  0  0
   -3.9251    1.6630   -2.9259 H   0  0  0  0  0  0  0  0  0  0  0  0
   -2.7084    0.8286   -2.2267 H   0  0  0  0  0  0  0  0  0  0  0  0
   -3.0868    0.5116   -3.8522 H   0  0  0  0  0  0  0  0  0  0  0  0
   -2.0565    2.3883   -3.4059 C   0  0  0  0  0  0  0  0  0  0  0  0
   -1.8419    3.2343   -2.5265 O   0  0  0  0  0  1  0  0  0  0  0  0
   -1.5229    2.4282   -4.5197 O   0  0  0  0  0  0  0  0  0  0  0  0
    0.0433    2.8421    0.0278 C   0  0  0  0  0  0  0  0  0  0  0  0
   -0.6604    3.1799   -0.5783 H   0  0  0  0  0  0  0  0  0  0  0  0
    0.9407    3.1382   -0.2624 H   0  0  0  0  0  0  0  0  0  0  0  0
   -0.1409    3.2629    1.0164 H   0  0  0  0  0  0  0  0  0  0  0  0
    0.0087    1.3587    0.0078 C   0  0  0  0  0  0  0  0  0  0  0  0
   -1.1666    0.6939    0.0085 C   0  0  0  0  0  0  0  0  0  0  0  0
   -2.0356    1.1815    0.0137 H   0  0  0  0  0  0  0  0  0  0  0  0
   -1.1725   -0.6858    0.0000 C   0  0  0  0  0  0  0  0  0  0  0  0
   -2.0622   -1.1705    0.0112 H   0  0  0  0  0  0  0  0  0  0  0  0
   -0.0066   -1.3560   -0.0212 C   0  0  0  0  0  0  0  0  0  0  0  0
   -0.0017   -2.3681   -0.0533 H   0  0  0  0  0  0  0  0  0  0  0  0
    1.1725   -0.6758    0.0000 C   0  0  0  0  0  0  0  0  0  0  0  0
    2.0575   -1.1884    0.0138 H   0  0  0  0  0  0  0  0  0  0  0  0
    1.1644    0.6651    0.0048 C   0  0  0  0  0  0  0  0  0  0  0  0
    2.0480    1.1727    0.0054 H   0  0  0  0  0  0  0  0  0  0  0  0
  1  5  1  0
  5  6  1  0
  5  7  2  0
  1  2  1  0
  1  3  1  0
  1  4  1  0
  8 12  1  0
 12 13  2  0
 13 15  1  0
 15 17  2  0
 17 19  1  0
 19 21  2  0
 21 12  1  0
  8  9  1  0
  8 10  1  0
  8 11  1  0
 13 14  1  0
 15 16  1  0
 17 18  1  0
 19 20  1  0
 21 22  1  0
M  CHG  1   6  -1
M  END
>  <PDB_ID>  (1835) 
pdb3r77

>  <RESIDUE_NAME>  (1835) 
ASP   PHE

>  <FRAG_NAME>  (1835) 
ACET   MBZ

>  <FRAG_ATOM_NUM>  (1835) 
fragi: 7  fragj: 15

>  <atom.prop.CHAIN_ID>  (1835) 
A A A A A A A Z Z Z Z Z Z Z Z Z Z Z Z Z Z Z

>  <atom.prop.IS_HEAVY_ATOM>  (1835) 
1 0 0 0 1 1 1 1 0 0 0 1 1 0 1 0 1 0 1 0 1 0

>  <DIFUSE_FUNC_ATOM>  (1835) 
atom 6   atom 7   

>  <FINAL_SINGLE_POINT_ENERGY>  (1835) 
0

>  <NONCOV_INTER_ENERGY_QM>  (1835) 
0

>  <FF_Energy>  (1835) 
0.69

>  <QM_Energy>  (1835) 
-5.52

>  <source>  (1835) 
ACET_MBZ_02

>  <Index>  (1835) 
2514

$$$$
ACET-pdb3r77-B-ASP-162:MBZ-pdb3r77-B-PHE-128
     RDKit          3D

 22 21  0  0  0  0  0  0  0  0999 V2000
   -2.9750    1.4624   -3.1011 C   0  0  0  0  0  0  0  0  0  0  0  0
   -3.8808    1.8710   -2.9993 H   0  0  0  0  0  0  0  0  0  0  0  0
   -2.7263    0.9841   -2.2603 H   0  0  0  0  0  0  0  0  0  0  0  0
   -3.0130    0.7366   -3.9134 H   0  0  0  0  0  0  0  0  0  0  0  0
   -1.9764    2.5656   -3.3387 C   0  0  0  0  0  0  0  0  0  0  0  0
   -1.8572    3.4232   -2.4156 O   0  0  0  0  0  1  0  0  0  0  0  0
   -1.3743    2.6467   -4.4464 O   0  0  0  0  0  0  0  0  0  0  0  0
    0.0237    2.8612    0.0755 C   0  0  0  0  0  0  0  0  0  0  0  0
   -0.7118    3.1934   -0.4994 H   0  0  0  0  0  0  0  0  0  0  0  0
    0.9020    3.1809   -0.2512 H   0  0  0  0  0  0  0  0  0  0  0  0
   -0.1277    3.2523    1.0816 H   0  0  0  0  0  0  0  0  0  0  0  0
    0.0204    1.3820    0.0221 C   0  0  0  0  0  0  0  0  0  0  0  0
   -1.1639    0.7031   -0.0093 C   0  0  0  0  0  0  0  0  0  0  0  0
   -2.0321    1.1962   -0.0403 H   0  0  0  0  0  0  0  0  0  0  0  0
   -1.1834   -0.6850   -0.0000 C   0  0  0  0  0  0  0  0  0  0  0  0
   -2.0883   -1.1488    0.0681 H   0  0  0  0  0  0  0  0  0  0  0  0
   -0.0479   -1.3713   -0.0765 C   0  0  0  0  0  0  0  0  0  0  0  0
   -0.0434   -2.3752   -0.1911 H   0  0  0  0  0  0  0  0  0  0  0  0
    1.1834   -0.7087   -0.0000 C   0  0  0  0  0  0  0  0  0  0  0  0
    2.0422   -1.2240    0.0101 H   0  0  0  0  0  0  0  0  0  0  0  0
    1.1914    0.6798    0.0637 C   0  0  0  0  0  0  0  0  0  0  0  0
    2.0682    1.1586    0.1400 H   0  0  0  0  0  0  0  0  0  0  0  0
  1  5  1  0
  5  6  1  0
  5  7  2  0
  1  2  1  0
  1  3  1  0
  1  4  1  0
  8 12  1  0
 12 13  2  0
 13 15  1  0
 15 17  2  0
 17 19  1  0
 19 21  2  0
 21 12  1  0
  8  9  1  0
  8 10  1  0
  8 11  1  0
 13 14  1  0
 15 16  1  0
 17 18  1  0
 19 20  1  0
 21 22  1  0
M  CHG  1   6  -1
M  END
>  <PDB_ID>  (1836) 
pdb3r77

>  <RESIDUE_NAME>  (1836) 
ASP   PHE

>  <FRAG_NAME>  (1836) 
ACET   MBZ

>  <FRAG_ATOM_NUM>  (1836) 
fragi: 7  fragj: 15

>  <atom.prop.CHAIN_ID>  (1836) 
A A A A A A A Z Z Z Z Z Z Z Z Z Z Z Z Z Z Z

>  <atom.prop.IS_HEAVY_ATOM>  (1836) 
1 0 0 0 1 1 1 1 0 0 0 1 1 0 1 0 1 0 1 0 1 0

>  <DIFUSE_FUNC_ATOM>  (1836) 
atom 6   atom 7   

>  <FINAL_SINGLE_POINT_ENERGY>  (1836) 
0

>  <NONCOV_INTER_ENERGY_QM>  (1836) 
0

>  <FF_Energy>  (1836) 
0.73

>  <QM_Energy>  (1836) 
-5.6

>  <source>  (1836) 
ACET_MBZ_02

>  <Index>  (1836) 
2517

$$$$
ACET-pdb3r79-B-GLU-154:MBZ-pdb3r79-B-PHE-150
     RDKit          3D

 22 21  0  0  0  0  0  0  0  0999 V2000
   -4.4393   -0.6654    2.6192 C   0  0  0  0  0  0  0  0  0  0  0  0
   -4.0894   -1.4023    3.1718 H   0  0  0  0  0  0  0  0  0  0  0  0
   -5.4016   -0.5160    2.7728 H   0  0  0  0  0  0  0  0  0  0  0  0
   -3.9052    0.2453    2.8903 H   0  0  0  0  0  0  0  0  0  0  0  0
   -4.2636   -1.0581    1.1648 C   0  0  0  0  0  0  0  0  0  0  0  0
   -4.3009   -0.1660    0.2933 O   0  0  0  0  0  1  0  0  0  0  0  0
   -4.1040   -2.2690    0.8920 O   0  0  0  0  0  0  0  0  0  0  0  0
    0.0123    2.8950    0.0070 C   0  0  0  0  0  0  0  0  0  0  0  0
   -0.5394    3.2114   -0.7525 H   0  0  0  0  0  0  0  0  0  0  0  0
    0.9502    3.1991   -0.0851 H   0  0  0  0  0  0  0  0  0  0  0  0
   -0.3912    3.3394    0.9169 H   0  0  0  0  0  0  0  0  0  0  0  0
    0.0021    1.4005    0.0017 C   0  0  0  0  0  0  0  0  0  0  0  0
   -1.1964    0.6957   -0.0014 C   0  0  0  0  0  0  0  0  0  0  0  0
   -2.0613    1.1843   -0.0055 H   0  0  0  0  0  0  0  0  0  0  0  0
   -1.2002   -0.6981   -0.0000 C   0  0  0  0  0  0  0  0  0  0  0  0
   -2.0790   -1.1883    0.0020 H   0  0  0  0  0  0  0  0  0  0  0  0
   -0.0036   -1.3924    0.0001 C   0  0  0  0  0  0  0  0  0  0  0  0
   -0.0052   -2.3917   -0.0004 H   0  0  0  0  0  0  0  0  0  0  0  0
    1.2002   -0.6977    0.0000 C   0  0  0  0  0  0  0  0  0  0  0  0
    2.0798   -1.1982    0.0021 H   0  0  0  0  0  0  0  0  0  0  0  0
    1.1980    0.6920   -0.0004 C   0  0  0  0  0  0  0  0  0  0  0  0
    2.0662    1.1879   -0.0036 H   0  0  0  0  0  0  0  0  0  0  0  0
  1  5  1  0
  5  6  1  0
  5  7  2  0
  1  2  1  0
  1  3  1  0
  1  4  1  0
  8 12  1  0
 12 13  2  0
 13 15  1  0
 15 17  2  0
 17 19  1  0
 19 21  2  0
 21 12  1  0
  8  9  1  0
  8 10  1  0
  8 11  1  0
 13 14  1  0
 15 16  1  0
 17 18  1  0
 19 20  1  0
 21 22  1  0
M  CHG  1   6  -1
M  END
>  <PDB_ID>  (1837) 
pdb3r79

>  <RESIDUE_NAME>  (1837) 
GLU   PHE

>  <FRAG_NAME>  (1837) 
ACET   MBZ

>  <FRAG_ATOM_NUM>  (1837) 
fragi: 7  fragj: 15

>  <atom.prop.CHAIN_ID>  (1837) 
A A A A A A A Z Z Z Z Z Z Z Z Z Z Z Z Z Z Z

>  <atom.prop.IS_HEAVY_ATOM>  (1837) 
1 0 0 0 1 1 1 1 0 0 0 1 1 0 1 0 1 0 1 0 1 0

>  <DIFUSE_FUNC_ATOM>  (1837) 
atom 6   atom 7   

>  <FINAL_SINGLE_POINT_ENERGY>  (1837) 
0

>  <NONCOV_INTER_ENERGY_QM>  (1837) 
0

>  <FF_Energy>  (1837) 
-1.58

>  <QM_Energy>  (1837) 
-7.99

>  <source>  (1837) 
ACET_MBZ_02

>  <Index>  (1837) 
2680

$$$$
ACET-pdb4pe2-A-ASP-82:MBZ-pdb4pe2-A-PHE-85
     RDKit          3D

 22 21  0  0  0  0  0  0  0  0999 V2000
    0.8465    7.0874   -2.4699 C   0  0  0  0  0  0  0  0  0  0  0  0
    0.6900    7.9266   -1.9492 H   0  0  0  0  0  0  0  0  0  0  0  0
    0.8071    7.2893   -3.4473 H   0  0  0  0  0  0  0  0  0  0  0  0
    1.8485    6.7265   -2.2380 H   0  0  0  0  0  0  0  0  0  0  0  0
   -0.2588    6.1009   -2.1364 C   0  0  0  0  0  0  0  0  0  0  0  0
    0.0208    4.9903   -1.6421 O   0  0  0  0  0  1  0  0  0  0  0  0
   -1.4221    6.4694   -2.3678 O   0  0  0  0  0  0  0  0  0  0  0  0
    0.0006    2.8980    0.0374 C   0  0  0  0  0  0  0  0  0  0  0  0
   -0.7881    3.2197   -0.4548 H   0  0  0  0  0  0  0  0  0  0  0  0
    0.8415    3.2194   -0.3600 H   0  0  0  0  0  0  0  0  0  0  0  0
   -0.0584    3.2863    1.0542 H   0  0  0  0  0  0  0  0  0  0  0  0
    0.0026    1.4001   -0.0084 C   0  0  0  0  0  0  0  0  0  0  0  0
   -1.1953    0.6923    0.0060 C   0  0  0  0  0  0  0  0  0  0  0  0
   -2.0607    1.1819    0.0193 H   0  0  0  0  0  0  0  0  0  0  0  0
   -1.1958   -0.6955    0.0000 C   0  0  0  0  0  0  0  0  0  0  0  0
   -2.0764   -1.1895   -0.0028 H   0  0  0  0  0  0  0  0  0  0  0  0
   -0.0029   -1.3890   -0.0007 C   0  0  0  0  0  0  0  0  0  0  0  0
   -0.0068   -2.3907   -0.0027 H   0  0  0  0  0  0  0  0  0  0  0  0
    1.1958   -0.6979    0.0000 C   0  0  0  0  0  0  0  0  0  0  0  0
    2.0773   -1.1985   -0.0006 H   0  0  0  0  0  0  0  0  0  0  0  0
    1.1956    0.6900    0.0031 C   0  0  0  0  0  0  0  0  0  0  0  0
    2.0652    1.1845    0.0126 H   0  0  0  0  0  0  0  0  0  0  0  0
  1  5  1  0
  5  6  1  0
  5  7  2  0
  1  2  1  0
  1  3  1  0
  1  4  1  0
  8 12  1  0
 12 13  2  0
 13 15  1  0
 15 17  2  0
 17 19  1  0
 19 21  2  0
 21 12  1  0
  8  9  1  0
  8 10  1  0
  8 11  1  0
 13 14  1  0
 15 16  1  0
 17 18  1  0
 19 20  1  0
 21 22  1  0
M  CHG  1   6  -1
M  END
>  <PDB_ID>  (1838) 
pdb4pe2

>  <RESIDUE_NAME>  (1838) 
ASP   PHE

>  <FRAG_NAME>  (1838) 
ACET   MBZ

>  <FRAG_ATOM_NUM>  (1838) 
fragi: 7  fragj: 15

>  <atom.prop.CHAIN_ID>  (1838) 
A A A A A A A Z Z Z Z Z Z Z Z Z Z Z Z Z Z Z

>  <atom.prop.IS_HEAVY_ATOM>  (1838) 
1 0 0 0 1 1 1 1 0 0 0 1 1 0 1 0 1 0 1 0 1 0

>  <DIFUSE_FUNC_ATOM>  (1838) 
atom 6   atom 7   

>  <FINAL_SINGLE_POINT_ENERGY>  (1838) 
0

>  <NONCOV_INTER_ENERGY_QM>  (1838) 
0

>  <FF_Energy>  (1838) 
4.68

>  <QM_Energy>  (1838) 
-3.02

>  <source>  (1838) 
ACET_MBZ_02

>  <Index>  (1838) 
2773

$$$$
ACET-pdb3rbt-A-ASP-170:MBZ-pdb3rbt-A-PHE-161
     RDKit          3D

 22 21  0  0  0  0  0  0  0  0999 V2000
   -4.6876    4.3045   -1.1474 C   0  0  0  0  0  0  0  0  0  0  0  0
   -4.8573    5.2631   -1.3427 H   0  0  0  0  0  0  0  0  0  0  0  0
   -5.5160    3.8586   -0.8336 H   0  0  0  0  0  0  0  0  0  0  0  0
   -4.3770    3.8232   -2.0747 H   0  0  0  0  0  0  0  0  0  0  0  0
   -3.6361    4.1994   -0.0766 C   0  0  0  0  0  0  0  0  0  0  0  0
   -3.5472    3.1354    0.5819 O   0  0  0  0  0  1  0  0  0  0  0  0
   -2.8832    5.1810    0.0921 O   0  0  0  0  0  0  0  0  0  0  0  0
    0.0130    2.9081    0.0325 C   0  0  0  0  0  0  0  0  0  0  0  0
   -0.8354    3.2315   -0.3487 H   0  0  0  0  0  0  0  0  0  0  0  0
    0.7929    3.2231   -0.4808 H   0  0  0  0  0  0  0  0  0  0  0  0
    0.0971    3.3107    1.0420 H   0  0  0  0  0  0  0  0  0  0  0  0
    0.0017    1.4052   -0.0044 C   0  0  0  0  0  0  0  0  0  0  0  0
   -1.1983    0.7032    0.0067 C   0  0  0  0  0  0  0  0  0  0  0  0
   -2.0627    1.1910    0.0186 H   0  0  0  0  0  0  0  0  0  0  0  0
   -1.2061   -0.6973   -0.0000 C   0  0  0  0  0  0  0  0  0  0  0  0
   -2.0831   -1.1854   -0.0025 H   0  0  0  0  0  0  0  0  0  0  0  0
   -0.0020   -1.3993   -0.0013 C   0  0  0  0  0  0  0  0  0  0  0  0
   -0.0077   -2.3961   -0.0039 H   0  0  0  0  0  0  0  0  0  0  0  0
    1.2061   -0.7027   -0.0000 C   0  0  0  0  0  0  0  0  0  0  0  0
    2.0837   -1.2003    0.0037 H   0  0  0  0  0  0  0  0  0  0  0  0
    1.1985    0.6909   -0.0011 C   0  0  0  0  0  0  0  0  0  0  0  0
    2.0678    1.1874   -0.0000 H   0  0  0  0  0  0  0  0  0  0  0  0
  1  5  1  0
  5  6  1  0
  5  7  2  0
  1  2  1  0
  1  3  1  0
  1  4  1  0
  8 12  1  0
 12 13  2  0
 13 15  1  0
 15 17  2  0
 17 19  1  0
 19 21  2  0
 21 12  1  0
  8  9  1  0
  8 10  1  0
  8 11  1  0
 13 14  1  0
 15 16  1  0
 17 18  1  0
 19 20  1  0
 21 22  1  0
M  CHG  1   6  -1
M  END
>  <PDB_ID>  (1839) 
pdb3rbt

>  <RESIDUE_NAME>  (1839) 
ASP   PHE

>  <FRAG_NAME>  (1839) 
ACET   MBZ

>  <FRAG_ATOM_NUM>  (1839) 
fragi: 7  fragj: 15

>  <atom.prop.CHAIN_ID>  (1839) 
A A A A A A A Z Z Z Z Z Z Z Z Z Z Z Z Z Z Z

>  <atom.prop.IS_HEAVY_ATOM>  (1839) 
1 0 0 0 1 1 1 1 0 0 0 1 1 0 1 0 1 0 1 0 1 0

>  <DIFUSE_FUNC_ATOM>  (1839) 
atom 6   atom 7   

>  <FINAL_SINGLE_POINT_ENERGY>  (1839) 
0

>  <NONCOV_INTER_ENERGY_QM>  (1839) 
0

>  <FF_Energy>  (1839) 
-2.6

>  <QM_Energy>  (1839) 
-8.4

>  <source>  (1839) 
ACET_MBZ_02

>  <Index>  (1839) 
2861

$$$$
ACET-pdb3rcz-B-GLU-132:MBZ-pdb3rcz-B-PHE-82
     RDKit          3D

 22 21  0  0  0  0  0  0  0  0999 V2000
   -4.5887   -1.7893    0.1725 C   0  0  0  0  0  0  0  0  0  0  0  0
   -3.7105   -1.4303    0.4432 H   0  0  0  0  0  0  0  0  0  0  0  0
   -4.5423   -2.7543   -0.0252 H   0  0  0  0  0  0  0  0  0  0  0  0
   -5.2824   -1.6455    1.0010 H   0  0  0  0  0  0  0  0  0  0  0  0
   -5.0022   -1.0785   -1.1043 C   0  0  0  0  0  0  0  0  0  0  0  0
   -5.6435   -1.7322   -1.9586 O   0  0  0  0  0  1  0  0  0  0  0  0
   -4.6720    0.1202   -1.2596 O   0  0  0  0  0  0  0  0  0  0  0  0
    0.0003    2.9056   -0.0105 C   0  0  0  0  0  0  0  0  0  0  0  0
   -0.7419    3.2064   -0.5898 H   0  0  0  0  0  0  0  0  0  0  0  0
    0.8740    3.2101   -0.3582 H   0  0  0  0  0  0  0  0  0  0  0  0
   -0.1415    3.3563    0.9718 H   0  0  0  0  0  0  0  0  0  0  0  0
    0.0027    1.3996    0.0001 C   0  0  0  0  0  0  0  0  0  0  0  0
   -1.1933    0.6883   -0.0031 C   0  0  0  0  0  0  0  0  0  0  0  0
   -2.0607    1.1804   -0.0086 H   0  0  0  0  0  0  0  0  0  0  0  0
   -1.1990   -0.6997    0.0000 C   0  0  0  0  0  0  0  0  0  0  0  0
   -2.0772   -1.1926    0.0002 H   0  0  0  0  0  0  0  0  0  0  0  0
   -0.0026   -1.3932    0.0047 C   0  0  0  0  0  0  0  0  0  0  0  0
   -0.0004   -2.3909    0.0111 H   0  0  0  0  0  0  0  0  0  0  0  0
    1.1990   -0.6909   -0.0000 C   0  0  0  0  0  0  0  0  0  0  0  0
    2.0808   -1.1900   -0.0012 H   0  0  0  0  0  0  0  0  0  0  0  0
    1.1932    0.6960   -0.0016 C   0  0  0  0  0  0  0  0  0  0  0  0
    2.0633    1.1922   -0.0050 H   0  0  0  0  0  0  0  0  0  0  0  0
  1  5  1  0
  5  6  1  0
  5  7  2  0
  1  2  1  0
  1  3  1  0
  1  4  1  0
  8 12  1  0
 12 13  2  0
 13 15  1  0
 15 17  2  0
 17 19  1  0
 19 21  2  0
 21 12  1  0
  8  9  1  0
  8 10  1  0
  8 11  1  0
 13 14  1  0
 15 16  1  0
 17 18  1  0
 19 20  1  0
 21 22  1  0
M  CHG  1   6  -1
M  END
>  <PDB_ID>  (1840) 
pdb3rcz

>  <RESIDUE_NAME>  (1840) 
GLU   PHE

>  <FRAG_NAME>  (1840) 
ACET   MBZ

>  <FRAG_ATOM_NUM>  (1840) 
fragi: 7  fragj: 15

>  <atom.prop.CHAIN_ID>  (1840) 
A A A A A A A Z Z Z Z Z Z Z Z Z Z Z Z Z Z Z

>  <atom.prop.IS_HEAVY_ATOM>  (1840) 
1 0 0 0 1 1 1 1 0 0 0 1 1 0 1 0 1 0 1 0 1 0

>  <DIFUSE_FUNC_ATOM>  (1840) 
atom 6   atom 7   

>  <FINAL_SINGLE_POINT_ENERGY>  (1840) 
0

>  <NONCOV_INTER_ENERGY_QM>  (1840) 
0

>  <FF_Energy>  (1840) 
4.58

>  <QM_Energy>  (1840) 
-2.5

>  <source>  (1840) 
ACET_MBZ_02

>  <Index>  (1840) 
2929

$$$$
ACET-pdb3rde-C-GLU-399:MBZ-pdb3rde-C-PHE-167
     RDKit          3D

 22 21  0  0  0  0  0  0  0  0999 V2000
   -0.8766   -0.4080   -3.5144 C   0  0  0  0  0  0  0  0  0  0  0  0
   -0.5052   -0.9927   -2.8043 H   0  0  0  0  0  0  0  0  0  0  0  0
   -0.6649   -0.7699   -4.4134 H   0  0  0  0  0  0  0  0  0  0  0  0
   -1.9601   -0.4731   -3.4151 H   0  0  0  0  0  0  0  0  0  0  0  0
   -0.2718    0.9638   -3.3847 C   0  0  0  0  0  0  0  0  0  0  0  0
   -0.9679    1.9840   -3.4893 O   0  0  0  0  0  1  0  0  0  0  0  0
    0.9569    1.0183   -3.2001 O   0  0  0  0  0  0  0  0  0  0  0  0
    0.0731    2.8933    0.0640 C   0  0  0  0  0  0  0  0  0  0  0  0
    0.5701    3.2036   -0.7506 H   0  0  0  0  0  0  0  0  0  0  0  0
    0.5972    3.1476    0.8807 H   0  0  0  0  0  0  0  0  0  0  0  0
   -0.8761    3.4279    0.0989 H   0  0  0  0  0  0  0  0  0  0  0  0
   -0.0111    1.4186    0.0139 C   0  0  0  0  0  0  0  0  0  0  0  0
   -1.1665    0.7390    0.0188 C   0  0  0  0  0  0  0  0  0  0  0  0
   -2.0530    1.2074    0.0348 H   0  0  0  0  0  0  0  0  0  0  0  0
   -1.1833   -0.6754   -0.0000 C   0  0  0  0  0  0  0  0  0  0  0  0
   -2.0812   -1.1418   -0.0001 H   0  0  0  0  0  0  0  0  0  0  0  0
   -0.0100   -1.4014   -0.0158 C   0  0  0  0  0  0  0  0  0  0  0  0
   -0.0515   -2.4045   -0.0395 H   0  0  0  0  0  0  0  0  0  0  0  0
    1.1833   -0.7511    0.0000 C   0  0  0  0  0  0  0  0  0  0  0  0
    2.0626   -1.2345    0.0245 H   0  0  0  0  0  0  0  0  0  0  0  0
    1.1877    0.6703   -0.0170 C   0  0  0  0  0  0  0  0  0  0  0  0
    2.0627    1.1491   -0.0525 H   0  0  0  0  0  0  0  0  0  0  0  0
  1  5  1  0
  5  6  1  0
  5  7  2  0
  1  2  1  0
  1  3  1  0
  1  4  1  0
  8 12  1  0
 12 13  2  0
 13 15  1  0
 15 17  2  0
 17 19  1  0
 19 21  2  0
 21 12  1  0
  8  9  1  0
  8 10  1  0
  8 11  1  0
 13 14  1  0
 15 16  1  0
 17 18  1  0
 19 20  1  0
 21 22  1  0
M  CHG  1   6  -1
M  END
>  <PDB_ID>  (1841) 
pdb3rde

>  <RESIDUE_NAME>  (1841) 
GLU   PHE

>  <FRAG_NAME>  (1841) 
ACET   MBZ

>  <FRAG_ATOM_NUM>  (1841) 
fragi: 7  fragj: 15

>  <atom.prop.CHAIN_ID>  (1841) 
A A A A A A A Z Z Z Z Z Z Z Z Z Z Z Z Z Z Z

>  <atom.prop.IS_HEAVY_ATOM>  (1841) 
1 0 0 0 1 1 1 1 0 0 0 1 1 0 1 0 1 0 1 0 1 0

>  <DIFUSE_FUNC_ATOM>  (1841) 
atom 6   atom 7   

>  <FINAL_SINGLE_POINT_ENERGY>  (1841) 
0

>  <NONCOV_INTER_ENERGY_QM>  (1841) 
0

>  <FF_Energy>  (1841) 
0.28

>  <QM_Energy>  (1841) 
-3.42

>  <source>  (1841) 
ACET_MBZ_02

>  <Index>  (1841) 
2982

$$$$
ACET-pdb4piq-A-ASP-71:MBZ-pdb4piq-A-PHE-75
     RDKit          3D

 22 21  0  0  0  0  0  0  0  0999 V2000
   -4.6764    4.9779    1.5735 C   0  0  0  0  0  0  0  0  0  0  0  0
   -4.7843    5.5613    0.7638 H   0  0  0  0  0  0  0  0  0  0  0  0
   -3.9034    5.3160    2.1159 H   0  0  0  0  0  0  0  0  0  0  0  0
   -5.5756    5.0884    2.1795 H   0  0  0  0  0  0  0  0  0  0  0  0
   -4.3579    3.5572    1.1079 C   0  0  0  0  0  0  0  0  0  0  0  0
   -5.2724    2.7018    1.1157 O   0  0  0  0  0  1  0  0  0  0  0  0
   -3.2050    3.3071    0.7225 O   0  0  0  0  0  0  0  0  0  0  0  0
   -0.0013    2.9286    0.0143 C   0  0  0  0  0  0  0  0  0  0  0  0
   -0.9344    3.2300   -0.1941 H   0  0  0  0  0  0  0  0  0  0  0  0
    0.6131    3.2304   -0.7177 H   0  0  0  0  0  0  0  0  0  0  0  0
    0.3076    3.4376    0.9273 H   0  0  0  0  0  0  0  0  0  0  0  0
    0.0005    1.4111    0.0174 C   0  0  0  0  0  0  0  0  0  0  0  0
   -1.1948    0.6976    0.0028 C   0  0  0  0  0  0  0  0  0  0  0  0
   -2.0634    1.1790   -0.0070 H   0  0  0  0  0  0  0  0  0  0  0  0
   -1.1942   -0.7062   -0.0000 C   0  0  0  0  0  0  0  0  0  0  0  0
   -2.0753   -1.1930   -0.0071 H   0  0  0  0  0  0  0  0  0  0  0  0
   -0.0004   -1.3952    0.0081 C   0  0  0  0  0  0  0  0  0  0  0  0
   -0.0036   -2.3978    0.0195 H   0  0  0  0  0  0  0  0  0  0  0  0
    1.1942   -0.7042    0.0000 C   0  0  0  0  0  0  0  0  0  0  0  0
    2.0794   -1.1963    0.0161 H   0  0  0  0  0  0  0  0  0  0  0  0
    1.1947    0.6968   -0.0283 C   0  0  0  0  0  0  0  0  0  0  0  0
    2.0637    1.1848   -0.0825 H   0  0  0  0  0  0  0  0  0  0  0  0
  1  5  1  0
  5  6  1  0
  5  7  2  0
  1  2  1  0
  1  3  1  0
  1  4  1  0
  8 12  1  0
 12 13  2  0
 13 15  1  0
 15 17  2  0
 17 19  1  0
 19 21  2  0
 21 12  1  0
  8  9  1  0
  8 10  1  0
  8 11  1  0
 13 14  1  0
 15 16  1  0
 17 18  1  0
 19 20  1  0
 21 22  1  0
M  CHG  1   6  -1
M  END
>  <PDB_ID>  (1842) 
pdb4piq

>  <RESIDUE_NAME>  (1842) 
ASP   PHE

>  <FRAG_NAME>  (1842) 
ACET   MBZ

>  <FRAG_ATOM_NUM>  (1842) 
fragi: 7  fragj: 15

>  <atom.prop.CHAIN_ID>  (1842) 
A A A A A A A Z Z Z Z Z Z Z Z Z Z Z Z Z Z Z

>  <atom.prop.IS_HEAVY_ATOM>  (1842) 
1 0 0 0 1 1 1 1 0 0 0 1 1 0 1 0 1 0 1 0 1 0

>  <DIFUSE_FUNC_ATOM>  (1842) 
atom 6   atom 7   

>  <FINAL_SINGLE_POINT_ENERGY>  (1842) 
0

>  <NONCOV_INTER_ENERGY_QM>  (1842) 
0

>  <FF_Energy>  (1842) 
-1.91

>  <QM_Energy>  (1842) 
-7.92

>  <source>  (1842) 
ACET_MBZ_02

>  <Index>  (1842) 
3015

$$$$
ACET-pdb3re8-C-ASP-437:MBZ-pdb3re8-C-PHE-293
     RDKit          3D

 22 21  0  0  0  0  0  0  0  0999 V2000
    5.2697    0.3666   -0.5235 C   0  0  0  0  0  0  0  0  0  0  0  0
    5.3503    0.6425    0.4279 H   0  0  0  0  0  0  0  0  0  0  0  0
    4.6094    0.9386   -0.9965 H   0  0  0  0  0  0  0  0  0  0  0  0
    6.2406    0.5053   -0.9988 H   0  0  0  0  0  0  0  0  0  0  0  0
    4.7957   -1.0706   -0.5756 C   0  0  0  0  0  0  0  0  0  0  0  0
    5.2612   -1.8343   -1.4519 O   0  0  0  0  0  1  0  0  0  0  0  0
    3.9438   -1.4341    0.2577 O   0  0  0  0  0  0  0  0  0  0  0  0
   -0.0039    2.9058   -0.0327 C   0  0  0  0  0  0  0  0  0  0  0  0
   -0.7938    3.2014   -0.5516 H   0  0  0  0  0  0  0  0  0  0  0  0
    0.8366    3.2051   -0.4636 H   0  0  0  0  0  0  0  0  0  0  0  0
   -0.0580    3.3763    0.9490 H   0  0  0  0  0  0  0  0  0  0  0  0
   -0.0023    1.4038   -0.0013 C   0  0  0  0  0  0  0  0  0  0  0  0
   -1.1980    0.6932    0.0011 C   0  0  0  0  0  0  0  0  0  0  0  0
   -2.0659    1.1809    0.0025 H   0  0  0  0  0  0  0  0  0  0  0  0
   -1.2019   -0.7007   -0.0000 C   0  0  0  0  0  0  0  0  0  0  0  0
   -2.0759   -1.1948    0.0019 H   0  0  0  0  0  0  0  0  0  0  0  0
    0.0045   -1.3958   -0.0009 C   0  0  0  0  0  0  0  0  0  0  0  0
    0.0005   -2.3937   -0.0024 H   0  0  0  0  0  0  0  0  0  0  0  0
    1.2019   -0.6969   -0.0000 C   0  0  0  0  0  0  0  0  0  0  0  0
    2.0852   -1.1910    0.0014 H   0  0  0  0  0  0  0  0  0  0  0  0
    1.1958    0.6965    0.0011 C   0  0  0  0  0  0  0  0  0  0  0  0
    2.0636    1.1930    0.0034 H   0  0  0  0  0  0  0  0  0  0  0  0
  1  5  1  0
  5  6  1  0
  5  7  2  0
  1  2  1  0
  1  3  1  0
  1  4  1  0
  8 12  1  0
 12 13  2  0
 13 15  1  0
 15 17  2  0
 17 19  1  0
 19 21  2  0
 21 12  1  0
  8  9  1  0
  8 10  1  0
  8 11  1  0
 13 14  1  0
 15 16  1  0
 17 18  1  0
 19 20  1  0
 21 22  1  0
M  CHG  1   6  -1
M  END
>  <PDB_ID>  (1843) 
pdb3re8

>  <RESIDUE_NAME>  (1843) 
ASP   PHE

>  <FRAG_NAME>  (1843) 
ACET   MBZ

>  <FRAG_ATOM_NUM>  (1843) 
fragi: 7  fragj: 15

>  <atom.prop.CHAIN_ID>  (1843) 
A A A A A A A Z Z Z Z Z Z Z Z Z Z Z Z Z Z Z

>  <atom.prop.IS_HEAVY_ATOM>  (1843) 
1 0 0 0 1 1 1 1 0 0 0 1 1 0 1 0 1 0 1 0 1 0

>  <DIFUSE_FUNC_ATOM>  (1843) 
atom 6   atom 7   

>  <FINAL_SINGLE_POINT_ENERGY>  (1843) 
0

>  <NONCOV_INTER_ENERGY_QM>  (1843) 
0

>  <FF_Energy>  (1843) 
13.76

>  <QM_Energy>  (1843) 
-5.18

>  <source>  (1843) 
ACET_MBZ_02

>  <Index>  (1843) 
3078

$$$$
ACET-pdb4pl7-A-GLU-57:MBZ-pdb4pl7-A-PHE-53
     RDKit          3D

 22 21  0  0  0  0  0  0  0  0999 V2000
   -3.1322    4.3480    0.6371 C   0  0  0  0  0  0  0  0  0  0  0  0
   -2.8716    5.2886    0.5645 H   0  0  0  0  0  0  0  0  0  0  0  0
   -2.3681    3.7479    0.7596 H   0  0  0  0  0  0  0  0  0  0  0  0
   -3.7946    4.2415    1.4962 H   0  0  0  0  0  0  0  0  0  0  0  0
   -3.8173    3.9591   -0.6663 C   0  0  0  0  0  0  0  0  0  0  0  0
   -3.0912    3.6527   -1.6549 O   0  0  0  0  0  1  0  0  0  0  0  0
   -5.0834    3.9897   -0.6958 O   0  0  0  0  0  0  0  0  0  0  0  0
    0.0088    2.9414    0.0408 C   0  0  0  0  0  0  0  0  0  0  0  0
    0.7352    3.2155    0.6564 H   0  0  0  0  0  0  0  0  0  0  0  0
   -0.8739    3.2346    0.3823 H   0  0  0  0  0  0  0  0  0  0  0  0
    0.1780    3.4235   -0.9221 H   0  0  0  0  0  0  0  0  0  0  0  0
   -0.0014    1.4250   -0.0050 C   0  0  0  0  0  0  0  0  0  0  0  0
   -1.1995    0.7217    0.0055 C   0  0  0  0  0  0  0  0  0  0  0  0
   -2.0689    1.1990    0.0153 H   0  0  0  0  0  0  0  0  0  0  0  0
   -1.2141   -0.7052    0.0000 C   0  0  0  0  0  0  0  0  0  0  0  0
   -2.0902   -1.1815    0.0021 H   0  0  0  0  0  0  0  0  0  0  0  0
   -0.0010   -1.4227   -0.0069 C   0  0  0  0  0  0  0  0  0  0  0  0
   -0.0114   -2.4115   -0.0175 H   0  0  0  0  0  0  0  0  0  0  0  0
    1.2141   -0.7186    0.0000 C   0  0  0  0  0  0  0  0  0  0  0  0
    2.0907   -1.2046    0.0016 H   0  0  0  0  0  0  0  0  0  0  0  0
    1.2020    0.6998    0.0064 C   0  0  0  0  0  0  0  0  0  0  0  0
    2.0721    1.1890    0.0182 H   0  0  0  0  0  0  0  0  0  0  0  0
  1  5  1  0
  5  6  1  0
  5  7  2  0
  1  2  1  0
  1  3  1  0
  1  4  1  0
  8 12  1  0
 12 13  2  0
 13 15  1  0
 15 17  2  0
 17 19  1  0
 19 21  2  0
 21 12  1  0
  8  9  1  0
  8 10  1  0
  8 11  1  0
 13 14  1  0
 15 16  1  0
 17 18  1  0
 19 20  1  0
 21 22  1  0
M  CHG  1   6  -1
M  END
>  <PDB_ID>  (1844) 
pdb4pl7

>  <RESIDUE_NAME>  (1844) 
GLU   PHE

>  <FRAG_NAME>  (1844) 
ACET   MBZ

>  <FRAG_ATOM_NUM>  (1844) 
fragi: 7  fragj: 15

>  <atom.prop.CHAIN_ID>  (1844) 
A A A A A A A Z Z Z Z Z Z Z Z Z Z Z Z Z Z Z

>  <atom.prop.IS_HEAVY_ATOM>  (1844) 
1 0 0 0 1 1 1 1 0 0 0 1 1 0 1 0 1 0 1 0 1 0

>  <DIFUSE_FUNC_ATOM>  (1844) 
atom 6   atom 7   

>  <FINAL_SINGLE_POINT_ENERGY>  (1844) 
0

>  <NONCOV_INTER_ENERGY_QM>  (1844) 
0

>  <FF_Energy>  (1844) 
8.51

>  <QM_Energy>  (1844) 
-2.15

>  <source>  (1844) 
ACET_MBZ_02

>  <Index>  (1844) 
3155

$$$$
ACET-pdb3rau-B-GLU-322:MBZ-pdb3rau-B-PHE-266
     RDKit          3D

 22 21  0  0  0  0  0  0  0  0999 V2000
    3.9372    5.0591    0.2061 C   0  0  0  0  0  0  0  0  0  0  0  0
    4.9187    5.0425    0.2215 H   0  0  0  0  0  0  0  0  0  0  0  0
    3.5447    4.7982    1.0675 H   0  0  0  0  0  0  0  0  0  0  0  0
    3.6148    6.0740   -0.0261 H   0  0  0  0  0  0  0  0  0  0  0  0
    3.4787    4.0411   -0.8320 C   0  0  0  0  0  0  0  0  0  0  0  0
    2.9569    4.4549   -1.8906 O   0  0  0  0  0  1  0  0  0  0  0  0
    3.6439    2.8257   -0.5908 O   0  0  0  0  0  0  0  0  0  0  0  0
   -0.0073    2.8793   -0.0114 C   0  0  0  0  0  0  0  0  0  0  0  0
    0.9124    3.1981    0.1554 H   0  0  0  0  0  0  0  0  0  0  0  0
   -0.6314    3.1952    0.6862 H   0  0  0  0  0  0  0  0  0  0  0  0
   -0.3351    3.2975   -0.9631 H   0  0  0  0  0  0  0  0  0  0  0  0
    0.0007    1.3895    0.0048 C   0  0  0  0  0  0  0  0  0  0  0  0
   -1.1900    0.6853   -0.0038 C   0  0  0  0  0  0  0  0  0  0  0  0
   -2.0581    1.1812   -0.0143 H   0  0  0  0  0  0  0  0  0  0  0  0
   -1.1961   -0.6904    0.0000 C   0  0  0  0  0  0  0  0  0  0  0  0
   -2.0757   -1.1866    0.0050 H   0  0  0  0  0  0  0  0  0  0  0  0
   -0.0059   -1.3810   -0.0015 C   0  0  0  0  0  0  0  0  0  0  0  0
   -0.0073   -2.3840   -0.0041 H   0  0  0  0  0  0  0  0  0  0  0  0
    1.1961   -0.6904   -0.0000 C   0  0  0  0  0  0  0  0  0  0  0  0
    2.0744   -1.1967    0.0022 H   0  0  0  0  0  0  0  0  0  0  0  0
    1.1952    0.6869    0.0005 C   0  0  0  0  0  0  0  0  0  0  0  0
    2.0617    1.1870   -0.0034 H   0  0  0  0  0  0  0  0  0  0  0  0
  1  5  1  0
  5  6  1  0
  5  7  2  0
  1  2  1  0
  1  3  1  0
  1  4  1  0
  8 12  1  0
 12 13  2  0
 13 15  1  0
 15 17  2  0
 17 19  1  0
 19 21  2  0
 21 12  1  0
  8  9  1  0
  8 10  1  0
  8 11  1  0
 13 14  1  0
 15 16  1  0
 17 18  1  0
 19 20  1  0
 21 22  1  0
M  CHG  1   6  -1
M  END
>  <PDB_ID>  (1845) 
pdb3rau

>  <RESIDUE_NAME>  (1845) 
GLU   PHE

>  <FRAG_NAME>  (1845) 
ACET   MBZ

>  <FRAG_ATOM_NUM>  (1845) 
fragi: 7  fragj: 15

>  <atom.prop.CHAIN_ID>  (1845) 
A A A A A A A Z Z Z Z Z Z Z Z Z Z Z Z Z Z Z

>  <atom.prop.IS_HEAVY_ATOM>  (1845) 
1 0 0 0 1 1 1 1 0 0 0 1 1 0 1 0 1 0 1 0 1 0

>  <DIFUSE_FUNC_ATOM>  (1845) 
atom 6   atom 7   

>  <FINAL_SINGLE_POINT_ENERGY>  (1845) 
0

>  <NONCOV_INTER_ENERGY_QM>  (1845) 
0

>  <FF_Energy>  (1845) 
-2.04

>  <QM_Energy>  (1845) 
-7.9

>  <source>  (1845) 
ACET_MBZ_02

>  <Index>  (1845) 
3169

$$$$
ACET-pdb3rft-A-ASP-133:MBZ-pdb3rft-A-PHE-258
     RDKit          3D

 22 21  0  0  0  0  0  0  0  0999 V2000
   -2.9953    5.8323    1.1695 C   0  0  0  0  0  0  0  0  0  0  0  0
   -2.3476    6.0663    0.4517 H   0  0  0  0  0  0  0  0  0  0  0  0
   -2.9020    6.4592    1.9359 H   0  0  0  0  0  0  0  0  0  0  0  0
   -3.9984    5.9564    0.7617 H   0  0  0  0  0  0  0  0  0  0  0  0
   -2.7086    4.4207    1.6502 C   0  0  0  0  0  0  0  0  0  0  0  0
   -3.3173    3.4549    1.1424 O   0  0  0  0  0  1  0  0  0  0  0  0
   -1.8347    4.2697    2.5426 O   0  0  0  0  0  0  0  0  0  0  0  0
   -0.0040    2.9237    0.0236 C   0  0  0  0  0  0  0  0  0  0  0  0
    0.2876    3.2176    0.9199 H   0  0  0  0  0  0  0  0  0  0  0  0
   -0.9229    3.2267   -0.1758 H   0  0  0  0  0  0  0  0  0  0  0  0
    0.6603    3.3858   -0.7066 H   0  0  0  0  0  0  0  0  0  0  0  0
    0.0037    1.4066    0.0028 C   0  0  0  0  0  0  0  0  0  0  0  0
   -1.1944    0.6910   -0.0006 C   0  0  0  0  0  0  0  0  0  0  0  0
   -2.0621    1.1801   -0.0050 H   0  0  0  0  0  0  0  0  0  0  0  0
   -1.1980   -0.7031    0.0000 C   0  0  0  0  0  0  0  0  0  0  0  0
   -2.0797   -1.1924    0.0013 H   0  0  0  0  0  0  0  0  0  0  0  0
   -0.0069   -1.3957    0.0005 C   0  0  0  0  0  0  0  0  0  0  0  0
   -0.0028   -2.3941    0.0010 H   0  0  0  0  0  0  0  0  0  0  0  0
    1.1980   -0.6944    0.0000 C   0  0  0  0  0  0  0  0  0  0  0  0
    2.0781   -1.1958    0.0027 H   0  0  0  0  0  0  0  0  0  0  0  0
    1.1976    0.6955   -0.0026 C   0  0  0  0  0  0  0  0  0  0  0  0
    2.0675    1.1893   -0.0093 H   0  0  0  0  0  0  0  0  0  0  0  0
  1  5  1  0
  5  6  1  0
  5  7  2  0
  1  2  1  0
  1  3  1  0
  1  4  1  0
  8 12  1  0
 12 13  2  0
 13 15  1  0
 15 17  2  0
 17 19  1  0
 19 21  2  0
 21 12  1  0
  8  9  1  0
  8 10  1  0
  8 11  1  0
 13 14  1  0
 15 16  1  0
 17 18  1  0
 19 20  1  0
 21 22  1  0
M  CHG  1   6  -1
M  END
>  <PDB_ID>  (1846) 
pdb3rft

>  <RESIDUE_NAME>  (1846) 
ASP   PHE

>  <FRAG_NAME>  (1846) 
ACET   MBZ

>  <FRAG_ATOM_NUM>  (1846) 
fragi: 7  fragj: 15

>  <atom.prop.CHAIN_ID>  (1846) 
A A A A A A A Z Z Z Z Z Z Z Z Z Z Z Z Z Z Z

>  <atom.prop.IS_HEAVY_ATOM>  (1846) 
1 0 0 0 1 1 1 1 0 0 0 1 1 0 1 0 1 0 1 0 1 0

>  <DIFUSE_FUNC_ATOM>  (1846) 
atom 6   atom 7   

>  <FINAL_SINGLE_POINT_ENERGY>  (1846) 
0

>  <NONCOV_INTER_ENERGY_QM>  (1846) 
0

>  <FF_Energy>  (1846) 
-1.58

>  <QM_Energy>  (1846) 
-7.38

>  <source>  (1846) 
ACET_MBZ_02

>  <Index>  (1846) 
3189

$$$$
ACET-pdb3rh2-A-GLU-58:MBZ-pdb3rh2-A-PHE-54
     RDKit          3D

 22 21  0  0  0  0  0  0  0  0999 V2000
    3.9000    4.4600    2.5971 C   0  0  0  0  0  0  0  0  0  0  0  0
    4.7739    4.0343    2.7502 H   0  0  0  0  0  0  0  0  0  0  0  0
    3.1582    3.9216    2.9556 H   0  0  0  0  0  0  0  0  0  0  0  0
    3.9064    5.3977    3.1528 H   0  0  0  0  0  0  0  0  0  0  0  0
    3.6965    4.5938    1.0730 C   0  0  0  0  0  0  0  0  0  0  0  0
    3.7091    5.7491    0.5843 O   0  0  0  0  0  1  0  0  0  0  0  0
    3.4863    3.5491    0.3823 O   0  0  0  0  0  0  0  0  0  0  0  0
   -0.0096    2.9601    0.0160 C   0  0  0  0  0  0  0  0  0  0  0  0
   -0.5095    3.2685   -0.7715 H   0  0  0  0  0  0  0  0  0  0  0  0
    0.9227    3.2708    0.0128 H   0  0  0  0  0  0  0  0  0  0  0  0
   -0.4937    3.3774    0.8990 H   0  0  0  0  0  0  0  0  0  0  0  0
    0.0043    1.4356   -0.0060 C   0  0  0  0  0  0  0  0  0  0  0  0
   -1.1964    0.7033   -0.0036 C   0  0  0  0  0  0  0  0  0  0  0  0
   -2.0697    1.1796   -0.0055 H   0  0  0  0  0  0  0  0  0  0  0  0
   -1.2092   -0.7275    0.0000 C   0  0  0  0  0  0  0  0  0  0  0  0
   -2.0921   -1.1964    0.0025 H   0  0  0  0  0  0  0  0  0  0  0  0
   -0.0125   -1.4268    0.0025 C   0  0  0  0  0  0  0  0  0  0  0  0
   -0.0004   -2.4171    0.0058 H   0  0  0  0  0  0  0  0  0  0  0  0
    1.2092   -0.7090    0.0000 C   0  0  0  0  0  0  0  0  0  0  0  0
    2.0869   -1.1939   -0.0053 H   0  0  0  0  0  0  0  0  0  0  0  0
    1.2046    0.7244    0.0071 C   0  0  0  0  0  0  0  0  0  0  0  0
    2.0752    1.2014    0.0208 H   0  0  0  0  0  0  0  0  0  0  0  0
  1  5  1  0
  5  6  1  0
  5  7  2  0
  1  2  1  0
  1  3  1  0
  1  4  1  0
  8 12  1  0
 12 13  2  0
 13 15  1  0
 15 17  2  0
 17 19  1  0
 19 21  2  0
 21 12  1  0
  8  9  1  0
  8 10  1  0
  8 11  1  0
 13 14  1  0
 15 16  1  0
 17 18  1  0
 19 20  1  0
 21 22  1  0
M  CHG  1   6  -1
M  END
>  <PDB_ID>  (1847) 
pdb3rh2

>  <RESIDUE_NAME>  (1847) 
GLU   PHE

>  <FRAG_NAME>  (1847) 
ACET   MBZ

>  <FRAG_ATOM_NUM>  (1847) 
fragi: 7  fragj: 15

>  <atom.prop.CHAIN_ID>  (1847) 
A A A A A A A Z Z Z Z Z Z Z Z Z Z Z Z Z Z Z

>  <atom.prop.IS_HEAVY_ATOM>  (1847) 
1 0 0 0 1 1 1 1 0 0 0 1 1 0 1 0 1 0 1 0 1 0

>  <DIFUSE_FUNC_ATOM>  (1847) 
atom 6   atom 7   

>  <FINAL_SINGLE_POINT_ENERGY>  (1847) 
0

>  <NONCOV_INTER_ENERGY_QM>  (1847) 
0

>  <FF_Energy>  (1847) 
-2.39

>  <QM_Energy>  (1847) 
-7.51

>  <source>  (1847) 
ACET_MBZ_02

>  <Index>  (1847) 
3194

$$$$
ACET-pdb4plt-A-ASP-47:MBZ-pdb4plt-D-PHE-239
     RDKit          3D

 22 21  0  0  0  0  0  0  0  0999 V2000
    4.4598    3.4015    0.5173 C   0  0  0  0  0  0  0  0  0  0  0  0
    5.3651    3.3120    0.1117 H   0  0  0  0  0  0  0  0  0  0  0  0
    4.1659    2.5287    0.8957 H   0  0  0  0  0  0  0  0  0  0  0  0
    4.5164    4.1277    1.3281 H   0  0  0  0  0  0  0  0  0  0  0  0
    3.4778    3.7990   -0.5878 C   0  0  0  0  0  0  0  0  0  0  0  0
    3.0931    4.9765   -0.7030 O   0  0  0  0  0  1  0  0  0  0  0  0
    3.1413    2.8974   -1.3618 O   0  0  0  0  0  0  0  0  0  0  0  0
   -0.0069    2.8873    0.0096 C   0  0  0  0  0  0  0  0  0  0  0  0
    0.9085    3.2028    0.2030 H   0  0  0  0  0  0  0  0  0  0  0  0
   -0.6492    3.1966    0.6919 H   0  0  0  0  0  0  0  0  0  0  0  0
   -0.3084    3.3187   -0.9449 H   0  0  0  0  0  0  0  0  0  0  0  0
   -0.0029    1.3986    0.0047 C   0  0  0  0  0  0  0  0  0  0  0  0
   -1.2083    0.6965   -0.0060 C   0  0  0  0  0  0  0  0  0  0  0  0
   -2.0685    1.1832   -0.0192 H   0  0  0  0  0  0  0  0  0  0  0  0
   -1.2043   -0.6988    0.0000 C   0  0  0  0  0  0  0  0  0  0  0  0
   -2.0761   -1.1966    0.0070 H   0  0  0  0  0  0  0  0  0  0  0  0
    0.0047   -1.3852   -0.0018 C   0  0  0  0  0  0  0  0  0  0  0  0
   -0.0016   -2.3912   -0.0048 H   0  0  0  0  0  0  0  0  0  0  0  0
    1.2043   -0.6995   -0.0000 C   0  0  0  0  0  0  0  0  0  0  0  0
    2.0844   -1.2007    0.0004 H   0  0  0  0  0  0  0  0  0  0  0  0
    1.2066    0.6884    0.0031 C   0  0  0  0  0  0  0  0  0  0  0  0
    2.0676    1.1881    0.0030 H   0  0  0  0  0  0  0  0  0  0  0  0
  1  5  1  0
  5  6  1  0
  5  7  2  0
  1  2  1  0
  1  3  1  0
  1  4  1  0
  8 12  1  0
 12 13  2  0
 13 15  1  0
 15 17  2  0
 17 19  1  0
 19 21  2  0
 21 12  1  0
  8  9  1  0
  8 10  1  0
  8 11  1  0
 13 14  1  0
 15 16  1  0
 17 18  1  0
 19 20  1  0
 21 22  1  0
M  CHG  1   6  -1
M  END
>  <PDB_ID>  (1848) 
pdb4plt

>  <RESIDUE_NAME>  (1848) 
ASP   PHE

>  <FRAG_NAME>  (1848) 
ACET   MBZ

>  <FRAG_ATOM_NUM>  (1848) 
fragi: 7  fragj: 15

>  <atom.prop.CHAIN_ID>  (1848) 
A A A A A A A Z Z Z Z Z Z Z Z Z Z Z Z Z Z Z

>  <atom.prop.IS_HEAVY_ATOM>  (1848) 
1 0 0 0 1 1 1 1 0 0 0 1 1 0 1 0 1 0 1 0 1 0

>  <DIFUSE_FUNC_ATOM>  (1848) 
atom 6   atom 7   

>  <FINAL_SINGLE_POINT_ENERGY>  (1848) 
0

>  <NONCOV_INTER_ENERGY_QM>  (1848) 
0

>  <FF_Energy>  (1848) 
-1.68

>  <QM_Energy>  (1848) 
-7.28

>  <source>  (1848) 
ACET_MBZ_02

>  <Index>  (1848) 
3228

$$$$
ACET-pdb3ri6-B-ASP-197:MBZ-pdb3ri6-B-PHE-224
     RDKit          3D

 22 21  0  0  0  0  0  0  0  0999 V2000
   -3.0346    4.2302   -2.5267 C   0  0  0  0  0  0  0  0  0  0  0  0
   -3.2836    3.7815   -3.3739 H   0  0  0  0  0  0  0  0  0  0  0  0
   -2.0518    4.2998   -2.4366 H   0  0  0  0  0  0  0  0  0  0  0  0
   -3.4511    5.2374   -2.5363 H   0  0  0  0  0  0  0  0  0  0  0  0
   -3.5690    3.3890   -1.3597 C   0  0  0  0  0  0  0  0  0  0  0  0
   -3.3045    3.7105   -0.1692 O   0  0  0  0  0  1  0  0  0  0  0  0
   -4.2824    2.4180   -1.6034 O   0  0  0  0  0  0  0  0  0  0  0  0
   -0.0034    2.9178   -0.0284 C   0  0  0  0  0  0  0  0  0  0  0  0
   -0.8659    3.2048   -0.4158 H   0  0  0  0  0  0  0  0  0  0  0  0
    0.7575    3.1982   -0.5931 H   0  0  0  0  0  0  0  0  0  0  0  0
    0.1063    3.3800    0.9527 H   0  0  0  0  0  0  0  0  0  0  0  0
   -0.0070    1.3888   -0.0007 C   0  0  0  0  0  0  0  0  0  0  0  0
   -1.1701    0.7014    0.0013 C   0  0  0  0  0  0  0  0  0  0  0  0
   -2.0501    1.1735    0.0019 H   0  0  0  0  0  0  0  0  0  0  0  0
   -1.1629   -0.6888    0.0000 C   0  0  0  0  0  0  0  0  0  0  0  0
   -2.0597   -1.1722   -0.0048 H   0  0  0  0  0  0  0  0  0  0  0  0
   -0.0033   -1.3651    0.0067 C   0  0  0  0  0  0  0  0  0  0  0  0
   -0.0116   -2.3807    0.0166 H   0  0  0  0  0  0  0  0  0  0  0  0
    1.1629   -0.6997   -0.0000 C   0  0  0  0  0  0  0  0  0  0  0  0
    2.0563   -1.2080    0.0020 H   0  0  0  0  0  0  0  0  0  0  0  0
    1.1804    0.6634   -0.0073 C   0  0  0  0  0  0  0  0  0  0  0  0
    2.0522    1.1601   -0.0183 H   0  0  0  0  0  0  0  0  0  0  0  0
  1  5  1  0
  5  6  1  0
  5  7  2  0
  1  2  1  0
  1  3  1  0
  1  4  1  0
  8 12  1  0
 12 13  2  0
 13 15  1  0
 15 17  2  0
 17 19  1  0
 19 21  2  0
 21 12  1  0
  8  9  1  0
  8 10  1  0
  8 11  1  0
 13 14  1  0
 15 16  1  0
 17 18  1  0
 19 20  1  0
 21 22  1  0
M  CHG  1   6  -1
M  END
>  <PDB_ID>  (1849) 
pdb3ri6

>  <RESIDUE_NAME>  (1849) 
ASP   PHE

>  <FRAG_NAME>  (1849) 
ACET   MBZ

>  <FRAG_ATOM_NUM>  (1849) 
fragi: 7  fragj: 15

>  <atom.prop.CHAIN_ID>  (1849) 
A A A A A A A Z Z Z Z Z Z Z Z Z Z Z Z Z Z Z

>  <atom.prop.IS_HEAVY_ATOM>  (1849) 
1 0 0 0 1 1 1 1 0 0 0 1 1 0 1 0 1 0 1 0 1 0

>  <DIFUSE_FUNC_ATOM>  (1849) 
atom 6   atom 7   

>  <FINAL_SINGLE_POINT_ENERGY>  (1849) 
0

>  <NONCOV_INTER_ENERGY_QM>  (1849) 
0

>  <FF_Energy>  (1849) 
-2.74

>  <QM_Energy>  (1849) 
-7.82

>  <source>  (1849) 
ACET_MBZ_02

>  <Index>  (1849) 
3265

$$$$
ACET-pdb3rft-B-ASP-133:MBZ-pdb3rft-B-PHE-258
     RDKit          3D

 22 21  0  0  0  0  0  0  0  0999 V2000
   -3.0052    5.9371    1.2389 C   0  0  0  0  0  0  0  0  0  0  0  0
   -2.3526    6.1755    0.5278 H   0  0  0  0  0  0  0  0  0  0  0  0
   -2.9116    6.5500    2.0152 H   0  0  0  0  0  0  0  0  0  0  0  0
   -4.0065    6.0703    0.8293 H   0  0  0  0  0  0  0  0  0  0  0  0
   -2.7358    4.5177    1.6967 C   0  0  0  0  0  0  0  0  0  0  0  0
   -3.3865    3.5806    1.1858 O   0  0  0  0  0  1  0  0  0  0  0  0
   -1.8729    4.3320    2.5921 O   0  0  0  0  0  0  0  0  0  0  0  0
   -0.0243    2.9269    0.0296 C   0  0  0  0  0  0  0  0  0  0  0  0
    0.2038    3.2122    0.9494 H   0  0  0  0  0  0  0  0  0  0  0  0
   -0.9372    3.2182   -0.2184 H   0  0  0  0  0  0  0  0  0  0  0  0
    0.6768    3.4076   -0.6527 H   0  0  0  0  0  0  0  0  0  0  0  0
   -0.0023    1.4060    0.0003 C   0  0  0  0  0  0  0  0  0  0  0  0
   -1.1947    0.6881    0.0007 C   0  0  0  0  0  0  0  0  0  0  0  0
   -2.0653    1.1775    0.0001 H   0  0  0  0  0  0  0  0  0  0  0  0
   -1.2016   -0.7029    0.0000 C   0  0  0  0  0  0  0  0  0  0  0  0
   -2.0760   -1.1968   -0.0002 H   0  0  0  0  0  0  0  0  0  0  0  0
    0.0029   -1.3989    0.0014 C   0  0  0  0  0  0  0  0  0  0  0  0
    0.0031   -2.3946    0.0028 H   0  0  0  0  0  0  0  0  0  0  0  0
    1.2016   -0.6930    0.0000 C   0  0  0  0  0  0  0  0  0  0  0  0
    2.0855   -1.1870    0.0024 H   0  0  0  0  0  0  0  0  0  0  0  0
    1.1940    0.7007   -0.0023 C   0  0  0  0  0  0  0  0  0  0  0  0
    2.0626    1.1971   -0.0067 H   0  0  0  0  0  0  0  0  0  0  0  0
  1  5  1  0
  5  6  1  0
  5  7  2  0
  1  2  1  0
  1  3  1  0
  1  4  1  0
  8 12  1  0
 12 13  2  0
 13 15  1  0
 15 17  2  0
 17 19  1  0
 19 21  2  0
 21 12  1  0
  8  9  1  0
  8 10  1  0
  8 11  1  0
 13 14  1  0
 15 16  1  0
 17 18  1  0
 19 20  1  0
 21 22  1  0
M  CHG  1   6  -1
M  END
>  <PDB_ID>  (1850) 
pdb3rft

>  <RESIDUE_NAME>  (1850) 
ASP   PHE

>  <FRAG_NAME>  (1850) 
ACET   MBZ

>  <FRAG_ATOM_NUM>  (1850) 
fragi: 7  fragj: 15

>  <atom.prop.CHAIN_ID>  (1850) 
A A A A A A A Z Z Z Z Z Z Z Z Z Z Z Z Z Z Z

>  <atom.prop.IS_HEAVY_ATOM>  (1850) 
1 0 0 0 1 1 1 1 0 0 0 1 1 0 1 0 1 0 1 0 1 0

>  <DIFUSE_FUNC_ATOM>  (1850) 
atom 6   atom 7   

>  <FINAL_SINGLE_POINT_ENERGY>  (1850) 
0

>  <NONCOV_INTER_ENERGY_QM>  (1850) 
0

>  <FF_Energy>  (1850) 
-1.71

>  <QM_Energy>  (1850) 
-7.08

>  <source>  (1850) 
ACET_MBZ_02

>  <Index>  (1850) 
3311

$$$$
ACET-pdb3rjl-E-GLU-287:MBZ-pdb3rjl-E-PHE-485
     RDKit          3D

 22 21  0  0  0  0  0  0  0  0999 V2000
    5.0973   -1.4748    1.7207 C   0  0  0  0  0  0  0  0  0  0  0  0
    5.2214   -2.4394    1.8434 H   0  0  0  0  0  0  0  0  0  0  0  0
    4.4249   -1.0981    2.3256 H   0  0  0  0  0  0  0  0  0  0  0  0
    6.0491   -0.9808    1.9162 H   0  0  0  0  0  0  0  0  0  0  0  0
    4.6047   -1.2532    0.2925 C   0  0  0  0  0  0  0  0  0  0  0  0
    4.1326   -2.2355   -0.3195 O   0  0  0  0  0  1  0  0  0  0  0  0
    4.6953   -0.1080   -0.2249 O   0  0  0  0  0  0  0  0  0  0  0  0
   -0.0082    2.9082   -0.0061 C   0  0  0  0  0  0  0  0  0  0  0  0
   -0.7588    3.2075   -0.5779 H   0  0  0  0  0  0  0  0  0  0  0  0
    0.8607    3.2147   -0.3678 H   0  0  0  0  0  0  0  0  0  0  0  0
   -0.1380    3.3619    0.9765 H   0  0  0  0  0  0  0  0  0  0  0  0
   -0.0021    1.4020    0.0036 C   0  0  0  0  0  0  0  0  0  0  0  0
   -1.1982    0.6917   -0.0005 C   0  0  0  0  0  0  0  0  0  0  0  0
   -2.0651    1.1840   -0.0049 H   0  0  0  0  0  0  0  0  0  0  0  0
   -1.2044   -0.6962   -0.0000 C   0  0  0  0  0  0  0  0  0  0  0  0
   -2.0796   -1.1924    0.0045 H   0  0  0  0  0  0  0  0  0  0  0  0
    0.0007   -1.3966   -0.0039 C   0  0  0  0  0  0  0  0  0  0  0  0
   -0.0049   -2.3926   -0.0100 H   0  0  0  0  0  0  0  0  0  0  0  0
    1.2044   -0.6989    0.0000 C   0  0  0  0  0  0  0  0  0  0  0  0
    2.0845   -1.1944    0.0040 H   0  0  0  0  0  0  0  0  0  0  0  0
    1.1997    0.6979    0.0008 C   0  0  0  0  0  0  0  0  0  0  0  0
    2.0644    1.1932   -0.0015 H   0  0  0  0  0  0  0  0  0  0  0  0
  1  5  1  0
  5  6  1  0
  5  7  2  0
  1  2  1  0
  1  3  1  0
  1  4  1  0
  8 12  1  0
 12 13  2  0
 13 15  1  0
 15 17  2  0
 17 19  1  0
 19 21  2  0
 21 12  1  0
  8  9  1  0
  8 10  1  0
  8 11  1  0
 13 14  1  0
 15 16  1  0
 17 18  1  0
 19 20  1  0
 21 22  1  0
M  CHG  1   6  -1
M  END
>  <PDB_ID>  (1851) 
pdb3rjl

>  <RESIDUE_NAME>  (1851) 
GLU   PHE

>  <FRAG_NAME>  (1851) 
ACET   MBZ

>  <FRAG_ATOM_NUM>  (1851) 
fragi: 7  fragj: 15

>  <atom.prop.CHAIN_ID>  (1851) 
A A A A A A A Z Z Z Z Z Z Z Z Z Z Z Z Z Z Z

>  <atom.prop.IS_HEAVY_ATOM>  (1851) 
1 0 0 0 1 1 1 1 0 0 0 1 1 0 1 0 1 0 1 0 1 0

>  <DIFUSE_FUNC_ATOM>  (1851) 
atom 6   atom 7   

>  <FINAL_SINGLE_POINT_ENERGY>  (1851) 
0

>  <NONCOV_INTER_ENERGY_QM>  (1851) 
0

>  <FF_Energy>  (1851) 
-2.0

>  <QM_Energy>  (1851) 
-7.5

>  <source>  (1851) 
ACET_MBZ_02

>  <Index>  (1851) 
3402

$$$$
ACET-pdb4ppy-C-GLU-223:MBZ-pdb4ppy-C-PHE-72
     RDKit          3D

 22 21  0  0  0  0  0  0  0  0999 V2000
   -0.5487   -0.0181   -3.3423 C   0  0  0  0  0  0  0  0  0  0  0  0
   -0.1766   -0.1894   -2.4395 H   0  0  0  0  0  0  0  0  0  0  0  0
    0.1352   -0.1777   -4.0422 H   0  0  0  0  0  0  0  0  0  0  0  0
   -1.3778   -0.7060   -3.5077 H   0  0  0  0  0  0  0  0  0  0  0  0
   -0.9265    1.4461   -3.4054 C   0  0  0  0  0  0  0  0  0  0  0  0
   -2.1103    1.8023   -3.2700 O   0  0  0  0  0  1  0  0  0  0  0  0
    0.0030    2.2568   -3.5454 O   0  0  0  0  0  0  0  0  0  0  0  0
    0.0094    2.8937    0.0268 C   0  0  0  0  0  0  0  0  0  0  0  0
   -0.5698    3.2229   -0.7002 H   0  0  0  0  0  0  0  0  0  0  0  0
    0.9400    3.2019   -0.0764 H   0  0  0  0  0  0  0  0  0  0  0  0
   -0.3716    3.3020    0.9628 H   0  0  0  0  0  0  0  0  0  0  0  0
    0.0040    1.3934   -0.0095 C   0  0  0  0  0  0  0  0  0  0  0  0
   -1.1989    0.6996   -0.0041 C   0  0  0  0  0  0  0  0  0  0  0  0
   -2.0590    1.1948   -0.0048 H   0  0  0  0  0  0  0  0  0  0  0  0
   -1.2004   -0.6824   -0.0000 C   0  0  0  0  0  0  0  0  0  0  0  0
   -2.0782   -1.1805    0.0026 H   0  0  0  0  0  0  0  0  0  0  0  0
   -0.0030   -1.3780    0.0023 C   0  0  0  0  0  0  0  0  0  0  0  0
   -0.0179   -2.3851    0.0049 H   0  0  0  0  0  0  0  0  0  0  0  0
    1.2004   -0.7050   -0.0000 C   0  0  0  0  0  0  0  0  0  0  0  0
    2.0750   -1.2109   -0.0079 H   0  0  0  0  0  0  0  0  0  0  0  0
    1.1980    0.6724    0.0113 C   0  0  0  0  0  0  0  0  0  0  0  0
    2.0685    1.1741    0.0342 H   0  0  0  0  0  0  0  0  0  0  0  0
  1  5  1  0
  5  6  1  0
  5  7  2  0
  1  2  1  0
  1  3  1  0
  1  4  1  0
  8 12  1  0
 12 13  2  0
 13 15  1  0
 15 17  2  0
 17 19  1  0
 19 21  2  0
 21 12  1  0
  8  9  1  0
  8 10  1  0
  8 11  1  0
 13 14  1  0
 15 16  1  0
 17 18  1  0
 19 20  1  0
 21 22  1  0
M  CHG  1   6  -1
M  END
>  <PDB_ID>  (1852) 
pdb4ppy

>  <RESIDUE_NAME>  (1852) 
GLU   PHE

>  <FRAG_NAME>  (1852) 
ACET   MBZ

>  <FRAG_ATOM_NUM>  (1852) 
fragi: 7  fragj: 15

>  <atom.prop.CHAIN_ID>  (1852) 
A A A A A A A Z Z Z Z Z Z Z Z Z Z Z Z Z Z Z

>  <atom.prop.IS_HEAVY_ATOM>  (1852) 
1 0 0 0 1 1 1 1 0 0 0 1 1 0 1 0 1 0 1 0 1 0

>  <DIFUSE_FUNC_ATOM>  (1852) 
atom 6   atom 7   

>  <FINAL_SINGLE_POINT_ENERGY>  (1852) 
0

>  <NONCOV_INTER_ENERGY_QM>  (1852) 
0

>  <FF_Energy>  (1852) 
1.04

>  <QM_Energy>  (1852) 
-5.11

>  <source>  (1852) 
ACET_MBZ_02

>  <Index>  (1852) 
3454

$$$$
ACET-pdb4pqh-B-ASP-172:MBZ-pdb4pqh-B-PHE-163
     RDKit          3D

 22 21  0  0  0  0  0  0  0  0999 V2000
   -3.5276    2.0842    3.1125 C   0  0  0  0  0  0  0  0  0  0  0  0
   -3.0743    1.6413    3.8750 H   0  0  0  0  0  0  0  0  0  0  0  0
   -3.9105    1.4122    2.4926 H   0  0  0  0  0  0  0  0  0  0  0  0
   -4.3494    2.6793    3.5110 H   0  0  0  0  0  0  0  0  0  0  0  0
   -2.5427    2.9320    2.3767 C   0  0  0  0  0  0  0  0  0  0  0  0
   -2.8938    3.4326    1.2835 O   0  0  0  0  0  1  0  0  0  0  0  0
   -1.4293    3.1249    2.9126 O   0  0  0  0  0  0  0  0  0  0  0  0
   -0.0081    2.9058   -0.0053 C   0  0  0  0  0  0  0  0  0  0  0  0
    0.9113    3.2130    0.1741 H   0  0  0  0  0  0  0  0  0  0  0  0
   -0.6375    3.2087    0.6916 H   0  0  0  0  0  0  0  0  0  0  0  0
   -0.3272    3.3308   -0.9569 H   0  0  0  0  0  0  0  0  0  0  0  0
   -0.0019    1.3984    0.0002 C   0  0  0  0  0  0  0  0  0  0  0  0
   -1.1976    0.6872   -0.0003 C   0  0  0  0  0  0  0  0  0  0  0  0
   -2.0647    1.1790   -0.0025 H   0  0  0  0  0  0  0  0  0  0  0  0
   -1.1982   -0.6962   -0.0000 C   0  0  0  0  0  0  0  0  0  0  0  0
   -2.0733   -1.1959   -0.0014 H   0  0  0  0  0  0  0  0  0  0  0  0
    0.0039   -1.3881    0.0040 C   0  0  0  0  0  0  0  0  0  0  0  0
    0.0001   -2.3886    0.0095 H   0  0  0  0  0  0  0  0  0  0  0  0
    1.1982   -0.6924    0.0000 C   0  0  0  0  0  0  0  0  0  0  0  0
    2.0819   -1.1922    0.0018 H   0  0  0  0  0  0  0  0  0  0  0  0
    1.1956    0.6910   -0.0039 C   0  0  0  0  0  0  0  0  0  0  0  0
    2.0624    1.1906   -0.0102 H   0  0  0  0  0  0  0  0  0  0  0  0
  1  5  1  0
  5  6  1  0
  5  7  2  0
  1  2  1  0
  1  3  1  0
  1  4  1  0
  8 12  1  0
 12 13  2  0
 13 15  1  0
 15 17  2  0
 17 19  1  0
 19 21  2  0
 21 12  1  0
  8  9  1  0
  8 10  1  0
  8 11  1  0
 13 14  1  0
 15 16  1  0
 17 18  1  0
 19 20  1  0
 21 22  1  0
M  CHG  1   6  -1
M  END
>  <PDB_ID>  (1853) 
pdb4pqh

>  <RESIDUE_NAME>  (1853) 
ASP   PHE

>  <FRAG_NAME>  (1853) 
ACET   MBZ

>  <FRAG_ATOM_NUM>  (1853) 
fragi: 7  fragj: 15

>  <atom.prop.CHAIN_ID>  (1853) 
A A A A A A A Z Z Z Z Z Z Z Z Z Z Z Z Z Z Z

>  <atom.prop.IS_HEAVY_ATOM>  (1853) 
1 0 0 0 1 1 1 1 0 0 0 1 1 0 1 0 1 0 1 0 1 0

>  <DIFUSE_FUNC_ATOM>  (1853) 
atom 6   atom 7   

>  <FINAL_SINGLE_POINT_ENERGY>  (1853) 
0

>  <NONCOV_INTER_ENERGY_QM>  (1853) 
0

>  <FF_Energy>  (1853) 
0.76

>  <QM_Energy>  (1853) 
-8.23

>  <source>  (1853) 
ACET_MBZ_02

>  <Index>  (1853) 
3481

$$$$
ACET-pdb3rn5-C-GLU-220:MBZ-pdb3rn5-C-PHE-193
     RDKit          3D

 22 21  0  0  0  0  0  0  0  0999 V2000
    4.2268   -1.4607    1.3679 C   0  0  0  0  0  0  0  0  0  0  0  0
    4.4611   -0.5840    1.7407 H   0  0  0  0  0  0  0  0  0  0  0  0
    3.4767   -1.4128    0.7364 H   0  0  0  0  0  0  0  0  0  0  0  0
    5.0964   -1.8524    0.8403 H   0  0  0  0  0  0  0  0  0  0  0  0
    3.7924   -2.3491    2.5279 C   0  0  0  0  0  0  0  0  0  0  0  0
    4.2733   -3.4997    2.6137 O   0  0  0  0  0  1  0  0  0  0  0  0
    2.9691   -1.8982    3.3532 O   0  0  0  0  0  0  0  0  0  0  0  0
   -0.0047    2.8908   -0.0089 C   0  0  0  0  0  0  0  0  0  0  0  0
    0.8858    3.2041    0.2796 H   0  0  0  0  0  0  0  0  0  0  0  0
   -0.7156    3.2032    0.6008 H   0  0  0  0  0  0  0  0  0  0  0  0
   -0.2033    3.3107   -0.9950 H   0  0  0  0  0  0  0  0  0  0  0  0
   -0.0007    1.3954    0.0041 C   0  0  0  0  0  0  0  0  0  0  0  0
   -1.1928    0.6911   -0.0004 C   0  0  0  0  0  0  0  0  0  0  0  0
   -2.0607    1.1825   -0.0056 H   0  0  0  0  0  0  0  0  0  0  0  0
   -1.1961   -0.6927   -0.0000 C   0  0  0  0  0  0  0  0  0  0  0  0
   -2.0741   -1.1895    0.0020 H   0  0  0  0  0  0  0  0  0  0  0  0
    0.0023   -1.3883   -0.0003 C   0  0  0  0  0  0  0  0  0  0  0  0
   -0.0035   -2.3883   -0.0018 H   0  0  0  0  0  0  0  0  0  0  0  0
    1.1961   -0.6947    0.0000 C   0  0  0  0  0  0  0  0  0  0  0  0
    2.0802   -1.1931    0.0043 H   0  0  0  0  0  0  0  0  0  0  0  0
    1.1912    0.6892   -0.0033 C   0  0  0  0  0  0  0  0  0  0  0  0
    2.0611    1.1873   -0.0123 H   0  0  0  0  0  0  0  0  0  0  0  0
  1  5  1  0
  5  6  1  0
  5  7  2  0
  1  2  1  0
  1  3  1  0
  1  4  1  0
  8 12  1  0
 12 13  2  0
 13 15  1  0
 15 17  2  0
 17 19  1  0
 19 21  2  0
 21 12  1  0
  8  9  1  0
  8 10  1  0
  8 11  1  0
 13 14  1  0
 15 16  1  0
 17 18  1  0
 19 20  1  0
 21 22  1  0
M  CHG  1   6  -1
M  END
>  <PDB_ID>  (1854) 
pdb3rn5

>  <RESIDUE_NAME>  (1854) 
GLU   PHE

>  <FRAG_NAME>  (1854) 
ACET   MBZ

>  <FRAG_ATOM_NUM>  (1854) 
fragi: 7  fragj: 15

>  <atom.prop.CHAIN_ID>  (1854) 
A A A A A A A Z Z Z Z Z Z Z Z Z Z Z Z Z Z Z

>  <atom.prop.IS_HEAVY_ATOM>  (1854) 
1 0 0 0 1 1 1 1 0 0 0 1 1 0 1 0 1 0 1 0 1 0

>  <DIFUSE_FUNC_ATOM>  (1854) 
atom 6   atom 7   

>  <FINAL_SINGLE_POINT_ENERGY>  (1854) 
0

>  <NONCOV_INTER_ENERGY_QM>  (1854) 
0

>  <FF_Energy>  (1854) 
15.09

>  <QM_Energy>  (1854) 
1.85

>  <source>  (1854) 
ACET_MBZ_02

>  <Index>  (1854) 
3526

$$$$
ACET-pdb3rn5-D-GLU-220:MBZ-pdb3rn5-D-PHE-193
     RDKit          3D

 22 21  0  0  0  0  0  0  0  0999 V2000
    4.1805   -1.7450   -0.6093 C   0  0  0  0  0  0  0  0  0  0  0  0
    4.8053   -0.9948   -0.5037 H   0  0  0  0  0  0  0  0  0  0  0  0
    3.3045   -1.4575   -0.9499 H   0  0  0  0  0  0  0  0  0  0  0  0
    4.6104   -2.4577   -1.3132 H   0  0  0  0  0  0  0  0  0  0  0  0
    3.9619   -2.3523    0.7564 C   0  0  0  0  0  0  0  0  0  0  0  0
    3.3750   -3.4549    0.8331 O   0  0  0  0  0  1  0  0  0  0  0  0
    4.3830   -1.7292    1.7542 O   0  0  0  0  0  0  0  0  0  0  0  0
   -0.0095    2.8899   -0.0121 C   0  0  0  0  0  0  0  0  0  0  0  0
    0.9134    3.2040    0.1487 H   0  0  0  0  0  0  0  0  0  0  0  0
   -0.6267    3.2007    0.6944 H   0  0  0  0  0  0  0  0  0  0  0  0
   -0.3466    3.3079   -0.9607 H   0  0  0  0  0  0  0  0  0  0  0  0
   -0.0011    1.3941    0.0028 C   0  0  0  0  0  0  0  0  0  0  0  0
   -1.1900    0.6856   -0.0016 C   0  0  0  0  0  0  0  0  0  0  0  0
   -2.0598    1.1760   -0.0070 H   0  0  0  0  0  0  0  0  0  0  0  0
   -1.1918   -0.6952   -0.0000 C   0  0  0  0  0  0  0  0  0  0  0  0
   -2.0706   -1.1920    0.0005 H   0  0  0  0  0  0  0  0  0  0  0  0
    0.0019   -1.3845    0.0027 C   0  0  0  0  0  0  0  0  0  0  0  0
   -0.0007   -2.3867    0.0063 H   0  0  0  0  0  0  0  0  0  0  0  0
    1.1918   -0.6921    0.0000 C   0  0  0  0  0  0  0  0  0  0  0  0
    2.0776   -1.1900    0.0019 H   0  0  0  0  0  0  0  0  0  0  0  0
    1.1892    0.6921   -0.0039 C   0  0  0  0  0  0  0  0  0  0  0  0
    2.0587    1.1884   -0.0127 H   0  0  0  0  0  0  0  0  0  0  0  0
  1  5  1  0
  5  6  1  0
  5  7  2  0
  1  2  1  0
  1  3  1  0
  1  4  1  0
  8 12  1  0
 12 13  2  0
 13 15  1  0
 15 17  2  0
 17 19  1  0
 19 21  2  0
 21 12  1  0
  8  9  1  0
  8 10  1  0
  8 11  1  0
 13 14  1  0
 15 16  1  0
 17 18  1  0
 19 20  1  0
 21 22  1  0
M  CHG  1   6  -1
M  END
>  <PDB_ID>  (1855) 
pdb3rn5

>  <RESIDUE_NAME>  (1855) 
GLU   PHE

>  <FRAG_NAME>  (1855) 
ACET   MBZ

>  <FRAG_ATOM_NUM>  (1855) 
fragi: 7  fragj: 15

>  <atom.prop.CHAIN_ID>  (1855) 
A A A A A A A Z Z Z Z Z Z Z Z Z Z Z Z Z Z Z

>  <atom.prop.IS_HEAVY_ATOM>  (1855) 
1 0 0 0 1 1 1 1 0 0 0 1 1 0 1 0 1 0 1 0 1 0

>  <DIFUSE_FUNC_ATOM>  (1855) 
atom 6   atom 7   

>  <FINAL_SINGLE_POINT_ENERGY>  (1855) 
0

>  <NONCOV_INTER_ENERGY_QM>  (1855) 
0

>  <FF_Energy>  (1855) 
23.19

>  <QM_Energy>  (1855) 
0.42

>  <source>  (1855) 
ACET_MBZ_02

>  <Index>  (1855) 
3527

$$$$
ACET-pdb3rnm-B-GLU-334:MBZ-pdb3rnm-B-PHE-308
     RDKit          3D

 22 21  0  0  0  0  0  0  0  0999 V2000
    0.8858   -2.8355   -2.6557 C   0  0  0  0  0  0  0  0  0  0  0  0
    0.2477   -2.4905   -1.9809 H   0  0  0  0  0  0  0  0  0  0  0  0
    0.6116   -3.7325   -2.9764 H   0  0  0  0  0  0  0  0  0  0  0  0
    0.8902   -2.1523   -3.5050 H   0  0  0  0  0  0  0  0  0  0  0  0
    2.2327   -2.9993   -1.9592 C   0  0  0  0  0  0  0  0  0  0  0  0
    3.2836   -2.5993   -2.5090 O   0  0  0  0  0  1  0  0  0  0  0  0
    2.2264   -3.5561   -0.8469 O   0  0  0  0  0  0  0  0  0  0  0  0
    0.0043    2.8983    0.0259 C   0  0  0  0  0  0  0  0  0  0  0  0
   -0.7983    3.2170   -0.4484 H   0  0  0  0  0  0  0  0  0  0  0  0
    0.8339    3.2123   -0.4034 H   0  0  0  0  0  0  0  0  0  0  0  0
   -0.0226    3.3063    1.0363 H   0  0  0  0  0  0  0  0  0  0  0  0
    0.0008    1.3950   -0.0050 C   0  0  0  0  0  0  0  0  0  0  0  0
   -1.1916    0.6890    0.0012 C   0  0  0  0  0  0  0  0  0  0  0  0
   -2.0590    1.1799    0.0051 H   0  0  0  0  0  0  0  0  0  0  0  0
   -1.1936   -0.6941    0.0000 C   0  0  0  0  0  0  0  0  0  0  0  0
   -2.0734   -1.1900    0.0017 H   0  0  0  0  0  0  0  0  0  0  0  0
   -0.0012   -1.3847   -0.0016 C   0  0  0  0  0  0  0  0  0  0  0  0
   -0.0039   -2.3871   -0.0041 H   0  0  0  0  0  0  0  0  0  0  0  0
    1.1936   -0.6931   -0.0000 C   0  0  0  0  0  0  0  0  0  0  0  0
    2.0766   -1.1948   -0.0010 H   0  0  0  0  0  0  0  0  0  0  0  0
    1.1920    0.6879    0.0054 C   0  0  0  0  0  0  0  0  0  0  0  0
    2.0620    1.1857    0.0160 H   0  0  0  0  0  0  0  0  0  0  0  0
  1  5  1  0
  5  6  1  0
  5  7  2  0
  1  2  1  0
  1  3  1  0
  1  4  1  0
  8 12  1  0
 12 13  2  0
 13 15  1  0
 15 17  2  0
 17 19  1  0
 19 21  2  0
 21 12  1  0
  8  9  1  0
  8 10  1  0
  8 11  1  0
 13 14  1  0
 15 16  1  0
 17 18  1  0
 19 20  1  0
 21 22  1  0
M  CHG  1   6  -1
M  END
>  <PDB_ID>  (1856) 
pdb3rnm

>  <RESIDUE_NAME>  (1856) 
GLU   PHE

>  <FRAG_NAME>  (1856) 
ACET   MBZ

>  <FRAG_ATOM_NUM>  (1856) 
fragi: 7  fragj: 15

>  <atom.prop.CHAIN_ID>  (1856) 
A A A A A A A Z Z Z Z Z Z Z Z Z Z Z Z Z Z Z

>  <atom.prop.IS_HEAVY_ATOM>  (1856) 
1 0 0 0 1 1 1 1 0 0 0 1 1 0 1 0 1 0 1 0 1 0

>  <DIFUSE_FUNC_ATOM>  (1856) 
atom 6   atom 7   

>  <FINAL_SINGLE_POINT_ENERGY>  (1856) 
0

>  <NONCOV_INTER_ENERGY_QM>  (1856) 
0

>  <FF_Energy>  (1856) 
3.22

>  <QM_Energy>  (1856) 
-3.77

>  <source>  (1856) 
ACET_MBZ_02

>  <Index>  (1856) 
3540

$$$$
ACET-pdb4ptv-A-ASP-36:MBZ-pdb4ptv-A-PHE-25
     RDKit          3D

 22 21  0  0  0  0  0  0  0  0999 V2000
   -5.2005    2.4693   -1.4370 C   0  0  0  0  0  0  0  0  0  0  0  0
   -6.0867    2.5993   -1.0105 H   0  0  0  0  0  0  0  0  0  0  0  0
   -4.8843    1.5379   -1.3107 H   0  0  0  0  0  0  0  0  0  0  0  0
   -5.3226    2.6343   -2.5076 H   0  0  0  0  0  0  0  0  0  0  0  0
   -4.1972    3.4231   -0.7869 C   0  0  0  0  0  0  0  0  0  0  0  0
   -3.0853    3.6173   -1.3318 O   0  0  0  0  0  1  0  0  0  0  0  0
   -4.5317    3.9836    0.2872 O   0  0  0  0  0  0  0  0  0  0  0  0
   -0.0162    2.9201   -0.0141 C   0  0  0  0  0  0  0  0  0  0  0  0
   -0.9460    3.2091   -0.1878 H   0  0  0  0  0  0  0  0  0  0  0  0
    0.5926    3.2174   -0.7344 H   0  0  0  0  0  0  0  0  0  0  0  0
    0.3118    3.3867    0.9148 H   0  0  0  0  0  0  0  0  0  0  0  0
   -0.0006    1.4024    0.0066 C   0  0  0  0  0  0  0  0  0  0  0  0
   -1.1956    0.6916   -0.0010 C   0  0  0  0  0  0  0  0  0  0  0  0
   -2.0633    1.1837   -0.0081 H   0  0  0  0  0  0  0  0  0  0  0  0
   -1.2025   -0.6958    0.0000 C   0  0  0  0  0  0  0  0  0  0  0  0
   -2.0779   -1.1907    0.0003 H   0  0  0  0  0  0  0  0  0  0  0  0
    0.0006   -1.3956    0.0023 C   0  0  0  0  0  0  0  0  0  0  0  0
   -0.0061   -2.3932    0.0050 H   0  0  0  0  0  0  0  0  0  0  0  0
    1.2025   -0.6996    0.0000 C   0  0  0  0  0  0  0  0  0  0  0  0
    2.0835   -1.1930    0.0054 H   0  0  0  0  0  0  0  0  0  0  0  0
    1.1956    0.6971   -0.0079 C   0  0  0  0  0  0  0  0  0  0  0  0
    2.0641    1.1915   -0.0253 H   0  0  0  0  0  0  0  0  0  0  0  0
  1  5  1  0
  5  6  1  0
  5  7  2  0
  1  2  1  0
  1  3  1  0
  1  4  1  0
  8 12  1  0
 12 13  2  0
 13 15  1  0
 15 17  2  0
 17 19  1  0
 19 21  2  0
 21 12  1  0
  8  9  1  0
  8 10  1  0
  8 11  1  0
 13 14  1  0
 15 16  1  0
 17 18  1  0
 19 20  1  0
 21 22  1  0
M  CHG  1   6  -1
M  END
>  <PDB_ID>  (1857) 
pdb4ptv

>  <RESIDUE_NAME>  (1857) 
ASP   PHE

>  <FRAG_NAME>  (1857) 
ACET   MBZ

>  <FRAG_ATOM_NUM>  (1857) 
fragi: 7  fragj: 15

>  <atom.prop.CHAIN_ID>  (1857) 
A A A A A A A Z Z Z Z Z Z Z Z Z Z Z Z Z Z Z

>  <atom.prop.IS_HEAVY_ATOM>  (1857) 
1 0 0 0 1 1 1 1 0 0 0 1 1 0 1 0 1 0 1 0 1 0

>  <DIFUSE_FUNC_ATOM>  (1857) 
atom 6   atom 7   

>  <FINAL_SINGLE_POINT_ENERGY>  (1857) 
0

>  <NONCOV_INTER_ENERGY_QM>  (1857) 
0

>  <FF_Energy>  (1857) 
-2.03

>  <QM_Energy>  (1857) 
-7.12

>  <source>  (1857) 
ACET_MBZ_02

>  <Index>  (1857) 
3693

$$$$
ACET-pdb3rpd-A-GLU-198:MBZ-pdb3rpd-A-PHE-195
     RDKit          3D

 22 21  0  0  0  0  0  0  0  0999 V2000
   -2.0574    4.6995    3.7761 C   0  0  0  0  0  0  0  0  0  0  0  0
   -2.1979    5.0628    4.6775 H   0  0  0  0  0  0  0  0  0  0  0  0
   -2.8329    4.8408    3.1902 H   0  0  0  0  0  0  0  0  0  0  0  0
   -1.2093    5.2246    3.3369 H   0  0  0  0  0  0  0  0  0  0  0  0
   -1.8296    3.2094    3.9011 C   0  0  0  0  0  0  0  0  0  0  0  0
   -1.5943    2.5514    2.8793 O   0  0  0  0  0  1  0  0  0  0  0  0
   -1.9130    2.6867    5.0237 O   0  0  0  0  0  0  0  0  0  0  0  0
   -0.0316    2.8967   -0.0231 C   0  0  0  0  0  0  0  0  0  0  0  0
    0.8874    3.2179    0.1405 H   0  0  0  0  0  0  0  0  0  0  0  0
   -0.6533    3.1937    0.6824 H   0  0  0  0  0  0  0  0  0  0  0  0
   -0.3715    3.3169   -0.9697 H   0  0  0  0  0  0  0  0  0  0  0  0
   -0.0067    1.3947   -0.0178 C   0  0  0  0  0  0  0  0  0  0  0  0
   -1.1942    0.6734    0.0079 C   0  0  0  0  0  0  0  0  0  0  0  0
   -2.0655    1.1748    0.0323 H   0  0  0  0  0  0  0  0  0  0  0  0
   -1.2002   -0.6894   -0.0000 C   0  0  0  0  0  0  0  0  0  0  0  0
   -2.0745   -1.1967   -0.0178 H   0  0  0  0  0  0  0  0  0  0  0  0
    0.0018   -1.3894    0.0187 C   0  0  0  0  0  0  0  0  0  0  0  0
   -0.0031   -2.3855    0.0450 H   0  0  0  0  0  0  0  0  0  0  0  0
    1.2002   -0.6904    0.0000 C   0  0  0  0  0  0  0  0  0  0  0  0
    2.0829   -1.1884   -0.0058 H   0  0  0  0  0  0  0  0  0  0  0  0
    1.1991    0.7012   -0.0088 C   0  0  0  0  0  0  0  0  0  0  0  0
    2.0594    1.1989   -0.0093 H   0  0  0  0  0  0  0  0  0  0  0  0
  1  5  1  0
  5  6  1  0
  5  7  2  0
  1  2  1  0
  1  3  1  0
  1  4  1  0
  8 12  1  0
 12 13  2  0
 13 15  1  0
 15 17  2  0
 17 19  1  0
 19 21  2  0
 21 12  1  0
  8  9  1  0
  8 10  1  0
  8 11  1  0
 13 14  1  0
 15 16  1  0
 17 18  1  0
 19 20  1  0
 21 22  1  0
M  CHG  1   6  -1
M  END
>  <PDB_ID>  (1858) 
pdb3rpd

>  <RESIDUE_NAME>  (1858) 
GLU   PHE

>  <FRAG_NAME>  (1858) 
ACET   MBZ

>  <FRAG_ATOM_NUM>  (1858) 
fragi: 7  fragj: 15

>  <atom.prop.CHAIN_ID>  (1858) 
A A A A A A A Z Z Z Z Z Z Z Z Z Z Z Z Z Z Z

>  <atom.prop.IS_HEAVY_ATOM>  (1858) 
1 0 0 0 1 1 1 1 0 0 0 1 1 0 1 0 1 0 1 0 1 0

>  <DIFUSE_FUNC_ATOM>  (1858) 
atom 6   atom 7   

>  <FINAL_SINGLE_POINT_ENERGY>  (1858) 
0

>  <NONCOV_INTER_ENERGY_QM>  (1858) 
0

>  <FF_Energy>  (1858) 
1.28

>  <QM_Energy>  (1858) 
-4.33

>  <source>  (1858) 
ACET_MBZ_02

>  <Index>  (1858) 
3732

$$$$
ACET-pdb4pvc-B-GLU-267:MBZ-pdb4pvc-B-PHE-321
     RDKit          3D

 22 21  0  0  0  0  0  0  0  0999 V2000
   -3.7927    4.7847    0.0543 C   0  0  0  0  0  0  0  0  0  0  0  0
   -3.1703    5.4947   -0.2243 H   0  0  0  0  0  0  0  0  0  0  0  0
   -4.7250    5.0991    0.0795 H   0  0  0  0  0  0  0  0  0  0  0  0
   -3.7289    3.9772   -0.6751 H   0  0  0  0  0  0  0  0  0  0  0  0
   -3.4090    4.3670    1.4746 C   0  0  0  0  0  0  0  0  0  0  0  0
   -2.8126    3.2827    1.6624 O   0  0  0  0  0  1  0  0  0  0  0  0
   -3.7139    5.1373    2.4096 O   0  0  0  0  0  0  0  0  0  0  0  0
   -0.0242    2.9212   -0.0125 C   0  0  0  0  0  0  0  0  0  0  0  0
   -0.7976    3.2158    0.5347 H   0  0  0  0  0  0  0  0  0  0  0  0
   -0.1278    3.2143   -0.9542 H   0  0  0  0  0  0  0  0  0  0  0  0
    0.8695    3.3990    0.3887 H   0  0  0  0  0  0  0  0  0  0  0  0
    0.0018    1.4100    0.0008 C   0  0  0  0  0  0  0  0  0  0  0  0
   -1.1964    0.6991   -0.0005 C   0  0  0  0  0  0  0  0  0  0  0  0
   -2.0634    1.1864   -0.0033 H   0  0  0  0  0  0  0  0  0  0  0  0
   -1.2029   -0.7010   -0.0000 C   0  0  0  0  0  0  0  0  0  0  0  0
   -2.0834   -1.1879    0.0016 H   0  0  0  0  0  0  0  0  0  0  0  0
   -0.0059   -1.4010    0.0008 C   0  0  0  0  0  0  0  0  0  0  0  0
   -0.0088   -2.3979    0.0012 H   0  0  0  0  0  0  0  0  0  0  0  0
    1.2029   -0.7041   -0.0000 C   0  0  0  0  0  0  0  0  0  0  0  0
    2.0810   -1.2009    0.0014 H   0  0  0  0  0  0  0  0  0  0  0  0
    1.2005    0.6969   -0.0010 C   0  0  0  0  0  0  0  0  0  0  0  0
    2.0694    1.1879   -0.0037 H   0  0  0  0  0  0  0  0  0  0  0  0
  1  5  1  0
  5  6  1  0
  5  7  2  0
  1  2  1  0
  1  3  1  0
  1  4  1  0
  8 12  1  0
 12 13  2  0
 13 15  1  0
 15 17  2  0
 17 19  1  0
 19 21  2  0
 21 12  1  0
  8  9  1  0
  8 10  1  0
  8 11  1  0
 13 14  1  0
 15 16  1  0
 17 18  1  0
 19 20  1  0
 21 22  1  0
M  CHG  1   6  -1
M  END
>  <PDB_ID>  (1859) 
pdb4pvc

>  <RESIDUE_NAME>  (1859) 
GLU   PHE

>  <FRAG_NAME>  (1859) 
ACET   MBZ

>  <FRAG_ATOM_NUM>  (1859) 
fragi: 7  fragj: 15

>  <atom.prop.CHAIN_ID>  (1859) 
A A A A A A A Z Z Z Z Z Z Z Z Z Z Z Z Z Z Z

>  <atom.prop.IS_HEAVY_ATOM>  (1859) 
1 0 0 0 1 1 1 1 0 0 0 1 1 0 1 0 1 0 1 0 1 0

>  <DIFUSE_FUNC_ATOM>  (1859) 
atom 6   atom 7   

>  <FINAL_SINGLE_POINT_ENERGY>  (1859) 
0

>  <NONCOV_INTER_ENERGY_QM>  (1859) 
0

>  <FF_Energy>  (1859) 
-0.91

>  <QM_Energy>  (1859) 
-7.03

>  <source>  (1859) 
ACET_MBZ_02

>  <Index>  (1859) 
3755

$$$$
ACET-pdb3rq1-A-ASP-16:MBZ-pdb3rq1-A-PHE-19
     RDKit          3D

 22 21  0  0  0  0  0  0  0  0999 V2000
    5.6616    3.7829   -0.0092 C   0  0  0  0  0  0  0  0  0  0  0  0
    6.2703    3.0920    0.3692 H   0  0  0  0  0  0  0  0  0  0  0  0
    5.6693    4.5964    0.5647 H   0  0  0  0  0  0  0  0  0  0  0  0
    6.0514    4.0653   -0.9871 H   0  0  0  0  0  0  0  0  0  0  0  0
    4.2381    3.2173   -0.0394 C   0  0  0  0  0  0  0  0  0  0  0  0
    3.8171    2.6515   -1.0685 O   0  0  0  0  0  1  0  0  0  0  0  0
    3.5410    3.3301    1.0003 O   0  0  0  0  0  0  0  0  0  0  0  0
    0.0041    2.9476   -0.0326 C   0  0  0  0  0  0  0  0  0  0  0  0
    0.8898    3.2499    0.2683 H   0  0  0  0  0  0  0  0  0  0  0  0
   -0.7171    3.2604    0.5577 H   0  0  0  0  0  0  0  0  0  0  0  0
   -0.1719    3.3659   -1.0236 H   0  0  0  0  0  0  0  0  0  0  0  0
   -0.0001    1.4206   -0.0048 C   0  0  0  0  0  0  0  0  0  0  0  0
   -1.2030    0.7067   -0.0032 C   0  0  0  0  0  0  0  0  0  0  0  0
   -2.0687    1.1888   -0.0059 H   0  0  0  0  0  0  0  0  0  0  0  0
   -1.2066   -0.7053   -0.0000 C   0  0  0  0  0  0  0  0  0  0  0  0
   -2.0847   -1.1908   -0.0014 H   0  0  0  0  0  0  0  0  0  0  0  0
   -0.0012   -1.4111    0.0071 C   0  0  0  0  0  0  0  0  0  0  0  0
   -0.0060   -2.4045    0.0165 H   0  0  0  0  0  0  0  0  0  0  0  0
    1.2066   -0.7076    0.0000 C   0  0  0  0  0  0  0  0  0  0  0  0
    2.0868   -1.2027   -0.0042 H   0  0  0  0  0  0  0  0  0  0  0  0
    1.2042    0.6968    0.0009 C   0  0  0  0  0  0  0  0  0  0  0  0
    2.0721    1.1885    0.0046 H   0  0  0  0  0  0  0  0  0  0  0  0
  1  5  1  0
  5  6  1  0
  5  7  2  0
  1  2  1  0
  1  3  1  0
  1  4  1  0
  8 12  1  0
 12 13  2  0
 13 15  1  0
 15 17  2  0
 17 19  1  0
 19 21  2  0
 21 12  1  0
  8  9  1  0
  8 10  1  0
  8 11  1  0
 13 14  1  0
 15 16  1  0
 17 18  1  0
 19 20  1  0
 21 22  1  0
M  CHG  1   6  -1
M  END
>  <PDB_ID>  (1860) 
pdb3rq1

>  <RESIDUE_NAME>  (1860) 
ASP   PHE

>  <FRAG_NAME>  (1860) 
ACET   MBZ

>  <FRAG_ATOM_NUM>  (1860) 
fragi: 7  fragj: 15

>  <atom.prop.CHAIN_ID>  (1860) 
A A A A A A A Z Z Z Z Z Z Z Z Z Z Z Z Z Z Z

>  <atom.prop.IS_HEAVY_ATOM>  (1860) 
1 0 0 0 1 1 1 1 0 0 0 1 1 0 1 0 1 0 1 0 1 0

>  <DIFUSE_FUNC_ATOM>  (1860) 
atom 6   atom 7   

>  <FINAL_SINGLE_POINT_ENERGY>  (1860) 
0

>  <NONCOV_INTER_ENERGY_QM>  (1860) 
0

>  <FF_Energy>  (1860) 
-2.69

>  <QM_Energy>  (1860) 
-9.32

>  <source>  (1860) 
ACET_MBZ_02

>  <Index>  (1860) 
3756

$$$$
ACET-pdb3rq1-D-ASP-67:MBZ-pdb3rq1-B-PHE-54
     RDKit          3D

 22 21  0  0  0  0  0  0  0  0999 V2000
    3.7754    3.5770   -1.6386 C   0  0  0  0  0  0  0  0  0  0  0  0
    4.0425    4.5092   -1.8376 H   0  0  0  0  0  0  0  0  0  0  0  0
    2.8300    3.4171   -1.8812 H   0  0  0  0  0  0  0  0  0  0  0  0
    4.4038    2.9028   -2.2206 H   0  0  0  0  0  0  0  0  0  0  0  0
    3.9409    3.3346   -0.1537 C   0  0  0  0  0  0  0  0  0  0  0  0
    3.0817    2.6525    0.4374 O   0  0  0  0  0  1  0  0  0  0  0  0
    4.9664    3.7752    0.4037 O   0  0  0  0  0  0  0  0  0  0  0  0
    0.0380    2.9422   -0.0130 C   0  0  0  0  0  0  0  0  0  0  0  0
    0.4651    3.2220   -0.8616 H   0  0  0  0  0  0  0  0  0  0  0  0
    0.5724    3.2349    0.7683 H   0  0  0  0  0  0  0  0  0  0  0  0
   -0.9307    3.4385    0.0466 H   0  0  0  0  0  0  0  0  0  0  0  0
   -0.0005    1.4076    0.0017 C   0  0  0  0  0  0  0  0  0  0  0  0
   -1.1940    0.6998    0.0016 C   0  0  0  0  0  0  0  0  0  0  0  0
   -2.0624    1.1917    0.0015 H   0  0  0  0  0  0  0  0  0  0  0  0
   -1.1990   -0.6862    0.0000 C   0  0  0  0  0  0  0  0  0  0  0  0
   -2.0775   -1.1824   -0.0038 H   0  0  0  0  0  0  0  0  0  0  0  0
    0.0029   -1.3964    0.0054 C   0  0  0  0  0  0  0  0  0  0  0  0
   -0.0144   -2.3930    0.0119 H   0  0  0  0  0  0  0  0  0  0  0  0
    1.1990   -0.7085    0.0000 C   0  0  0  0  0  0  0  0  0  0  0  0
    2.0815   -1.2022    0.0041 H   0  0  0  0  0  0  0  0  0  0  0  0
    1.1916    0.6836   -0.0087 C   0  0  0  0  0  0  0  0  0  0  0  0
    2.0650    1.1795   -0.0241 H   0  0  0  0  0  0  0  0  0  0  0  0
  1  5  1  0
  5  6  1  0
  5  7  2  0
  1  2  1  0
  1  3  1  0
  1  4  1  0
  8 12  1  0
 12 13  2  0
 13 15  1  0
 15 17  2  0
 17 19  1  0
 19 21  2  0
 21 12  1  0
  8  9  1  0
  8 10  1  0
  8 11  1  0
 13 14  1  0
 15 16  1  0
 17 18  1  0
 19 20  1  0
 21 22  1  0
M  CHG  1   6  -1
M  END
>  <PDB_ID>  (1861) 
pdb3rq1

>  <RESIDUE_NAME>  (1861) 
ASP   PHE

>  <FRAG_NAME>  (1861) 
ACET   MBZ

>  <FRAG_ATOM_NUM>  (1861) 
fragi: 7  fragj: 15

>  <atom.prop.CHAIN_ID>  (1861) 
A A A A A A A Z Z Z Z Z Z Z Z Z Z Z Z Z Z Z

>  <atom.prop.IS_HEAVY_ATOM>  (1861) 
1 0 0 0 1 1 1 1 0 0 0 1 1 0 1 0 1 0 1 0 1 0

>  <DIFUSE_FUNC_ATOM>  (1861) 
atom 6   atom 7   

>  <FINAL_SINGLE_POINT_ENERGY>  (1861) 
0

>  <NONCOV_INTER_ENERGY_QM>  (1861) 
0

>  <FF_Energy>  (1861) 
21.46

>  <QM_Energy>  (1861) 
-5.29

>  <source>  (1861) 
ACET_MBZ_02

>  <Index>  (1861) 
3761

$$$$
ACET-pdb3rq1-B-GLU-321:MBZ-pdb3rq1-B-PHE-317
     RDKit          3D

 22 21  0  0  0  0  0  0  0  0999 V2000
    0.0808   -2.0300    3.4692 C   0  0  0  0  0  0  0  0  0  0  0  0
   -0.3777   -2.8433    3.7655 H   0  0  0  0  0  0  0  0  0  0  0  0
   -0.4849   -1.4547    2.9135 H   0  0  0  0  0  0  0  0  0  0  0  0
    0.3932   -1.4673    4.3490 H   0  0  0  0  0  0  0  0  0  0  0  0
    1.2667   -2.4553    2.6259 C   0  0  0  0  0  0  0  0  0  0  0  0
    2.2090   -1.6349    2.4602 O   0  0  0  0  0  1  0  0  0  0  0  0
    1.2562   -3.6073    2.1353 O   0  0  0  0  0  0  0  0  0  0  0  0
   -0.0012    2.8666    0.0411 C   0  0  0  0  0  0  0  0  0  0  0  0
   -0.7217    3.2038   -0.5497 H   0  0  0  0  0  0  0  0  0  0  0  0
    0.8847    3.1940   -0.2576 H   0  0  0  0  0  0  0  0  0  0  0  0
   -0.1801    3.2635    1.0404 H   0  0  0  0  0  0  0  0  0  0  0  0
   -0.0014    1.3962   -0.0072 C   0  0  0  0  0  0  0  0  0  0  0  0
   -1.1961    0.6981    0.0094 C   0  0  0  0  0  0  0  0  0  0  0  0
   -2.0619    1.1876    0.0270 H   0  0  0  0  0  0  0  0  0  0  0  0
   -1.2030   -0.6942    0.0000 C   0  0  0  0  0  0  0  0  0  0  0  0
   -2.0762   -1.1883   -0.0048 H   0  0  0  0  0  0  0  0  0  0  0  0
    0.0060   -1.3964   -0.0007 C   0  0  0  0  0  0  0  0  0  0  0  0
   -0.0029   -2.3922   -0.0021 H   0  0  0  0  0  0  0  0  0  0  0  0
    1.2030   -0.6976    0.0000 C   0  0  0  0  0  0  0  0  0  0  0  0
    2.0866   -1.1906    0.0032 H   0  0  0  0  0  0  0  0  0  0  0  0
    1.1915    0.6940   -0.0016 C   0  0  0  0  0  0  0  0  0  0  0  0
    2.0615    1.1917    0.0007 H   0  0  0  0  0  0  0  0  0  0  0  0
  1  5  1  0
  5  6  1  0
  5  7  2  0
  1  2  1  0
  1  3  1  0
  1  4  1  0
  8 12  1  0
 12 13  2  0
 13 15  1  0
 15 17  2  0
 17 19  1  0
 19 21  2  0
 21 12  1  0
  8  9  1  0
  8 10  1  0
  8 11  1  0
 13 14  1  0
 15 16  1  0
 17 18  1  0
 19 20  1  0
 21 22  1  0
M  CHG  1   6  -1
M  END
>  <PDB_ID>  (1862) 
pdb3rq1

>  <RESIDUE_NAME>  (1862) 
GLU   PHE

>  <FRAG_NAME>  (1862) 
ACET   MBZ

>  <FRAG_ATOM_NUM>  (1862) 
fragi: 7  fragj: 15

>  <atom.prop.CHAIN_ID>  (1862) 
A A A A A A A Z Z Z Z Z Z Z Z Z Z Z Z Z Z Z

>  <atom.prop.IS_HEAVY_ATOM>  (1862) 
1 0 0 0 1 1 1 1 0 0 0 1 1 0 1 0 1 0 1 0 1 0

>  <DIFUSE_FUNC_ATOM>  (1862) 
atom 6   atom 7   

>  <FINAL_SINGLE_POINT_ENERGY>  (1862) 
0

>  <NONCOV_INTER_ENERGY_QM>  (1862) 
0

>  <FF_Energy>  (1862) 
1.83

>  <QM_Energy>  (1862) 
-4.11

>  <source>  (1862) 
ACET_MBZ_02

>  <Index>  (1862) 
3763

$$$$
ACET-pdb4pwz-B-ASP-150:MBZ-pdb4pwz-B-PHE-163
     RDKit          3D

 22 21  0  0  0  0  0  0  0  0999 V2000
    5.1887    3.0187   -0.8696 C   0  0  0  0  0  0  0  0  0  0  0  0
    5.4916    3.6975   -0.2112 H   0  0  0  0  0  0  0  0  0  0  0  0
    5.8435    2.9339   -1.6105 H   0  0  0  0  0  0  0  0  0  0  0  0
    5.1381    2.0577   -0.3575 H   0  0  0  0  0  0  0  0  0  0  0  0
    3.8449    3.4652   -1.4508 C   0  0  0  0  0  0  0  0  0  0  0  0
    2.9395    2.6165   -1.5861 O   0  0  0  0  0  1  0  0  0  0  0  0
    3.7068    4.6650   -1.8019 O   0  0  0  0  0  0  0  0  0  0  0  0
   -0.0187    2.8915    0.0159 C   0  0  0  0  0  0  0  0  0  0  0  0
    0.9086    3.2073    0.1264 H   0  0  0  0  0  0  0  0  0  0  0  0
   -0.5970    3.1793    0.7607 H   0  0  0  0  0  0  0  0  0  0  0  0
   -0.4140    3.3255   -0.9025 H   0  0  0  0  0  0  0  0  0  0  0  0
   -0.0029    1.3959   -0.0122 C   0  0  0  0  0  0  0  0  0  0  0  0
   -1.1955    0.6896    0.0125 C   0  0  0  0  0  0  0  0  0  0  0  0
   -2.0635    1.1833    0.0385 H   0  0  0  0  0  0  0  0  0  0  0  0
   -1.2038   -0.6937   -0.0000 C   0  0  0  0  0  0  0  0  0  0  0  0
   -2.0797   -1.1894   -0.0016 H   0  0  0  0  0  0  0  0  0  0  0  0
   -0.0021   -1.3915   -0.0091 C   0  0  0  0  0  0  0  0  0  0  0  0
   -0.0045   -2.3888   -0.0225 H   0  0  0  0  0  0  0  0  0  0  0  0
    1.2038   -0.6931    0.0000 C   0  0  0  0  0  0  0  0  0  0  0  0
    2.0824   -1.1960    0.0011 H   0  0  0  0  0  0  0  0  0  0  0  0
    1.2005    0.6928    0.0089 C   0  0  0  0  0  0  0  0  0  0  0  0
    2.0630    1.1931    0.0292 H   0  0  0  0  0  0  0  0  0  0  0  0
  1  5  1  0
  5  6  1  0
  5  7  2  0
  1  2  1  0
  1  3  1  0
  1  4  1  0
  8 12  1  0
 12 13  2  0
 13 15  1  0
 15 17  2  0
 17 19  1  0
 19 21  2  0
 21 12  1  0
  8  9  1  0
  8 10  1  0
  8 11  1  0
 13 14  1  0
 15 16  1  0
 17 18  1  0
 19 20  1  0
 21 22  1  0
M  CHG  1   6  -1
M  END
>  <PDB_ID>  (1863) 
pdb4pwz

>  <RESIDUE_NAME>  (1863) 
ASP   PHE

>  <FRAG_NAME>  (1863) 
ACET   MBZ

>  <FRAG_ATOM_NUM>  (1863) 
fragi: 7  fragj: 15

>  <atom.prop.CHAIN_ID>  (1863) 
A A A A A A A Z Z Z Z Z Z Z Z Z Z Z Z Z Z Z

>  <atom.prop.IS_HEAVY_ATOM>  (1863) 
1 0 0 0 1 1 1 1 0 0 0 1 1 0 1 0 1 0 1 0 1 0

>  <DIFUSE_FUNC_ATOM>  (1863) 
atom 6   atom 7   

>  <FINAL_SINGLE_POINT_ENERGY>  (1863) 
0

>  <NONCOV_INTER_ENERGY_QM>  (1863) 
0

>  <FF_Energy>  (1863) 
-0.21

>  <QM_Energy>  (1863) 
-6.42

>  <source>  (1863) 
ACET_MBZ_02

>  <Index>  (1863) 
3868

$$$$
ACET-pdb4pvc-A-GLU-267:MBZ-pdb4pvc-A-PHE-321
     RDKit          3D

 22 21  0  0  0  0  0  0  0  0999 V2000
   -3.8751    4.8925    0.5190 C   0  0  0  0  0  0  0  0  0  0  0  0
   -3.3507    5.6773    0.2337 H   0  0  0  0  0  0  0  0  0  0  0  0
   -4.8207    5.1233    0.6769 H   0  0  0  0  0  0  0  0  0  0  0  0
   -3.8342    4.1496   -0.2775 H   0  0  0  0  0  0  0  0  0  0  0  0
   -3.2930    4.4196    1.8605 C   0  0  0  0  0  0  0  0  0  0  0  0
   -2.7790    3.2822    1.9596 O   0  0  0  0  0  1  0  0  0  0  0  0
   -3.3528    5.2046    2.8293 O   0  0  0  0  0  0  0  0  0  0  0  0
   -0.0233    2.9073   -0.0067 C   0  0  0  0  0  0  0  0  0  0  0  0
   -0.7895    3.2031    0.5490 H   0  0  0  0  0  0  0  0  0  0  0  0
   -0.1340    3.2069   -0.9455 H   0  0  0  0  0  0  0  0  0  0  0  0
    0.8769    3.3775    0.3892 H   0  0  0  0  0  0  0  0  0  0  0  0
   -0.0007    1.4031   -0.0006 C   0  0  0  0  0  0  0  0  0  0  0  0
   -1.1976    0.6953    0.0050 C   0  0  0  0  0  0  0  0  0  0  0  0
   -2.0643    1.1838    0.0111 H   0  0  0  0  0  0  0  0  0  0  0  0
   -1.2013   -0.6984    0.0000 C   0  0  0  0  0  0  0  0  0  0  0  0
   -2.0785   -1.1910   -0.0020 H   0  0  0  0  0  0  0  0  0  0  0  0
   -0.0008   -1.3923    0.0003 C   0  0  0  0  0  0  0  0  0  0  0  0
   -0.0061   -2.3937   -0.0003 H   0  0  0  0  0  0  0  0  0  0  0  0
    1.2013   -0.7015   -0.0000 C   0  0  0  0  0  0  0  0  0  0  0  0
    2.0818   -1.1980    0.0044 H   0  0  0  0  0  0  0  0  0  0  0  0
    1.1991    0.6938   -0.0047 C   0  0  0  0  0  0  0  0  0  0  0  0
    2.0660    1.1880   -0.0121 H   0  0  0  0  0  0  0  0  0  0  0  0
  1  5  1  0
  5  6  1  0
  5  7  2  0
  1  2  1  0
  1  3  1  0
  1  4  1  0
  8 12  1  0
 12 13  2  0
 13 15  1  0
 15 17  2  0
 17 19  1  0
 19 21  2  0
 21 12  1  0
  8  9  1  0
  8 10  1  0
  8 11  1  0
 13 14  1  0
 15 16  1  0
 17 18  1  0
 19 20  1  0
 21 22  1  0
M  CHG  1   6  -1
M  END
>  <PDB_ID>  (1864) 
pdb4pvc

>  <RESIDUE_NAME>  (1864) 
GLU   PHE

>  <FRAG_NAME>  (1864) 
ACET   MBZ

>  <FRAG_ATOM_NUM>  (1864) 
fragi: 7  fragj: 15

>  <atom.prop.CHAIN_ID>  (1864) 
A A A A A A A Z Z Z Z Z Z Z Z Z Z Z Z Z Z Z

>  <atom.prop.IS_HEAVY_ATOM>  (1864) 
1 0 0 0 1 1 1 1 0 0 0 1 1 0 1 0 1 0 1 0 1 0

>  <DIFUSE_FUNC_ATOM>  (1864) 
atom 6   atom 7   

>  <FINAL_SINGLE_POINT_ENERGY>  (1864) 
0

>  <NONCOV_INTER_ENERGY_QM>  (1864) 
0

>  <FF_Energy>  (1864) 
-1.17

>  <QM_Energy>  (1864) 
-6.45

>  <source>  (1864) 
ACET_MBZ_02

>  <Index>  (1864) 
3871

$$$$
ACET-pdb3rsi-A-ASP-242:MBZ-pdb3rsi-A-PHE-258
     RDKit          3D

 22 21  0  0  0  0  0  0  0  0999 V2000
   -4.0558    1.7484    2.2210 C   0  0  0  0  0  0  0  0  0  0  0  0
   -4.5423    1.9631    3.0558 H   0  0  0  0  0  0  0  0  0  0  0  0
   -3.4157    1.0076    2.3606 H   0  0  0  0  0  0  0  0  0  0  0  0
   -4.7866    1.4280    1.4784 H   0  0  0  0  0  0  0  0  0  0  0  0
   -3.2740    2.9922    1.7786 C   0  0  0  0  0  0  0  0  0  0  0  0
   -3.5733    3.5631    0.7026 O   0  0  0  0  0  1  0  0  0  0  0  0
   -2.3399    3.3892    2.5019 O   0  0  0  0  0  0  0  0  0  0  0  0
   -0.0038    2.9047    0.0180 C   0  0  0  0  0  0  0  0  0  0  0  0
    0.9388    3.2110    0.0479 H   0  0  0  0  0  0  0  0  0  0  0  0
   -0.4940    3.1952    0.8299 H   0  0  0  0  0  0  0  0  0  0  0  0
   -0.4795    3.3721   -0.8442 H   0  0  0  0  0  0  0  0  0  0  0  0
   -0.0037    1.4057   -0.0121 C   0  0  0  0  0  0  0  0  0  0  0  0
   -1.1910    0.6956    0.0004 C   0  0  0  0  0  0  0  0  0  0  0  0
   -2.0633    1.1768    0.0081 H   0  0  0  0  0  0  0  0  0  0  0  0
   -1.1915   -0.7031    0.0000 C   0  0  0  0  0  0  0  0  0  0  0  0
   -2.0725   -1.1916    0.0001 H   0  0  0  0  0  0  0  0  0  0  0  0
    0.0018   -1.3948    0.0014 C   0  0  0  0  0  0  0  0  0  0  0  0
   -0.0011   -2.3952    0.0032 H   0  0  0  0  0  0  0  0  0  0  0  0
    1.1915   -0.7002    0.0000 C   0  0  0  0  0  0  0  0  0  0  0  0
    2.0796   -1.1938   -0.0071 H   0  0  0  0  0  0  0  0  0  0  0  0
    1.1928    0.6968    0.0103 C   0  0  0  0  0  0  0  0  0  0  0  0
    2.0604    1.1872    0.0329 H   0  0  0  0  0  0  0  0  0  0  0  0
  1  5  1  0
  5  6  1  0
  5  7  2  0
  1  2  1  0
  1  3  1  0
  1  4  1  0
  8 12  1  0
 12 13  2  0
 13 15  1  0
 15 17  2  0
 17 19  1  0
 19 21  2  0
 21 12  1  0
  8  9  1  0
  8 10  1  0
  8 11  1  0
 13 14  1  0
 15 16  1  0
 17 18  1  0
 19 20  1  0
 21 22  1  0
M  CHG  1   6  -1
M  END
>  <PDB_ID>  (1865) 
pdb3rsi

>  <RESIDUE_NAME>  (1865) 
ASP   PHE

>  <FRAG_NAME>  (1865) 
ACET   MBZ

>  <FRAG_ATOM_NUM>  (1865) 
fragi: 7  fragj: 15

>  <atom.prop.CHAIN_ID>  (1865) 
A A A A A A A Z Z Z Z Z Z Z Z Z Z Z Z Z Z Z

>  <atom.prop.IS_HEAVY_ATOM>  (1865) 
1 0 0 0 1 1 1 1 0 0 0 1 1 0 1 0 1 0 1 0 1 0

>  <DIFUSE_FUNC_ATOM>  (1865) 
atom 6   atom 7   

>  <FINAL_SINGLE_POINT_ENERGY>  (1865) 
0

>  <NONCOV_INTER_ENERGY_QM>  (1865) 
0

>  <FF_Energy>  (1865) 
-1.97

>  <QM_Energy>  (1865) 
-8.32

>  <source>  (1865) 
ACET_MBZ_02

>  <Index>  (1865) 
3876

$$$$
ACET-pdb3rsi-B-ASP-242:MBZ-pdb3rsi-B-PHE-258
     RDKit          3D

 22 21  0  0  0  0  0  0  0  0999 V2000
   -3.7174    1.8304    2.4747 C   0  0  0  0  0  0  0  0  0  0  0  0
   -4.0784    1.9448    3.3947 H   0  0  0  0  0  0  0  0  0  0  0  0
   -3.0368    1.1058    2.4592 H   0  0  0  0  0  0  0  0  0  0  0  0
   -4.5404    1.5334    1.8246 H   0  0  0  0  0  0  0  0  0  0  0  0
   -3.0641    3.1234    2.0426 C   0  0  0  0  0  0  0  0  0  0  0  0
   -3.4727    3.7166    1.0188 O   0  0  0  0  0  1  0  0  0  0  0  0
   -2.1231    3.5536    2.7308 O   0  0  0  0  0  0  0  0  0  0  0  0
   -0.0004    2.8961    0.0264 C   0  0  0  0  0  0  0  0  0  0  0  0
    0.9383    3.2085   -0.0477 H   0  0  0  0  0  0  0  0  0  0  0  0
   -0.4027    3.1877    0.8844 H   0  0  0  0  0  0  0  0  0  0  0  0
   -0.5675    3.3625   -0.7791 H   0  0  0  0  0  0  0  0  0  0  0  0
   -0.0002    1.4025   -0.0051 C   0  0  0  0  0  0  0  0  0  0  0  0
   -1.1972    0.6922    0.0142 C   0  0  0  0  0  0  0  0  0  0  0  0
   -2.0637    1.1873    0.0371 H   0  0  0  0  0  0  0  0  0  0  0  0
   -1.2075   -0.6934    0.0000 C   0  0  0  0  0  0  0  0  0  0  0  0
   -2.0824   -1.1893    0.0018 H   0  0  0  0  0  0  0  0  0  0  0  0
   -0.0009   -1.4000   -0.0150 C   0  0  0  0  0  0  0  0  0  0  0  0
   -0.0070   -2.3931   -0.0367 H   0  0  0  0  0  0  0  0  0  0  0  0
    1.2075   -0.6975   -0.0000 C   0  0  0  0  0  0  0  0  0  0  0  0
    2.0859   -1.1940    0.0082 H   0  0  0  0  0  0  0  0  0  0  0  0
    1.1983    0.6963    0.0059 C   0  0  0  0  0  0  0  0  0  0  0  0
    2.0656    1.1943    0.0177 H   0  0  0  0  0  0  0  0  0  0  0  0
  1  5  1  0
  5  6  1  0
  5  7  2  0
  1  2  1  0
  1  3  1  0
  1  4  1  0
  8 12  1  0
 12 13  2  0
 13 15  1  0
 15 17  2  0
 17 19  1  0
 19 21  2  0
 21 12  1  0
  8  9  1  0
  8 10  1  0
  8 11  1  0
 13 14  1  0
 15 16  1  0
 17 18  1  0
 19 20  1  0
 21 22  1  0
M  CHG  1   6  -1
M  END
>  <PDB_ID>  (1866) 
pdb3rsi

>  <RESIDUE_NAME>  (1866) 
ASP   PHE

>  <FRAG_NAME>  (1866) 
ACET   MBZ

>  <FRAG_ATOM_NUM>  (1866) 
fragi: 7  fragj: 15

>  <atom.prop.CHAIN_ID>  (1866) 
A A A A A A A Z Z Z Z Z Z Z Z Z Z Z Z Z Z Z

>  <atom.prop.IS_HEAVY_ATOM>  (1866) 
1 0 0 0 1 1 1 1 0 0 0 1 1 0 1 0 1 0 1 0 1 0

>  <DIFUSE_FUNC_ATOM>  (1866) 
atom 6   atom 7   

>  <FINAL_SINGLE_POINT_ENERGY>  (1866) 
0

>  <NONCOV_INTER_ENERGY_QM>  (1866) 
0

>  <FF_Energy>  (1866) 
-2.13

>  <QM_Energy>  (1866) 
-7.94

>  <source>  (1866) 
ACET_MBZ_02

>  <Index>  (1866) 
3877

$$$$
ACET-pdb3rri-B-ASP-47:MBZ-pdb3rri-A-PHE-8
     RDKit          3D

 22 21  0  0  0  0  0  0  0  0999 V2000
   -4.1189    1.3441   -2.2451 C   0  0  0  0  0  0  0  0  0  0  0  0
   -4.1750    0.9325   -1.3464 H   0  0  0  0  0  0  0  0  0  0  0  0
   -3.4441    0.8865   -2.8054 H   0  0  0  0  0  0  0  0  0  0  0  0
   -5.0917    1.2634   -2.7300 H   0  0  0  0  0  0  0  0  0  0  0  0
   -3.6991    2.7977   -2.0801 C   0  0  0  0  0  0  0  0  0  0  0  0
   -3.5850    3.5262   -3.0669 O   0  0  0  0  0  1  0  0  0  0  0  0
   -3.4854    3.2829   -0.9443 O   0  0  0  0  0  0  0  0  0  0  0  0
   -0.0248    2.9092    0.0306 C   0  0  0  0  0  0  0  0  0  0  0  0
   -0.9010    3.2060   -0.3038 H   0  0  0  0  0  0  0  0  0  0  0  0
    0.7154    3.2274   -0.5331 H   0  0  0  0  0  0  0  0  0  0  0  0
    0.1101    3.3432    1.0213 H   0  0  0  0  0  0  0  0  0  0  0  0
   -0.0051    1.3959    0.0277 C   0  0  0  0  0  0  0  0  0  0  0  0
   -1.1858    0.6856    0.0010 C   0  0  0  0  0  0  0  0  0  0  0  0
   -2.0603    1.1809   -0.0199 H   0  0  0  0  0  0  0  0  0  0  0  0
   -1.1970   -0.6884    0.0000 C   0  0  0  0  0  0  0  0  0  0  0  0
   -2.0687   -1.1892    0.0219 H   0  0  0  0  0  0  0  0  0  0  0  0
    0.0091   -1.3832   -0.0300 C   0  0  0  0  0  0  0  0  0  0  0  0
    0.0017   -2.3806   -0.0734 H   0  0  0  0  0  0  0  0  0  0  0  0
    1.1970   -0.6866    0.0000 C   0  0  0  0  0  0  0  0  0  0  0  0
    2.0817   -1.1879    0.0231 H   0  0  0  0  0  0  0  0  0  0  0  0
    1.1819    0.6766    0.0012 C   0  0  0  0  0  0  0  0  0  0  0  0
    2.0551    1.1886   -0.0181 H   0  0  0  0  0  0  0  0  0  0  0  0
  1  5  1  0
  5  6  1  0
  5  7  2  0
  1  2  1  0
  1  3  1  0
  1  4  1  0
  8 12  1  0
 12 13  2  0
 13 15  1  0
 15 17  2  0
 17 19  1  0
 19 21  2  0
 21 12  1  0
  8  9  1  0
  8 10  1  0
  8 11  1  0
 13 14  1  0
 15 16  1  0
 17 18  1  0
 19 20  1  0
 21 22  1  0
M  CHG  1   6  -1
M  END
>  <PDB_ID>  (1867) 
pdb3rri

>  <RESIDUE_NAME>  (1867) 
ASP   PHE

>  <FRAG_NAME>  (1867) 
ACET   MBZ

>  <FRAG_ATOM_NUM>  (1867) 
fragi: 7  fragj: 15

>  <atom.prop.CHAIN_ID>  (1867) 
A A A A A A A Z Z Z Z Z Z Z Z Z Z Z Z Z Z Z

>  <atom.prop.IS_HEAVY_ATOM>  (1867) 
1 0 0 0 1 1 1 1 0 0 0 1 1 0 1 0 1 0 1 0 1 0

>  <DIFUSE_FUNC_ATOM>  (1867) 
atom 6   atom 7   

>  <FINAL_SINGLE_POINT_ENERGY>  (1867) 
0

>  <NONCOV_INTER_ENERGY_QM>  (1867) 
0

>  <FF_Energy>  (1867) 
-2.51

>  <QM_Energy>  (1867) 
-7.53

>  <source>  (1867) 
ACET_MBZ_02

>  <Index>  (1867) 
3884

$$$$
ACET-pdb4pxz-A-ASP-121:MBZ-pdb4pxz-A-PHE-59
     RDKit          3D

 22 21  0  0  0  0  0  0  0  0999 V2000
   -4.2634    4.8215   -1.7116 C   0  0  0  0  0  0  0  0  0  0  0  0
   -4.5933    5.4486   -1.0097 H   0  0  0  0  0  0  0  0  0  0  0  0
   -4.4576    3.8807   -1.4457 H   0  0  0  0  0  0  0  0  0  0  0  0
   -4.8192    5.0280   -2.6262 H   0  0  0  0  0  0  0  0  0  0  0  0
   -2.7692    4.9919   -1.8598 C   0  0  0  0  0  0  0  0  0  0  0  0
   -2.2984    6.1470   -1.8158 O   0  0  0  0  0  1  0  0  0  0  0  0
   -2.0775    3.9758   -2.0658 O   0  0  0  0  0  0  0  0  0  0  0  0
    0.0026    2.9219    0.0240 C   0  0  0  0  0  0  0  0  0  0  0  0
   -0.5866    3.2359   -0.7118 H   0  0  0  0  0  0  0  0  0  0  0  0
    0.9366    3.2274   -0.1252 H   0  0  0  0  0  0  0  0  0  0  0  0
   -0.3496    3.3847    0.9459 H   0  0  0  0  0  0  0  0  0  0  0  0
    0.0011    1.4077    0.0055 C   0  0  0  0  0  0  0  0  0  0  0  0
   -1.1961    0.6953   -0.0020 C   0  0  0  0  0  0  0  0  0  0  0  0
   -2.0632    1.1797   -0.0103 H   0  0  0  0  0  0  0  0  0  0  0  0
   -1.1958   -0.7042    0.0000 C   0  0  0  0  0  0  0  0  0  0  0  0
   -2.0756   -1.1937    0.0068 H   0  0  0  0  0  0  0  0  0  0  0  0
   -0.0004   -1.3924   -0.0051 C   0  0  0  0  0  0  0  0  0  0  0  0
   -0.0030   -2.3957   -0.0131 H   0  0  0  0  0  0  0  0  0  0  0  0
    1.1958   -0.7013    0.0000 C   0  0  0  0  0  0  0  0  0  0  0  0
    2.0796   -1.1963    0.0037 H   0  0  0  0  0  0  0  0  0  0  0  0
    1.1954    0.6949    0.0017 C   0  0  0  0  0  0  0  0  0  0  0  0
    2.0662    1.1861   -0.0010 H   0  0  0  0  0  0  0  0  0  0  0  0
  1  5  1  0
  5  6  1  0
  5  7  2  0
  1  2  1  0
  1  3  1  0
  1  4  1  0
  8 12  1  0
 12 13  2  0
 13 15  1  0
 15 17  2  0
 17 19  1  0
 19 21  2  0
 21 12  1  0
  8  9  1  0
  8 10  1  0
  8 11  1  0
 13 14  1  0
 15 16  1  0
 17 18  1  0
 19 20  1  0
 21 22  1  0
M  CHG  1   6  -1
M  END
>  <PDB_ID>  (1868) 
pdb4pxz

>  <RESIDUE_NAME>  (1868) 
ASP   PHE

>  <FRAG_NAME>  (1868) 
ACET   MBZ

>  <FRAG_ATOM_NUM>  (1868) 
fragi: 7  fragj: 15

>  <atom.prop.CHAIN_ID>  (1868) 
A A A A A A A Z Z Z Z Z Z Z Z Z Z Z Z Z Z Z

>  <atom.prop.IS_HEAVY_ATOM>  (1868) 
1 0 0 0 1 1 1 1 0 0 0 1 1 0 1 0 1 0 1 0 1 0

>  <DIFUSE_FUNC_ATOM>  (1868) 
atom 6   atom 7   

>  <FINAL_SINGLE_POINT_ENERGY>  (1868) 
0

>  <NONCOV_INTER_ENERGY_QM>  (1868) 
0

>  <FF_Energy>  (1868) 
1.0

>  <QM_Energy>  (1868) 
-6.15

>  <source>  (1868) 
ACET_MBZ_02

>  <Index>  (1868) 
3923

$$$$
ACET-pdb4pz2-C-ASP-136:MBZ-pdb4pz2-C-PHE-185
     RDKit          3D

 22 21  0  0  0  0  0  0  0  0999 V2000
   -4.9661    3.6022    2.9494 C   0  0  0  0  0  0  0  0  0  0  0  0
   -5.9602    3.7084    2.8807 H   0  0  0  0  0  0  0  0  0  0  0  0
   -4.5232    4.4427    2.6310 H   0  0  0  0  0  0  0  0  0  0  0  0
   -4.7241    3.4874    4.0059 H   0  0  0  0  0  0  0  0  0  0  0  0
   -4.5332    2.4523    2.0638 C   0  0  0  0  0  0  0  0  0  0  0  0
   -5.1697    1.3737    2.1370 O   0  0  0  0  0  1  0  0  0  0  0  0
   -3.5933    2.6467    1.2576 O   0  0  0  0  0  0  0  0  0  0  0  0
    0.0026    2.9246    0.0206 C   0  0  0  0  0  0  0  0  0  0  0  0
    0.9491    3.2259    0.0483 H   0  0  0  0  0  0  0  0  0  0  0  0
   -0.4785    3.2133    0.8409 H   0  0  0  0  0  0  0  0  0  0  0  0
   -0.4749    3.4108   -0.8302 H   0  0  0  0  0  0  0  0  0  0  0  0
    0.0007    1.4100   -0.0078 C   0  0  0  0  0  0  0  0  0  0  0  0
   -1.1958    0.6947    0.0212 C   0  0  0  0  0  0  0  0  0  0  0  0
   -2.0633    1.1778    0.0564 H   0  0  0  0  0  0  0  0  0  0  0  0
   -1.1946   -0.7043    0.0000 C   0  0  0  0  0  0  0  0  0  0  0  0
   -2.0764   -1.1926   -0.0100 H   0  0  0  0  0  0  0  0  0  0  0  0
   -0.0031   -1.3918   -0.0049 C   0  0  0  0  0  0  0  0  0  0  0  0
   -0.0048   -2.3961   -0.0132 H   0  0  0  0  0  0  0  0  0  0  0  0
    1.1946   -0.7034    0.0000 C   0  0  0  0  0  0  0  0  0  0  0  0
    2.0774   -1.2000    0.0115 H   0  0  0  0  0  0  0  0  0  0  0  0
    1.1983    0.6949   -0.0084 C   0  0  0  0  0  0  0  0  0  0  0  0
    2.0669    1.1840   -0.0155 H   0  0  0  0  0  0  0  0  0  0  0  0
  1  5  1  0
  5  6  1  0
  5  7  2  0
  1  2  1  0
  1  3  1  0
  1  4  1  0
  8 12  1  0
 12 13  2  0
 13 15  1  0
 15 17  2  0
 17 19  1  0
 19 21  2  0
 21 12  1  0
  8  9  1  0
  8 10  1  0
  8 11  1  0
 13 14  1  0
 15 16  1  0
 17 18  1  0
 19 20  1  0
 21 22  1  0
M  CHG  1   6  -1
M  END
>  <PDB_ID>  (1869) 
pdb4pz2

>  <RESIDUE_NAME>  (1869) 
ASP   PHE

>  <FRAG_NAME>  (1869) 
ACET   MBZ

>  <FRAG_ATOM_NUM>  (1869) 
fragi: 7  fragj: 15

>  <atom.prop.CHAIN_ID>  (1869) 
A A A A A A A Z Z Z Z Z Z Z Z Z Z Z Z Z Z Z

>  <atom.prop.IS_HEAVY_ATOM>  (1869) 
1 0 0 0 1 1 1 1 0 0 0 1 1 0 1 0 1 0 1 0 1 0

>  <DIFUSE_FUNC_ATOM>  (1869) 
atom 6   atom 7   

>  <FINAL_SINGLE_POINT_ENERGY>  (1869) 
0

>  <NONCOV_INTER_ENERGY_QM>  (1869) 
0

>  <FF_Energy>  (1869) 
-1.83

>  <QM_Energy>  (1869) 
-6.99

>  <source>  (1869) 
ACET_MBZ_02

>  <Index>  (1869) 
4044

$$$$
ACET-pdb4pzv-A-GLU-16:MBZ-pdb4pzv-A-PHE-13
     RDKit          3D

 22 21  0  0  0  0  0  0  0  0999 V2000
    4.2014    4.9320    0.5918 C   0  0  0  0  0  0  0  0  0  0  0  0
    4.3567    5.1063   -0.3630 H   0  0  0  0  0  0  0  0  0  0  0  0
    4.8569    5.3893    1.1651 H   0  0  0  0  0  0  0  0  0  0  0  0
    3.2061    5.2944    0.8490 H   0  0  0  0  0  0  0  0  0  0  0  0
    4.3421    3.4550    0.8198 C   0  0  0  0  0  0  0  0  0  0  0  0
    3.6845    2.6828    0.0981 O   0  0  0  0  0  1  0  0  0  0  0  0
    5.0900    3.0856    1.7294 O   0  0  0  0  0  0  0  0  0  0  0  0
    0.0267    2.9453   -0.0130 C   0  0  0  0  0  0  0  0  0  0  0  0
    0.8786    3.2223   -0.4269 H   0  0  0  0  0  0  0  0  0  0  0  0
   -0.0386    3.2501    0.9237 H   0  0  0  0  0  0  0  0  0  0  0  0
   -0.7868    3.4040   -0.5751 H   0  0  0  0  0  0  0  0  0  0  0  0
   -0.0007    1.4161   -0.0001 C   0  0  0  0  0  0  0  0  0  0  0  0
   -1.1908    0.7179    0.0033 C   0  0  0  0  0  0  0  0  0  0  0  0
   -2.0623    1.1878    0.0070 H   0  0  0  0  0  0  0  0  0  0  0  0
   -1.1938   -0.7072   -0.0000 C   0  0  0  0  0  0  0  0  0  0  0  0
   -2.0737   -1.1857   -0.0049 H   0  0  0  0  0  0  0  0  0  0  0  0
    0.0087   -1.4077    0.0049 C   0  0  0  0  0  0  0  0  0  0  0  0
   -0.0028   -2.4060    0.0120 H   0  0  0  0  0  0  0  0  0  0  0  0
    1.1938   -0.7145    0.0000 C   0  0  0  0  0  0  0  0  0  0  0  0
    2.0845   -1.1936    0.0037 H   0  0  0  0  0  0  0  0  0  0  0  0
    1.1827    0.6954   -0.0081 C   0  0  0  0  0  0  0  0  0  0  0  0
    2.0618    1.1807   -0.0210 H   0  0  0  0  0  0  0  0  0  0  0  0
  1  5  1  0
  5  6  1  0
  5  7  2  0
  1  2  1  0
  1  3  1  0
  1  4  1  0
  8 12  1  0
 12 13  2  0
 13 15  1  0
 15 17  2  0
 17 19  1  0
 19 21  2  0
 21 12  1  0
  8  9  1  0
  8 10  1  0
  8 11  1  0
 13 14  1  0
 15 16  1  0
 17 18  1  0
 19 20  1  0
 21 22  1  0
M  CHG  1   6  -1
M  END
>  <PDB_ID>  (1870) 
pdb4pzv

>  <RESIDUE_NAME>  (1870) 
GLU   PHE

>  <FRAG_NAME>  (1870) 
ACET   MBZ

>  <FRAG_ATOM_NUM>  (1870) 
fragi: 7  fragj: 15

>  <atom.prop.CHAIN_ID>  (1870) 
A A A A A A A Z Z Z Z Z Z Z Z Z Z Z Z Z Z Z

>  <atom.prop.IS_HEAVY_ATOM>  (1870) 
1 0 0 0 1 1 1 1 0 0 0 1 1 0 1 0 1 0 1 0 1 0

>  <DIFUSE_FUNC_ATOM>  (1870) 
atom 6   atom 7   

>  <FINAL_SINGLE_POINT_ENERGY>  (1870) 
0

>  <NONCOV_INTER_ENERGY_QM>  (1870) 
0

>  <FF_Energy>  (1870) 
-1.0

>  <QM_Energy>  (1870) 
-7.97

>  <source>  (1870) 
ACET_MBZ_02

>  <Index>  (1870) 
4055

$$$$
ACET-pdb4pzu-C-GLU-234:MBZ-pdb4pzu-E-PHE-222
     RDKit          3D

 22 21  0  0  0  0  0  0  0  0999 V2000
    1.8429   -4.1275    2.8343 C   0  0  0  0  0  0  0  0  0  0  0  0
    1.7377   -4.4438    3.7757 H   0  0  0  0  0  0  0  0  0  0  0  0
    2.6413   -4.5618    2.4206 H   0  0  0  0  0  0  0  0  0  0  0  0
    0.9630   -4.4479    2.2764 H   0  0  0  0  0  0  0  0  0  0  0  0
    2.0980   -2.6491    2.8735 C   0  0  0  0  0  0  0  0  0  0  0  0
    1.3887   -1.8177    2.3292 O   0  0  0  0  0  1  0  0  0  0  0  0
    3.1293   -2.3655    3.5196 O   0  0  0  0  0  0  0  0  0  0  0  0
   -0.0031    2.9152   -0.0314 C   0  0  0  0  0  0  0  0  0  0  0  0
    0.8929    3.2292    0.2259 H   0  0  0  0  0  0  0  0  0  0  0  0
   -0.6991    3.2305    0.5893 H   0  0  0  0  0  0  0  0  0  0  0  0
   -0.2276    3.3227   -1.0171 H   0  0  0  0  0  0  0  0  0  0  0  0
    0.0031    1.4016    0.0027 C   0  0  0  0  0  0  0  0  0  0  0  0
   -1.2040    0.6877   -0.0111 C   0  0  0  0  0  0  0  0  0  0  0  0
   -2.0654    1.1835   -0.0308 H   0  0  0  0  0  0  0  0  0  0  0  0
   -1.2074   -0.6983    0.0000 C   0  0  0  0  0  0  0  0  0  0  0  0
   -2.0795   -1.1975   -0.0047 H   0  0  0  0  0  0  0  0  0  0  0  0
    0.0023   -1.3957    0.0193 C   0  0  0  0  0  0  0  0  0  0  0  0
   -0.0001   -2.3917    0.0460 H   0  0  0  0  0  0  0  0  0  0  0  0
    1.2074   -0.6946   -0.0000 C   0  0  0  0  0  0  0  0  0  0  0  0
    2.0874   -1.1904   -0.0051 H   0  0  0  0  0  0  0  0  0  0  0  0
    1.1986    0.6992   -0.0108 C   0  0  0  0  0  0  0  0  0  0  0  0
    2.0665    1.1958   -0.0298 H   0  0  0  0  0  0  0  0  0  0  0  0
  1  5  1  0
  5  6  1  0
  5  7  2  0
  1  2  1  0
  1  3  1  0
  1  4  1  0
  8 12  1  0
 12 13  2  0
 13 15  1  0
 15 17  2  0
 17 19  1  0
 19 21  2  0
 21 12  1  0
  8  9  1  0
  8 10  1  0
  8 11  1  0
 13 14  1  0
 15 16  1  0
 17 18  1  0
 19 20  1  0
 21 22  1  0
M  CHG  1   6  -1
M  END
>  <PDB_ID>  (1871) 
pdb4pzu

>  <RESIDUE_NAME>  (1871) 
GLU   PHE

>  <FRAG_NAME>  (1871) 
ACET   MBZ

>  <FRAG_ATOM_NUM>  (1871) 
fragi: 7  fragj: 15

>  <atom.prop.CHAIN_ID>  (1871) 
A A A A A A A Z Z Z Z Z Z Z Z Z Z Z Z Z Z Z

>  <atom.prop.IS_HEAVY_ATOM>  (1871) 
1 0 0 0 1 1 1 1 0 0 0 1 1 0 1 0 1 0 1 0 1 0

>  <DIFUSE_FUNC_ATOM>  (1871) 
atom 6   atom 7   

>  <FINAL_SINGLE_POINT_ENERGY>  (1871) 
0

>  <NONCOV_INTER_ENERGY_QM>  (1871) 
0

>  <FF_Energy>  (1871) 
9.68

>  <QM_Energy>  (1871) 
1.75

>  <source>  (1871) 
ACET_MBZ_02

>  <Index>  (1871) 
4069

$$$$
ACET-pdb3s1s-A-GLU-99:MBZ-pdb3s1s-A-PHE-502
     RDKit          3D

 22 21  0  0  0  0  0  0  0  0999 V2000
   -5.7438    1.1137    1.0493 C   0  0  0  0  0  0  0  0  0  0  0  0
   -5.8602    1.8455    0.4036 H   0  0  0  0  0  0  0  0  0  0  0  0
   -6.5336    0.9915    1.6209 H   0  0  0  0  0  0  0  0  0  0  0  0
   -5.5777    0.1911    0.4930 H   0  0  0  0  0  0  0  0  0  0  0  0
   -4.5760    1.4825    1.9550 C   0  0  0  0  0  0  0  0  0  0  0  0
   -3.4712    1.7221    1.4295 O   0  0  0  0  0  1  0  0  0  0  0  0
   -4.7630    1.5532    3.1881 O   0  0  0  0  0  0  0  0  0  0  0  0
   -0.0106    2.9077   -0.0034 C   0  0  0  0  0  0  0  0  0  0  0  0
    0.8709    3.2173    0.3163 H   0  0  0  0  0  0  0  0  0  0  0  0
   -0.7385    3.2110    0.5909 H   0  0  0  0  0  0  0  0  0  0  0  0
   -0.1810    3.3385   -0.9901 H   0  0  0  0  0  0  0  0  0  0  0  0
   -0.0034    1.4031    0.0015 C   0  0  0  0  0  0  0  0  0  0  0  0
   -1.2026    0.6859    0.0004 C   0  0  0  0  0  0  0  0  0  0  0  0
   -2.0689    1.1779   -0.0011 H   0  0  0  0  0  0  0  0  0  0  0  0
   -1.2074   -0.7041    0.0000 C   0  0  0  0  0  0  0  0  0  0  0  0
   -2.0750   -1.2030   -0.0008 H   0  0  0  0  0  0  0  0  0  0  0  0
    0.0086   -1.3965    0.0031 C   0  0  0  0  0  0  0  0  0  0  0  0
    0.0078   -2.3930    0.0068 H   0  0  0  0  0  0  0  0  0  0  0  0
    1.2074   -0.6903   -0.0000 C   0  0  0  0  0  0  0  0  0  0  0  0
    2.0915   -1.1842    0.0024 H   0  0  0  0  0  0  0  0  0  0  0  0
    1.1974    0.7019   -0.0049 C   0  0  0  0  0  0  0  0  0  0  0  0
    2.0625    1.2017   -0.0137 H   0  0  0  0  0  0  0  0  0  0  0  0
  1  5  1  0
  5  6  1  0
  5  7  2  0
  1  2  1  0
  1  3  1  0
  1  4  1  0
  8 12  1  0
 12 13  2  0
 13 15  1  0
 15 17  2  0
 17 19  1  0
 19 21  2  0
 21 12  1  0
  8  9  1  0
  8 10  1  0
  8 11  1  0
 13 14  1  0
 15 16  1  0
 17 18  1  0
 19 20  1  0
 21 22  1  0
M  CHG  1   6  -1
M  END
>  <PDB_ID>  (1872) 
pdb3s1s

>  <RESIDUE_NAME>  (1872) 
GLU   PHE

>  <FRAG_NAME>  (1872) 
ACET   MBZ

>  <FRAG_ATOM_NUM>  (1872) 
fragi: 7  fragj: 15

>  <atom.prop.CHAIN_ID>  (1872) 
A A A A A A A Z Z Z Z Z Z Z Z Z Z Z Z Z Z Z

>  <atom.prop.IS_HEAVY_ATOM>  (1872) 
1 0 0 0 1 1 1 1 0 0 0 1 1 0 1 0 1 0 1 0 1 0

>  <DIFUSE_FUNC_ATOM>  (1872) 
atom 6   atom 7   

>  <FINAL_SINGLE_POINT_ENERGY>  (1872) 
0

>  <NONCOV_INTER_ENERGY_QM>  (1872) 
0

>  <FF_Energy>  (1872) 
3.89

>  <QM_Energy>  (1872) 
-5.41

>  <source>  (1872) 
ACET_MBZ_02

>  <Index>  (1872) 
4202

$$$$
ACET-pdb4q2t-B-GLU-396:MBZ-pdb4q2t-B-PHE-448
     RDKit          3D

 22 21  0  0  0  0  0  0  0  0999 V2000
    1.6901   -1.3813    2.7878 C   0  0  0  0  0  0  0  0  0  0  0  0
    1.9977   -1.3323    1.8447 H   0  0  0  0  0  0  0  0  0  0  0  0
    0.8412   -0.8797    2.9040 H   0  0  0  0  0  0  0  0  0  0  0  0
    1.4996   -2.4279    3.0255 H   0  0  0  0  0  0  0  0  0  0  0  0
    2.7388   -0.7054    3.6457 C   0  0  0  0  0  0  0  0  0  0  0  0
    2.9205   -1.1127    4.8204 O   0  0  0  0  0  1  0  0  0  0  0  0
    3.3875    0.2356    3.1165 O   0  0  0  0  0  0  0  0  0  0  0  0
   -0.0040    2.9121   -0.0270 C   0  0  0  0  0  0  0  0  0  0  0  0
    0.9291    3.2174   -0.1214 H   0  0  0  0  0  0  0  0  0  0  0  0
   -0.4074    3.2283    0.8159 H   0  0  0  0  0  0  0  0  0  0  0  0
   -0.5787    3.3348   -0.8510 H   0  0  0  0  0  0  0  0  0  0  0  0
    0.0009    1.4009   -0.0018 C   0  0  0  0  0  0  0  0  0  0  0  0
   -1.1894    0.6852   -0.0109 C   0  0  0  0  0  0  0  0  0  0  0  0
   -2.0602    1.1698   -0.0265 H   0  0  0  0  0  0  0  0  0  0  0  0
   -1.1871   -0.7053    0.0000 C   0  0  0  0  0  0  0  0  0  0  0  0
   -2.0694   -1.1962    0.0018 H   0  0  0  0  0  0  0  0  0  0  0  0
   -0.0004   -1.3876    0.0105 C   0  0  0  0  0  0  0  0  0  0  0  0
    0.0049   -2.3901    0.0252 H   0  0  0  0  0  0  0  0  0  0  0  0
    1.1871   -0.6885   -0.0000 C   0  0  0  0  0  0  0  0  0  0  0  0
    2.0762   -1.1878   -0.0081 H   0  0  0  0  0  0  0  0  0  0  0  0
    1.1888    0.6953    0.0023 C   0  0  0  0  0  0  0  0  0  0  0  0
    2.0604    1.1888    0.0068 H   0  0  0  0  0  0  0  0  0  0  0  0
  1  5  1  0
  5  6  1  0
  5  7  2  0
  1  2  1  0
  1  3  1  0
  1  4  1  0
  8 12  1  0
 12 13  2  0
 13 15  1  0
 15 17  2  0
 17 19  1  0
 19 21  2  0
 21 12  1  0
  8  9  1  0
  8 10  1  0
  8 11  1  0
 13 14  1  0
 15 16  1  0
 17 18  1  0
 19 20  1  0
 21 22  1  0
M  CHG  1   6  -1
M  END
>  <PDB_ID>  (1873) 
pdb4q2t

>  <RESIDUE_NAME>  (1873) 
GLU   PHE

>  <FRAG_NAME>  (1873) 
ACET   MBZ

>  <FRAG_ATOM_NUM>  (1873) 
fragi: 7  fragj: 15

>  <atom.prop.CHAIN_ID>  (1873) 
A A A A A A A Z Z Z Z Z Z Z Z Z Z Z Z Z Z Z

>  <atom.prop.IS_HEAVY_ATOM>  (1873) 
1 0 0 0 1 1 1 1 0 0 0 1 1 0 1 0 1 0 1 0 1 0

>  <DIFUSE_FUNC_ATOM>  (1873) 
atom 6   atom 7   

>  <FINAL_SINGLE_POINT_ENERGY>  (1873) 
0

>  <NONCOV_INTER_ENERGY_QM>  (1873) 
0

>  <FF_Energy>  (1873) 
13.07

>  <QM_Energy>  (1873) 
3.6

>  <source>  (1873) 
ACET_MBZ_02

>  <Index>  (1873) 
4231

$$$$
ACET-pdb4q3o-A-ASP-322:MBZ-pdb4q3o-A-PHE-42
     RDKit          3D

 22 21  0  0  0  0  0  0  0  0999 V2000
   -1.1538   -4.3195   -2.2630 C   0  0  0  0  0  0  0  0  0  0  0  0
   -0.3148   -4.8213   -2.4655 H   0  0  0  0  0  0  0  0  0  0  0  0
   -1.0063   -3.3440   -2.4123 H   0  0  0  0  0  0  0  0  0  0  0  0
   -1.9203   -4.6532   -2.9625 H   0  0  0  0  0  0  0  0  0  0  0  0
   -1.5142   -4.5411   -0.8096 C   0  0  0  0  0  0  0  0  0  0  0  0
   -2.6835   -4.8228   -0.4616 O   0  0  0  0  0  1  0  0  0  0  0  0
   -0.5949   -4.3801    0.0363 O   0  0  0  0  0  0  0  0  0  0  0  0
   -0.0132    2.9135    0.0275 C   0  0  0  0  0  0  0  0  0  0  0  0
    0.0197    3.2338   -0.9044 H   0  0  0  0  0  0  0  0  0  0  0  0
    0.7768    3.2036    0.5413 H   0  0  0  0  0  0  0  0  0  0  0  0
   -0.8983    3.3391    0.5001 H   0  0  0  0  0  0  0  0  0  0  0  0
   -0.0092    1.3952   -0.0066 C   0  0  0  0  0  0  0  0  0  0  0  0
   -1.1749    0.6867    0.0117 C   0  0  0  0  0  0  0  0  0  0  0  0
   -2.0585    1.1719    0.0331 H   0  0  0  0  0  0  0  0  0  0  0  0
   -1.1871   -0.6972   -0.0000 C   0  0  0  0  0  0  0  0  0  0  0  0
   -2.0722   -1.1840   -0.0092 H   0  0  0  0  0  0  0  0  0  0  0  0
   -0.0040   -1.3916    0.0029 C   0  0  0  0  0  0  0  0  0  0  0  0
   -0.0029   -2.3903    0.0062 H   0  0  0  0  0  0  0  0  0  0  0  0
    1.1871   -0.6922    0.0000 C   0  0  0  0  0  0  0  0  0  0  0  0
    2.0747   -1.1885    0.0057 H   0  0  0  0  0  0  0  0  0  0  0  0
    1.1881    0.6992   -0.0080 C   0  0  0  0  0  0  0  0  0  0  0  0
    2.0532    1.1928   -0.0155 H   0  0  0  0  0  0  0  0  0  0  0  0
  1  5  1  0
  5  6  1  0
  5  7  2  0
  1  2  1  0
  1  3  1  0
  1  4  1  0
  8 12  1  0
 12 13  2  0
 13 15  1  0
 15 17  2  0
 17 19  1  0
 19 21  2  0
 21 12  1  0
  8  9  1  0
  8 10  1  0
  8 11  1  0
 13 14  1  0
 15 16  1  0
 17 18  1  0
 19 20  1  0
 21 22  1  0
M  CHG  1   6  -1
M  END
>  <PDB_ID>  (1874) 
pdb4q3o

>  <RESIDUE_NAME>  (1874) 
ASP   PHE

>  <FRAG_NAME>  (1874) 
ACET   MBZ

>  <FRAG_ATOM_NUM>  (1874) 
fragi: 7  fragj: 15

>  <atom.prop.CHAIN_ID>  (1874) 
A A A A A A A Z Z Z Z Z Z Z Z Z Z Z Z Z Z Z

>  <atom.prop.IS_HEAVY_ATOM>  (1874) 
1 0 0 0 1 1 1 1 0 0 0 1 1 0 1 0 1 0 1 0 1 0

>  <DIFUSE_FUNC_ATOM>  (1874) 
atom 6   atom 7   

>  <FINAL_SINGLE_POINT_ENERGY>  (1874) 
0

>  <NONCOV_INTER_ENERGY_QM>  (1874) 
0

>  <FF_Energy>  (1874) 
-2.07

>  <QM_Energy>  (1874) 
-6.17

>  <source>  (1874) 
ACET_MBZ_02

>  <Index>  (1874) 
4304

$$$$
ACET-pdb4q3o-G-ASP-322:MBZ-pdb4q3o-G-PHE-42
     RDKit          3D

 22 21  0  0  0  0  0  0  0  0999 V2000
   -0.9472   -4.4163   -2.2830 C   0  0  0  0  0  0  0  0  0  0  0  0
   -0.1465   -4.9829   -2.4388 H   0  0  0  0  0  0  0  0  0  0  0  0
   -0.7385   -3.4619   -2.4590 H   0  0  0  0  0  0  0  0  0  0  0  0
   -1.7279   -4.7297   -2.9760 H   0  0  0  0  0  0  0  0  0  0  0  0
   -1.3572   -4.5568   -0.8123 C   0  0  0  0  0  0  0  0  0  0  0  0
   -2.5598   -4.8302   -0.5017 O   0  0  0  0  0  1  0  0  0  0  0  0
   -0.4734   -4.3540    0.0485 O   0  0  0  0  0  0  0  0  0  0  0  0
   -0.0058    2.8977   -0.0001 C   0  0  0  0  0  0  0  0  0  0  0  0
    0.1138    3.2049   -0.9321 H   0  0  0  0  0  0  0  0  0  0  0  0
    0.7389    3.2006    0.5765 H   0  0  0  0  0  0  0  0  0  0  0  0
   -0.9247    3.3422    0.3819 H   0  0  0  0  0  0  0  0  0  0  0  0
   -0.0046    1.3889   -0.0052 C   0  0  0  0  0  0  0  0  0  0  0  0
   -1.1732    0.6815    0.0105 C   0  0  0  0  0  0  0  0  0  0  0  0
   -2.0538    1.1745    0.0290 H   0  0  0  0  0  0  0  0  0  0  0  0
   -1.1847   -0.6882    0.0000 C   0  0  0  0  0  0  0  0  0  0  0  0
   -2.0718   -1.1793   -0.0069 H   0  0  0  0  0  0  0  0  0  0  0  0
   -0.0098   -1.3768    0.0003 C   0  0  0  0  0  0  0  0  0  0  0  0
   -0.0130   -2.3830   -0.0002 H   0  0  0  0  0  0  0  0  0  0  0  0
    1.1847   -0.6954   -0.0000 C   0  0  0  0  0  0  0  0  0  0  0  0
    2.0662   -1.1963    0.0055 H   0  0  0  0  0  0  0  0  0  0  0  0
    1.1876    0.6900   -0.0055 C   0  0  0  0  0  0  0  0  0  0  0  0
    2.0558    1.1835   -0.0109 H   0  0  0  0  0  0  0  0  0  0  0  0
  1  5  1  0
  5  6  1  0
  5  7  2  0
  1  2  1  0
  1  3  1  0
  1  4  1  0
  8 12  1  0
 12 13  2  0
 13 15  1  0
 15 17  2  0
 17 19  1  0
 19 21  2  0
 21 12  1  0
  8  9  1  0
  8 10  1  0
  8 11  1  0
 13 14  1  0
 15 16  1  0
 17 18  1  0
 19 20  1  0
 21 22  1  0
M  CHG  1   6  -1
M  END
>  <PDB_ID>  (1875) 
pdb4q3o

>  <RESIDUE_NAME>  (1875) 
ASP   PHE

>  <FRAG_NAME>  (1875) 
ACET   MBZ

>  <FRAG_ATOM_NUM>  (1875) 
fragi: 7  fragj: 15

>  <atom.prop.CHAIN_ID>  (1875) 
A A A A A A A Z Z Z Z Z Z Z Z Z Z Z Z Z Z Z

>  <atom.prop.IS_HEAVY_ATOM>  (1875) 
1 0 0 0 1 1 1 1 0 0 0 1 1 0 1 0 1 0 1 0 1 0

>  <DIFUSE_FUNC_ATOM>  (1875) 
atom 6   atom 7   

>  <FINAL_SINGLE_POINT_ENERGY>  (1875) 
0

>  <NONCOV_INTER_ENERGY_QM>  (1875) 
0

>  <FF_Energy>  (1875) 
3.39

>  <QM_Energy>  (1875) 
-5.69

>  <source>  (1875) 
ACET_MBZ_02

>  <Index>  (1875) 
4319

$$$$
ACET-pdb4q3o-H-ASP-322:MBZ-pdb4q3o-H-PHE-42
     RDKit          3D

 22 21  0  0  0  0  0  0  0  0999 V2000
   -0.9433   -4.3302   -2.0425 C   0  0  0  0  0  0  0  0  0  0  0  0
   -0.0985   -4.8003   -2.2557 H   0  0  0  0  0  0  0  0  0  0  0  0
   -0.8582   -3.3569   -2.1977 H   0  0  0  0  0  0  0  0  0  0  0  0
   -1.7112   -4.7068   -2.7182 H   0  0  0  0  0  0  0  0  0  0  0  0
   -1.2755   -4.5655   -0.5595 C   0  0  0  0  0  0  0  0  0  0  0  0
   -2.4629   -4.8812   -0.2517 O   0  0  0  0  0  1  0  0  0  0  0  0
   -0.3682   -4.4120    0.3026 O   0  0  0  0  0  0  0  0  0  0  0  0
    0.0046    2.8926    0.0252 C   0  0  0  0  0  0  0  0  0  0  0  0
    0.0931    3.2138   -0.9081 H   0  0  0  0  0  0  0  0  0  0  0  0
    0.7741    3.1855    0.5762 H   0  0  0  0  0  0  0  0  0  0  0  0
   -0.8963    3.3382    0.4471 H   0  0  0  0  0  0  0  0  0  0  0  0
   -0.0053    1.3913    0.0012 C   0  0  0  0  0  0  0  0  0  0  0  0
   -1.1814    0.6906    0.0093 C   0  0  0  0  0  0  0  0  0  0  0  0
   -2.0574    1.1759    0.0212 H   0  0  0  0  0  0  0  0  0  0  0  0
   -1.1887   -0.6957    0.0000 C   0  0  0  0  0  0  0  0  0  0  0  0
   -2.0708   -1.1847   -0.0025 H   0  0  0  0  0  0  0  0  0  0  0  0
   -0.0023   -1.3797   -0.0037 C   0  0  0  0  0  0  0  0  0  0  0  0
   -0.0038   -2.3859   -0.0100 H   0  0  0  0  0  0  0  0  0  0  0  0
    1.1887   -0.6930    0.0000 C   0  0  0  0  0  0  0  0  0  0  0  0
    2.0724   -1.1945    0.0093 H   0  0  0  0  0  0  0  0  0  0  0  0
    1.1891    0.6865   -0.0068 C   0  0  0  0  0  0  0  0  0  0  0  0
    2.0567    1.1851   -0.0185 H   0  0  0  0  0  0  0  0  0  0  0  0
  1  5  1  0
  5  6  1  0
  5  7  2  0
  1  2  1  0
  1  3  1  0
  1  4  1  0
  8 12  1  0
 12 13  2  0
 13 15  1  0
 15 17  2  0
 17 19  1  0
 19 21  2  0
 21 12  1  0
  8  9  1  0
  8 10  1  0
  8 11  1  0
 13 14  1  0
 15 16  1  0
 17 18  1  0
 19 20  1  0
 21 22  1  0
M  CHG  1   6  -1
M  END
>  <PDB_ID>  (1876) 
pdb4q3o

>  <RESIDUE_NAME>  (1876) 
ASP   PHE

>  <FRAG_NAME>  (1876) 
ACET   MBZ

>  <FRAG_ATOM_NUM>  (1876) 
fragi: 7  fragj: 15

>  <atom.prop.CHAIN_ID>  (1876) 
A A A A A A A Z Z Z Z Z Z Z Z Z Z Z Z Z Z Z

>  <atom.prop.IS_HEAVY_ATOM>  (1876) 
1 0 0 0 1 1 1 1 0 0 0 1 1 0 1 0 1 0 1 0 1 0

>  <DIFUSE_FUNC_ATOM>  (1876) 
atom 6   atom 7   

>  <FINAL_SINGLE_POINT_ENERGY>  (1876) 
0

>  <NONCOV_INTER_ENERGY_QM>  (1876) 
0

>  <FF_Energy>  (1876) 
1.7

>  <QM_Energy>  (1876) 
-5.56

>  <source>  (1876) 
ACET_MBZ_02

>  <Index>  (1876) 
4321

$$$$
ACET-pdb4q3o-C-GLU-331:MBZ-pdb4q3o-C-PHE-42
     RDKit          3D

 22 21  0  0  0  0  0  0  0  0999 V2000
    3.2705    1.8791   -3.4248 C   0  0  0  0  0  0  0  0  0  0  0  0
    3.4345    1.1241   -2.8167 H   0  0  0  0  0  0  0  0  0  0  0  0
    4.0842    2.1594   -3.8986 H   0  0  0  0  0  0  0  0  0  0  0  0
    2.5597    1.5376   -4.1773 H   0  0  0  0  0  0  0  0  0  0  0  0
    2.7744    3.0539   -2.5992 C   0  0  0  0  0  0  0  0  0  0  0  0
    1.6755    3.6548   -2.8900 O   0  0  0  0  0  1  0  0  0  0  0  0
    3.5055    3.3863   -1.6156 O   0  0  0  0  0  0  0  0  0  0  0  0
   -0.0094    2.8910    0.0345 C   0  0  0  0  0  0  0  0  0  0  0  0
    0.0835    3.2086   -0.8973 H   0  0  0  0  0  0  0  0  0  0  0  0
    0.7463    3.1947    0.5961 H   0  0  0  0  0  0  0  0  0  0  0  0
   -0.9216    3.3256    0.4433 H   0  0  0  0  0  0  0  0  0  0  0  0
   -0.0039    1.3872    0.0180 C   0  0  0  0  0  0  0  0  0  0  0  0
   -1.1951    0.6693    0.0092 C   0  0  0  0  0  0  0  0  0  0  0  0
   -2.0638    1.1643    0.0082 H   0  0  0  0  0  0  0  0  0  0  0  0
   -1.1896   -0.6977    0.0000 C   0  0  0  0  0  0  0  0  0  0  0  0
   -2.0617   -1.2067   -0.0005 H   0  0  0  0  0  0  0  0  0  0  0  0
    0.0098   -1.3750   -0.0073 C   0  0  0  0  0  0  0  0  0  0  0  0
    0.0111   -2.3800   -0.0189 H   0  0  0  0  0  0  0  0  0  0  0  0
    1.1896   -0.6799    0.0000 C   0  0  0  0  0  0  0  0  0  0  0  0
    2.0805   -1.1781    0.0221 H   0  0  0  0  0  0  0  0  0  0  0  0
    1.1892    0.6962   -0.0199 C   0  0  0  0  0  0  0  0  0  0  0  0
    2.0532    1.1964   -0.0627 H   0  0  0  0  0  0  0  0  0  0  0  0
  1  5  1  0
  5  6  1  0
  5  7  2  0
  1  2  1  0
  1  3  1  0
  1  4  1  0
  8 12  1  0
 12 13  2  0
 13 15  1  0
 15 17  2  0
 17 19  1  0
 19 21  2  0
 21 12  1  0
  8  9  1  0
  8 10  1  0
  8 11  1  0
 13 14  1  0
 15 16  1  0
 17 18  1  0
 19 20  1  0
 21 22  1  0
M  CHG  1   6  -1
M  END
>  <PDB_ID>  (1877) 
pdb4q3o

>  <RESIDUE_NAME>  (1877) 
GLU   PHE

>  <FRAG_NAME>  (1877) 
ACET   MBZ

>  <FRAG_ATOM_NUM>  (1877) 
fragi: 7  fragj: 15

>  <atom.prop.CHAIN_ID>  (1877) 
A A A A A A A Z Z Z Z Z Z Z Z Z Z Z Z Z Z Z

>  <atom.prop.IS_HEAVY_ATOM>  (1877) 
1 0 0 0 1 1 1 1 0 0 0 1 1 0 1 0 1 0 1 0 1 0

>  <DIFUSE_FUNC_ATOM>  (1877) 
atom 6   atom 7   

>  <FINAL_SINGLE_POINT_ENERGY>  (1877) 
0

>  <NONCOV_INTER_ENERGY_QM>  (1877) 
0

>  <FF_Energy>  (1877) 
-1.86

>  <QM_Energy>  (1877) 
-7.34

>  <source>  (1877) 
ACET_MBZ_02

>  <Index>  (1877) 
4345

$$$$
ACET-pdb4q3o-E-GLU-331:MBZ-pdb4q3o-E-PHE-42
     RDKit          3D

 22 21  0  0  0  0  0  0  0  0999 V2000
    3.9058    1.5313   -2.7494 C   0  0  0  0  0  0  0  0  0  0  0  0
    3.9015    0.8170   -2.0745 H   0  0  0  0  0  0  0  0  0  0  0  0
    4.8130    1.7519   -3.0556 H   0  0  0  0  0  0  0  0  0  0  0  0
    3.3557    1.1592   -3.6137 H   0  0  0  0  0  0  0  0  0  0  0  0
    3.3067    2.7949   -2.1027 C   0  0  0  0  0  0  0  0  0  0  0  0
    2.3359    3.4340   -2.6077 O   0  0  0  0  0  1  0  0  0  0  0  0
    3.8391    3.1957   -1.0546 O   0  0  0  0  0  0  0  0  0  0  0  0
    0.0348    2.9468   -0.0205 C   0  0  0  0  0  0  0  0  0  0  0  0
    0.3567    3.2316   -0.9148 H   0  0  0  0  0  0  0  0  0  0  0  0
    0.6723    3.2245    0.6872 H   0  0  0  0  0  0  0  0  0  0  0  0
   -0.9154    3.4459    0.1691 H   0  0  0  0  0  0  0  0  0  0  0  0
   -0.0136    1.4198   -0.0181 C   0  0  0  0  0  0  0  0  0  0  0  0
   -1.1898    0.7134    0.0013 C   0  0  0  0  0  0  0  0  0  0  0  0
   -2.0705    1.1913    0.0157 H   0  0  0  0  0  0  0  0  0  0  0  0
   -1.2119   -0.7023   -0.0000 C   0  0  0  0  0  0  0  0  0  0  0  0
   -2.0839   -1.1822   -0.0060 H   0  0  0  0  0  0  0  0  0  0  0  0
    0.0062   -1.4195    0.0089 C   0  0  0  0  0  0  0  0  0  0  0  0
   -0.0074   -2.4079    0.0210 H   0  0  0  0  0  0  0  0  0  0  0  0
    1.2119   -0.7148    0.0000 C   0  0  0  0  0  0  0  0  0  0  0  0
    2.0931   -1.1965   -0.0106 H   0  0  0  0  0  0  0  0  0  0  0  0
    1.1971    0.7034    0.0079 C   0  0  0  0  0  0  0  0  0  0  0  0
    2.0620    1.1964    0.0322 H   0  0  0  0  0  0  0  0  0  0  0  0
  1  5  1  0
  5  6  1  0
  5  7  2  0
  1  2  1  0
  1  3  1  0
  1  4  1  0
  8 12  1  0
 12 13  2  0
 13 15  1  0
 15 17  2  0
 17 19  1  0
 19 21  2  0
 21 12  1  0
  8  9  1  0
  8 10  1  0
  8 11  1  0
 13 14  1  0
 15 16  1  0
 17 18  1  0
 19 20  1  0
 21 22  1  0
M  CHG  1   6  -1
M  END
>  <PDB_ID>  (1878) 
pdb4q3o

>  <RESIDUE_NAME>  (1878) 
GLU   PHE

>  <FRAG_NAME>  (1878) 
ACET   MBZ

>  <FRAG_ATOM_NUM>  (1878) 
fragi: 7  fragj: 15

>  <atom.prop.CHAIN_ID>  (1878) 
A A A A A A A Z Z Z Z Z Z Z Z Z Z Z Z Z Z Z

>  <atom.prop.IS_HEAVY_ATOM>  (1878) 
1 0 0 0 1 1 1 1 0 0 0 1 1 0 1 0 1 0 1 0 1 0

>  <DIFUSE_FUNC_ATOM>  (1878) 
atom 6   atom 7   

>  <FINAL_SINGLE_POINT_ENERGY>  (1878) 
0

>  <NONCOV_INTER_ENERGY_QM>  (1878) 
0

>  <FF_Energy>  (1878) 
-2.21

>  <QM_Energy>  (1878) 
-7.85

>  <source>  (1878) 
ACET_MBZ_02

>  <Index>  (1878) 
4347

$$$$
ACET-pdb4q3o-F-GLU-331:MBZ-pdb4q3o-F-PHE-42
     RDKit          3D

 22 21  0  0  0  0  0  0  0  0999 V2000
    3.6249    1.5698   -3.1689 C   0  0  0  0  0  0  0  0  0  0  0  0
    3.6723    0.8572   -2.4897 H   0  0  0  0  0  0  0  0  0  0  0  0
    4.5159    1.7899   -3.5295 H   0  0  0  0  0  0  0  0  0  0  0  0
    2.9964    1.2219   -3.9888 H   0  0  0  0  0  0  0  0  0  0  0  0
    3.1048    2.8412   -2.4514 C   0  0  0  0  0  0  0  0  0  0  0  0
    2.0709    3.4730   -2.8626 O   0  0  0  0  0  1  0  0  0  0  0  0
    3.7672    3.2171   -1.4457 O   0  0  0  0  0  0  0  0  0  0  0  0
    0.0178    2.9065   -0.0091 C   0  0  0  0  0  0  0  0  0  0  0  0
    0.2281    3.2077   -0.9308 H   0  0  0  0  0  0  0  0  0  0  0  0
    0.7205    3.2032    0.6260 H   0  0  0  0  0  0  0  0  0  0  0  0
   -0.9199    3.3753    0.2893 H   0  0  0  0  0  0  0  0  0  0  0  0
   -0.0027    1.4025   -0.0078 C   0  0  0  0  0  0  0  0  0  0  0  0
   -1.1915    0.6915   -0.0051 C   0  0  0  0  0  0  0  0  0  0  0  0
   -2.0636    1.1835   -0.0082 H   0  0  0  0  0  0  0  0  0  0  0  0
   -1.2084   -0.7011   -0.0000 C   0  0  0  0  0  0  0  0  0  0  0  0
   -2.0832   -1.1891    0.0017 H   0  0  0  0  0  0  0  0  0  0  0  0
   -0.0044   -1.3981    0.0049 C   0  0  0  0  0  0  0  0  0  0  0  0
   -0.0025   -2.3936    0.0114 H   0  0  0  0  0  0  0  0  0  0  0  0
    1.2084   -0.6938   -0.0000 C   0  0  0  0  0  0  0  0  0  0  0  0
    2.0849   -1.1921   -0.0078 H   0  0  0  0  0  0  0  0  0  0  0  0
    1.1987    0.6989    0.0080 C   0  0  0  0  0  0  0  0  0  0  0  0
    2.0640    1.1984    0.0243 H   0  0  0  0  0  0  0  0  0  0  0  0
  1  5  1  0
  5  6  1  0
  5  7  2  0
  1  2  1  0
  1  3  1  0
  1  4  1  0
  8 12  1  0
 12 13  2  0
 13 15  1  0
 15 17  2  0
 17 19  1  0
 19 21  2  0
 21 12  1  0
  8  9  1  0
  8 10  1  0
  8 11  1  0
 13 14  1  0
 15 16  1  0
 17 18  1  0
 19 20  1  0
 21 22  1  0
M  CHG  1   6  -1
M  END
>  <PDB_ID>  (1879) 
pdb4q3o

>  <RESIDUE_NAME>  (1879) 
GLU   PHE

>  <FRAG_NAME>  (1879) 
ACET   MBZ

>  <FRAG_ATOM_NUM>  (1879) 
fragi: 7  fragj: 15

>  <atom.prop.CHAIN_ID>  (1879) 
A A A A A A A Z Z Z Z Z Z Z Z Z Z Z Z Z Z Z

>  <atom.prop.IS_HEAVY_ATOM>  (1879) 
1 0 0 0 1 1 1 1 0 0 0 1 1 0 1 0 1 0 1 0 1 0

>  <DIFUSE_FUNC_ATOM>  (1879) 
atom 6   atom 7   

>  <FINAL_SINGLE_POINT_ENERGY>  (1879) 
0

>  <NONCOV_INTER_ENERGY_QM>  (1879) 
0

>  <FF_Energy>  (1879) 
-2.01

>  <QM_Energy>  (1879) 
-7.24

>  <source>  (1879) 
ACET_MBZ_02

>  <Index>  (1879) 
4348

$$$$
ACET-pdb3s3l-B-ASP-166:MBZ-pdb3s3l-B-PHE-148
     RDKit          3D

 22 21  0  0  0  0  0  0  0  0999 V2000
    5.5270    2.2027   -2.4090 C   0  0  0  0  0  0  0  0  0  0  0  0
    6.4489    2.5703   -2.2957 H   0  0  0  0  0  0  0  0  0  0  0  0
    5.3319    2.0793   -3.3807 H   0  0  0  0  0  0  0  0  0  0  0  0
    5.4972    1.2221   -1.9340 H   0  0  0  0  0  0  0  0  0  0  0  0
    4.5371    3.1855   -1.8348 C   0  0  0  0  0  0  0  0  0  0  0  0
    3.5256    2.7937   -1.1652 O   0  0  0  0  0  1  0  0  0  0  0  0
    4.7363    4.3933   -2.1213 O   0  0  0  0  0  0  0  0  0  0  0  0
   -0.0194    2.8972    0.0082 C   0  0  0  0  0  0  0  0  0  0  0  0
    0.8447    3.2129    0.3677 H   0  0  0  0  0  0  0  0  0  0  0  0
   -0.7758    3.1948    0.5704 H   0  0  0  0  0  0  0  0  0  0  0  0
   -0.1489    3.3233   -0.9867 H   0  0  0  0  0  0  0  0  0  0  0  0
   -0.0010    1.3937    0.0159 C   0  0  0  0  0  0  0  0  0  0  0  0
   -1.1883    0.6907    0.0211 C   0  0  0  0  0  0  0  0  0  0  0  0
   -2.0584    1.1880    0.0397 H   0  0  0  0  0  0  0  0  0  0  0  0
   -1.2011   -0.6865   -0.0000 C   0  0  0  0  0  0  0  0  0  0  0  0
   -2.0794   -1.1819   -0.0049 H   0  0  0  0  0  0  0  0  0  0  0  0
   -0.0037   -1.3874   -0.0124 C   0  0  0  0  0  0  0  0  0  0  0  0
   -0.0089   -2.3850   -0.0305 H   0  0  0  0  0  0  0  0  0  0  0  0
    1.2011   -0.6931    0.0000 C   0  0  0  0  0  0  0  0  0  0  0  0
    2.0778   -1.1978    0.0287 H   0  0  0  0  0  0  0  0  0  0  0  0
    1.1931    0.6826   -0.0246 C   0  0  0  0  0  0  0  0  0  0  0  0
    2.0604    1.1870   -0.0731 H   0  0  0  0  0  0  0  0  0  0  0  0
  1  5  1  0
  5  6  1  0
  5  7  2  0
  1  2  1  0
  1  3  1  0
  1  4  1  0
  8 12  1  0
 12 13  2  0
 13 15  1  0
 15 17  2  0
 17 19  1  0
 19 21  2  0
 21 12  1  0
  8  9  1  0
  8 10  1  0
  8 11  1  0
 13 14  1  0
 15 16  1  0
 17 18  1  0
 19 20  1  0
 21 22  1  0
M  CHG  1   6  -1
M  END
>  <PDB_ID>  (1880) 
pdb3s3l

>  <RESIDUE_NAME>  (1880) 
ASP   PHE

>  <FRAG_NAME>  (1880) 
ACET   MBZ

>  <FRAG_ATOM_NUM>  (1880) 
fragi: 7  fragj: 15

>  <atom.prop.CHAIN_ID>  (1880) 
A A A A A A A Z Z Z Z Z Z Z Z Z Z Z Z Z Z Z

>  <atom.prop.IS_HEAVY_ATOM>  (1880) 
1 0 0 0 1 1 1 1 0 0 0 1 1 0 1 0 1 0 1 0 1 0

>  <DIFUSE_FUNC_ATOM>  (1880) 
atom 6   atom 7   

>  <FINAL_SINGLE_POINT_ENERGY>  (1880) 
0

>  <NONCOV_INTER_ENERGY_QM>  (1880) 
0

>  <FF_Energy>  (1880) 
-1.66

>  <QM_Energy>  (1880) 
-6.83

>  <source>  (1880) 
ACET_MBZ_02

>  <Index>  (1880) 
4372

$$$$
ACET-pdb4pzu-D-GLU-234:MBZ-pdb4pzu-B-PHE-222
     RDKit          3D

 22 21  0  0  0  0  0  0  0  0999 V2000
    1.1785   -3.1037    2.9252 C   0  0  0  0  0  0  0  0  0  0  0  0
    1.2150   -3.5421    3.8229 H   0  0  0  0  0  0  0  0  0  0  0  0
    2.1019   -2.8491    2.6406 H   0  0  0  0  0  0  0  0  0  0  0  0
    0.8009   -3.8375    2.2132 H   0  0  0  0  0  0  0  0  0  0  0  0
    0.3807   -1.8429    3.0648 C   0  0  0  0  0  0  0  0  0  0  0  0
   -0.6413   -1.6083    2.4370 O   0  0  0  0  0  1  0  0  0  0  0  0
    0.8864   -1.0516    3.8874 O   0  0  0  0  0  0  0  0  0  0  0  0
   -0.0012    2.8902   -0.0633 C   0  0  0  0  0  0  0  0  0  0  0  0
    0.8747    3.2178    0.2479 H   0  0  0  0  0  0  0  0  0  0  0  0
   -0.7389    3.2212    0.5003 H   0  0  0  0  0  0  0  0  0  0  0  0
   -0.1580    3.2741   -1.0713 H   0  0  0  0  0  0  0  0  0  0  0  0
    0.0038    1.4003   -0.0072 C   0  0  0  0  0  0  0  0  0  0  0  0
   -1.2082    0.6930   -0.0051 C   0  0  0  0  0  0  0  0  0  0  0  0
   -2.0671    1.1851   -0.0083 H   0  0  0  0  0  0  0  0  0  0  0  0
   -1.2122   -0.7040   -0.0000 C   0  0  0  0  0  0  0  0  0  0  0  0
   -2.0840   -1.1972   -0.0021 H   0  0  0  0  0  0  0  0  0  0  0  0
   -0.0046   -1.3912    0.0103 C   0  0  0  0  0  0  0  0  0  0  0  0
   -0.0029   -2.3936    0.0251 H   0  0  0  0  0  0  0  0  0  0  0  0
    1.2122   -0.6970   -0.0000 C   0  0  0  0  0  0  0  0  0  0  0  0
    2.0850   -1.1986   -0.0079 H   0  0  0  0  0  0  0  0  0  0  0  0
    1.2090    0.6990    0.0021 C   0  0  0  0  0  0  0  0  0  0  0  0
    2.0712    1.1952    0.0095 H   0  0  0  0  0  0  0  0  0  0  0  0
  1  5  1  0
  5  6  1  0
  5  7  2  0
  1  2  1  0
  1  3  1  0
  1  4  1  0
  8 12  1  0
 12 13  2  0
 13 15  1  0
 15 17  2  0
 17 19  1  0
 19 21  2  0
 21 12  1  0
  8  9  1  0
  8 10  1  0
  8 11  1  0
 13 14  1  0
 15 16  1  0
 17 18  1  0
 19 20  1  0
 21 22  1  0
M  CHG  1   6  -1
M  END
>  <PDB_ID>  (1881) 
pdb4pzu

>  <RESIDUE_NAME>  (1881) 
GLU   PHE

>  <FRAG_NAME>  (1881) 
ACET   MBZ

>  <FRAG_ATOM_NUM>  (1881) 
fragi: 7  fragj: 15

>  <atom.prop.CHAIN_ID>  (1881) 
A A A A A A A Z Z Z Z Z Z Z Z Z Z Z Z Z Z Z

>  <atom.prop.IS_HEAVY_ATOM>  (1881) 
1 0 0 0 1 1 1 1 0 0 0 1 1 0 1 0 1 0 1 0 1 0

>  <DIFUSE_FUNC_ATOM>  (1881) 
atom 6   atom 7   

>  <FINAL_SINGLE_POINT_ENERGY>  (1881) 
0

>  <NONCOV_INTER_ENERGY_QM>  (1881) 
0

>  <FF_Energy>  (1881) 
16.1

>  <QM_Energy>  (1881) 
4.81

>  <source>  (1881) 
ACET_MBZ_02

>  <Index>  (1881) 
4400

$$$$
ACET-pdb4q6r-B-ASP-137:MBZ-pdb4q6r-A-PHE-178
     RDKit          3D

 22 21  0  0  0  0  0  0  0  0999 V2000
   -4.3824    2.7568   -1.8543 C   0  0  0  0  0  0  0  0  0  0  0  0
   -5.3198    2.4920   -1.6139 H   0  0  0  0  0  0  0  0  0  0  0  0
   -3.8281    1.9288   -1.9647 H   0  0  0  0  0  0  0  0  0  0  0  0
   -4.4214    3.2574   -2.8218 H   0  0  0  0  0  0  0  0  0  0  0  0
   -3.7999    3.5796   -0.6986 C   0  0  0  0  0  0  0  0  0  0  0  0
   -3.3977    4.7480   -0.9320 O   0  0  0  0  0  1  0  0  0  0  0  0
   -3.7281    3.0471    0.4348 O   0  0  0  0  0  0  0  0  0  0  0  0
    0.0021    2.9312   -0.0212 C   0  0  0  0  0  0  0  0  0  0  0  0
    0.8796    3.2394    0.3283 H   0  0  0  0  0  0  0  0  0  0  0  0
   -0.7363    3.2452    0.5645 H   0  0  0  0  0  0  0  0  0  0  0  0
   -0.1397    3.3943   -0.9977 H   0  0  0  0  0  0  0  0  0  0  0  0
   -0.0004    1.4147   -0.0026 C   0  0  0  0  0  0  0  0  0  0  0  0
   -1.1963    0.7018   -0.0044 C   0  0  0  0  0  0  0  0  0  0  0  0
   -2.0655    1.1811   -0.0107 H   0  0  0  0  0  0  0  0  0  0  0  0
   -1.1970   -0.7066   -0.0000 C   0  0  0  0  0  0  0  0  0  0  0  0
   -2.0766   -1.1919   -0.0042 H   0  0  0  0  0  0  0  0  0  0  0  0
    0.0007   -1.4005    0.0123 C   0  0  0  0  0  0  0  0  0  0  0  0
   -0.0043   -2.4004    0.0293 H   0  0  0  0  0  0  0  0  0  0  0  0
    1.1970   -0.7076    0.0000 C   0  0  0  0  0  0  0  0  0  0  0  0
    2.0821   -1.1982   -0.0041 H   0  0  0  0  0  0  0  0  0  0  0  0
    1.1960    0.6981   -0.0053 C   0  0  0  0  0  0  0  0  0  0  0  0
    2.0666    1.1856   -0.0118 H   0  0  0  0  0  0  0  0  0  0  0  0
  1  5  1  0
  5  6  1  0
  5  7  2  0
  1  2  1  0
  1  3  1  0
  1  4  1  0
  8 12  1  0
 12 13  2  0
 13 15  1  0
 15 17  2  0
 17 19  1  0
 19 21  2  0
 21 12  1  0
  8  9  1  0
  8 10  1  0
  8 11  1  0
 13 14  1  0
 15 16  1  0
 17 18  1  0
 19 20  1  0
 21 22  1  0
M  CHG  1   6  -1
M  END
>  <PDB_ID>  (1882) 
pdb4q6r

>  <RESIDUE_NAME>  (1882) 
ASP   PHE

>  <FRAG_NAME>  (1882) 
ACET   MBZ

>  <FRAG_ATOM_NUM>  (1882) 
fragi: 7  fragj: 15

>  <atom.prop.CHAIN_ID>  (1882) 
A A A A A A A Z Z Z Z Z Z Z Z Z Z Z Z Z Z Z

>  <atom.prop.IS_HEAVY_ATOM>  (1882) 
1 0 0 0 1 1 1 1 0 0 0 1 1 0 1 0 1 0 1 0 1 0

>  <DIFUSE_FUNC_ATOM>  (1882) 
atom 6   atom 7   

>  <FINAL_SINGLE_POINT_ENERGY>  (1882) 
0

>  <NONCOV_INTER_ENERGY_QM>  (1882) 
0

>  <FF_Energy>  (1882) 
-2.86

>  <QM_Energy>  (1882) 
-7.94

>  <source>  (1882) 
ACET_MBZ_02

>  <Index>  (1882) 
4499

$$$$
ACET-pdb3s6b-A-GLU-92:MBZ-pdb3s6b-A-PHE-276
     RDKit          3D

 22 21  0  0  0  0  0  0  0  0999 V2000
    2.1025    7.0213    2.5987 C   0  0  0  0  0  0  0  0  0  0  0  0
    1.1825    7.2410    2.8743 H   0  0  0  0  0  0  0  0  0  0  0  0
    2.2556    7.2169    1.6446 H   0  0  0  0  0  0  0  0  0  0  0  0
    2.7964    7.6143    3.1945 H   0  0  0  0  0  0  0  0  0  0  0  0
    2.2867    5.5286    2.7879 C   0  0  0  0  0  0  0  0  0  0  0  0
    3.0952    5.1038    3.6523 O   0  0  0  0  0  1  0  0  0  0  0  0
    1.6279    4.7609    2.0456 O   0  0  0  0  0  0  0  0  0  0  0  0
    0.0961    2.9391   -0.0164 C   0  0  0  0  0  0  0  0  0  0  0  0
    0.4692    3.1973   -0.9044 H   0  0  0  0  0  0  0  0  0  0  0  0
    0.7248    3.2105    0.7080 H   0  0  0  0  0  0  0  0  0  0  0  0
   -0.8392    3.4800    0.1276 H   0  0  0  0  0  0  0  0  0  0  0  0
    0.0038    1.4210    0.0110 C   0  0  0  0  0  0  0  0  0  0  0  0
   -1.1923    0.7358   -0.0024 C   0  0  0  0  0  0  0  0  0  0  0  0
   -2.0569    1.2117   -0.0155 H   0  0  0  0  0  0  0  0  0  0  0  0
   -1.1903   -0.6759   -0.0000 C   0  0  0  0  0  0  0  0  0  0  0  0
   -2.0840   -1.1560   -0.0018 H   0  0  0  0  0  0  0  0  0  0  0  0
   -0.0062   -1.4053    0.0064 C   0  0  0  0  0  0  0  0  0  0  0  0
   -0.0457   -2.4045    0.0145 H   0  0  0  0  0  0  0  0  0  0  0  0
    1.1903   -0.7453   -0.0000 C   0  0  0  0  0  0  0  0  0  0  0  0
    2.0702   -1.2327    0.0067 H   0  0  0  0  0  0  0  0  0  0  0  0
    1.1947    0.6698   -0.0150 C   0  0  0  0  0  0  0  0  0  0  0  0
    2.0740    1.1486   -0.0457 H   0  0  0  0  0  0  0  0  0  0  0  0
  1  5  1  0
  5  6  1  0
  5  7  2  0
  1  2  1  0
  1  3  1  0
  1  4  1  0
  8 12  1  0
 12 13  2  0
 13 15  1  0
 15 17  2  0
 17 19  1  0
 19 21  2  0
 21 12  1  0
  8  9  1  0
  8 10  1  0
  8 11  1  0
 13 14  1  0
 15 16  1  0
 17 18  1  0
 19 20  1  0
 21 22  1  0
M  CHG  1   6  -1
M  END
>  <PDB_ID>  (1883) 
pdb3s6b

>  <RESIDUE_NAME>  (1883) 
GLU   PHE

>  <FRAG_NAME>  (1883) 
ACET   MBZ

>  <FRAG_ATOM_NUM>  (1883) 
fragi: 7  fragj: 15

>  <atom.prop.CHAIN_ID>  (1883) 
A A A A A A A Z Z Z Z Z Z Z Z Z Z Z Z Z Z Z

>  <atom.prop.IS_HEAVY_ATOM>  (1883) 
1 0 0 0 1 1 1 1 0 0 0 1 1 0 1 0 1 0 1 0 1 0

>  <DIFUSE_FUNC_ATOM>  (1883) 
atom 6   atom 7   

>  <FINAL_SINGLE_POINT_ENERGY>  (1883) 
0

>  <NONCOV_INTER_ENERGY_QM>  (1883) 
0

>  <FF_Energy>  (1883) 
0.5

>  <QM_Energy>  (1883) 
-5.27

>  <source>  (1883) 
ACET_MBZ_02

>  <Index>  (1883) 
4536

$$$$
ACET-pdb3s6o-C-GLU-108:MBZ-pdb3s6o-B-PHE-3
     RDKit          3D

 22 21  0  0  0  0  0  0  0  0999 V2000
    0.6773   -0.4037   -3.7865 C   0  0  0  0  0  0  0  0  0  0  0  0
    0.7775   -0.7838   -4.7058 H   0  0  0  0  0  0  0  0  0  0  0  0
    1.5598   -0.4270   -3.3182 H   0  0  0  0  0  0  0  0  0  0  0  0
    0.3816    0.6402   -3.8901 H   0  0  0  0  0  0  0  0  0  0  0  0
   -0.2642   -1.2878   -3.0274 C   0  0  0  0  0  0  0  0  0  0  0  0
   -1.3151   -0.9045   -2.5359 O   0  0  0  0  0  1  0  0  0  0  0  0
    0.1521   -2.4620   -2.9433 O   0  0  0  0  0  0  0  0  0  0  0  0
   -0.0048    2.9007    0.0270 C   0  0  0  0  0  0  0  0  0  0  0  0
   -0.7275    3.2179   -0.5691 H   0  0  0  0  0  0  0  0  0  0  0  0
    0.8799    3.2148   -0.2812 H   0  0  0  0  0  0  0  0  0  0  0  0
   -0.1800    3.3318    1.0126 H   0  0  0  0  0  0  0  0  0  0  0  0
   -0.0042    1.4005    0.0086 C   0  0  0  0  0  0  0  0  0  0  0  0
   -1.1968    0.6946    0.0004 C   0  0  0  0  0  0  0  0  0  0  0  0
   -2.0660    1.1818   -0.0068 H   0  0  0  0  0  0  0  0  0  0  0  0
   -1.2019   -0.6991    0.0000 C   0  0  0  0  0  0  0  0  0  0  0  0
   -2.0752   -1.1936    0.0058 H   0  0  0  0  0  0  0  0  0  0  0  0
    0.0055   -1.3948   -0.0065 C   0  0  0  0  0  0  0  0  0  0  0  0
    0.0017   -2.3925   -0.0164 H   0  0  0  0  0  0  0  0  0  0  0  0
    1.2019   -0.6938    0.0000 C   0  0  0  0  0  0  0  0  0  0  0  0
    2.0856   -1.1908    0.0080 H   0  0  0  0  0  0  0  0  0  0  0  0
    1.1955    0.6927   -0.0025 C   0  0  0  0  0  0  0  0  0  0  0  0
    2.0616    1.1936   -0.0132 H   0  0  0  0  0  0  0  0  0  0  0  0
  1  5  1  0
  5  6  1  0
  5  7  2  0
  1  2  1  0
  1  3  1  0
  1  4  1  0
  8 12  1  0
 12 13  2  0
 13 15  1  0
 15 17  2  0
 17 19  1  0
 19 21  2  0
 21 12  1  0
  8  9  1  0
  8 10  1  0
  8 11  1  0
 13 14  1  0
 15 16  1  0
 17 18  1  0
 19 20  1  0
 21 22  1  0
M  CHG  1   6  -1
M  END
>  <PDB_ID>  (1884) 
pdb3s6o

>  <RESIDUE_NAME>  (1884) 
GLU   PHE

>  <FRAG_NAME>  (1884) 
ACET   MBZ

>  <FRAG_ATOM_NUM>  (1884) 
fragi: 7  fragj: 15

>  <atom.prop.CHAIN_ID>  (1884) 
A A A A A A A Z Z Z Z Z Z Z Z Z Z Z Z Z Z Z

>  <atom.prop.IS_HEAVY_ATOM>  (1884) 
1 0 0 0 1 1 1 1 0 0 0 1 1 0 1 0 1 0 1 0 1 0

>  <DIFUSE_FUNC_ATOM>  (1884) 
atom 6   atom 7   

>  <FINAL_SINGLE_POINT_ENERGY>  (1884) 
0

>  <NONCOV_INTER_ENERGY_QM>  (1884) 
0

>  <FF_Energy>  (1884) 
12.21

>  <QM_Energy>  (1884) 
1.12

>  <source>  (1884) 
ACET_MBZ_02

>  <Index>  (1884) 
4605

$$$$
ACET-pdb3s98-A-GLU-111:MBZ-pdb3s98-A-PHE-290
     RDKit          3D

 22 21  0  0  0  0  0  0  0  0999 V2000
   -1.0649    0.1160    3.6132 C   0  0  0  0  0  0  0  0  0  0  0  0
   -1.4384   -0.3261    2.8061 H   0  0  0  0  0  0  0  0  0  0  0  0
   -1.5562   -0.1720    4.4269 H   0  0  0  0  0  0  0  0  0  0  0  0
   -0.0160   -0.1626    3.7146 H   0  0  0  0  0  0  0  0  0  0  0  0
   -1.3129    1.6075    3.4540 C   0  0  0  0  0  0  0  0  0  0  0  0
   -0.3722    2.3701    3.4066 O   0  0  0  0  0  1  0  0  0  0  0  0
   -2.4631    1.9673    3.3942 O   0  0  0  0  0  0  0  0  0  0  0  0
   -0.0146    2.9052   -0.0152 C   0  0  0  0  0  0  0  0  0  0  0  0
    0.9117    3.2208    0.0951 H   0  0  0  0  0  0  0  0  0  0  0  0
   -0.5990    3.2146    0.7149 H   0  0  0  0  0  0  0  0  0  0  0  0
   -0.3994    3.3164   -0.9484 H   0  0  0  0  0  0  0  0  0  0  0  0
   -0.0013    1.4016    0.0029 C   0  0  0  0  0  0  0  0  0  0  0  0
   -1.1958    0.6964   -0.0075 C   0  0  0  0  0  0  0  0  0  0  0  0
   -2.0636    1.1834   -0.0219 H   0  0  0  0  0  0  0  0  0  0  0  0
   -1.2014   -0.7005    0.0000 C   0  0  0  0  0  0  0  0  0  0  0  0
   -2.0801   -1.1896    0.0045 H   0  0  0  0  0  0  0  0  0  0  0  0
   -0.0028   -1.3969    0.0034 C   0  0  0  0  0  0  0  0  0  0  0  0
   -0.0037   -2.3941    0.0081 H   0  0  0  0  0  0  0  0  0  0  0  0
    1.2014   -0.6971   -0.0000 C   0  0  0  0  0  0  0  0  0  0  0  0
    2.0821   -1.1962   -0.0022 H   0  0  0  0  0  0  0  0  0  0  0  0
    1.1999    0.6964    0.0012 C   0  0  0  0  0  0  0  0  0  0  0  0
    2.0653    1.1921    0.0004 H   0  0  0  0  0  0  0  0  0  0  0  0
  1  5  1  0
  5  6  1  0
  5  7  2  0
  1  2  1  0
  1  3  1  0
  1  4  1  0
  8 12  1  0
 12 13  2  0
 13 15  1  0
 15 17  2  0
 17 19  1  0
 19 21  2  0
 21 12  1  0
  8  9  1  0
  8 10  1  0
  8 11  1  0
 13 14  1  0
 15 16  1  0
 17 18  1  0
 19 20  1  0
 21 22  1  0
M  CHG  1   6  -1
M  END
>  <PDB_ID>  (1885) 
pdb3s98

>  <RESIDUE_NAME>  (1885) 
GLU   PHE

>  <FRAG_NAME>  (1885) 
ACET   MBZ

>  <FRAG_ATOM_NUM>  (1885) 
fragi: 7  fragj: 15

>  <atom.prop.CHAIN_ID>  (1885) 
A A A A A A A Z Z Z Z Z Z Z Z Z Z Z Z Z Z Z

>  <atom.prop.IS_HEAVY_ATOM>  (1885) 
1 0 0 0 1 1 1 1 0 0 0 1 1 0 1 0 1 0 1 0 1 0

>  <DIFUSE_FUNC_ATOM>  (1885) 
atom 6   atom 7   

>  <FINAL_SINGLE_POINT_ENERGY>  (1885) 
0

>  <NONCOV_INTER_ENERGY_QM>  (1885) 
0

>  <FF_Energy>  (1885) 
0.07

>  <QM_Energy>  (1885) 
-5.03

>  <source>  (1885) 
ACET_MBZ_02

>  <Index>  (1885) 
4668

$$$$
ACET-pdb3s9v-B-GLU-223:MBZ-pdb3s9v-B-PHE-258
     RDKit          3D

 22 21  0  0  0  0  0  0  0  0999 V2000
   -2.3629    4.7718   -4.3770 C   0  0  0  0  0  0  0  0  0  0  0  0
   -1.4280    4.5381   -4.5670 H   0  0  0  0  0  0  0  0  0  0  0  0
   -2.5159    5.7418   -4.3880 H   0  0  0  0  0  0  0  0  0  0  0  0
   -2.9902    4.3173   -5.1439 H   0  0  0  0  0  0  0  0  0  0  0  0
   -2.6892    4.2715   -2.9832 C   0  0  0  0  0  0  0  0  0  0  0  0
   -3.8163    4.5264   -2.5057 O   0  0  0  0  0  1  0  0  0  0  0  0
   -1.8172    3.6223   -2.3659 O   0  0  0  0  0  0  0  0  0  0  0  0
    0.0008    2.9066    0.0327 C   0  0  0  0  0  0  0  0  0  0  0  0
   -0.6312    3.2280   -0.6559 H   0  0  0  0  0  0  0  0  0  0  0  0
    0.9212    3.2161   -0.1479 H   0  0  0  0  0  0  0  0  0  0  0  0
   -0.3092    3.3229    0.9912 H   0  0  0  0  0  0  0  0  0  0  0  0
    0.0001    1.4040    0.0007 C   0  0  0  0  0  0  0  0  0  0  0  0
   -1.2007    0.6955    0.0001 C   0  0  0  0  0  0  0  0  0  0  0  0
   -2.0651    1.1864   -0.0015 H   0  0  0  0  0  0  0  0  0  0  0  0
   -1.2065   -0.6973   -0.0000 C   0  0  0  0  0  0  0  0  0  0  0  0
   -2.0802   -1.1925    0.0016 H   0  0  0  0  0  0  0  0  0  0  0  0
    0.0021   -1.3972   -0.0004 C   0  0  0  0  0  0  0  0  0  0  0  0
   -0.0037   -2.3940   -0.0016 H   0  0  0  0  0  0  0  0  0  0  0  0
    1.2065   -0.6997    0.0000 C   0  0  0  0  0  0  0  0  0  0  0  0
    2.0860   -1.1949    0.0020 H   0  0  0  0  0  0  0  0  0  0  0  0
    1.1985    0.6945   -0.0003 C   0  0  0  0  0  0  0  0  0  0  0  0
    2.0664    1.1916   -0.0025 H   0  0  0  0  0  0  0  0  0  0  0  0
  1  5  1  0
  5  6  1  0
  5  7  2  0
  1  2  1  0
  1  3  1  0
  1  4  1  0
  8 12  1  0
 12 13  2  0
 13 15  1  0
 15 17  2  0
 17 19  1  0
 19 21  2  0
 21 12  1  0
  8  9  1  0
  8 10  1  0
  8 11  1  0
 13 14  1  0
 15 16  1  0
 17 18  1  0
 19 20  1  0
 21 22  1  0
M  CHG  1   6  -1
M  END
>  <PDB_ID>  (1886) 
pdb3s9v

>  <RESIDUE_NAME>  (1886) 
GLU   PHE

>  <FRAG_NAME>  (1886) 
ACET   MBZ

>  <FRAG_ATOM_NUM>  (1886) 
fragi: 7  fragj: 15

>  <atom.prop.CHAIN_ID>  (1886) 
A A A A A A A Z Z Z Z Z Z Z Z Z Z Z Z Z Z Z

>  <atom.prop.IS_HEAVY_ATOM>  (1886) 
1 0 0 0 1 1 1 1 0 0 0 1 1 0 1 0 1 0 1 0 1 0

>  <DIFUSE_FUNC_ATOM>  (1886) 
atom 6   atom 7   

>  <FINAL_SINGLE_POINT_ENERGY>  (1886) 
0

>  <NONCOV_INTER_ENERGY_QM>  (1886) 
0

>  <FF_Energy>  (1886) 
2.35

>  <QM_Energy>  (1886) 
-6.25

>  <source>  (1886) 
ACET_MBZ_02

>  <Index>  (1886) 
4721

$$$$
ACET-pdb3sbx-A-ASP-142:MBZ-pdb3sbx-A-PHE-147
     RDKit          3D

 22 21  0  0  0  0  0  0  0  0999 V2000
    4.4995    1.9870    0.8113 C   0  0  0  0  0  0  0  0  0  0  0  0
    3.8783    1.2534    1.0647 H   0  0  0  0  0  0  0  0  0  0  0  0
    4.4506    2.7260    1.4741 H   0  0  0  0  0  0  0  0  0  0  0  0
    5.5130    1.5864    0.8323 H   0  0  0  0  0  0  0  0  0  0  0  0
    4.1065    2.5170   -0.5462 C   0  0  0  0  0  0  0  0  0  0  0  0
    4.5903    1.9644   -1.5474 O   0  0  0  0  0  1  0  0  0  0  0  0
    3.3169    3.4910   -0.6110 O   0  0  0  0  0  0  0  0  0  0  0  0
   -0.0022    2.9076   -0.0011 C   0  0  0  0  0  0  0  0  0  0  0  0
    0.8471    3.2223    0.3970 H   0  0  0  0  0  0  0  0  0  0  0  0
   -0.7812    3.2150    0.5252 H   0  0  0  0  0  0  0  0  0  0  0  0
   -0.0829    3.3512   -0.9934 H   0  0  0  0  0  0  0  0  0  0  0  0
    0.0041    1.4112   -0.0025 C   0  0  0  0  0  0  0  0  0  0  0  0
   -1.1941    0.6968    0.0038 C   0  0  0  0  0  0  0  0  0  0  0  0
   -2.0638    1.1797    0.0097 H   0  0  0  0  0  0  0  0  0  0  0  0
   -1.2083   -0.7183    0.0000 C   0  0  0  0  0  0  0  0  0  0  0  0
   -2.0866   -1.1946   -0.0023 H   0  0  0  0  0  0  0  0  0  0  0  0
   -0.0089   -1.4111    0.0020 C   0  0  0  0  0  0  0  0  0  0  0  0
    0.0081   -2.4015    0.0047 H   0  0  0  0  0  0  0  0  0  0  0  0
    1.2083   -0.6875   -0.0000 C   0  0  0  0  0  0  0  0  0  0  0  0
    2.0860   -1.1868    0.0029 H   0  0  0  0  0  0  0  0  0  0  0  0
    1.1989    0.7089   -0.0033 C   0  0  0  0  0  0  0  0  0  0  0  0
    2.0677    1.2033   -0.0072 H   0  0  0  0  0  0  0  0  0  0  0  0
  1  5  1  0
  5  6  1  0
  5  7  2  0
  1  2  1  0
  1  3  1  0
  1  4  1  0
  8 12  1  0
 12 13  2  0
 13 15  1  0
 15 17  2  0
 17 19  1  0
 19 21  2  0
 21 12  1  0
  8  9  1  0
  8 10  1  0
  8 11  1  0
 13 14  1  0
 15 16  1  0
 17 18  1  0
 19 20  1  0
 21 22  1  0
M  CHG  1   6  -1
M  END
>  <PDB_ID>  (1887) 
pdb3sbx

>  <RESIDUE_NAME>  (1887) 
ASP   PHE

>  <FRAG_NAME>  (1887) 
ACET   MBZ

>  <FRAG_ATOM_NUM>  (1887) 
fragi: 7  fragj: 15

>  <atom.prop.CHAIN_ID>  (1887) 
A A A A A A A Z Z Z Z Z Z Z Z Z Z Z Z Z Z Z

>  <atom.prop.IS_HEAVY_ATOM>  (1887) 
1 0 0 0 1 1 1 1 0 0 0 1 1 0 1 0 1 0 1 0 1 0

>  <DIFUSE_FUNC_ATOM>  (1887) 
atom 6   atom 7   

>  <FINAL_SINGLE_POINT_ENERGY>  (1887) 
0

>  <NONCOV_INTER_ENERGY_QM>  (1887) 
0

>  <FF_Energy>  (1887) 
-0.55

>  <QM_Energy>  (1887) 
-6.5

>  <source>  (1887) 
ACET_MBZ_02

>  <Index>  (1887) 
4829

$$$$
ACET-pdb4qdf-B-ASP-230:MBZ-pdb4qdf-B-PHE-205
     RDKit          3D

 22 21  0  0  0  0  0  0  0  0999 V2000
   -5.0152    0.9749   -0.4845 C   0  0  0  0  0  0  0  0  0  0  0  0
   -5.9588    0.6824   -0.4732 H   0  0  0  0  0  0  0  0  0  0  0  0
   -4.3981    0.2052   -0.4405 H   0  0  0  0  0  0  0  0  0  0  0  0
   -4.8337    1.5065   -1.4185 H   0  0  0  0  0  0  0  0  0  0  0  0
   -4.7715    1.8598    0.7744 C   0  0  0  0  0  0  0  0  0  0  0  0
   -5.6710    2.6333    1.1646 O   0  0  0  0  0  1  0  0  0  0  0  0
   -3.6896    1.7731    1.3956 O   0  0  0  0  0  0  0  0  0  0  0  0
   -0.0101    2.9026   -0.0016 C   0  0  0  0  0  0  0  0  0  0  0  0
    0.9087    3.2160    0.1795 H   0  0  0  0  0  0  0  0  0  0  0  0
   -0.6404    3.2053    0.6964 H   0  0  0  0  0  0  0  0  0  0  0  0
   -0.3288    3.3362   -0.9495 H   0  0  0  0  0  0  0  0  0  0  0  0
    0.0006    1.3999    0.0006 C   0  0  0  0  0  0  0  0  0  0  0  0
   -1.1937    0.6869    0.0033 C   0  0  0  0  0  0  0  0  0  0  0  0
   -2.0617    1.1775    0.0062 H   0  0  0  0  0  0  0  0  0  0  0  0
   -1.1967   -0.6998   -0.0000 C   0  0  0  0  0  0  0  0  0  0  0  0
   -2.0737   -1.1952    0.0024 H   0  0  0  0  0  0  0  0  0  0  0  0
    0.0013   -1.3905   -0.0045 C   0  0  0  0  0  0  0  0  0  0  0  0
    0.0008   -2.3904   -0.0117 H   0  0  0  0  0  0  0  0  0  0  0  0
    1.1967   -0.6930   -0.0000 C   0  0  0  0  0  0  0  0  0  0  0  0
    2.0812   -1.1893    0.0045 H   0  0  0  0  0  0  0  0  0  0  0  0
    1.1919    0.6965    0.0006 C   0  0  0  0  0  0  0  0  0  0  0  0
    2.0614    1.1918    0.0003 H   0  0  0  0  0  0  0  0  0  0  0  0
  1  5  1  0
  5  6  1  0
  5  7  2  0
  1  2  1  0
  1  3  1  0
  1  4  1  0
  8 12  1  0
 12 13  2  0
 13 15  1  0
 15 17  2  0
 17 19  1  0
 19 21  2  0
 21 12  1  0
  8  9  1  0
  8 10  1  0
  8 11  1  0
 13 14  1  0
 15 16  1  0
 17 18  1  0
 19 20  1  0
 21 22  1  0
M  CHG  1   6  -1
M  END
>  <PDB_ID>  (1888) 
pdb4qdf

>  <RESIDUE_NAME>  (1888) 
ASP   PHE

>  <FRAG_NAME>  (1888) 
ACET   MBZ

>  <FRAG_ATOM_NUM>  (1888) 
fragi: 7  fragj: 15

>  <atom.prop.CHAIN_ID>  (1888) 
A A A A A A A Z Z Z Z Z Z Z Z Z Z Z Z Z Z Z

>  <atom.prop.IS_HEAVY_ATOM>  (1888) 
1 0 0 0 1 1 1 1 0 0 0 1 1 0 1 0 1 0 1 0 1 0

>  <DIFUSE_FUNC_ATOM>  (1888) 
atom 6   atom 7   

>  <FINAL_SINGLE_POINT_ENERGY>  (1888) 
0

>  <NONCOV_INTER_ENERGY_QM>  (1888) 
0

>  <FF_Energy>  (1888) 
-0.2

>  <QM_Energy>  (1888) 
-5.77

>  <source>  (1888) 
ACET_MBZ_02

>  <Index>  (1888) 
4866

$$$$
ACET-pdb3sei-B-GLU-61:MBZ-pdb3sei-B-PHE-17
     RDKit          3D

 22 21  0  0  0  0  0  0  0  0999 V2000
    1.9238   -0.3535   -3.1656 C   0  0  0  0  0  0  0  0  0  0  0  0
    1.8183   -0.3382   -2.1848 H   0  0  0  0  0  0  0  0  0  0  0  0
    2.8476   -0.5764   -3.4293 H   0  0  0  0  0  0  0  0  0  0  0  0
    1.2536   -1.1102   -3.5733 H   0  0  0  0  0  0  0  0  0  0  0  0
    1.6246    1.0258   -3.6787 C   0  0  0  0  0  0  0  0  0  0  0  0
    2.2959    1.4665   -4.6377 O   0  0  0  0  0  1  0  0  0  0  0  0
    0.7096    1.6790   -3.1306 O   0  0  0  0  0  0  0  0  0  0  0  0
    0.0022    2.9193   -0.0406 C   0  0  0  0  0  0  0  0  0  0  0  0
   -0.8151    3.2113   -0.5207 H   0  0  0  0  0  0  0  0  0  0  0  0
    0.8182    3.2057   -0.5260 H   0  0  0  0  0  0  0  0  0  0  0  0
    0.0070    3.4128    0.9313 H   0  0  0  0  0  0  0  0  0  0  0  0
   -0.0031    1.4073    0.0088 C   0  0  0  0  0  0  0  0  0  0  0  0
   -1.1987    0.7033    0.0048 C   0  0  0  0  0  0  0  0  0  0  0  0
   -2.0657    1.1928    0.0037 H   0  0  0  0  0  0  0  0  0  0  0  0
   -1.2051   -0.6902    0.0000 C   0  0  0  0  0  0  0  0  0  0  0  0
   -2.0784   -1.1855   -0.0066 H   0  0  0  0  0  0  0  0  0  0  0  0
    0.0077   -1.4020    0.0066 C   0  0  0  0  0  0  0  0  0  0  0  0
   -0.0108   -2.3969    0.0156 H   0  0  0  0  0  0  0  0  0  0  0  0
    1.2051   -0.7094   -0.0000 C   0  0  0  0  0  0  0  0  0  0  0  0
    2.0880   -1.1974    0.0114 H   0  0  0  0  0  0  0  0  0  0  0  0
    1.1941    0.6910   -0.0202 C   0  0  0  0  0  0  0  0  0  0  0  0
    2.0633    1.1859   -0.0568 H   0  0  0  0  0  0  0  0  0  0  0  0
  1  5  1  0
  5  6  1  0
  5  7  2  0
  1  2  1  0
  1  3  1  0
  1  4  1  0
  8 12  1  0
 12 13  2  0
 13 15  1  0
 15 17  2  0
 17 19  1  0
 19 21  2  0
 21 12  1  0
  8  9  1  0
  8 10  1  0
  8 11  1  0
 13 14  1  0
 15 16  1  0
 17 18  1  0
 19 20  1  0
 21 22  1  0
M  CHG  1   6  -1
M  END
>  <PDB_ID>  (1889) 
pdb3sei

>  <RESIDUE_NAME>  (1889) 
GLU   PHE

>  <FRAG_NAME>  (1889) 
ACET   MBZ

>  <FRAG_ATOM_NUM>  (1889) 
fragi: 7  fragj: 15

>  <atom.prop.CHAIN_ID>  (1889) 
A A A A A A A Z Z Z Z Z Z Z Z Z Z Z Z Z Z Z

>  <atom.prop.IS_HEAVY_ATOM>  (1889) 
1 0 0 0 1 1 1 1 0 0 0 1 1 0 1 0 1 0 1 0 1 0

>  <DIFUSE_FUNC_ATOM>  (1889) 
atom 6   atom 7   

>  <FINAL_SINGLE_POINT_ENERGY>  (1889) 
0

>  <NONCOV_INTER_ENERGY_QM>  (1889) 
0

>  <FF_Energy>  (1889) 
6.06

>  <QM_Energy>  (1889) 
-0.33

>  <source>  (1889) 
ACET_MBZ_02

>  <Index>  (1889) 
4920

$$$$
ACET-pdb4qfe-B-GLU-40:MBZ-pdb4qfe-B-PHE-36
     RDKit          3D

 22 21  0  0  0  0  0  0  0  0999 V2000
    0.9645   -1.3516    3.7103 C   0  0  0  0  0  0  0  0  0  0  0  0
    0.2432   -1.9412    4.0226 H   0  0  0  0  0  0  0  0  0  0  0  0
    0.6590   -0.7191    3.0230 H   0  0  0  0  0  0  0  0  0  0  0  0
    1.3482   -0.7879    4.5608 H   0  0  0  0  0  0  0  0  0  0  0  0
    2.0253   -2.2620    3.0382 C   0  0  0  0  0  0  0  0  0  0  0  0
    2.2790   -3.3377    3.6340 O   0  0  0  0  0  1  0  0  0  0  0  0
    2.6319   -1.9940    1.9604 O   0  0  0  0  0  0  0  0  0  0  0  0
    0.0050    2.8931   -0.0282 C   0  0  0  0  0  0  0  0  0  0  0  0
   -0.6713    3.1942   -0.6854 H   0  0  0  0  0  0  0  0  0  0  0  0
    0.9115    3.1965   -0.2842 H   0  0  0  0  0  0  0  0  0  0  0  0
   -0.2392    3.3410    0.9351 H   0  0  0  0  0  0  0  0  0  0  0  0
    0.0028    1.3975   -0.0125 C   0  0  0  0  0  0  0  0  0  0  0  0
   -1.1895    0.6981    0.0058 C   0  0  0  0  0  0  0  0  0  0  0  0
   -2.0575    1.1841    0.0220 H   0  0  0  0  0  0  0  0  0  0  0  0
   -1.1964   -0.6988    0.0000 C   0  0  0  0  0  0  0  0  0  0  0  0
   -2.0776   -1.1847   -0.0119 H   0  0  0  0  0  0  0  0  0  0  0  0
   -0.0054   -1.3880    0.0130 C   0  0  0  0  0  0  0  0  0  0  0  0
   -0.0055   -2.3911    0.0314 H   0  0  0  0  0  0  0  0  0  0  0  0
    1.1964   -0.6974   -0.0000 C   0  0  0  0  0  0  0  0  0  0  0  0
    2.0758   -1.1977   -0.0040 H   0  0  0  0  0  0  0  0  0  0  0  0
    1.1921    0.6887   -0.0062 C   0  0  0  0  0  0  0  0  0  0  0  0
    2.0638    1.1847   -0.0069 H   0  0  0  0  0  0  0  0  0  0  0  0
  1  5  1  0
  5  6  1  0
  5  7  2  0
  1  2  1  0
  1  3  1  0
  1  4  1  0
  8 12  1  0
 12 13  2  0
 13 15  1  0
 15 17  2  0
 17 19  1  0
 19 21  2  0
 21 12  1  0
  8  9  1  0
  8 10  1  0
  8 11  1  0
 13 14  1  0
 15 16  1  0
 17 18  1  0
 19 20  1  0
 21 22  1  0
M  CHG  1   6  -1
M  END
>  <PDB_ID>  (1890) 
pdb4qfe

>  <RESIDUE_NAME>  (1890) 
GLU   PHE

>  <FRAG_NAME>  (1890) 
ACET   MBZ

>  <FRAG_ATOM_NUM>  (1890) 
fragi: 7  fragj: 15

>  <atom.prop.CHAIN_ID>  (1890) 
A A A A A A A Z Z Z Z Z Z Z Z Z Z Z Z Z Z Z

>  <atom.prop.IS_HEAVY_ATOM>  (1890) 
1 0 0 0 1 1 1 1 0 0 0 1 1 0 1 0 1 0 1 0 1 0

>  <DIFUSE_FUNC_ATOM>  (1890) 
atom 6   atom 7   

>  <FINAL_SINGLE_POINT_ENERGY>  (1890) 
0

>  <NONCOV_INTER_ENERGY_QM>  (1890) 
0

>  <FF_Energy>  (1890) 
2.22

>  <QM_Energy>  (1890) 
-3.06

>  <source>  (1890) 
ACET_MBZ_02

>  <Index>  (1890) 
4939

$$$$
ACET-pdb3sgh-B-ASP-505:MBZ-pdb3sgh-B-PHE-481
     RDKit          3D

 22 21  0  0  0  0  0  0  0  0999 V2000
    3.8335    1.1878   -3.2240 C   0  0  0  0  0  0  0  0  0  0  0  0
    3.9785    0.6175   -2.4299 H   0  0  0  0  0  0  0  0  0  0  0  0
    4.5653    1.8421   -3.3353 H   0  0  0  0  0  0  0  0  0  0  0  0
    3.8164    0.5447   -4.1038 H   0  0  0  0  0  0  0  0  0  0  0  0
    2.5123    1.9639   -3.0295 C   0  0  0  0  0  0  0  0  0  0  0  0
    1.4633    1.5454   -3.6144 O   0  0  0  0  0  1  0  0  0  0  0  0
    2.5622    2.9754   -2.2902 O   0  0  0  0  0  0  0  0  0  0  0  0
   -0.0034    2.9097    0.0213 C   0  0  0  0  0  0  0  0  0  0  0  0
    0.9057    3.2133   -0.2461 H   0  0  0  0  0  0  0  0  0  0  0  0
   -0.1955    3.1791    0.9592 H   0  0  0  0  0  0  0  0  0  0  0  0
   -0.7335    3.3873   -0.6320 H   0  0  0  0  0  0  0  0  0  0  0  0
   -0.0077    1.4066   -0.0254 C   0  0  0  0  0  0  0  0  0  0  0  0
   -1.1920    0.6871    0.0275 C   0  0  0  0  0  0  0  0  0  0  0  0
   -2.0635    1.1725    0.0849 H   0  0  0  0  0  0  0  0  0  0  0  0
   -1.1893   -0.6956    0.0000 C   0  0  0  0  0  0  0  0  0  0  0  0
   -2.0642   -1.1983   -0.0224 H   0  0  0  0  0  0  0  0  0  0  0  0
    0.0185   -1.4023    0.0051 C   0  0  0  0  0  0  0  0  0  0  0  0
    0.0003   -2.3979    0.0116 H   0  0  0  0  0  0  0  0  0  0  0  0
    1.1893   -0.7063   -0.0000 C   0  0  0  0  0  0  0  0  0  0  0  0
    2.0884   -1.1786    0.0028 H   0  0  0  0  0  0  0  0  0  0  0  0
    1.1812    0.7106   -0.0071 C   0  0  0  0  0  0  0  0  0  0  0  0
    2.0539    1.1928    0.0005 H   0  0  0  0  0  0  0  0  0  0  0  0
  1  5  1  0
  5  6  1  0
  5  7  2  0
  1  2  1  0
  1  3  1  0
  1  4  1  0
  8 12  1  0
 12 13  2  0
 13 15  1  0
 15 17  2  0
 17 19  1  0
 19 21  2  0
 21 12  1  0
  8  9  1  0
  8 10  1  0
  8 11  1  0
 13 14  1  0
 15 16  1  0
 17 18  1  0
 19 20  1  0
 21 22  1  0
M  CHG  1   6  -1
M  END
>  <PDB_ID>  (1891) 
pdb3sgh

>  <RESIDUE_NAME>  (1891) 
ASP   PHE

>  <FRAG_NAME>  (1891) 
ACET   MBZ

>  <FRAG_ATOM_NUM>  (1891) 
fragi: 7  fragj: 15

>  <atom.prop.CHAIN_ID>  (1891) 
A A A A A A A Z Z Z Z Z Z Z Z Z Z Z Z Z Z Z

>  <atom.prop.IS_HEAVY_ATOM>  (1891) 
1 0 0 0 1 1 1 1 0 0 0 1 1 0 1 0 1 0 1 0 1 0

>  <DIFUSE_FUNC_ATOM>  (1891) 
atom 6   atom 7   

>  <FINAL_SINGLE_POINT_ENERGY>  (1891) 
0

>  <NONCOV_INTER_ENERGY_QM>  (1891) 
0

>  <FF_Energy>  (1891) 
0.42

>  <QM_Energy>  (1891) 
-4.74

>  <source>  (1891) 
ACET_MBZ_02

>  <Index>  (1891) 
5053

$$$$
ACET-pdb4qhr-A-GLU-86:MBZ-pdb4qhr-A-PHE-82
     RDKit          3D

 22 21  0  0  0  0  0  0  0  0999 V2000
   -5.2981    4.8230    0.8230 C   0  0  0  0  0  0  0  0  0  0  0  0
   -5.9568    4.7065    0.1178 H   0  0  0  0  0  0  0  0  0  0  0  0
   -4.8009    5.6572    0.7698 H   0  0  0  0  0  0  0  0  0  0  0  0
   -5.8119    4.7867    1.7836 H   0  0  0  0  0  0  0  0  0  0  0  0
   -4.2914    3.6794    0.7075 C   0  0  0  0  0  0  0  0  0  0  0  0
   -4.6347    2.5682    1.1573 O   0  0  0  0  0  1  0  0  0  0  0  0
   -3.1911    3.8656    0.1813 O   0  0  0  0  0  0  0  0  0  0  0  0
   -0.0092    2.8966    0.0462 C   0  0  0  0  0  0  0  0  0  0  0  0
   -0.8080    3.2300   -0.4178 H   0  0  0  0  0  0  0  0  0  0  0  0
    0.8241    3.2277   -0.3538 H   0  0  0  0  0  0  0  0  0  0  0  0
   -0.0483    3.2841    1.0641 H   0  0  0  0  0  0  0  0  0  0  0  0
   -0.0087    1.3998   -0.0064 C   0  0  0  0  0  0  0  0  0  0  0  0
   -1.1981    0.7084   -0.0040 C   0  0  0  0  0  0  0  0  0  0  0  0
   -2.0653    1.2002   -0.0062 H   0  0  0  0  0  0  0  0  0  0  0  0
   -1.2072   -0.6773    0.0000 C   0  0  0  0  0  0  0  0  0  0  0  0
   -2.0804   -1.1754    0.0150 H   0  0  0  0  0  0  0  0  0  0  0  0
    0.0042   -1.3918   -0.0153 C   0  0  0  0  0  0  0  0  0  0  0  0
   -0.0181   -2.3879   -0.0378 H   0  0  0  0  0  0  0  0  0  0  0  0
    1.2072   -0.7068    0.0000 C   0  0  0  0  0  0  0  0  0  0  0  0
    2.0843   -1.2129   -0.0058 H   0  0  0  0  0  0  0  0  0  0  0  0
    1.2026    0.6678    0.0256 C   0  0  0  0  0  0  0  0  0  0  0  0
    2.0649    1.1774    0.0669 H   0  0  0  0  0  0  0  0  0  0  0  0
  1  5  1  0
  5  6  1  0
  5  7  2  0
  1  2  1  0
  1  3  1  0
  1  4  1  0
  8 12  1  0
 12 13  2  0
 13 15  1  0
 15 17  2  0
 17 19  1  0
 19 21  2  0
 21 12  1  0
  8  9  1  0
  8 10  1  0
  8 11  1  0
 13 14  1  0
 15 16  1  0
 17 18  1  0
 19 20  1  0
 21 22  1  0
M  CHG  1   6  -1
M  END
>  <PDB_ID>  (1892) 
pdb4qhr

>  <RESIDUE_NAME>  (1892) 
GLU   PHE

>  <FRAG_NAME>  (1892) 
ACET   MBZ

>  <FRAG_ATOM_NUM>  (1892) 
fragi: 7  fragj: 15

>  <atom.prop.CHAIN_ID>  (1892) 
A A A A A A A Z Z Z Z Z Z Z Z Z Z Z Z Z Z Z

>  <atom.prop.IS_HEAVY_ATOM>  (1892) 
1 0 0 0 1 1 1 1 0 0 0 1 1 0 1 0 1 0 1 0 1 0

>  <DIFUSE_FUNC_ATOM>  (1892) 
atom 6   atom 7   

>  <FINAL_SINGLE_POINT_ENERGY>  (1892) 
0

>  <NONCOV_INTER_ENERGY_QM>  (1892) 
0

>  <FF_Energy>  (1892) 
-2.49

>  <QM_Energy>  (1892) 
-8.23

>  <source>  (1892) 
ACET_MBZ_02

>  <Index>  (1892) 
5054

$$$$
ACET-pdb4qhr-B-GLU-86:MBZ-pdb4qhr-B-PHE-82
     RDKit          3D

 22 21  0  0  0  0  0  0  0  0999 V2000
   -5.3126    4.8566    0.3435 C   0  0  0  0  0  0  0  0  0  0  0  0
   -5.9805    4.6596   -0.3357 H   0  0  0  0  0  0  0  0  0  0  0  0
   -4.7984    5.6648    0.1722 H   0  0  0  0  0  0  0  0  0  0  0  0
   -5.8133    4.9573    1.3064 H   0  0  0  0  0  0  0  0  0  0  0  0
   -4.3256    3.6842    0.3668 C   0  0  0  0  0  0  0  0  0  0  0  0
   -4.7161    2.6233    0.8453 O   0  0  0  0  0  1  0  0  0  0  0  0
   -3.1854    3.8253   -0.0866 O   0  0  0  0  0  0  0  0  0  0  0  0
    0.0131    2.8751    0.0013 C   0  0  0  0  0  0  0  0  0  0  0  0
   -0.7477    3.2051   -0.5340 H   0  0  0  0  0  0  0  0  0  0  0  0
    0.8754    3.1897   -0.3622 H   0  0  0  0  0  0  0  0  0  0  0  0
   -0.0885    3.2959    1.0017 H   0  0  0  0  0  0  0  0  0  0  0  0
    0.0002    1.3944   -0.0124 C   0  0  0  0  0  0  0  0  0  0  0  0
   -1.1904    0.6931    0.0035 C   0  0  0  0  0  0  0  0  0  0  0  0
   -2.0592    1.1804    0.0170 H   0  0  0  0  0  0  0  0  0  0  0  0
   -1.1974   -0.7007    0.0000 C   0  0  0  0  0  0  0  0  0  0  0  0
   -2.0727   -1.1914   -0.0007 H   0  0  0  0  0  0  0  0  0  0  0  0
    0.0026   -1.3873   -0.0011 C   0  0  0  0  0  0  0  0  0  0  0  0
    0.0046   -2.3882   -0.0035 H   0  0  0  0  0  0  0  0  0  0  0  0
    1.1974   -0.6878   -0.0000 C   0  0  0  0  0  0  0  0  0  0  0  0
    2.0810   -1.1878   -0.0055 H   0  0  0  0  0  0  0  0  0  0  0  0
    1.1876    0.6884    0.0100 C   0  0  0  0  0  0  0  0  0  0  0  0
    2.0587    1.1907    0.0327 H   0  0  0  0  0  0  0  0  0  0  0  0
  1  5  1  0
  5  6  1  0
  5  7  2  0
  1  2  1  0
  1  3  1  0
  1  4  1  0
  8 12  1  0
 12 13  2  0
 13 15  1  0
 15 17  2  0
 17 19  1  0
 19 21  2  0
 21 12  1  0
  8  9  1  0
  8 10  1  0
  8 11  1  0
 13 14  1  0
 15 16  1  0
 17 18  1  0
 19 20  1  0
 21 22  1  0
M  CHG  1   6  -1
M  END
>  <PDB_ID>  (1893) 
pdb4qhr

>  <RESIDUE_NAME>  (1893) 
GLU   PHE

>  <FRAG_NAME>  (1893) 
ACET   MBZ

>  <FRAG_ATOM_NUM>  (1893) 
fragi: 7  fragj: 15

>  <atom.prop.CHAIN_ID>  (1893) 
A A A A A A A Z Z Z Z Z Z Z Z Z Z Z Z Z Z Z

>  <atom.prop.IS_HEAVY_ATOM>  (1893) 
1 0 0 0 1 1 1 1 0 0 0 1 1 0 1 0 1 0 1 0 1 0

>  <DIFUSE_FUNC_ATOM>  (1893) 
atom 6   atom 7   

>  <FINAL_SINGLE_POINT_ENERGY>  (1893) 
0

>  <NONCOV_INTER_ENERGY_QM>  (1893) 
0

>  <FF_Energy>  (1893) 
-2.49

>  <QM_Energy>  (1893) 
-8.17

>  <source>  (1893) 
ACET_MBZ_02

>  <Index>  (1893) 
5055

$$$$
ACET-pdb3shq-A-GLU-67:MBZ-pdb3shq-A-PHE-72
     RDKit          3D

 22 21  0  0  0  0  0  0  0  0999 V2000
    1.1962    1.6046   -4.5389 C   0  0  0  0  0  0  0  0  0  0  0  0
    1.7179    1.2619   -5.2979 H   0  0  0  0  0  0  0  0  0  0  0  0
    1.5483    2.4592   -4.2014 H   0  0  0  0  0  0  0  0  0  0  0  0
    0.1713    1.7643   -4.8738 H   0  0  0  0  0  0  0  0  0  0  0  0
    1.2929    0.5940   -3.4197 C   0  0  0  0  0  0  0  0  0  0  0  0
    0.2528    0.2866   -2.8020 O   0  0  0  0  0  1  0  0  0  0  0  0
    2.4119    0.1032   -3.1627 O   0  0  0  0  0  0  0  0  0  0  0  0
   -0.0020    2.9025    0.0024 C   0  0  0  0  0  0  0  0  0  0  0  0
   -0.7554    3.2080   -0.5569 H   0  0  0  0  0  0  0  0  0  0  0  0
    0.8654    3.2102   -0.3558 H   0  0  0  0  0  0  0  0  0  0  0  0
   -0.1255    3.3358    0.9949 H   0  0  0  0  0  0  0  0  0  0  0  0
   -0.0001    1.3971   -0.0010 C   0  0  0  0  0  0  0  0  0  0  0  0
   -1.1918    0.6896   -0.0000 C   0  0  0  0  0  0  0  0  0  0  0  0
   -2.0599    1.1814   -0.0004 H   0  0  0  0  0  0  0  0  0  0  0  0
   -1.1961   -0.6933    0.0000 C   0  0  0  0  0  0  0  0  0  0  0  0
   -2.0756   -1.1882    0.0009 H   0  0  0  0  0  0  0  0  0  0  0  0
   -0.0025   -1.3875    0.0005 C   0  0  0  0  0  0  0  0  0  0  0  0
   -0.0063   -2.3881    0.0009 H   0  0  0  0  0  0  0  0  0  0  0  0
    1.1961   -0.6947   -0.0000 C   0  0  0  0  0  0  0  0  0  0  0  0
    2.0778   -1.1957    0.0008 H   0  0  0  0  0  0  0  0  0  0  0  0
    1.1943    0.6889    0.0006 C   0  0  0  0  0  0  0  0  0  0  0  0
    2.0629    1.1864    0.0015 H   0  0  0  0  0  0  0  0  0  0  0  0
  1  5  1  0
  5  6  1  0
  5  7  2  0
  1  2  1  0
  1  3  1  0
  1  4  1  0
  8 12  1  0
 12 13  2  0
 13 15  1  0
 15 17  2  0
 17 19  1  0
 19 21  2  0
 21 12  1  0
  8  9  1  0
  8 10  1  0
  8 11  1  0
 13 14  1  0
 15 16  1  0
 17 18  1  0
 19 20  1  0
 21 22  1  0
M  CHG  1   6  -1
M  END
>  <PDB_ID>  (1894) 
pdb3shq

>  <RESIDUE_NAME>  (1894) 
GLU   PHE

>  <FRAG_NAME>  (1894) 
ACET   MBZ

>  <FRAG_ATOM_NUM>  (1894) 
fragi: 7  fragj: 15

>  <atom.prop.CHAIN_ID>  (1894) 
A A A A A A A Z Z Z Z Z Z Z Z Z Z Z Z Z Z Z

>  <atom.prop.IS_HEAVY_ATOM>  (1894) 
1 0 0 0 1 1 1 1 0 0 0 1 1 0 1 0 1 0 1 0 1 0

>  <DIFUSE_FUNC_ATOM>  (1894) 
atom 6   atom 7   

>  <FINAL_SINGLE_POINT_ENERGY>  (1894) 
0

>  <NONCOV_INTER_ENERGY_QM>  (1894) 
0

>  <FF_Energy>  (1894) 
7.31

>  <QM_Energy>  (1894) 
1.07

>  <source>  (1894) 
ACET_MBZ_02

>  <Index>  (1894) 
5122

$$$$
ACET-pdb3sjh-A-GLU-259:MBZ-pdb3sjh-A-PHE-223
     RDKit          3D

 22 21  0  0  0  0  0  0  0  0999 V2000
   -1.4596    0.5342   -3.5191 C   0  0  0  0  0  0  0  0  0  0  0  0
   -0.9398    0.1263   -2.7998 H   0  0  0  0  0  0  0  0  0  0  0  0
   -1.0730    0.3921   -4.4046 H   0  0  0  0  0  0  0  0  0  0  0  0
   -2.4464    0.0714   -3.5129 H   0  0  0  0  0  0  0  0  0  0  0  0
   -1.5065    2.0500   -3.2642 C   0  0  0  0  0  0  0  0  0  0  0  0
   -2.5050    2.5903   -2.7091 O   0  0  0  0  0  1  0  0  0  0  0  0
   -0.4329    2.6487   -3.5812 O   0  0  0  0  0  0  0  0  0  0  0  0
    0.0652    2.9377    0.0448 C   0  0  0  0  0  0  0  0  0  0  0  0
   -0.5574    3.2571   -0.6420 H   0  0  0  0  0  0  0  0  0  0  0  0
    0.9918    3.2084   -0.1301 H   0  0  0  0  0  0  0  0  0  0  0  0
   -0.2449    3.3153    1.0191 H   0  0  0  0  0  0  0  0  0  0  0  0
    0.0356    1.3995   -0.0138 C   0  0  0  0  0  0  0  0  0  0  0  0
   -1.2167    0.7241    0.0401 C   0  0  0  0  0  0  0  0  0  0  0  0
   -2.0467    1.2156    0.1013 H   0  0  0  0  0  0  0  0  0  0  0  0
   -1.2149   -0.6950   -0.0000 C   0  0  0  0  0  0  0  0  0  0  0  0
   -2.1079   -1.1685   -0.0093 H   0  0  0  0  0  0  0  0  0  0  0  0
   -0.0381   -1.3943   -0.0238 C   0  0  0  0  0  0  0  0  0  0  0  0
   -0.0374   -2.3979   -0.0586 H   0  0  0  0  0  0  0  0  0  0  0  0
    1.2149   -0.7187    0.0000 C   0  0  0  0  0  0  0  0  0  0  0  0
    2.0653   -1.2326    0.0199 H   0  0  0  0  0  0  0  0  0  0  0  0
    1.2192    0.6843   -0.0025 C   0  0  0  0  0  0  0  0  0  0  0  0
    2.0958    1.1656    0.0037 H   0  0  0  0  0  0  0  0  0  0  0  0
  1  5  1  0
  5  6  1  0
  5  7  2  0
  1  2  1  0
  1  3  1  0
  1  4  1  0
  8 12  1  0
 12 13  2  0
 13 15  1  0
 15 17  2  0
 17 19  1  0
 19 21  2  0
 21 12  1  0
  8  9  1  0
  8 10  1  0
  8 11  1  0
 13 14  1  0
 15 16  1  0
 17 18  1  0
 19 20  1  0
 21 22  1  0
M  CHG  1   6  -1
M  END
>  <PDB_ID>  (1895) 
pdb3sjh

>  <RESIDUE_NAME>  (1895) 
GLU   PHE

>  <FRAG_NAME>  (1895) 
ACET   MBZ

>  <FRAG_ATOM_NUM>  (1895) 
fragi: 7  fragj: 15

>  <atom.prop.CHAIN_ID>  (1895) 
A A A A A A A Z Z Z Z Z Z Z Z Z Z Z Z Z Z Z

>  <atom.prop.IS_HEAVY_ATOM>  (1895) 
1 0 0 0 1 1 1 1 0 0 0 1 1 0 1 0 1 0 1 0 1 0

>  <DIFUSE_FUNC_ATOM>  (1895) 
atom 6   atom 7   

>  <FINAL_SINGLE_POINT_ENERGY>  (1895) 
0

>  <NONCOV_INTER_ENERGY_QM>  (1895) 
0

>  <FF_Energy>  (1895) 
-0.58

>  <QM_Energy>  (1895) 
-6.32

>  <source>  (1895) 
ACET_MBZ_02

>  <Index>  (1895) 
5156

$$$$
ACET-pdb4qi3-A-ASP-177:MBZ-pdb4qi3-A-PHE-159
     RDKit          3D

 22 21  0  0  0  0  0  0  0  0999 V2000
   -4.2614    1.6478    3.2363 C   0  0  0  0  0  0  0  0  0  0  0  0
   -4.6687    0.9814    2.6229 H   0  0  0  0  0  0  0  0  0  0  0  0
   -4.9551    2.2609    3.5959 H   0  0  0  0  0  0  0  0  0  0  0  0
   -3.8276    1.1057    4.0766 H   0  0  0  0  0  0  0  0  0  0  0  0
   -3.2372    2.4650    2.4617 C   0  0  0  0  0  0  0  0  0  0  0  0
   -2.1148    2.6422    2.9765 O   0  0  0  0  0  1  0  0  0  0  0  0
   -3.5722    2.9368    1.3363 O   0  0  0  0  0  0  0  0  0  0  0  0
   -0.0034    2.9193   -0.0085 C   0  0  0  0  0  0  0  0  0  0  0  0
   -0.9094    3.2214    0.2371 H   0  0  0  0  0  0  0  0  0  0  0  0
    0.2460    3.2141   -0.9168 H   0  0  0  0  0  0  0  0  0  0  0  0
    0.6997    3.3688    0.6925 H   0  0  0  0  0  0  0  0  0  0  0  0
    0.0018    1.4053    0.0064 C   0  0  0  0  0  0  0  0  0  0  0  0
   -1.1885    0.6946    0.0067 C   0  0  0  0  0  0  0  0  0  0  0  0
   -2.0593    1.1778    0.0106 H   0  0  0  0  0  0  0  0  0  0  0  0
   -1.1904   -0.7023    0.0000 C   0  0  0  0  0  0  0  0  0  0  0  0
   -2.0752   -1.1883    0.0059 H   0  0  0  0  0  0  0  0  0  0  0  0
   -0.0047   -1.3928   -0.0118 C   0  0  0  0  0  0  0  0  0  0  0  0
   -0.0042   -2.3936   -0.0292 H   0  0  0  0  0  0  0  0  0  0  0  0
    1.1904   -0.6985    0.0000 C   0  0  0  0  0  0  0  0  0  0  0  0
    2.0745   -1.1959    0.0110 H   0  0  0  0  0  0  0  0  0  0  0  0
    1.1914    0.6937   -0.0013 C   0  0  0  0  0  0  0  0  0  0  0  0
    2.0634    1.1842   -0.0090 H   0  0  0  0  0  0  0  0  0  0  0  0
  1  5  1  0
  5  6  1  0
  5  7  2  0
  1  2  1  0
  1  3  1  0
  1  4  1  0
  8 12  1  0
 12 13  2  0
 13 15  1  0
 15 17  2  0
 17 19  1  0
 19 21  2  0
 21 12  1  0
  8  9  1  0
  8 10  1  0
  8 11  1  0
 13 14  1  0
 15 16  1  0
 17 18  1  0
 19 20  1  0
 21 22  1  0
M  CHG  1   6  -1
M  END
>  <PDB_ID>  (1896) 
pdb4qi3

>  <RESIDUE_NAME>  (1896) 
ASP   PHE

>  <FRAG_NAME>  (1896) 
ACET   MBZ

>  <FRAG_ATOM_NUM>  (1896) 
fragi: 7  fragj: 15

>  <atom.prop.CHAIN_ID>  (1896) 
A A A A A A A Z Z Z Z Z Z Z Z Z Z Z Z Z Z Z

>  <atom.prop.IS_HEAVY_ATOM>  (1896) 
1 0 0 0 1 1 1 1 0 0 0 1 1 0 1 0 1 0 1 0 1 0

>  <DIFUSE_FUNC_ATOM>  (1896) 
atom 6   atom 7   

>  <FINAL_SINGLE_POINT_ENERGY>  (1896) 
0

>  <NONCOV_INTER_ENERGY_QM>  (1896) 
0

>  <FF_Energy>  (1896) 
-1.4

>  <QM_Energy>  (1896) 
-7.36

>  <source>  (1896) 
ACET_MBZ_02

>  <Index>  (1896) 
5169

$$$$
ACET-pdb4qlz-B-GLU-264:MBZ-pdb4qlz-B-PHE-16
     RDKit          3D

 22 21  0  0  0  0  0  0  0  0999 V2000
   -1.6310   -5.5187   -2.3647 C   0  0  0  0  0  0  0  0  0  0  0  0
   -1.6272   -6.2192   -1.6770 H   0  0  0  0  0  0  0  0  0  0  0  0
   -1.2638   -5.8296   -3.2202 H   0  0  0  0  0  0  0  0  0  0  0  0
   -2.6641   -5.2131   -2.5295 H   0  0  0  0  0  0  0  0  0  0  0  0
   -0.8072   -4.3864   -1.8862 C   0  0  0  0  0  0  0  0  0  0  0  0
   -1.4076   -3.4667   -1.3183 O   0  0  0  0  0  1  0  0  0  0  0  0
    0.4162   -4.3942   -2.0905 O   0  0  0  0  0  0  0  0  0  0  0  0
    0.0089    2.8915   -0.0240 C   0  0  0  0  0  0  0  0  0  0  0  0
   -0.7608    3.1961   -0.5707 H   0  0  0  0  0  0  0  0  0  0  0  0
    0.8661    3.1892   -0.4252 H   0  0  0  0  0  0  0  0  0  0  0  0
   -0.0766    3.3603    0.9563 H   0  0  0  0  0  0  0  0  0  0  0  0
    0.0003    1.3963    0.0029 C   0  0  0  0  0  0  0  0  0  0  0  0
   -1.1950    0.6909   -0.0024 C   0  0  0  0  0  0  0  0  0  0  0  0
   -2.0610    1.1787   -0.0091 H   0  0  0  0  0  0  0  0  0  0  0  0
   -1.1923   -0.6979    0.0000 C   0  0  0  0  0  0  0  0  0  0  0  0
   -2.0690   -1.1941    0.0004 H   0  0  0  0  0  0  0  0  0  0  0  0
    0.0058   -1.3829    0.0038 C   0  0  0  0  0  0  0  0  0  0  0  0
    0.0007   -2.3880    0.0089 H   0  0  0  0  0  0  0  0  0  0  0  0
    1.1923   -0.6945   -0.0000 C   0  0  0  0  0  0  0  0  0  0  0  0
    2.0800   -1.1910    0.0021 H   0  0  0  0  0  0  0  0  0  0  0  0
    1.1889    0.6881   -0.0043 C   0  0  0  0  0  0  0  0  0  0  0  0
    2.0600    1.1851   -0.0137 H   0  0  0  0  0  0  0  0  0  0  0  0
  1  5  1  0
  5  6  1  0
  5  7  2  0
  1  2  1  0
  1  3  1  0
  1  4  1  0
  8 12  1  0
 12 13  2  0
 13 15  1  0
 15 17  2  0
 17 19  1  0
 19 21  2  0
 21 12  1  0
  8  9  1  0
  8 10  1  0
  8 11  1  0
 13 14  1  0
 15 16  1  0
 17 18  1  0
 19 20  1  0
 21 22  1  0
M  CHG  1   6  -1
M  END
>  <PDB_ID>  (1897) 
pdb4qlz

>  <RESIDUE_NAME>  (1897) 
GLU   PHE

>  <FRAG_NAME>  (1897) 
ACET   MBZ

>  <FRAG_ATOM_NUM>  (1897) 
fragi: 7  fragj: 15

>  <atom.prop.CHAIN_ID>  (1897) 
A A A A A A A Z Z Z Z Z Z Z Z Z Z Z Z Z Z Z

>  <atom.prop.IS_HEAVY_ATOM>  (1897) 
1 0 0 0 1 1 1 1 0 0 0 1 1 0 1 0 1 0 1 0 1 0

>  <DIFUSE_FUNC_ATOM>  (1897) 
atom 6   atom 7   

>  <FINAL_SINGLE_POINT_ENERGY>  (1897) 
0

>  <NONCOV_INTER_ENERGY_QM>  (1897) 
0

>  <FF_Energy>  (1897) 
1.12

>  <QM_Energy>  (1897) 
-4.68

>  <source>  (1897) 
ACET_MBZ_02

>  <Index>  (1897) 
5295

$$$$
ACET-pdb3slg-A-ASP-229:MBZ-pdb3slg-A-PHE-323
     RDKit          3D

 22 21  0  0  0  0  0  0  0  0999 V2000
    5.1200    2.4853    2.1451 C   0  0  0  0  0  0  0  0  0  0  0  0
    4.5684    2.9417    2.8308 H   0  0  0  0  0  0  0  0  0  0  0  0
    5.9193    3.0244    1.9174 H   0  0  0  0  0  0  0  0  0  0  0  0
    5.4569    1.5345    2.5581 H   0  0  0  0  0  0  0  0  0  0  0  0
    4.2647    2.3255    0.8656 C   0  0  0  0  0  0  0  0  0  0  0  0
    4.5169    1.3757    0.0805 O   0  0  0  0  0  1  0  0  0  0  0  0
    3.3338    3.1509    0.6532 O   0  0  0  0  0  0  0  0  0  0  0  0
   -0.0016    2.8995    0.0035 C   0  0  0  0  0  0  0  0  0  0  0  0
    0.6889    3.2173    0.6366 H   0  0  0  0  0  0  0  0  0  0  0  0
   -0.9025    3.2132    0.2677 H   0  0  0  0  0  0  0  0  0  0  0  0
    0.2221    3.3424   -0.9670 H   0  0  0  0  0  0  0  0  0  0  0  0
    0.0014    1.4056    0.0096 C   0  0  0  0  0  0  0  0  0  0  0  0
   -1.2071    0.6938   -0.0083 C   0  0  0  0  0  0  0  0  0  0  0  0
   -2.0690    1.1825   -0.0280 H   0  0  0  0  0  0  0  0  0  0  0  0
   -1.2132   -0.7103    0.0000 C   0  0  0  0  0  0  0  0  0  0  0  0
   -2.0815   -1.2016    0.0138 H   0  0  0  0  0  0  0  0  0  0  0  0
    0.0024   -1.4015   -0.0098 C   0  0  0  0  0  0  0  0  0  0  0  0
    0.0098   -2.3962   -0.0245 H   0  0  0  0  0  0  0  0  0  0  0  0
    1.2132   -0.6883    0.0000 C   0  0  0  0  0  0  0  0  0  0  0  0
    2.0914   -1.1876    0.0025 H   0  0  0  0  0  0  0  0  0  0  0  0
    1.2032    0.7007    0.0086 C   0  0  0  0  0  0  0  0  0  0  0  0
    2.0682    1.2020    0.0136 H   0  0  0  0  0  0  0  0  0  0  0  0
  1  5  1  0
  5  6  1  0
  5  7  2  0
  1  2  1  0
  1  3  1  0
  1  4  1  0
  8 12  1  0
 12 13  2  0
 13 15  1  0
 15 17  2  0
 17 19  1  0
 19 21  2  0
 21 12  1  0
  8  9  1  0
  8 10  1  0
  8 11  1  0
 13 14  1  0
 15 16  1  0
 17 18  1  0
 19 20  1  0
 21 22  1  0
M  CHG  1   6  -1
M  END
>  <PDB_ID>  (1898) 
pdb3slg

>  <RESIDUE_NAME>  (1898) 
ASP   PHE

>  <FRAG_NAME>  (1898) 
ACET   MBZ

>  <FRAG_ATOM_NUM>  (1898) 
fragi: 7  fragj: 15

>  <atom.prop.CHAIN_ID>  (1898) 
A A A A A A A Z Z Z Z Z Z Z Z Z Z Z Z Z Z Z

>  <atom.prop.IS_HEAVY_ATOM>  (1898) 
1 0 0 0 1 1 1 1 0 0 0 1 1 0 1 0 1 0 1 0 1 0

>  <DIFUSE_FUNC_ATOM>  (1898) 
atom 6   atom 7   

>  <FINAL_SINGLE_POINT_ENERGY>  (1898) 
0

>  <NONCOV_INTER_ENERGY_QM>  (1898) 
0

>  <FF_Energy>  (1898) 
-2.07

>  <QM_Energy>  (1898) 
-9.85

>  <source>  (1898) 
ACET_MBZ_02

>  <Index>  (1898) 
5412

$$$$
ACET-pdb3sng-A-ASP-163:MBZ-pdb3sng-A-PHE-160
     RDKit          3D

 22 21  0  0  0  0  0  0  0  0999 V2000
    4.4533    5.3990   -1.3912 C   0  0  0  0  0  0  0  0  0  0  0  0
    5.0688    5.4751   -2.1701 H   0  0  0  0  0  0  0  0  0  0  0  0
    4.9598    5.1346   -0.5766 H   0  0  0  0  0  0  0  0  0  0  0  0
    4.0133    6.3801   -1.2122 H   0  0  0  0  0  0  0  0  0  0  0  0
    3.4212    4.3187   -1.6927 C   0  0  0  0  0  0  0  0  0  0  0  0
    2.5322    4.5048   -2.5626 O   0  0  0  0  0  1  0  0  0  0  0  0
    3.5240    3.2487   -1.0642 O   0  0  0  0  0  0  0  0  0  0  0  0
    0.0271    2.9179   -0.0287 C   0  0  0  0  0  0  0  0  0  0  0  0
    0.8522    3.1986   -0.4942 H   0  0  0  0  0  0  0  0  0  0  0  0
    0.0155    3.2364    0.9072 H   0  0  0  0  0  0  0  0  0  0  0  0
   -0.8190    3.3698   -0.5463 H   0  0  0  0  0  0  0  0  0  0  0  0
    0.0006    1.4065   -0.0034 C   0  0  0  0  0  0  0  0  0  0  0  0
   -1.1956    0.6995   -0.0062 C   0  0  0  0  0  0  0  0  0  0  0  0
   -2.0634    1.1811   -0.0134 H   0  0  0  0  0  0  0  0  0  0  0  0
   -1.1960   -0.7047   -0.0000 C   0  0  0  0  0  0  0  0  0  0  0  0
   -2.0740   -1.1941    0.0049 H   0  0  0  0  0  0  0  0  0  0  0  0
    0.0058   -1.3992    0.0012 C   0  0  0  0  0  0  0  0  0  0  0  0
    0.0058   -2.3950    0.0023 H   0  0  0  0  0  0  0  0  0  0  0  0
    1.1960   -0.6927   -0.0000 C   0  0  0  0  0  0  0  0  0  0  0  0
    2.0838   -1.1888   -0.0059 H   0  0  0  0  0  0  0  0  0  0  0  0
    1.1892    0.6907    0.0085 C   0  0  0  0  0  0  0  0  0  0  0  0
    2.0625    1.1891    0.0230 H   0  0  0  0  0  0  0  0  0  0  0  0
  1  5  1  0
  5  6  1  0
  5  7  2  0
  1  2  1  0
  1  3  1  0
  1  4  1  0
  8 12  1  0
 12 13  2  0
 13 15  1  0
 15 17  2  0
 17 19  1  0
 19 21  2  0
 21 12  1  0
  8  9  1  0
  8 10  1  0
  8 11  1  0
 13 14  1  0
 15 16  1  0
 17 18  1  0
 19 20  1  0
 21 22  1  0
M  CHG  1   6  -1
M  END
>  <PDB_ID>  (1899) 
pdb3sng

>  <RESIDUE_NAME>  (1899) 
ASP   PHE

>  <FRAG_NAME>  (1899) 
ACET   MBZ

>  <FRAG_ATOM_NUM>  (1899) 
fragi: 7  fragj: 15

>  <atom.prop.CHAIN_ID>  (1899) 
A A A A A A A Z Z Z Z Z Z Z Z Z Z Z Z Z Z Z

>  <atom.prop.IS_HEAVY_ATOM>  (1899) 
1 0 0 0 1 1 1 1 0 0 0 1 1 0 1 0 1 0 1 0 1 0

>  <DIFUSE_FUNC_ATOM>  (1899) 
atom 6   atom 7   

>  <FINAL_SINGLE_POINT_ENERGY>  (1899) 
0

>  <NONCOV_INTER_ENERGY_QM>  (1899) 
0

>  <FF_Energy>  (1899) 
-2.16

>  <QM_Energy>  (1899) 
-7.71

>  <source>  (1899) 
ACET_MBZ_02

>  <Index>  (1899) 
5427

$$$$
ACET-pdb3sok-B-GLU-5:MBZ-pdb3sok-A-PHE-1
     RDKit          3D

 22 21  0  0  0  0  0  0  0  0999 V2000
    4.7188    3.3175   -0.6634 C   0  0  0  0  0  0  0  0  0  0  0  0
    4.5122    2.5265   -1.2020 H   0  0  0  0  0  0  0  0  0  0  0  0
    5.5541    3.2291   -0.1605 H   0  0  0  0  0  0  0  0  0  0  0  0
    4.8068    4.1742   -1.3315 H   0  0  0  0  0  0  0  0  0  0  0  0
    3.5818    3.4744    0.3691 C   0  0  0  0  0  0  0  0  0  0  0  0
    2.9776    4.5749    0.4372 O   0  0  0  0  0  1  0  0  0  0  0  0
    3.2974    2.5026    1.1190 O   0  0  0  0  0  0  0  0  0  0  0  0
    0.0106    2.9157   -0.0001 C   0  0  0  0  0  0  0  0  0  0  0  0
   -0.7251    3.2262   -0.5813 H   0  0  0  0  0  0  0  0  0  0  0  0
    0.8893    3.2177   -0.3360 H   0  0  0  0  0  0  0  0  0  0  0  0
   -0.1360    3.3654    0.9819 H   0  0  0  0  0  0  0  0  0  0  0  0
    0.0018    1.4057    0.0029 C   0  0  0  0  0  0  0  0  0  0  0  0
   -1.1945    0.6969    0.0003 C   0  0  0  0  0  0  0  0  0  0  0  0
   -2.0623    1.1842   -0.0027 H   0  0  0  0  0  0  0  0  0  0  0  0
   -1.1994   -0.7004    0.0000 C   0  0  0  0  0  0  0  0  0  0  0  0
   -2.0777   -1.1898    0.0006 H   0  0  0  0  0  0  0  0  0  0  0  0
   -0.0004   -1.3969    0.0008 C   0  0  0  0  0  0  0  0  0  0  0  0
   -0.0031   -2.3948    0.0015 H   0  0  0  0  0  0  0  0  0  0  0  0
    1.1994   -0.6992    0.0000 C   0  0  0  0  0  0  0  0  0  0  0  0
    2.0815   -1.1946    0.0039 H   0  0  0  0  0  0  0  0  0  0  0  0
    1.1931    0.6939   -0.0039 C   0  0  0  0  0  0  0  0  0  0  0  0
    2.0651    1.1881   -0.0126 H   0  0  0  0  0  0  0  0  0  0  0  0
  1  5  1  0
  5  6  1  0
  5  7  2  0
  1  2  1  0
  1  3  1  0
  1  4  1  0
  8 12  1  0
 12 13  2  0
 13 15  1  0
 15 17  2  0
 17 19  1  0
 19 21  2  0
 21 12  1  0
  8  9  1  0
  8 10  1  0
  8 11  1  0
 13 14  1  0
 15 16  1  0
 17 18  1  0
 19 20  1  0
 21 22  1  0
M  CHG  1   6  -1
M  END
>  <PDB_ID>  (1900) 
pdb3sok

>  <RESIDUE_NAME>  (1900) 
GLU   PHE

>  <FRAG_NAME>  (1900) 
ACET   MBZ

>  <FRAG_ATOM_NUM>  (1900) 
fragi: 7  fragj: 15

>  <atom.prop.CHAIN_ID>  (1900) 
A A A A A A A Z Z Z Z Z Z Z Z Z Z Z Z Z Z Z

>  <atom.prop.IS_HEAVY_ATOM>  (1900) 
1 0 0 0 1 1 1 1 0 0 0 1 1 0 1 0 1 0 1 0 1 0

>  <DIFUSE_FUNC_ATOM>  (1900) 
atom 6   atom 7   

>  <FINAL_SINGLE_POINT_ENERGY>  (1900) 
0

>  <NONCOV_INTER_ENERGY_QM>  (1900) 
0

>  <FF_Energy>  (1900) 
1.45

>  <QM_Energy>  (1900) 
-7.53

>  <source>  (1900) 
ACET_MBZ_02

>  <Index>  (1900) 
5438

$$$$
ACET-pdb3slg-B-ASP-229:MBZ-pdb3slg-B-PHE-323
     RDKit          3D

 22 21  0  0  0  0  0  0  0  0999 V2000
    4.7597    3.1522    2.5593 C   0  0  0  0  0  0  0  0  0  0  0  0
    4.0850    3.5362    3.1815 H   0  0  0  0  0  0  0  0  0  0  0  0
    5.5285    3.7738    2.4564 H   0  0  0  0  0  0  0  0  0  0  0  0
    5.1313    2.2251    2.9958 H   0  0  0  0  0  0  0  0  0  0  0  0
    4.1114    2.9499    1.2028 C   0  0  0  0  0  0  0  0  0  0  0  0
    4.6361    2.1544    0.3795 O   0  0  0  0  0  1  0  0  0  0  0  0
    3.0829    3.6315    0.9588 O   0  0  0  0  0  0  0  0  0  0  0  0
   -0.0004    2.9054    0.0275 C   0  0  0  0  0  0  0  0  0  0  0  0
    0.7109    3.1978    0.6537 H   0  0  0  0  0  0  0  0  0  0  0  0
   -0.8924    3.2033    0.3422 H   0  0  0  0  0  0  0  0  0  0  0  0
    0.1886    3.3709   -0.9398 H   0  0  0  0  0  0  0  0  0  0  0  0
    0.0011    1.4081   -0.0036 C   0  0  0  0  0  0  0  0  0  0  0  0
   -1.2010    0.7039   -0.0007 C   0  0  0  0  0  0  0  0  0  0  0  0
   -2.0650    1.1927    0.0001 H   0  0  0  0  0  0  0  0  0  0  0  0
   -1.2126   -0.6998   -0.0000 C   0  0  0  0  0  0  0  0  0  0  0  0
   -2.0856   -1.1880    0.0076 H   0  0  0  0  0  0  0  0  0  0  0  0
    0.0003   -1.4076   -0.0082 C   0  0  0  0  0  0  0  0  0  0  0  0
   -0.0047   -2.3993   -0.0201 H   0  0  0  0  0  0  0  0  0  0  0  0
    1.2126   -0.7014    0.0000 C   0  0  0  0  0  0  0  0  0  0  0  0
    2.0897   -1.1953   -0.0017 H   0  0  0  0  0  0  0  0  0  0  0  0
    1.1996    0.6967    0.0124 C   0  0  0  0  0  0  0  0  0  0  0  0
    2.0678    1.1941    0.0325 H   0  0  0  0  0  0  0  0  0  0  0  0
  1  5  1  0
  5  6  1  0
  5  7  2  0
  1  2  1  0
  1  3  1  0
  1  4  1  0
  8 12  1  0
 12 13  2  0
 13 15  1  0
 15 17  2  0
 17 19  1  0
 19 21  2  0
 21 12  1  0
  8  9  1  0
  8 10  1  0
  8 11  1  0
 13 14  1  0
 15 16  1  0
 17 18  1  0
 19 20  1  0
 21 22  1  0
M  CHG  1   6  -1
M  END
>  <PDB_ID>  (1901) 
pdb3slg

>  <RESIDUE_NAME>  (1901) 
ASP   PHE

>  <FRAG_NAME>  (1901) 
ACET   MBZ

>  <FRAG_ATOM_NUM>  (1901) 
fragi: 7  fragj: 15

>  <atom.prop.CHAIN_ID>  (1901) 
A A A A A A A Z Z Z Z Z Z Z Z Z Z Z Z Z Z Z

>  <atom.prop.IS_HEAVY_ATOM>  (1901) 
1 0 0 0 1 1 1 1 0 0 0 1 1 0 1 0 1 0 1 0 1 0

>  <DIFUSE_FUNC_ATOM>  (1901) 
atom 6   atom 7   

>  <FINAL_SINGLE_POINT_ENERGY>  (1901) 
0

>  <NONCOV_INTER_ENERGY_QM>  (1901) 
0

>  <FF_Energy>  (1901) 
-2.66

>  <QM_Energy>  (1901) 
-9.03

>  <source>  (1901) 
ACET_MBZ_02

>  <Index>  (1901) 
5493

$$$$
ACET-pdb3sql-B-ASP-461:MBZ-pdb3sql-B-PHE-486
     RDKit          3D

 22 21  0  0  0  0  0  0  0  0999 V2000
    0.7593   -2.3997    3.1654 C   0  0  0  0  0  0  0  0  0  0  0  0
    1.1199   -2.7390    2.3041 H   0  0  0  0  0  0  0  0  0  0  0  0
    0.7957   -3.1055    3.8615 H   0  0  0  0  0  0  0  0  0  0  0  0
    1.3862   -1.5698    3.4916 H   0  0  0  0  0  0  0  0  0  0  0  0
   -0.6971   -1.9965    2.9565 C   0  0  0  0  0  0  0  0  0  0  0  0
   -1.0258   -0.7869    3.0937 O   0  0  0  0  0  1  0  0  0  0  0  0
   -1.5067   -2.8986    2.6362 O   0  0  0  0  0  0  0  0  0  0  0  0
   -0.0083    2.8817   -0.0216 C   0  0  0  0  0  0  0  0  0  0  0  0
    0.9230    3.1956    0.0642 H   0  0  0  0  0  0  0  0  0  0  0  0
   -0.5703    3.2024    0.7237 H   0  0  0  0  0  0  0  0  0  0  0  0
   -0.4148    3.2906   -0.9466 H   0  0  0  0  0  0  0  0  0  0  0  0
   -0.0030    1.3888    0.0050 C   0  0  0  0  0  0  0  0  0  0  0  0
   -1.1823    0.6871   -0.0107 C   0  0  0  0  0  0  0  0  0  0  0  0
   -2.0555    1.1772   -0.0311 H   0  0  0  0  0  0  0  0  0  0  0  0
   -1.1841   -0.6881   -0.0000 C   0  0  0  0  0  0  0  0  0  0  0  0
   -2.0659   -1.1849    0.0058 H   0  0  0  0  0  0  0  0  0  0  0  0
    0.0024   -1.3753    0.0045 C   0  0  0  0  0  0  0  0  0  0  0  0
   -0.0048   -2.3818    0.0105 H   0  0  0  0  0  0  0  0  0  0  0  0
    1.1841   -0.6917    0.0000 C   0  0  0  0  0  0  0  0  0  0  0  0
    2.0719   -1.1928   -0.0032 H   0  0  0  0  0  0  0  0  0  0  0  0
    1.1829    0.6793    0.0012 C   0  0  0  0  0  0  0  0  0  0  0  0
    2.0554    1.1804   -0.0014 H   0  0  0  0  0  0  0  0  0  0  0  0
  1  5  1  0
  5  6  1  0
  5  7  2  0
  1  2  1  0
  1  3  1  0
  1  4  1  0
  8 12  1  0
 12 13  2  0
 13 15  1  0
 15 17  2  0
 17 19  1  0
 19 21  2  0
 21 12  1  0
  8  9  1  0
  8 10  1  0
  8 11  1  0
 13 14  1  0
 15 16  1  0
 17 18  1  0
 19 20  1  0
 21 22  1  0
M  CHG  1   6  -1
M  END
>  <PDB_ID>  (1902) 
pdb3sql

>  <RESIDUE_NAME>  (1902) 
ASP   PHE

>  <FRAG_NAME>  (1902) 
ACET   MBZ

>  <FRAG_ATOM_NUM>  (1902) 
fragi: 7  fragj: 15

>  <atom.prop.CHAIN_ID>  (1902) 
A A A A A A A Z Z Z Z Z Z Z Z Z Z Z Z Z Z Z

>  <atom.prop.IS_HEAVY_ATOM>  (1902) 
1 0 0 0 1 1 1 1 0 0 0 1 1 0 1 0 1 0 1 0 1 0

>  <DIFUSE_FUNC_ATOM>  (1902) 
atom 6   atom 7   

>  <FINAL_SINGLE_POINT_ENERGY>  (1902) 
0

>  <NONCOV_INTER_ENERGY_QM>  (1902) 
0

>  <FF_Energy>  (1902) 
3.23

>  <QM_Energy>  (1902) 
-1.97

>  <source>  (1902) 
ACET_MBZ_02

>  <Index>  (1902) 
5511

$$$$
ACET-pdb3ss1-A-GLU-151:MBZ-pdb3ss1-A-PHE-177
     RDKit          3D

 22 21  0  0  0  0  0  0  0  0999 V2000
   -1.4346    0.3052    4.2664 C   0  0  0  0  0  0  0  0  0  0  0  0
   -1.8352   -0.5723    4.4590 H   0  0  0  0  0  0  0  0  0  0  0  0
   -1.3260    0.8508    5.0776 H   0  0  0  0  0  0  0  0  0  0  0  0
   -0.4522    0.1453    3.8220 H   0  0  0  0  0  0  0  0  0  0  0  0
   -2.4053    1.0538    3.3458 C   0  0  0  0  0  0  0  0  0  0  0  0
   -2.0798    2.1743    2.8835 O   0  0  0  0  0  1  0  0  0  0  0  0
   -3.5019    0.5144    3.0833 O   0  0  0  0  0  0  0  0  0  0  0  0
    0.0145    2.9175    0.0131 C   0  0  0  0  0  0  0  0  0  0  0  0
    0.9514    3.2096    0.1377 H   0  0  0  0  0  0  0  0  0  0  0  0
   -0.5552    3.2149    0.7653 H   0  0  0  0  0  0  0  0  0  0  0  0
   -0.3635    3.3801   -0.8986 H   0  0  0  0  0  0  0  0  0  0  0  0
    0.0008    1.4063   -0.0059 C   0  0  0  0  0  0  0  0  0  0  0  0
   -1.1959    0.7086    0.0012 C   0  0  0  0  0  0  0  0  0  0  0  0
   -2.0612    1.1945    0.0061 H   0  0  0  0  0  0  0  0  0  0  0  0
   -1.2010   -0.6919   -0.0000 C   0  0  0  0  0  0  0  0  0  0  0  0
   -2.0796   -1.1815    0.0031 H   0  0  0  0  0  0  0  0  0  0  0  0
    0.0013   -1.3992   -0.0032 C   0  0  0  0  0  0  0  0  0  0  0  0
   -0.0118   -2.3958   -0.0079 H   0  0  0  0  0  0  0  0  0  0  0  0
    1.2010   -0.7081   -0.0000 C   0  0  0  0  0  0  0  0  0  0  0  0
    2.0820   -1.2027   -0.0016 H   0  0  0  0  0  0  0  0  0  0  0  0
    1.1939    0.6843    0.0079 C   0  0  0  0  0  0  0  0  0  0  0  0
    2.0661    1.1800    0.0232 H   0  0  0  0  0  0  0  0  0  0  0  0
  1  5  1  0
  5  6  1  0
  5  7  2  0
  1  2  1  0
  1  3  1  0
  1  4  1  0
  8 12  1  0
 12 13  2  0
 13 15  1  0
 15 17  2  0
 17 19  1  0
 19 21  2  0
 21 12  1  0
  8  9  1  0
  8 10  1  0
  8 11  1  0
 13 14  1  0
 15 16  1  0
 17 18  1  0
 19 20  1  0
 21 22  1  0
M  CHG  1   6  -1
M  END
>  <PDB_ID>  (1903) 
pdb3ss1

>  <RESIDUE_NAME>  (1903) 
GLU   PHE

>  <FRAG_NAME>  (1903) 
ACET   MBZ

>  <FRAG_ATOM_NUM>  (1903) 
fragi: 7  fragj: 15

>  <atom.prop.CHAIN_ID>  (1903) 
A A A A A A A Z Z Z Z Z Z Z Z Z Z Z Z Z Z Z

>  <atom.prop.IS_HEAVY_ATOM>  (1903) 
1 0 0 0 1 1 1 1 0 0 0 1 1 0 1 0 1 0 1 0 1 0

>  <DIFUSE_FUNC_ATOM>  (1903) 
atom 6   atom 7   

>  <FINAL_SINGLE_POINT_ENERGY>  (1903) 
0

>  <NONCOV_INTER_ENERGY_QM>  (1903) 
0

>  <FF_Energy>  (1903) 
-0.76

>  <QM_Energy>  (1903) 
-5.9

>  <source>  (1903) 
ACET_MBZ_02

>  <Index>  (1903) 
5587

$$$$
ACET-pdb4qus-B-GLU-31:MBZ-pdb4qus-B-PHE-11
     RDKit          3D

 22 21  0  0  0  0  0  0  0  0999 V2000
   -3.8612   -3.0732   -0.1621 C   0  0  0  0  0  0  0  0  0  0  0  0
   -3.2680   -2.2810   -0.1438 H   0  0  0  0  0  0  0  0  0  0  0  0
   -4.5198   -3.0078   -0.8983 H   0  0  0  0  0  0  0  0  0  0  0  0
   -3.2403   -3.9505   -0.3438 H   0  0  0  0  0  0  0  0  0  0  0  0
   -4.6230   -3.1097    1.1358 C   0  0  0  0  0  0  0  0  0  0  0  0
   -4.8516   -4.1938    1.6695 O   0  0  0  0  0  1  0  0  0  0  0  0
   -4.9890   -2.0317    1.6290 O   0  0  0  0  0  0  0  0  0  0  0  0
    0.0389    2.8796    0.0130 C   0  0  0  0  0  0  0  0  0  0  0  0
    0.9397    3.1634    0.3186 H   0  0  0  0  0  0  0  0  0  0  0  0
   -0.6615    3.1991    0.6386 H   0  0  0  0  0  0  0  0  0  0  0  0
   -0.1449    3.3417   -0.9569 H   0  0  0  0  0  0  0  0  0  0  0  0
    0.0019    1.3882   -0.0035 C   0  0  0  0  0  0  0  0  0  0  0  0
   -1.1865    0.7026    0.0053 C   0  0  0  0  0  0  0  0  0  0  0  0
   -2.0530    1.1900    0.0140 H   0  0  0  0  0  0  0  0  0  0  0  0
   -1.1893   -0.6855   -0.0000 C   0  0  0  0  0  0  0  0  0  0  0  0
   -2.0731   -1.1759    0.0067 H   0  0  0  0  0  0  0  0  0  0  0  0
   -0.0023   -1.3794   -0.0119 C   0  0  0  0  0  0  0  0  0  0  0  0
   -0.0142   -2.3844   -0.0300 H   0  0  0  0  0  0  0  0  0  0  0  0
    1.1893   -0.7010    0.0000 C   0  0  0  0  0  0  0  0  0  0  0  0
    2.0707   -1.2034    0.0029 H   0  0  0  0  0  0  0  0  0  0  0  0
    1.1869    0.6751    0.0101 C   0  0  0  0  0  0  0  0  0  0  0  0
    2.0608    1.1735    0.0268 H   0  0  0  0  0  0  0  0  0  0  0  0
  1  5  1  0
  5  6  1  0
  5  7  2  0
  1  2  1  0
  1  3  1  0
  1  4  1  0
  8 12  1  0
 12 13  2  0
 13 15  1  0
 15 17  2  0
 17 19  1  0
 19 21  2  0
 21 12  1  0
  8  9  1  0
  8 10  1  0
  8 11  1  0
 13 14  1  0
 15 16  1  0
 17 18  1  0
 19 20  1  0
 21 22  1  0
M  CHG  1   6  -1
M  END
>  <PDB_ID>  (1904) 
pdb4qus

>  <RESIDUE_NAME>  (1904) 
GLU   PHE

>  <FRAG_NAME>  (1904) 
ACET   MBZ

>  <FRAG_ATOM_NUM>  (1904) 
fragi: 7  fragj: 15

>  <atom.prop.CHAIN_ID>  (1904) 
A A A A A A A Z Z Z Z Z Z Z Z Z Z Z Z Z Z Z

>  <atom.prop.IS_HEAVY_ATOM>  (1904) 
1 0 0 0 1 1 1 1 0 0 0 1 1 0 1 0 1 0 1 0 1 0

>  <DIFUSE_FUNC_ATOM>  (1904) 
atom 6   atom 7   

>  <FINAL_SINGLE_POINT_ENERGY>  (1904) 
0

>  <NONCOV_INTER_ENERGY_QM>  (1904) 
0

>  <FF_Energy>  (1904) 
9.35

>  <QM_Energy>  (1904) 
-0.21

>  <source>  (1904) 
ACET_MBZ_02

>  <Index>  (1904) 
5805

$$$$
ACET-pdb3swx-A-ASP-242:MBZ-pdb3swx-A-PHE-258
     RDKit          3D

 22 21  0  0  0  0  0  0  0  0999 V2000
   -3.6296    1.9324    2.4771 C   0  0  0  0  0  0  0  0  0  0  0  0
   -3.9381    2.1101    3.4039 H   0  0  0  0  0  0  0  0  0  0  0  0
   -2.9218    1.2377    2.4698 H   0  0  0  0  0  0  0  0  0  0  0  0
   -4.4776    1.5634    1.9003 H   0  0  0  0  0  0  0  0  0  0  0  0
   -3.0411    3.2273    1.9075 C   0  0  0  0  0  0  0  0  0  0  0  0
   -3.4272    3.6781    0.8053 O   0  0  0  0  0  1  0  0  0  0  0  0
   -2.1615    3.7872    2.5681 O   0  0  0  0  0  0  0  0  0  0  0  0
    0.0048    2.8918   -0.0047 C   0  0  0  0  0  0  0  0  0  0  0  0
    0.9464    3.1943   -0.0259 H   0  0  0  0  0  0  0  0  0  0  0  0
   -0.4517    3.1978    0.8186 H   0  0  0  0  0  0  0  0  0  0  0  0
   -0.5098    3.3315   -0.8590 H   0  0  0  0  0  0  0  0  0  0  0  0
    0.0020    1.3900   -0.0039 C   0  0  0  0  0  0  0  0  0  0  0  0
   -1.1951    0.6854   -0.0086 C   0  0  0  0  0  0  0  0  0  0  0  0
   -2.0589    1.1837   -0.0196 H   0  0  0  0  0  0  0  0  0  0  0  0
   -1.1956   -0.6853   -0.0000 C   0  0  0  0  0  0  0  0  0  0  0  0
   -2.0719   -1.1901   -0.0048 H   0  0  0  0  0  0  0  0  0  0  0  0
    0.0028   -1.3794    0.0174 C   0  0  0  0  0  0  0  0  0  0  0  0
   -0.0074   -2.3820    0.0423 H   0  0  0  0  0  0  0  0  0  0  0  0
    1.1956   -0.6937   -0.0000 C   0  0  0  0  0  0  0  0  0  0  0  0
    2.0777   -1.1950   -0.0077 H   0  0  0  0  0  0  0  0  0  0  0  0
    1.1902    0.6828   -0.0050 C   0  0  0  0  0  0  0  0  0  0  0  0
    2.0613    1.1836   -0.0099 H   0  0  0  0  0  0  0  0  0  0  0  0
  1  5  1  0
  5  6  1  0
  5  7  2  0
  1  2  1  0
  1  3  1  0
  1  4  1  0
  8 12  1  0
 12 13  2  0
 13 15  1  0
 15 17  2  0
 17 19  1  0
 19 21  2  0
 21 12  1  0
  8  9  1  0
  8 10  1  0
  8 11  1  0
 13 14  1  0
 15 16  1  0
 17 18  1  0
 19 20  1  0
 21 22  1  0
M  CHG  1   6  -1
M  END
>  <PDB_ID>  (1905) 
pdb3swx

>  <RESIDUE_NAME>  (1905) 
ASP   PHE

>  <FRAG_NAME>  (1905) 
ACET   MBZ

>  <FRAG_ATOM_NUM>  (1905) 
fragi: 7  fragj: 15

>  <atom.prop.CHAIN_ID>  (1905) 
A A A A A A A Z Z Z Z Z Z Z Z Z Z Z Z Z Z Z

>  <atom.prop.IS_HEAVY_ATOM>  (1905) 
1 0 0 0 1 1 1 1 0 0 0 1 1 0 1 0 1 0 1 0 1 0

>  <DIFUSE_FUNC_ATOM>  (1905) 
atom 6   atom 7   

>  <FINAL_SINGLE_POINT_ENERGY>  (1905) 
0

>  <NONCOV_INTER_ENERGY_QM>  (1905) 
0

>  <FF_Energy>  (1905) 
-2.17

>  <QM_Energy>  (1905) 
-8.13

>  <source>  (1905) 
ACET_MBZ_02

>  <Index>  (1905) 
5820

$$$$
ACET-pdb3swx-B-ASP-242:MBZ-pdb3swx-B-PHE-258
     RDKit          3D

 22 21  0  0  0  0  0  0  0  0999 V2000
   -3.9162    1.8531    2.0898 C   0  0  0  0  0  0  0  0  0  0  0  0
   -4.3112    1.9986    2.9849 H   0  0  0  0  0  0  0  0  0  0  0  0
   -3.1944    1.1782    2.1219 H   0  0  0  0  0  0  0  0  0  0  0  0
   -4.7009    1.4754    1.4343 H   0  0  0  0  0  0  0  0  0  0  0  0
   -3.3276    3.1767    1.5934 C   0  0  0  0  0  0  0  0  0  0  0  0
   -3.5939    3.5545    0.4314 O   0  0  0  0  0  1  0  0  0  0  0  0
   -2.5866    3.8274    2.3492 O   0  0  0  0  0  0  0  0  0  0  0  0
   -0.0008    2.9000    0.0074 C   0  0  0  0  0  0  0  0  0  0  0  0
    0.9329    3.2053    0.1102 H   0  0  0  0  0  0  0  0  0  0  0  0
   -0.5663    3.2029    0.7581 H   0  0  0  0  0  0  0  0  0  0  0  0
   -0.3987    3.3352   -0.9094 H   0  0  0  0  0  0  0  0  0  0  0  0
    0.0015    1.3956    0.0060 C   0  0  0  0  0  0  0  0  0  0  0  0
   -1.1976    0.6868    0.0100 C   0  0  0  0  0  0  0  0  0  0  0  0
   -2.0620    1.1835    0.0189 H   0  0  0  0  0  0  0  0  0  0  0  0
   -1.1993   -0.6905    0.0000 C   0  0  0  0  0  0  0  0  0  0  0  0
   -2.0717   -1.1943   -0.0032 H   0  0  0  0  0  0  0  0  0  0  0  0
    0.0082   -1.3898   -0.0041 C   0  0  0  0  0  0  0  0  0  0  0  0
   -0.0037   -2.3896   -0.0106 H   0  0  0  0  0  0  0  0  0  0  0  0
    1.1993   -0.6989    0.0000 C   0  0  0  0  0  0  0  0  0  0  0  0
    2.0850   -1.1872    0.0133 H   0  0  0  0  0  0  0  0  0  0  0  0
    1.1880    0.6968   -0.0119 C   0  0  0  0  0  0  0  0  0  0  0  0
    2.0606    1.1895   -0.0350 H   0  0  0  0  0  0  0  0  0  0  0  0
  1  5  1  0
  5  6  1  0
  5  7  2  0
  1  2  1  0
  1  3  1  0
  1  4  1  0
  8 12  1  0
 12 13  2  0
 13 15  1  0
 15 17  2  0
 17 19  1  0
 19 21  2  0
 21 12  1  0
  8  9  1  0
  8 10  1  0
  8 11  1  0
 13 14  1  0
 15 16  1  0
 17 18  1  0
 19 20  1  0
 21 22  1  0
M  CHG  1   6  -1
M  END
>  <PDB_ID>  (1906) 
pdb3swx

>  <RESIDUE_NAME>  (1906) 
ASP   PHE

>  <FRAG_NAME>  (1906) 
ACET   MBZ

>  <FRAG_ATOM_NUM>  (1906) 
fragi: 7  fragj: 15

>  <atom.prop.CHAIN_ID>  (1906) 
A A A A A A A Z Z Z Z Z Z Z Z Z Z Z Z Z Z Z

>  <atom.prop.IS_HEAVY_ATOM>  (1906) 
1 0 0 0 1 1 1 1 0 0 0 1 1 0 1 0 1 0 1 0 1 0

>  <DIFUSE_FUNC_ATOM>  (1906) 
atom 6   atom 7   

>  <FINAL_SINGLE_POINT_ENERGY>  (1906) 
0

>  <NONCOV_INTER_ENERGY_QM>  (1906) 
0

>  <FF_Energy>  (1906) 
-2.27

>  <QM_Energy>  (1906) 
-7.97

>  <source>  (1906) 
ACET_MBZ_02

>  <Index>  (1906) 
5823

$$$$
ACET-pdb3swx-C-ASP-242:MBZ-pdb3swx-C-PHE-258
     RDKit          3D

 22 21  0  0  0  0  0  0  0  0999 V2000
   -3.6879    1.7325    2.3463 C   0  0  0  0  0  0  0  0  0  0  0  0
   -4.0143    1.8779    3.2709 H   0  0  0  0  0  0  0  0  0  0  0  0
   -2.9615    1.0587    2.3313 H   0  0  0  0  0  0  0  0  0  0  0  0
   -4.5167    1.3534    1.7483 H   0  0  0  0  0  0  0  0  0  0  0  0
   -3.1438    3.0479    1.8111 C   0  0  0  0  0  0  0  0  0  0  0  0
   -3.5385    3.4926    0.6891 O   0  0  0  0  0  1  0  0  0  0  0  0
   -2.3007    3.6391    2.5030 O   0  0  0  0  0  0  0  0  0  0  0  0
   -0.0009    2.8982    0.0129 C   0  0  0  0  0  0  0  0  0  0  0  0
    0.9375    3.2067    0.0475 H   0  0  0  0  0  0  0  0  0  0  0  0
   -0.5072    3.1978    0.8080 H   0  0  0  0  0  0  0  0  0  0  0  0
   -0.4656    3.3467   -0.8651 H   0  0  0  0  0  0  0  0  0  0  0  0
    0.0012    1.3978   -0.0011 C   0  0  0  0  0  0  0  0  0  0  0  0
   -1.1985    0.6898    0.0036 C   0  0  0  0  0  0  0  0  0  0  0  0
   -2.0622    1.1876    0.0088 H   0  0  0  0  0  0  0  0  0  0  0  0
   -1.2042   -0.6888    0.0000 C   0  0  0  0  0  0  0  0  0  0  0  0
   -2.0812   -1.1874    0.0015 H   0  0  0  0  0  0  0  0  0  0  0  0
   -0.0042   -1.3897   -0.0033 C   0  0  0  0  0  0  0  0  0  0  0  0
   -0.0104   -2.3880   -0.0081 H   0  0  0  0  0  0  0  0  0  0  0  0
    1.2042   -0.6970   -0.0000 C   0  0  0  0  0  0  0  0  0  0  0  0
    2.0804   -1.2008    0.0028 H   0  0  0  0  0  0  0  0  0  0  0  0
    1.2014    0.6879    0.0008 C   0  0  0  0  0  0  0  0  0  0  0  0
    2.0674    1.1875    0.0017 H   0  0  0  0  0  0  0  0  0  0  0  0
  1  5  1  0
  5  6  1  0
  5  7  2  0
  1  2  1  0
  1  3  1  0
  1  4  1  0
  8 12  1  0
 12 13  2  0
 13 15  1  0
 15 17  2  0
 17 19  1  0
 19 21  2  0
 21 12  1  0
  8  9  1  0
  8 10  1  0
  8 11  1  0
 13 14  1  0
 15 16  1  0
 17 18  1  0
 19 20  1  0
 21 22  1  0
M  CHG  1   6  -1
M  END
>  <PDB_ID>  (1907) 
pdb3swx

>  <RESIDUE_NAME>  (1907) 
ASP   PHE

>  <FRAG_NAME>  (1907) 
ACET   MBZ

>  <FRAG_ATOM_NUM>  (1907) 
fragi: 7  fragj: 15

>  <atom.prop.CHAIN_ID>  (1907) 
A A A A A A A Z Z Z Z Z Z Z Z Z Z Z Z Z Z Z

>  <atom.prop.IS_HEAVY_ATOM>  (1907) 
1 0 0 0 1 1 1 1 0 0 0 1 1 0 1 0 1 0 1 0 1 0

>  <DIFUSE_FUNC_ATOM>  (1907) 
atom 6   atom 7   

>  <FINAL_SINGLE_POINT_ENERGY>  (1907) 
0

>  <NONCOV_INTER_ENERGY_QM>  (1907) 
0

>  <FF_Energy>  (1907) 
-2.02

>  <QM_Energy>  (1907) 
-8.39

>  <source>  (1907) 
ACET_MBZ_02

>  <Index>  (1907) 
5828

$$$$
ACET-pdb4qy7-A-ASP-53:MBZ-pdb4qy7-A-PHE-73
     RDKit          3D

 22 21  0  0  0  0  0  0  0  0999 V2000
   -5.4497    0.3755    2.0641 C   0  0  0  0  0  0  0  0  0  0  0  0
   -4.8798   -0.3435    2.4534 H   0  0  0  0  0  0  0  0  0  0  0  0
   -6.1791   -0.0270    1.5177 H   0  0  0  0  0  0  0  0  0  0  0  0
   -5.9157    0.9095    2.8921 H   0  0  0  0  0  0  0  0  0  0  0  0
   -4.5951    1.2558    1.1758 C   0  0  0  0  0  0  0  0  0  0  0  0
   -4.4742    2.4734    1.4209 O   0  0  0  0  0  1  0  0  0  0  0  0
   -4.0251    0.6965    0.2212 O   0  0  0  0  0  0  0  0  0  0  0  0
   -0.0026    2.9138   -0.0709 C   0  0  0  0  0  0  0  0  0  0  0  0
    0.9069    3.2271    0.1017 H   0  0  0  0  0  0  0  0  0  0  0  0
   -0.6552    3.2405    0.5789 H   0  0  0  0  0  0  0  0  0  0  0  0
   -0.2992    3.2863   -1.0513 H   0  0  0  0  0  0  0  0  0  0  0  0
   -0.0014    1.4054   -0.0260 C   0  0  0  0  0  0  0  0  0  0  0  0
   -1.1915    0.6948   -0.0059 C   0  0  0  0  0  0  0  0  0  0  0  0
   -2.0625    1.1764    0.0036 H   0  0  0  0  0  0  0  0  0  0  0  0
   -1.1900   -0.7040    0.0000 C   0  0  0  0  0  0  0  0  0  0  0  0
   -2.0698   -1.1937   -0.0261 H   0  0  0  0  0  0  0  0  0  0  0  0
    0.0026   -1.3897    0.0429 C   0  0  0  0  0  0  0  0  0  0  0  0
   -0.0023   -2.3923    0.1052 H   0  0  0  0  0  0  0  0  0  0  0  0
    1.1900   -0.7032    0.0000 C   0  0  0  0  0  0  0  0  0  0  0  0
    2.0769   -1.1941   -0.0226 H   0  0  0  0  0  0  0  0  0  0  0  0
    1.1903    0.6966   -0.0109 C   0  0  0  0  0  0  0  0  0  0  0  0
    2.0616    1.1846   -0.0090 H   0  0  0  0  0  0  0  0  0  0  0  0
  1  5  1  0
  5  6  1  0
  5  7  2  0
  1  2  1  0
  1  3  1  0
  1  4  1  0
  8 12  1  0
 12 13  2  0
 13 15  1  0
 15 17  2  0
 17 19  1  0
 19 21  2  0
 21 12  1  0
  8  9  1  0
  8 10  1  0
  8 11  1  0
 13 14  1  0
 15 16  1  0
 17 18  1  0
 19 20  1  0
 21 22  1  0
M  CHG  1   6  -1
M  END
>  <PDB_ID>  (1908) 
pdb4qy7

>  <RESIDUE_NAME>  (1908) 
ASP   PHE

>  <FRAG_NAME>  (1908) 
ACET   MBZ

>  <FRAG_ATOM_NUM>  (1908) 
fragi: 7  fragj: 15

>  <atom.prop.CHAIN_ID>  (1908) 
A A A A A A A Z Z Z Z Z Z Z Z Z Z Z Z Z Z Z

>  <atom.prop.IS_HEAVY_ATOM>  (1908) 
1 0 0 0 1 1 1 1 0 0 0 1 1 0 1 0 1 0 1 0 1 0

>  <DIFUSE_FUNC_ATOM>  (1908) 
atom 6   atom 7   

>  <FINAL_SINGLE_POINT_ENERGY>  (1908) 
0

>  <NONCOV_INTER_ENERGY_QM>  (1908) 
0

>  <FF_Energy>  (1908) 
4.42

>  <QM_Energy>  (1908) 
-7.0

>  <source>  (1908) 
ACET_MBZ_02

>  <Index>  (1908) 
5972

$$$$
ACET-pdb3sz8-C-ASP-269:MBZ-pdb3sz8-C-PHE-17
     RDKit          3D

 22 21  0  0  0  0  0  0  0  0999 V2000
   -4.0888    1.8111    2.1778 C   0  0  0  0  0  0  0  0  0  0  0  0
   -3.3084    1.4717    2.6820 H   0  0  0  0  0  0  0  0  0  0  0  0
   -4.4350    1.1271    1.5532 H   0  0  0  0  0  0  0  0  0  0  0  0
   -4.8766    2.0609    2.8886 H   0  0  0  0  0  0  0  0  0  0  0  0
   -3.6272    3.0320    1.3438 C   0  0  0  0  0  0  0  0  0  0  0  0
   -3.0460    3.9771    1.9420 O   0  0  0  0  0  1  0  0  0  0  0  0
   -3.8325    3.0284    0.0889 O   0  0  0  0  0  0  0  0  0  0  0  0
   -0.0114    2.9018    0.0357 C   0  0  0  0  0  0  0  0  0  0  0  0
    0.8667    3.2139    0.3616 H   0  0  0  0  0  0  0  0  0  0  0  0
   -0.7441    3.1944    0.6285 H   0  0  0  0  0  0  0  0  0  0  0  0
   -0.1785    3.3579   -0.9401 H   0  0  0  0  0  0  0  0  0  0  0  0
    0.0030    1.3953    0.0126 C   0  0  0  0  0  0  0  0  0  0  0  0
   -1.1886    0.6853    0.0024 C   0  0  0  0  0  0  0  0  0  0  0  0
   -2.0573    1.1847   -0.0051 H   0  0  0  0  0  0  0  0  0  0  0  0
   -1.1985   -0.6882    0.0000 C   0  0  0  0  0  0  0  0  0  0  0  0
   -2.0848   -1.1800    0.0102 H   0  0  0  0  0  0  0  0  0  0  0  0
   -0.0183   -1.3876   -0.0144 C   0  0  0  0  0  0  0  0  0  0  0  0
   -0.0183   -2.3859   -0.0355 H   0  0  0  0  0  0  0  0  0  0  0  0
    1.1985   -0.6958    0.0000 C   0  0  0  0  0  0  0  0  0  0  0  0
    2.0703   -1.2059    0.0128 H   0  0  0  0  0  0  0  0  0  0  0  0
    1.2039    0.6911   -0.0005 C   0  0  0  0  0  0  0  0  0  0  0  0
    2.0676    1.1867   -0.0108 H   0  0  0  0  0  0  0  0  0  0  0  0
  1  5  1  0
  5  6  1  0
  5  7  2  0
  1  2  1  0
  1  3  1  0
  1  4  1  0
  8 12  1  0
 12 13  2  0
 13 15  1  0
 15 17  2  0
 17 19  1  0
 19 21  2  0
 21 12  1  0
  8  9  1  0
  8 10  1  0
  8 11  1  0
 13 14  1  0
 15 16  1  0
 17 18  1  0
 19 20  1  0
 21 22  1  0
M  CHG  1   6  -1
M  END
>  <PDB_ID>  (1909) 
pdb3sz8

>  <RESIDUE_NAME>  (1909) 
ASP   PHE

>  <FRAG_NAME>  (1909) 
ACET   MBZ

>  <FRAG_ATOM_NUM>  (1909) 
fragi: 7  fragj: 15

>  <atom.prop.CHAIN_ID>  (1909) 
A A A A A A A Z Z Z Z Z Z Z Z Z Z Z Z Z Z Z

>  <atom.prop.IS_HEAVY_ATOM>  (1909) 
1 0 0 0 1 1 1 1 0 0 0 1 1 0 1 0 1 0 1 0 1 0

>  <DIFUSE_FUNC_ATOM>  (1909) 
atom 6   atom 7   

>  <FINAL_SINGLE_POINT_ENERGY>  (1909) 
0

>  <NONCOV_INTER_ENERGY_QM>  (1909) 
0

>  <FF_Energy>  (1909) 
-2.77

>  <QM_Energy>  (1909) 
-8.28

>  <source>  (1909) 
ACET_MBZ_02

>  <Index>  (1909) 
6044

$$$$
ACET-pdb4r0m-B-GLU-306:MBZ-pdb4r0m-B-PHE-276
     RDKit          3D

 22 21  0  0  0  0  0  0  0  0999 V2000
    5.7477    3.0237    1.4458 C   0  0  0  0  0  0  0  0  0  0  0  0
    5.4980    2.3085    2.0751 H   0  0  0  0  0  0  0  0  0  0  0  0
    5.8100    3.9006    1.8904 H   0  0  0  0  0  0  0  0  0  0  0  0
    6.7249    2.7826    1.0276 H   0  0  0  0  0  0  0  0  0  0  0  0
    4.6497    3.1179    0.4005 C   0  0  0  0  0  0  0  0  0  0  0  0
    3.4729    3.2677    0.7895 O   0  0  0  0  0  1  0  0  0  0  0  0
    4.9497    3.0402   -0.8090 O   0  0  0  0  0  0  0  0  0  0  0  0
    0.0034    2.9068    0.0005 C   0  0  0  0  0  0  0  0  0  0  0  0
   -0.7420    3.2142   -0.5719 H   0  0  0  0  0  0  0  0  0  0  0  0
    0.8764    3.2117   -0.3516 H   0  0  0  0  0  0  0  0  0  0  0  0
   -0.1299    3.3568    0.9843 H   0  0  0  0  0  0  0  0  0  0  0  0
    0.0006    1.4012    0.0045 C   0  0  0  0  0  0  0  0  0  0  0  0
   -1.1964    0.6870   -0.0065 C   0  0  0  0  0  0  0  0  0  0  0  0
   -2.0631    1.1794   -0.0204 H   0  0  0  0  0  0  0  0  0  0  0  0
   -1.1985   -0.6985   -0.0000 C   0  0  0  0  0  0  0  0  0  0  0  0
   -2.0748   -1.1949    0.0059 H   0  0  0  0  0  0  0  0  0  0  0  0
    0.0009   -1.3898    0.0003 C   0  0  0  0  0  0  0  0  0  0  0  0
    0.0000   -2.3897   -0.0004 H   0  0  0  0  0  0  0  0  0  0  0  0
    1.1985   -0.6927    0.0000 C   0  0  0  0  0  0  0  0  0  0  0  0
    2.0811   -1.1917   -0.0001 H   0  0  0  0  0  0  0  0  0  0  0  0
    1.1949    0.6928    0.0016 C   0  0  0  0  0  0  0  0  0  0  0  0
    2.0636    1.1905    0.0004 H   0  0  0  0  0  0  0  0  0  0  0  0
  1  5  1  0
  5  6  1  0
  5  7  2  0
  1  2  1  0
  1  3  1  0
  1  4  1  0
  8 12  1  0
 12 13  2  0
 13 15  1  0
 15 17  2  0
 17 19  1  0
 19 21  2  0
 21 12  1  0
  8  9  1  0
  8 10  1  0
  8 11  1  0
 13 14  1  0
 15 16  1  0
 17 18  1  0
 19 20  1  0
 21 22  1  0
M  CHG  1   6  -1
M  END
>  <PDB_ID>  (1910) 
pdb4r0m

>  <RESIDUE_NAME>  (1910) 
GLU   PHE

>  <FRAG_NAME>  (1910) 
ACET   MBZ

>  <FRAG_ATOM_NUM>  (1910) 
fragi: 7  fragj: 15

>  <atom.prop.CHAIN_ID>  (1910) 
A A A A A A A Z Z Z Z Z Z Z Z Z Z Z Z Z Z Z

>  <atom.prop.IS_HEAVY_ATOM>  (1910) 
1 0 0 0 1 1 1 1 0 0 0 1 1 0 1 0 1 0 1 0 1 0

>  <DIFUSE_FUNC_ATOM>  (1910) 
atom 6   atom 7   

>  <FINAL_SINGLE_POINT_ENERGY>  (1910) 
0

>  <NONCOV_INTER_ENERGY_QM>  (1910) 
0

>  <FF_Energy>  (1910) 
-2.37

>  <QM_Energy>  (1910) 
-7.42

>  <source>  (1910) 
ACET_MBZ_02

>  <Index>  (1910) 
6084

$$$$
ACET-pdb3t0p-A-ASP-278:MBZ-pdb3t0p-A-PHE-298
     RDKit          3D

 22 21  0  0  0  0  0  0  0  0999 V2000
    4.5547   -2.6684    1.4356 C   0  0  0  0  0  0  0  0  0  0  0  0
    3.6622   -3.0350    1.1532 H   0  0  0  0  0  0  0  0  0  0  0  0
    4.7118   -2.9135    2.3968 H   0  0  0  0  0  0  0  0  0  0  0  0
    5.3154   -3.1772    0.8436 H   0  0  0  0  0  0  0  0  0  0  0  0
    4.5233   -1.1571    1.3139 C   0  0  0  0  0  0  0  0  0  0  0  0
    5.6055   -0.5484    1.1085 O   0  0  0  0  0  1  0  0  0  0  0  0
    3.4286   -0.5738    1.4803 O   0  0  0  0  0  0  0  0  0  0  0  0
   -0.0059    2.9032   -0.0252 C   0  0  0  0  0  0  0  0  0  0  0  0
   -0.8263    3.2003   -0.4925 H   0  0  0  0  0  0  0  0  0  0  0  0
    0.8062    3.2099   -0.5003 H   0  0  0  0  0  0  0  0  0  0  0  0
   -0.0034    3.3685    0.9605 H   0  0  0  0  0  0  0  0  0  0  0  0
    0.0025    1.3948   -0.0075 C   0  0  0  0  0  0  0  0  0  0  0  0
   -1.1990    0.6926   -0.0086 C   0  0  0  0  0  0  0  0  0  0  0  0
   -2.0628    1.1958   -0.0171 H   0  0  0  0  0  0  0  0  0  0  0  0
   -1.2192   -0.6901   -0.0000 C   0  0  0  0  0  0  0  0  0  0  0  0
   -2.0890   -1.1844   -0.0112 H   0  0  0  0  0  0  0  0  0  0  0  0
   -0.0074   -1.3901    0.0250 C   0  0  0  0  0  0  0  0  0  0  0  0
   -0.0140   -2.3891    0.0614 H   0  0  0  0  0  0  0  0  0  0  0  0
    1.2192   -0.7011   -0.0000 C   0  0  0  0  0  0  0  0  0  0  0  0
    2.0847   -1.2019   -0.0095 H   0  0  0  0  0  0  0  0  0  0  0  0
    1.2039    0.6940   -0.0090 C   0  0  0  0  0  0  0  0  0  0  0  0
    2.0690    1.1944   -0.0182 H   0  0  0  0  0  0  0  0  0  0  0  0
  1  5  1  0
  5  6  1  0
  5  7  2  0
  1  2  1  0
  1  3  1  0
  1  4  1  0
  8 12  1  0
 12 13  2  0
 13 15  1  0
 15 17  2  0
 17 19  1  0
 19 21  2  0
 21 12  1  0
  8  9  1  0
  8 10  1  0
  8 11  1  0
 13 14  1  0
 15 16  1  0
 17 18  1  0
 19 20  1  0
 21 22  1  0
M  CHG  1   6  -1
M  END
>  <PDB_ID>  (1911) 
pdb3t0p

>  <RESIDUE_NAME>  (1911) 
ASP   PHE

>  <FRAG_NAME>  (1911) 
ACET   MBZ

>  <FRAG_ATOM_NUM>  (1911) 
fragi: 7  fragj: 15

>  <atom.prop.CHAIN_ID>  (1911) 
A A A A A A A Z Z Z Z Z Z Z Z Z Z Z Z Z Z Z

>  <atom.prop.IS_HEAVY_ATOM>  (1911) 
1 0 0 0 1 1 1 1 0 0 0 1 1 0 1 0 1 0 1 0 1 0

>  <DIFUSE_FUNC_ATOM>  (1911) 
atom 6   atom 7   

>  <FINAL_SINGLE_POINT_ENERGY>  (1911) 
0

>  <NONCOV_INTER_ENERGY_QM>  (1911) 
0

>  <FF_Energy>  (1911) 
6.52

>  <QM_Energy>  (1911) 
-2.44

>  <source>  (1911) 
ACET_MBZ_02

>  <Index>  (1911) 
6134

$$$$
ACET-pdb4r1d-B-GLU-194:MBZ-pdb4r1d-B-PHE-179
     RDKit          3D

 22 21  0  0  0  0  0  0  0  0999 V2000
   -2.9449   -0.0768   -3.3207 C   0  0  0  0  0  0  0  0  0  0  0  0
   -3.4883    0.0293   -4.1341 H   0  0  0  0  0  0  0  0  0  0  0  0
   -3.3313   -0.7356   -2.7009 H   0  0  0  0  0  0  0  0  0  0  0  0
   -1.9490   -0.4122   -3.6102 H   0  0  0  0  0  0  0  0  0  0  0  0
   -2.9333    1.2664   -2.6047 C   0  0  0  0  0  0  0  0  0  0  0  0
   -2.0557    2.1006   -2.9191 O   0  0  0  0  0  1  0  0  0  0  0  0
   -3.8004    1.4711   -1.7246 O   0  0  0  0  0  0  0  0  0  0  0  0
    0.0045    2.8994   -0.0108 C   0  0  0  0  0  0  0  0  0  0  0  0
   -0.7806    3.2031   -0.5320 H   0  0  0  0  0  0  0  0  0  0  0  0
    0.8490    3.1985   -0.4305 H   0  0  0  0  0  0  0  0  0  0  0  0
   -0.0557    3.3555    0.9774 H   0  0  0  0  0  0  0  0  0  0  0  0
    0.0002    1.3944    0.0025 C   0  0  0  0  0  0  0  0  0  0  0  0
   -1.1940    0.6879   -0.0012 C   0  0  0  0  0  0  0  0  0  0  0  0
   -2.0612    1.1748   -0.0059 H   0  0  0  0  0  0  0  0  0  0  0  0
   -1.1912   -0.7015    0.0000 C   0  0  0  0  0  0  0  0  0  0  0  0
   -2.0678   -1.1971   -0.0007 H   0  0  0  0  0  0  0  0  0  0  0  0
    0.0060   -1.3837    0.0040 C   0  0  0  0  0  0  0  0  0  0  0  0
    0.0070   -2.3871    0.0087 H   0  0  0  0  0  0  0  0  0  0  0  0
    1.1912   -0.6874    0.0000 C   0  0  0  0  0  0  0  0  0  0  0  0
    2.0798   -1.1865    0.0028 H   0  0  0  0  0  0  0  0  0  0  0  0
    1.1879    0.6902   -0.0053 C   0  0  0  0  0  0  0  0  0  0  0  0
    2.0587    1.1890   -0.0160 H   0  0  0  0  0  0  0  0  0  0  0  0
  1  5  1  0
  5  6  1  0
  5  7  2  0
  1  2  1  0
  1  3  1  0
  1  4  1  0
  8 12  1  0
 12 13  2  0
 13 15  1  0
 15 17  2  0
 17 19  1  0
 19 21  2  0
 21 12  1  0
  8  9  1  0
  8 10  1  0
  8 11  1  0
 13 14  1  0
 15 16  1  0
 17 18  1  0
 19 20  1  0
 21 22  1  0
M  CHG  1   6  -1
M  END
>  <PDB_ID>  (1912) 
pdb4r1d

>  <RESIDUE_NAME>  (1912) 
GLU   PHE

>  <FRAG_NAME>  (1912) 
ACET   MBZ

>  <FRAG_ATOM_NUM>  (1912) 
fragi: 7  fragj: 15

>  <atom.prop.CHAIN_ID>  (1912) 
A A A A A A A Z Z Z Z Z Z Z Z Z Z Z Z Z Z Z

>  <atom.prop.IS_HEAVY_ATOM>  (1912) 
1 0 0 0 1 1 1 1 0 0 0 1 1 0 1 0 1 0 1 0 1 0

>  <DIFUSE_FUNC_ATOM>  (1912) 
atom 6   atom 7   

>  <FINAL_SINGLE_POINT_ENERGY>  (1912) 
0

>  <NONCOV_INTER_ENERGY_QM>  (1912) 
0

>  <FF_Energy>  (1912) 
-0.44

>  <QM_Energy>  (1912) 
-7.24

>  <source>  (1912) 
ACET_MBZ_02

>  <Index>  (1912) 
6137

$$$$
ACET-pdb3t24-B-GLU-33:MBZ-pdb3t24-B-PHE-15
     RDKit          3D

 22 21  0  0  0  0  0  0  0  0999 V2000
    5.5756   -0.3322    1.2059 C   0  0  0  0  0  0  0  0  0  0  0  0
    4.8720    0.3457    1.3068 H   0  0  0  0  0  0  0  0  0  0  0  0
    6.4752    0.0605    1.1814 H   0  0  0  0  0  0  0  0  0  0  0  0
    5.5211   -1.0093    2.0583 H   0  0  0  0  0  0  0  0  0  0  0  0
    5.3467   -1.0438   -0.1063 C   0  0  0  0  0  0  0  0  0  0  0  0
    4.1807   -1.1715   -0.5227 O   0  0  0  0  0  1  0  0  0  0  0  0
    6.3356   -1.4857   -0.7213 O   0  0  0  0  0  0  0  0  0  0  0  0
   -0.0004    2.9047   -0.0083 C   0  0  0  0  0  0  0  0  0  0  0  0
   -0.6670    3.2081   -0.6739 H   0  0  0  0  0  0  0  0  0  0  0  0
    0.9096    3.2108   -0.2485 H   0  0  0  0  0  0  0  0  0  0  0  0
   -0.2594    3.3571    0.9490 H   0  0  0  0  0  0  0  0  0  0  0  0
   -0.0009    1.4024    0.0021 C   0  0  0  0  0  0  0  0  0  0  0  0
   -1.1956    0.6938   -0.0002 C   0  0  0  0  0  0  0  0  0  0  0  0
   -2.0639    1.1825   -0.0030 H   0  0  0  0  0  0  0  0  0  0  0  0
   -1.2017   -0.6997   -0.0000 C   0  0  0  0  0  0  0  0  0  0  0  0
   -2.0776   -1.1918   -0.0003 H   0  0  0  0  0  0  0  0  0  0  0  0
    0.0011   -1.3932    0.0023 C   0  0  0  0  0  0  0  0  0  0  0  0
   -0.0009   -2.3930    0.0052 H   0  0  0  0  0  0  0  0  0  0  0  0
    1.2017   -0.6959   -0.0000 C   0  0  0  0  0  0  0  0  0  0  0  0
    2.0833   -1.1935    0.0030 H   0  0  0  0  0  0  0  0  0  0  0  0
    1.1954    0.6926   -0.0042 C   0  0  0  0  0  0  0  0  0  0  0  0
    2.0642    1.1913   -0.0127 H   0  0  0  0  0  0  0  0  0  0  0  0
  1  5  1  0
  5  6  1  0
  5  7  2  0
  1  2  1  0
  1  3  1  0
  1  4  1  0
  8 12  1  0
 12 13  2  0
 13 15  1  0
 15 17  2  0
 17 19  1  0
 19 21  2  0
 21 12  1  0
  8  9  1  0
  8 10  1  0
  8 11  1  0
 13 14  1  0
 15 16  1  0
 17 18  1  0
 19 20  1  0
 21 22  1  0
M  CHG  1   6  -1
M  END
>  <PDB_ID>  (1913) 
pdb3t24

>  <RESIDUE_NAME>  (1913) 
GLU   PHE

>  <FRAG_NAME>  (1913) 
ACET   MBZ

>  <FRAG_ATOM_NUM>  (1913) 
fragi: 7  fragj: 15

>  <atom.prop.CHAIN_ID>  (1913) 
A A A A A A A Z Z Z Z Z Z Z Z Z Z Z Z Z Z Z

>  <atom.prop.IS_HEAVY_ATOM>  (1913) 
1 0 0 0 1 1 1 1 0 0 0 1 1 0 1 0 1 0 1 0 1 0

>  <DIFUSE_FUNC_ATOM>  (1913) 
atom 6   atom 7   

>  <FINAL_SINGLE_POINT_ENERGY>  (1913) 
0

>  <NONCOV_INTER_ENERGY_QM>  (1913) 
0

>  <FF_Energy>  (1913) 
-0.21

>  <QM_Energy>  (1913) 
-6.16

>  <source>  (1913) 
ACET_MBZ_02

>  <Index>  (1913) 
6163

$$$$
ACET-pdb3t24-C-ASP-146:MBZ-pdb3t24-C-PHE-187
     RDKit          3D

 22 21  0  0  0  0  0  0  0  0999 V2000
   -5.9065   -0.6348   -0.0966 C   0  0  0  0  0  0  0  0  0  0  0  0
   -5.2079   -1.3248   -0.2363 H   0  0  0  0  0  0  0  0  0  0  0  0
   -6.6913   -0.8077   -0.6771 H   0  0  0  0  0  0  0  0  0  0  0  0
   -6.2326   -0.6854    0.9423 H   0  0  0  0  0  0  0  0  0  0  0  0
   -5.3274    0.7222   -0.4519 C   0  0  0  0  0  0  0  0  0  0  0  0
   -4.1246    0.9525   -0.1744 O   0  0  0  0  0  1  0  0  0  0  0  0
   -6.0786    1.5645   -0.9937 O   0  0  0  0  0  0  0  0  0  0  0  0
   -0.0000    2.8970    0.0058 C   0  0  0  0  0  0  0  0  0  0  0  0
   -0.8298    3.2081   -0.4314 H   0  0  0  0  0  0  0  0  0  0  0  0
    0.8025    3.2067   -0.4814 H   0  0  0  0  0  0  0  0  0  0  0  0
    0.0309    3.3323    1.0047 H   0  0  0  0  0  0  0  0  0  0  0  0
   -0.0011    1.3973   -0.0006 C   0  0  0  0  0  0  0  0  0  0  0  0
   -1.1922    0.6946    0.0045 C   0  0  0  0  0  0  0  0  0  0  0  0
   -2.0605    1.1856    0.0101 H   0  0  0  0  0  0  0  0  0  0  0  0
   -1.1984   -0.6927   -0.0000 C   0  0  0  0  0  0  0  0  0  0  0  0
   -2.0747   -1.1874   -0.0016 H   0  0  0  0  0  0  0  0  0  0  0  0
    0.0032   -1.3905    0.0005 C   0  0  0  0  0  0  0  0  0  0  0  0
   -0.0054   -2.3903    0.0010 H   0  0  0  0  0  0  0  0  0  0  0  0
    1.1984   -0.6983   -0.0000 C   0  0  0  0  0  0  0  0  0  0  0  0
    2.0820   -1.1936    0.0040 H   0  0  0  0  0  0  0  0  0  0  0  0
    1.1901    0.6896   -0.0044 C   0  0  0  0  0  0  0  0  0  0  0  0
    2.0612    1.1874   -0.0108 H   0  0  0  0  0  0  0  0  0  0  0  0
  1  5  1  0
  5  6  1  0
  5  7  2  0
  1  2  1  0
  1  3  1  0
  1  4  1  0
  8 12  1  0
 12 13  2  0
 13 15  1  0
 15 17  2  0
 17 19  1  0
 19 21  2  0
 21 12  1  0
  8  9  1  0
  8 10  1  0
  8 11  1  0
 13 14  1  0
 15 16  1  0
 17 18  1  0
 19 20  1  0
 21 22  1  0
M  CHG  1   6  -1
M  END
>  <PDB_ID>  (1914) 
pdb3t24

>  <RESIDUE_NAME>  (1914) 
ASP   PHE

>  <FRAG_NAME>  (1914) 
ACET   MBZ

>  <FRAG_ATOM_NUM>  (1914) 
fragi: 7  fragj: 15

>  <atom.prop.CHAIN_ID>  (1914) 
A A A A A A A Z Z Z Z Z Z Z Z Z Z Z Z Z Z Z

>  <atom.prop.IS_HEAVY_ATOM>  (1914) 
1 0 0 0 1 1 1 1 0 0 0 1 1 0 1 0 1 0 1 0 1 0

>  <DIFUSE_FUNC_ATOM>  (1914) 
atom 6   atom 7   

>  <FINAL_SINGLE_POINT_ENERGY>  (1914) 
0

>  <NONCOV_INTER_ENERGY_QM>  (1914) 
0

>  <FF_Energy>  (1914) 
2.0

>  <QM_Energy>  (1914) 
-6.82

>  <source>  (1914) 
ACET_MBZ_02

>  <Index>  (1914) 
6171

$$$$
ACET-pdb3t38-B-ASP-148:MBZ-pdb3t38-A-PHE-39
     RDKit          3D

 22 21  0  0  0  0  0  0  0  0999 V2000
    1.9656    5.4747   -2.3156 C   0  0  0  0  0  0  0  0  0  0  0  0
    2.2933    5.6472   -1.3928 H   0  0  0  0  0  0  0  0  0  0  0  0
    1.0238    5.7760   -2.4116 H   0  0  0  0  0  0  0  0  0  0  0  0
    2.5735    6.0684   -2.9983 H   0  0  0  0  0  0  0  0  0  0  0  0
    2.0578    4.0236   -2.6135 C   0  0  0  0  0  0  0  0  0  0  0  0
    3.1406    3.4442   -2.3511 O   0  0  0  0  0  1  0  0  0  0  0  0
    1.0713    3.4554   -3.1224 O   0  0  0  0  0  0  0  0  0  0  0  0
   -0.0353    2.9363   -0.0139 C   0  0  0  0  0  0  0  0  0  0  0  0
   -0.8663    3.2060   -0.4737 H   0  0  0  0  0  0  0  0  0  0  0  0
    0.7660    3.2389   -0.5032 H   0  0  0  0  0  0  0  0  0  0  0  0
   -0.0258    3.3815    0.9810 H   0  0  0  0  0  0  0  0  0  0  0  0
   -0.0045    1.4118    0.0031 C   0  0  0  0  0  0  0  0  0  0  0  0
   -1.2021    0.6796   -0.0156 C   0  0  0  0  0  0  0  0  0  0  0  0
   -2.0721    1.1746   -0.0425 H   0  0  0  0  0  0  0  0  0  0  0  0
   -1.2136   -0.7088   -0.0000 C   0  0  0  0  0  0  0  0  0  0  0  0
   -2.0837   -1.2051    0.0026 H   0  0  0  0  0  0  0  0  0  0  0  0
    0.0013   -1.4139    0.0138 C   0  0  0  0  0  0  0  0  0  0  0  0
    0.0049   -2.4013    0.0326 H   0  0  0  0  0  0  0  0  0  0  0  0
    1.2136   -0.6944   -0.0000 C   0  0  0  0  0  0  0  0  0  0  0  0
    2.0950   -1.1807   -0.0077 H   0  0  0  0  0  0  0  0  0  0  0  0
    1.2053    0.7257   -0.0013 C   0  0  0  0  0  0  0  0  0  0  0  0
    2.0651    1.2142   -0.0062 H   0  0  0  0  0  0  0  0  0  0  0  0
  1  5  1  0
  5  6  1  0
  5  7  2  0
  1  2  1  0
  1  3  1  0
  1  4  1  0
  8 12  1  0
 12 13  2  0
 13 15  1  0
 15 17  2  0
 17 19  1  0
 19 21  2  0
 21 12  1  0
  8  9  1  0
  8 10  1  0
  8 11  1  0
 13 14  1  0
 15 16  1  0
 17 18  1  0
 19 20  1  0
 21 22  1  0
M  CHG  1   6  -1
M  END
>  <PDB_ID>  (1915) 
pdb3t38

>  <RESIDUE_NAME>  (1915) 
ASP   PHE

>  <FRAG_NAME>  (1915) 
ACET   MBZ

>  <FRAG_ATOM_NUM>  (1915) 
fragi: 7  fragj: 15

>  <atom.prop.CHAIN_ID>  (1915) 
A A A A A A A Z Z Z Z Z Z Z Z Z Z Z Z Z Z Z

>  <atom.prop.IS_HEAVY_ATOM>  (1915) 
1 0 0 0 1 1 1 1 0 0 0 1 1 0 1 0 1 0 1 0 1 0

>  <DIFUSE_FUNC_ATOM>  (1915) 
atom 6   atom 7   

>  <FINAL_SINGLE_POINT_ENERGY>  (1915) 
0

>  <NONCOV_INTER_ENERGY_QM>  (1915) 
0

>  <FF_Energy>  (1915) 
0.09

>  <QM_Energy>  (1915) 
-5.05

>  <source>  (1915) 
ACET_MBZ_02

>  <Index>  (1915) 
6254

$$$$
ACET-pdb4r2h-A-ASP-73:MBZ-pdb4r2h-A-PHE-80
     RDKit          3D

 22 21  0  0  0  0  0  0  0  0999 V2000
    1.0510   -1.6592   -3.4008 C   0  0  0  0  0  0  0  0  0  0  0  0
    1.2850   -2.0962   -2.5430 H   0  0  0  0  0  0  0  0  0  0  0  0
    1.6770   -1.9301   -4.1186 H   0  0  0  0  0  0  0  0  0  0  0  0
    0.0485   -1.9801   -3.6839 H   0  0  0  0  0  0  0  0  0  0  0  0
    1.1541   -0.1407   -3.2146 C   0  0  0  0  0  0  0  0  0  0  0  0
    0.1078    0.5441   -3.1511 O   0  0  0  0  0  1  0  0  0  0  0  0
    2.2869    0.3752   -3.1111 O   0  0  0  0  0  0  0  0  0  0  0  0
   -0.0018    2.8961    0.0112 C   0  0  0  0  0  0  0  0  0  0  0  0
   -0.8054    3.2062   -0.4710 H   0  0  0  0  0  0  0  0  0  0  0  0
    0.8265    3.2059   -0.4281 H   0  0  0  0  0  0  0  0  0  0  0  0
   -0.0284    3.3221    1.0141 H   0  0  0  0  0  0  0  0  0  0  0  0
   -0.0012    1.3949   -0.0010 C   0  0  0  0  0  0  0  0  0  0  0  0
   -1.1936    0.6905    0.0060 C   0  0  0  0  0  0  0  0  0  0  0  0
   -2.0610    1.1839    0.0141 H   0  0  0  0  0  0  0  0  0  0  0  0
   -1.1971   -0.6896    0.0000 C   0  0  0  0  0  0  0  0  0  0  0  0
   -2.0742   -1.1880   -0.0027 H   0  0  0  0  0  0  0  0  0  0  0  0
    0.0006   -1.3836   -0.0007 C   0  0  0  0  0  0  0  0  0  0  0  0
   -0.0092   -2.3872   -0.0024 H   0  0  0  0  0  0  0  0  0  0  0  0
    1.1971   -0.6988   -0.0000 C   0  0  0  0  0  0  0  0  0  0  0  0
    2.0787   -1.1979    0.0048 H   0  0  0  0  0  0  0  0  0  0  0  0
    1.1942    0.6866   -0.0043 C   0  0  0  0  0  0  0  0  0  0  0  0
    2.0623    1.1841   -0.0101 H   0  0  0  0  0  0  0  0  0  0  0  0
  1  5  1  0
  5  6  1  0
  5  7  2  0
  1  2  1  0
  1  3  1  0
  1  4  1  0
  8 12  1  0
 12 13  2  0
 13 15  1  0
 15 17  2  0
 17 19  1  0
 19 21  2  0
 21 12  1  0
  8  9  1  0
  8 10  1  0
  8 11  1  0
 13 14  1  0
 15 16  1  0
 17 18  1  0
 19 20  1  0
 21 22  1  0
M  CHG  1   6  -1
M  END
>  <PDB_ID>  (1916) 
pdb4r2h

>  <RESIDUE_NAME>  (1916) 
ASP   PHE

>  <FRAG_NAME>  (1916) 
ACET   MBZ

>  <FRAG_ATOM_NUM>  (1916) 
fragi: 7  fragj: 15

>  <atom.prop.CHAIN_ID>  (1916) 
A A A A A A A Z Z Z Z Z Z Z Z Z Z Z Z Z Z Z

>  <atom.prop.IS_HEAVY_ATOM>  (1916) 
1 0 0 0 1 1 1 1 0 0 0 1 1 0 1 0 1 0 1 0 1 0

>  <DIFUSE_FUNC_ATOM>  (1916) 
atom 6   atom 7   

>  <FINAL_SINGLE_POINT_ENERGY>  (1916) 
0

>  <NONCOV_INTER_ENERGY_QM>  (1916) 
0

>  <FF_Energy>  (1916) 
4.18

>  <QM_Energy>  (1916) 
-1.88

>  <source>  (1916) 
ACET_MBZ_02

>  <Index>  (1916) 
6257

$$$$
ACET-pdb4qys-B-GLU-214:MBZ-pdb4qys-B-PHE-190
     RDKit          3D

 22 21  0  0  0  0  0  0  0  0999 V2000
    1.9040    6.5004   -3.1919 C   0  0  0  0  0  0  0  0  0  0  0  0
    2.6510    7.0955   -2.9666 H   0  0  0  0  0  0  0  0  0  0  0  0
    1.2456    6.9292   -3.7801 H   0  0  0  0  0  0  0  0  0  0  0  0
    2.3054    5.6262   -3.7045 H   0  0  0  0  0  0  0  0  0  0  0  0
    1.1912    6.1477   -1.8881 C   0  0  0  0  0  0  0  0  0  0  0  0
    1.3226    4.9935   -1.4188 O   0  0  0  0  0  1  0  0  0  0  0  0
    0.4911    7.0232   -1.3334 O   0  0  0  0  0  0  0  0  0  0  0  0
    0.0026    2.8958    0.0085 C   0  0  0  0  0  0  0  0  0  0  0  0
   -0.8066    3.2045   -0.4678 H   0  0  0  0  0  0  0  0  0  0  0  0
    0.8264    3.2011   -0.4449 H   0  0  0  0  0  0  0  0  0  0  0  0
   -0.0105    3.3305    1.0079 H   0  0  0  0  0  0  0  0  0  0  0  0
   -0.0001    1.3913    0.0018 C   0  0  0  0  0  0  0  0  0  0  0  0
   -1.1868    0.6880    0.0054 C   0  0  0  0  0  0  0  0  0  0  0  0
   -2.0570    1.1803    0.0110 H   0  0  0  0  0  0  0  0  0  0  0  0
   -1.1905   -0.6905   -0.0000 C   0  0  0  0  0  0  0  0  0  0  0  0
   -2.0722   -1.1855    0.0001 H   0  0  0  0  0  0  0  0  0  0  0  0
   -0.0037   -1.3800   -0.0041 C   0  0  0  0  0  0  0  0  0  0  0  0
   -0.0063   -2.3832   -0.0109 H   0  0  0  0  0  0  0  0  0  0  0  0
    1.1905   -0.6914   -0.0000 C   0  0  0  0  0  0  0  0  0  0  0  0
    2.0730   -1.1971    0.0074 H   0  0  0  0  0  0  0  0  0  0  0  0
    1.1906    0.6826   -0.0031 C   0  0  0  0  0  0  0  0  0  0  0  0
    2.0602    1.1829   -0.0096 H   0  0  0  0  0  0  0  0  0  0  0  0
  1  5  1  0
  5  6  1  0
  5  7  2  0
  1  2  1  0
  1  3  1  0
  1  4  1  0
  8 12  1  0
 12 13  2  0
 13 15  1  0
 15 17  2  0
 17 19  1  0
 19 21  2  0
 21 12  1  0
  8  9  1  0
  8 10  1  0
  8 11  1  0
 13 14  1  0
 15 16  1  0
 17 18  1  0
 19 20  1  0
 21 22  1  0
M  CHG  1   6  -1
M  END
>  <PDB_ID>  (1917) 
pdb4qys

>  <RESIDUE_NAME>  (1917) 
GLU   PHE

>  <FRAG_NAME>  (1917) 
ACET   MBZ

>  <FRAG_ATOM_NUM>  (1917) 
fragi: 7  fragj: 15

>  <atom.prop.CHAIN_ID>  (1917) 
A A A A A A A Z Z Z Z Z Z Z Z Z Z Z Z Z Z Z

>  <atom.prop.IS_HEAVY_ATOM>  (1917) 
1 0 0 0 1 1 1 1 0 0 0 1 1 0 1 0 1 0 1 0 1 0

>  <DIFUSE_FUNC_ATOM>  (1917) 
atom 6   atom 7   

>  <FINAL_SINGLE_POINT_ENERGY>  (1917) 
0

>  <NONCOV_INTER_ENERGY_QM>  (1917) 
0

>  <FF_Energy>  (1917) 
3.37

>  <QM_Energy>  (1917) 
-4.27

>  <source>  (1917) 
ACET_MBZ_02

>  <Index>  (1917) 
6380

$$$$
ACET-pdb3t58-C-GLU-318:MBZ-pdb3t58-C-PHE-450
     RDKit          3D

 22 21  0  0  0  0  0  0  0  0999 V2000
   -6.2471    2.3868    1.1336 C   0  0  0  0  0  0  0  0  0  0  0  0
   -6.5580    2.0389    1.9964 H   0  0  0  0  0  0  0  0  0  0  0  0
   -6.6724    1.9382    0.3710 H   0  0  0  0  0  0  0  0  0  0  0  0
   -6.4906    3.4482    1.0859 H   0  0  0  0  0  0  0  0  0  0  0  0
   -4.7433    2.1131    1.0449 C   0  0  0  0  0  0  0  0  0  0  0  0
   -4.1381    2.3642   -0.0226 O   0  0  0  0  0  1  0  0  0  0  0  0
   -4.1626    1.6488    2.0484 O   0  0  0  0  0  0  0  0  0  0  0  0
   -0.0112    2.9056   -0.0383 C   0  0  0  0  0  0  0  0  0  0  0  0
   -0.1382    3.1868   -0.9758 H   0  0  0  0  0  0  0  0  0  0  0  0
    0.8479    3.2278    0.3255 H   0  0  0  0  0  0  0  0  0  0  0  0
   -0.8118    3.3477    0.5547 H   0  0  0  0  0  0  0  0  0  0  0  0
    0.0002    1.4043    0.0005 C   0  0  0  0  0  0  0  0  0  0  0  0
   -1.1995    0.6903   -0.0004 C   0  0  0  0  0  0  0  0  0  0  0  0
   -2.0656    1.1812   -0.0026 H   0  0  0  0  0  0  0  0  0  0  0  0
   -1.2059   -0.7028    0.0000 C   0  0  0  0  0  0  0  0  0  0  0  0
   -2.0820   -1.1953    0.0028 H   0  0  0  0  0  0  0  0  0  0  0  0
   -0.0035   -1.3989   -0.0012 C   0  0  0  0  0  0  0  0  0  0  0  0
   -0.0008   -2.3946   -0.0028 H   0  0  0  0  0  0  0  0  0  0  0  0
    1.2059   -0.6941   -0.0000 C   0  0  0  0  0  0  0  0  0  0  0  0
    2.0850   -1.1938    0.0015 H   0  0  0  0  0  0  0  0  0  0  0  0
    1.2027    0.7012    0.0011 C   0  0  0  0  0  0  0  0  0  0  0  0
    2.0675    1.1970    0.0021 H   0  0  0  0  0  0  0  0  0  0  0  0
  1  5  1  0
  5  6  1  0
  5  7  2  0
  1  2  1  0
  1  3  1  0
  1  4  1  0
  8 12  1  0
 12 13  2  0
 13 15  1  0
 15 17  2  0
 17 19  1  0
 19 21  2  0
 21 12  1  0
  8  9  1  0
  8 10  1  0
  8 11  1  0
 13 14  1  0
 15 16  1  0
 17 18  1  0
 19 20  1  0
 21 22  1  0
M  CHG  1   6  -1
M  END
>  <PDB_ID>  (1918) 
pdb3t58

>  <RESIDUE_NAME>  (1918) 
GLU   PHE

>  <FRAG_NAME>  (1918) 
ACET   MBZ

>  <FRAG_ATOM_NUM>  (1918) 
fragi: 7  fragj: 15

>  <atom.prop.CHAIN_ID>  (1918) 
A A A A A A A Z Z Z Z Z Z Z Z Z Z Z Z Z Z Z

>  <atom.prop.IS_HEAVY_ATOM>  (1918) 
1 0 0 0 1 1 1 1 0 0 0 1 1 0 1 0 1 0 1 0 1 0

>  <DIFUSE_FUNC_ATOM>  (1918) 
atom 6   atom 7   

>  <FINAL_SINGLE_POINT_ENERGY>  (1918) 
0

>  <NONCOV_INTER_ENERGY_QM>  (1918) 
0

>  <FF_Energy>  (1918) 
-2.15

>  <QM_Energy>  (1918) 
-7.56

>  <source>  (1918) 
ACET_MBZ_02

>  <Index>  (1918) 
6397

$$$$
ACET-pdb4r77-B-GLU-221:MBZ-pdb4r77-B-PHE-211
     RDKit          3D

 22 21  0  0  0  0  0  0  0  0999 V2000
    1.0373    0.8315    3.5656 C   0  0  0  0  0  0  0  0  0  0  0  0
    0.4332    0.8847    2.7945 H   0  0  0  0  0  0  0  0  0  0  0  0
    0.6473    1.2209    4.3778 H   0  0  0  0  0  0  0  0  0  0  0  0
    1.2638   -0.2175    3.7565 H   0  0  0  0  0  0  0  0  0  0  0  0
    2.2847    1.6591    3.2221 C   0  0  0  0  0  0  0  0  0  0  0  0
    3.4061    1.1510    3.3884 O   0  0  0  0  0  1  0  0  0  0  0  0
    2.1414    2.8127    2.7731 O   0  0  0  0  0  0  0  0  0  0  0  0
    0.0137    2.8956    0.0315 C   0  0  0  0  0  0  0  0  0  0  0  0
    0.6099    3.2145   -0.6925 H   0  0  0  0  0  0  0  0  0  0  0  0
    0.3488    3.1816    0.9187 H   0  0  0  0  0  0  0  0  0  0  0  0
   -0.9631    3.3558   -0.1178 H   0  0  0  0  0  0  0  0  0  0  0  0
   -0.0018    1.3992   -0.0013 C   0  0  0  0  0  0  0  0  0  0  0  0
   -1.2018    0.6880    0.0082 C   0  0  0  0  0  0  0  0  0  0  0  0
   -2.0659    1.1816    0.0199 H   0  0  0  0  0  0  0  0  0  0  0  0
   -1.2025   -0.6950    0.0000 C   0  0  0  0  0  0  0  0  0  0  0  0
   -2.0717   -1.1993    0.0058 H   0  0  0  0  0  0  0  0  0  0  0  0
    0.0118   -1.3924   -0.0145 C   0  0  0  0  0  0  0  0  0  0  0  0
    0.0032   -2.3892   -0.0361 H   0  0  0  0  0  0  0  0  0  0  0  0
    1.2025   -0.6940   -0.0000 C   0  0  0  0  0  0  0  0  0  0  0  0
    2.0889   -1.1861    0.0066 H   0  0  0  0  0  0  0  0  0  0  0  0
    1.1918    0.6942    0.0077 C   0  0  0  0  0  0  0  0  0  0  0  0
    2.0612    1.1936    0.0187 H   0  0  0  0  0  0  0  0  0  0  0  0
  1  5  1  0
  5  6  1  0
  5  7  2  0
  1  2  1  0
  1  3  1  0
  1  4  1  0
  8 12  1  0
 12 13  2  0
 13 15  1  0
 15 17  2  0
 17 19  1  0
 19 21  2  0
 21 12  1  0
  8  9  1  0
  8 10  1  0
  8 11  1  0
 13 14  1  0
 15 16  1  0
 17 18  1  0
 19 20  1  0
 21 22  1  0
M  CHG  1   6  -1
M  END
>  <PDB_ID>  (1919) 
pdb4r77

>  <RESIDUE_NAME>  (1919) 
GLU   PHE

>  <FRAG_NAME>  (1919) 
ACET   MBZ

>  <FRAG_ATOM_NUM>  (1919) 
fragi: 7  fragj: 15

>  <atom.prop.CHAIN_ID>  (1919) 
A A A A A A A Z Z Z Z Z Z Z Z Z Z Z Z Z Z Z

>  <atom.prop.IS_HEAVY_ATOM>  (1919) 
1 0 0 0 1 1 1 1 0 0 0 1 1 0 1 0 1 0 1 0 1 0

>  <DIFUSE_FUNC_ATOM>  (1919) 
atom 6   atom 7   

>  <FINAL_SINGLE_POINT_ENERGY>  (1919) 
0

>  <NONCOV_INTER_ENERGY_QM>  (1919) 
0

>  <FF_Energy>  (1919) 
-1.51

>  <QM_Energy>  (1919) 
-6.63

>  <source>  (1919) 
ACET_MBZ_02

>  <Index>  (1919) 
6416

$$$$
ACET-pdb3t8i-C-GLU-187:MBZ-pdb3t8i-C-PHE-151
     RDKit          3D

 22 21  0  0  0  0  0  0  0  0999 V2000
    4.4327    2.0992   -1.7177 C   0  0  0  0  0  0  0  0  0  0  0  0
    4.5336    2.3550   -0.7752 H   0  0  0  0  0  0  0  0  0  0  0  0
    5.1417    2.4733   -2.2850 H   0  0  0  0  0  0  0  0  0  0  0  0
    4.5135    1.0134   -1.7692 H   0  0  0  0  0  0  0  0  0  0  0  0
    3.1054    2.6192   -2.2118 C   0  0  0  0  0  0  0  0  0  0  0  0
    2.3685    1.8994   -2.9178 O   0  0  0  0  0  1  0  0  0  0  0  0
    2.7719    3.7597   -1.8444 O   0  0  0  0  0  0  0  0  0  0  0  0
   -0.0084    2.9326    0.0039 C   0  0  0  0  0  0  0  0  0  0  0  0
    0.9278    3.2360   -0.0542 H   0  0  0  0  0  0  0  0  0  0  0  0
   -0.4380    3.2298    0.8395 H   0  0  0  0  0  0  0  0  0  0  0  0
   -0.5561    3.3711   -0.8303 H   0  0  0  0  0  0  0  0  0  0  0  0
   -0.0045    1.4139    0.0005 C   0  0  0  0  0  0  0  0  0  0  0  0
   -1.1942    0.7133   -0.0029 C   0  0  0  0  0  0  0  0  0  0  0  0
   -2.0659    1.1797   -0.0086 H   0  0  0  0  0  0  0  0  0  0  0  0
   -1.1902   -0.7117    0.0000 C   0  0  0  0  0  0  0  0  0  0  0  0
   -2.0705   -1.1902   -0.0032 H   0  0  0  0  0  0  0  0  0  0  0  0
    0.0066   -1.3960    0.0086 C   0  0  0  0  0  0  0  0  0  0  0  0
   -0.0051   -2.4056    0.0208 H   0  0  0  0  0  0  0  0  0  0  0  0
    1.1902   -0.7197    0.0000 C   0  0  0  0  0  0  0  0  0  0  0  0
    2.0805   -1.1993   -0.0004 H   0  0  0  0  0  0  0  0  0  0  0  0
    1.1921    0.7002   -0.0062 C   0  0  0  0  0  0  0  0  0  0  0  0
    2.0630    1.1794   -0.0165 H   0  0  0  0  0  0  0  0  0  0  0  0
  1  5  1  0
  5  6  1  0
  5  7  2  0
  1  2  1  0
  1  3  1  0
  1  4  1  0
  8 12  1  0
 12 13  2  0
 13 15  1  0
 15 17  2  0
 17 19  1  0
 19 21  2  0
 21 12  1  0
  8  9  1  0
  8 10  1  0
  8 11  1  0
 13 14  1  0
 15 16  1  0
 17 18  1  0
 19 20  1  0
 21 22  1  0
M  CHG  1   6  -1
M  END
>  <PDB_ID>  (1920) 
pdb3t8i

>  <RESIDUE_NAME>  (1920) 
GLU   PHE

>  <FRAG_NAME>  (1920) 
ACET   MBZ

>  <FRAG_ATOM_NUM>  (1920) 
fragi: 7  fragj: 15

>  <atom.prop.CHAIN_ID>  (1920) 
A A A A A A A Z Z Z Z Z Z Z Z Z Z Z Z Z Z Z

>  <atom.prop.IS_HEAVY_ATOM>  (1920) 
1 0 0 0 1 1 1 1 0 0 0 1 1 0 1 0 1 0 1 0 1 0

>  <DIFUSE_FUNC_ATOM>  (1920) 
atom 6   atom 7   

>  <FINAL_SINGLE_POINT_ENERGY>  (1920) 
0

>  <NONCOV_INTER_ENERGY_QM>  (1920) 
0

>  <FF_Energy>  (1920) 
-0.26

>  <QM_Energy>  (1920) 
-5.32

>  <source>  (1920) 
ACET_MBZ_02

>  <Index>  (1920) 
6597

$$$$
ACET-pdb3tbf-B-GLU-484:MBZ-pdb3tbf-B-PHE-407
     RDKit          3D

 22 21  0  0  0  0  0  0  0  0999 V2000
   -0.8020   -1.0826   -3.1011 C   0  0  0  0  0  0  0  0  0  0  0  0
   -1.6760   -1.5261   -2.9154 H   0  0  0  0  0  0  0  0  0  0  0  0
   -0.3014   -0.9506   -2.2485 H   0  0  0  0  0  0  0  0  0  0  0  0
   -0.2155   -1.7240   -3.7587 H   0  0  0  0  0  0  0  0  0  0  0  0
   -1.1268    0.3153   -3.6376 C   0  0  0  0  0  0  0  0  0  0  0  0
   -2.2766    0.5185   -4.0272 O   0  0  0  0  0  1  0  0  0  0  0  0
   -0.2877    1.2219   -3.6449 O   0  0  0  0  0  0  0  0  0  0  0  0
    0.0007    2.9243    0.0776 C   0  0  0  0  0  0  0  0  0  0  0  0
   -0.6980    3.2401   -0.5405 H   0  0  0  0  0  0  0  0  0  0  0  0
    0.8986    3.2206   -0.1969 H   0  0  0  0  0  0  0  0  0  0  0  0
   -0.2080    3.3222    1.0706 H   0  0  0  0  0  0  0  0  0  0  0  0
   -0.0048    1.3870    0.0170 C   0  0  0  0  0  0  0  0  0  0  0  0
   -1.1808    0.6905    0.0265 C   0  0  0  0  0  0  0  0  0  0  0  0
   -2.0565    1.1791    0.0521 H   0  0  0  0  0  0  0  0  0  0  0  0
   -1.1973   -0.6967    0.0000 C   0  0  0  0  0  0  0  0  0  0  0  0
   -2.0682   -1.1890   -0.0020 H   0  0  0  0  0  0  0  0  0  0  0  0
    0.0102   -1.3842   -0.0218 C   0  0  0  0  0  0  0  0  0  0  0  0
    0.0094   -2.3829   -0.0533 H   0  0  0  0  0  0  0  0  0  0  0  0
    1.1973   -0.6820    0.0000 C   0  0  0  0  0  0  0  0  0  0  0  0
    2.0832   -1.1773    0.0336 H   0  0  0  0  0  0  0  0  0  0  0  0
    1.1754    0.6855   -0.0217 C   0  0  0  0  0  0  0  0  0  0  0  0
    2.0489    1.1946   -0.0684 H   0  0  0  0  0  0  0  0  0  0  0  0
  1  5  1  0
  5  6  1  0
  5  7  2  0
  1  2  1  0
  1  3  1  0
  1  4  1  0
  8 12  1  0
 12 13  2  0
 13 15  1  0
 15 17  2  0
 17 19  1  0
 19 21  2  0
 21 12  1  0
  8  9  1  0
  8 10  1  0
  8 11  1  0
 13 14  1  0
 15 16  1  0
 17 18  1  0
 19 20  1  0
 21 22  1  0
M  CHG  1   6  -1
M  END
>  <PDB_ID>  (1921) 
pdb3tbf

>  <RESIDUE_NAME>  (1921) 
GLU   PHE

>  <FRAG_NAME>  (1921) 
ACET   MBZ

>  <FRAG_ATOM_NUM>  (1921) 
fragi: 7  fragj: 15

>  <atom.prop.CHAIN_ID>  (1921) 
A A A A A A A Z Z Z Z Z Z Z Z Z Z Z Z Z Z Z

>  <atom.prop.IS_HEAVY_ATOM>  (1921) 
1 0 0 0 1 1 1 1 0 0 0 1 1 0 1 0 1 0 1 0 1 0

>  <DIFUSE_FUNC_ATOM>  (1921) 
atom 6   atom 7   

>  <FINAL_SINGLE_POINT_ENERGY>  (1921) 
0

>  <NONCOV_INTER_ENERGY_QM>  (1921) 
0

>  <FF_Energy>  (1921) 
6.83

>  <QM_Energy>  (1921) 
1.13

>  <source>  (1921) 
ACET_MBZ_02

>  <Index>  (1921) 
6743

$$$$
ACET-pdb3tbg-C-GLU-406:MBZ-pdb3tbg-B-PHE-413
     RDKit          3D

 22 21  0  0  0  0  0  0  0  0999 V2000
   -5.3862    4.2699   -0.1442 C   0  0  0  0  0  0  0  0  0  0  0  0
   -5.8674    3.9797    0.6609 H   0  0  0  0  0  0  0  0  0  0  0  0
   -5.7364    3.8496   -0.9606 H   0  0  0  0  0  0  0  0  0  0  0  0
   -5.4893    5.3509   -0.2379 H   0  0  0  0  0  0  0  0  0  0  0  0
   -3.9334    3.8223    0.0089 C   0  0  0  0  0  0  0  0  0  0  0  0
   -3.1739    3.9022   -0.9815 O   0  0  0  0  0  1  0  0  0  0  0  0
   -3.5523    3.3963    1.1206 O   0  0  0  0  0  0  0  0  0  0  0  0
    0.0024    2.8988    0.0612 C   0  0  0  0  0  0  0  0  0  0  0  0
   -0.8244    3.2260   -0.3705 H   0  0  0  0  0  0  0  0  0  0  0  0
    0.8095    3.2254   -0.4068 H   0  0  0  0  0  0  0  0  0  0  0  0
    0.0254    3.2923    1.0774 H   0  0  0  0  0  0  0  0  0  0  0  0
    0.0001    1.4031    0.0010 C   0  0  0  0  0  0  0  0  0  0  0  0
   -1.1984    0.6951   -0.0006 C   0  0  0  0  0  0  0  0  0  0  0  0
   -2.0647    1.1868   -0.0037 H   0  0  0  0  0  0  0  0  0  0  0  0
   -1.2054   -0.6972   -0.0000 C   0  0  0  0  0  0  0  0  0  0  0  0
   -2.0799   -1.1908    0.0008 H   0  0  0  0  0  0  0  0  0  0  0  0
    0.0011   -1.3976    0.0014 C   0  0  0  0  0  0  0  0  0  0  0  0
   -0.0038   -2.3943    0.0030 H   0  0  0  0  0  0  0  0  0  0  0  0
    1.2054   -0.6988    0.0000 C   0  0  0  0  0  0  0  0  0  0  0  0
    2.0848   -1.1945    0.0021 H   0  0  0  0  0  0  0  0  0  0  0  0
    1.1972    0.6953   -0.0018 C   0  0  0  0  0  0  0  0  0  0  0  0
    2.0655    1.1916   -0.0064 H   0  0  0  0  0  0  0  0  0  0  0  0
  1  5  1  0
  5  6  1  0
  5  7  2  0
  1  2  1  0
  1  3  1  0
  1  4  1  0
  8 12  1  0
 12 13  2  0
 13 15  1  0
 15 17  2  0
 17 19  1  0
 19 21  2  0
 21 12  1  0
  8  9  1  0
  8 10  1  0
  8 11  1  0
 13 14  1  0
 15 16  1  0
 17 18  1  0
 19 20  1  0
 21 22  1  0
M  CHG  1   6  -1
M  END
>  <PDB_ID>  (1922) 
pdb3tbg

>  <RESIDUE_NAME>  (1922) 
GLU   PHE

>  <FRAG_NAME>  (1922) 
ACET   MBZ

>  <FRAG_ATOM_NUM>  (1922) 
fragi: 7  fragj: 15

>  <atom.prop.CHAIN_ID>  (1922) 
A A A A A A A Z Z Z Z Z Z Z Z Z Z Z Z Z Z Z

>  <atom.prop.IS_HEAVY_ATOM>  (1922) 
1 0 0 0 1 1 1 1 0 0 0 1 1 0 1 0 1 0 1 0 1 0

>  <DIFUSE_FUNC_ATOM>  (1922) 
atom 6   atom 7   

>  <FINAL_SINGLE_POINT_ENERGY>  (1922) 
0

>  <NONCOV_INTER_ENERGY_QM>  (1922) 
0

>  <FF_Energy>  (1922) 
-2.44

>  <QM_Energy>  (1922) 
-8.77

>  <source>  (1922) 
ACET_MBZ_02

>  <Index>  (1922) 
6751

$$$$
ACET-pdb4rc1-A-ASP-52:MBZ-pdb4rc1-B-PHE-161
     RDKit          3D

 22 21  0  0  0  0  0  0  0  0999 V2000
   -0.6396    5.4127    2.6823 C   0  0  0  0  0  0  0  0  0  0  0  0
   -1.5536    5.4626    2.2953 H   0  0  0  0  0  0  0  0  0  0  0  0
    0.0349    5.7104    2.0158 H   0  0  0  0  0  0  0  0  0  0  0  0
   -0.5986    6.0994    3.5278 H   0  0  0  0  0  0  0  0  0  0  0  0
   -0.3482    3.9766    3.0692 C   0  0  0  0  0  0  0  0  0  0  0  0
    0.8517    3.6515    3.2881 O   0  0  0  0  0  1  0  0  0  0  0  0
   -1.3016    3.1751    3.1299 O   0  0  0  0  0  0  0  0  0  0  0  0
    0.0052    2.9041   -0.0362 C   0  0  0  0  0  0  0  0  0  0  0  0
    0.8468    3.2193    0.3608 H   0  0  0  0  0  0  0  0  0  0  0  0
   -0.7834    3.2281    0.4532 H   0  0  0  0  0  0  0  0  0  0  0  0
   -0.0503    3.2922   -1.0532 H   0  0  0  0  0  0  0  0  0  0  0  0
    0.0001    1.3989    0.0101 C   0  0  0  0  0  0  0  0  0  0  0  0
   -1.1889    0.6943   -0.0239 C   0  0  0  0  0  0  0  0  0  0  0  0
   -2.0567    1.1808   -0.0670 H   0  0  0  0  0  0  0  0  0  0  0  0
   -1.1879   -0.6909    0.0000 C   0  0  0  0  0  0  0  0  0  0  0  0
   -2.0708   -1.1843    0.0066 H   0  0  0  0  0  0  0  0  0  0  0  0
   -0.0000   -1.3807    0.0166 C   0  0  0  0  0  0  0  0  0  0  0  0
   -0.0119   -2.3878    0.0406 H   0  0  0  0  0  0  0  0  0  0  0  0
    1.1879   -0.7056   -0.0000 C   0  0  0  0  0  0  0  0  0  0  0  0
    2.0724   -1.2008   -0.0091 H   0  0  0  0  0  0  0  0  0  0  0  0
    1.1888    0.6841   -0.0028 C   0  0  0  0  0  0  0  0  0  0  0  0
    2.0619    1.1761   -0.0150 H   0  0  0  0  0  0  0  0  0  0  0  0
  1  5  1  0
  5  6  1  0
  5  7  2  0
  1  2  1  0
  1  3  1  0
  1  4  1  0
  8 12  1  0
 12 13  2  0
 13 15  1  0
 15 17  2  0
 17 19  1  0
 19 21  2  0
 21 12  1  0
  8  9  1  0
  8 10  1  0
  8 11  1  0
 13 14  1  0
 15 16  1  0
 17 18  1  0
 19 20  1  0
 21 22  1  0
M  CHG  1   6  -1
M  END
>  <PDB_ID>  (1923) 
pdb4rc1

>  <RESIDUE_NAME>  (1923) 
ASP   PHE

>  <FRAG_NAME>  (1923) 
ACET   MBZ

>  <FRAG_ATOM_NUM>  (1923) 
fragi: 7  fragj: 15

>  <atom.prop.CHAIN_ID>  (1923) 
A A A A A A A Z Z Z Z Z Z Z Z Z Z Z Z Z Z Z

>  <atom.prop.IS_HEAVY_ATOM>  (1923) 
1 0 0 0 1 1 1 1 0 0 0 1 1 0 1 0 1 0 1 0 1 0

>  <DIFUSE_FUNC_ATOM>  (1923) 
atom 6   atom 7   

>  <FINAL_SINGLE_POINT_ENERGY>  (1923) 
0

>  <NONCOV_INTER_ENERGY_QM>  (1923) 
0

>  <FF_Energy>  (1923) 
1.11

>  <QM_Energy>  (1923) 
-4.45

>  <source>  (1923) 
ACET_MBZ_02

>  <Index>  (1923) 
6772

$$$$
ACET-pdb3tc2-C-ASP-180:MBZ-pdb3tc2-C-PHE-28
     RDKit          3D

 22 21  0  0  0  0  0  0  0  0999 V2000
    4.8471   -1.2218   -1.3642 C   0  0  0  0  0  0  0  0  0  0  0  0
    4.5631   -0.4245   -0.8349 H   0  0  0  0  0  0  0  0  0  0  0  0
    4.2223   -1.3584   -2.1295 H   0  0  0  0  0  0  0  0  0  0  0  0
    5.8357   -1.0140   -1.7738 H   0  0  0  0  0  0  0  0  0  0  0  0
    4.8198   -2.4306   -0.4842 C   0  0  0  0  0  0  0  0  0  0  0  0
    5.6564   -3.4016   -0.6171 O   0  0  0  0  0  1  0  0  0  0  0  0
    3.8387   -2.5028    0.3662 O   0  0  0  0  0  0  0  0  0  0  0  0
    0.0020    2.9159   -0.0584 C   0  0  0  0  0  0  0  0  0  0  0  0
    0.8800    3.2516    0.2327 H   0  0  0  0  0  0  0  0  0  0  0  0
   -0.7320    3.2680    0.4950 H   0  0  0  0  0  0  0  0  0  0  0  0
   -0.1578    3.2973   -1.0669 H   0  0  0  0  0  0  0  0  0  0  0  0
   -0.0024    1.4363    0.0083 C   0  0  0  0  0  0  0  0  0  0  0  0
   -1.2358    0.7321   -0.0076 C   0  0  0  0  0  0  0  0  0  0  0  0
   -2.0870    1.2141   -0.0248 H   0  0  0  0  0  0  0  0  0  0  0  0
   -1.2455   -0.7069   -0.0000 C   0  0  0  0  0  0  0  0  0  0  0  0
   -2.1064   -1.1937    0.0030 H   0  0  0  0  0  0  0  0  0  0  0  0
    0.0054   -1.4443    0.0045 C   0  0  0  0  0  0  0  0  0  0  0  0
   -0.0125   -2.4226    0.0103 H   0  0  0  0  0  0  0  0  0  0  0  0
    1.2455   -0.7289    0.0000 C   0  0  0  0  0  0  0  0  0  0  0  0
    2.1131   -1.2131    0.0020 H   0  0  0  0  0  0  0  0  0  0  0  0
    1.2327    0.7117   -0.0051 C   0  0  0  0  0  0  0  0  0  0  0  0
    2.0881    1.2010   -0.0189 H   0  0  0  0  0  0  0  0  0  0  0  0
  1  5  1  0
  5  6  1  0
  5  7  2  0
  1  2  1  0
  1  3  1  0
  1  4  1  0
  8 12  1  0
 12 13  2  0
 13 15  1  0
 15 17  2  0
 17 19  1  0
 19 21  2  0
 21 12  1  0
  8  9  1  0
  8 10  1  0
  8 11  1  0
 13 14  1  0
 15 16  1  0
 17 18  1  0
 19 20  1  0
 21 22  1  0
M  CHG  1   6  -1
M  END
>  <PDB_ID>  (1924) 
pdb3tc2

>  <RESIDUE_NAME>  (1924) 
ASP   PHE

>  <FRAG_NAME>  (1924) 
ACET   MBZ

>  <FRAG_ATOM_NUM>  (1924) 
fragi: 7  fragj: 15

>  <atom.prop.CHAIN_ID>  (1924) 
A A A A A A A Z Z Z Z Z Z Z Z Z Z Z Z Z Z Z

>  <atom.prop.IS_HEAVY_ATOM>  (1924) 
1 0 0 0 1 1 1 1 0 0 0 1 1 0 1 0 1 0 1 0 1 0

>  <DIFUSE_FUNC_ATOM>  (1924) 
atom 6   atom 7   

>  <FINAL_SINGLE_POINT_ENERGY>  (1924) 
0

>  <NONCOV_INTER_ENERGY_QM>  (1924) 
0

>  <FF_Energy>  (1924) 
-0.86

>  <QM_Energy>  (1924) 
-6.44

>  <source>  (1924) 
ACET_MBZ_02

>  <Index>  (1924) 
6787

$$$$
ACET-pdb3tc3-B-ASP-176:MBZ-pdb3tc3-B-PHE-180
     RDKit          3D

 22 21  0  0  0  0  0  0  0  0999 V2000
    4.7041    5.2510   -1.2532 C   0  0  0  0  0  0  0  0  0  0  0  0
    5.5655    5.2178   -1.7390 H   0  0  0  0  0  0  0  0  0  0  0  0
    4.8388    5.1351   -0.2798 H   0  0  0  0  0  0  0  0  0  0  0  0
    4.2432    6.2231   -1.4279 H   0  0  0  0  0  0  0  0  0  0  0  0
    3.8237    4.1177   -1.7564 C   0  0  0  0  0  0  0  0  0  0  0  0
    3.8448    3.9010   -2.9793 O   0  0  0  0  0  1  0  0  0  0  0  0
    3.1521    3.4742   -0.9247 O   0  0  0  0  0  0  0  0  0  0  0  0
   -0.0263    2.9152   -0.0042 C   0  0  0  0  0  0  0  0  0  0  0  0
    0.8794    3.2411    0.1815 H   0  0  0  0  0  0  0  0  0  0  0  0
   -0.6859    3.2369    0.6450 H   0  0  0  0  0  0  0  0  0  0  0  0
   -0.3167    3.3072   -0.9789 H   0  0  0  0  0  0  0  0  0  0  0  0
   -0.0149    1.4200    0.0213 C   0  0  0  0  0  0  0  0  0  0  0  0
   -1.1897    0.7213   -0.0199 C   0  0  0  0  0  0  0  0  0  0  0  0
   -2.0723    1.1902   -0.0671 H   0  0  0  0  0  0  0  0  0  0  0  0
   -1.2268   -0.7263   -0.0000 C   0  0  0  0  0  0  0  0  0  0  0  0
   -2.0990   -1.1826    0.0237 H   0  0  0  0  0  0  0  0  0  0  0  0
   -0.0118   -1.4301   -0.0140 C   0  0  0  0  0  0  0  0  0  0  0  0
    0.0060   -2.4130   -0.0341 H   0  0  0  0  0  0  0  0  0  0  0  0
    1.2268   -0.6954    0.0000 C   0  0  0  0  0  0  0  0  0  0  0  0
    2.0956   -1.1972    0.0023 H   0  0  0  0  0  0  0  0  0  0  0  0
    1.2163    0.7105    0.0127 C   0  0  0  0  0  0  0  0  0  0  0  0
    2.0676    1.2145    0.0145 H   0  0  0  0  0  0  0  0  0  0  0  0
  1  5  1  0
  5  6  1  0
  5  7  2  0
  1  2  1  0
  1  3  1  0
  1  4  1  0
  8 12  1  0
 12 13  2  0
 13 15  1  0
 15 17  2  0
 17 19  1  0
 19 21  2  0
 21 12  1  0
  8  9  1  0
  8 10  1  0
  8 11  1  0
 13 14  1  0
 15 16  1  0
 17 18  1  0
 19 20  1  0
 21 22  1  0
M  CHG  1   6  -1
M  END
>  <PDB_ID>  (1925) 
pdb3tc3

>  <RESIDUE_NAME>  (1925) 
ASP   PHE

>  <FRAG_NAME>  (1925) 
ACET   MBZ

>  <FRAG_ATOM_NUM>  (1925) 
fragi: 7  fragj: 15

>  <atom.prop.CHAIN_ID>  (1925) 
A A A A A A A Z Z Z Z Z Z Z Z Z Z Z Z Z Z Z

>  <atom.prop.IS_HEAVY_ATOM>  (1925) 
1 0 0 0 1 1 1 1 0 0 0 1 1 0 1 0 1 0 1 0 1 0

>  <DIFUSE_FUNC_ATOM>  (1925) 
atom 6   atom 7   

>  <FINAL_SINGLE_POINT_ENERGY>  (1925) 
0

>  <NONCOV_INTER_ENERGY_QM>  (1925) 
0

>  <FF_Energy>  (1925) 
-1.6

>  <QM_Energy>  (1925) 
-7.19

>  <source>  (1925) 
ACET_MBZ_02

>  <Index>  (1925) 
6808

$$$$
ACET-pdb3tcj-A-GLU-93:MBZ-pdb3tcj-A-PHE-90
     RDKit          3D

 22 21  0  0  0  0  0  0  0  0999 V2000
   -3.4348    4.8423    0.1367 C   0  0  0  0  0  0  0  0  0  0  0  0
   -2.6613    4.8790   -0.4660 H   0  0  0  0  0  0  0  0  0  0  0  0
   -3.1970    5.0484    1.0667 H   0  0  0  0  0  0  0  0  0  0  0  0
   -4.1709    5.5711   -0.2028 H   0  0  0  0  0  0  0  0  0  0  0  0
   -3.9720    3.4265    0.1057 C   0  0  0  0  0  0  0  0  0  0  0  0
   -5.1027    3.2305   -0.3920 O   0  0  0  0  0  1  0  0  0  0  0  0
   -3.2661    2.5112    0.5780 O   0  0  0  0  0  0  0  0  0  0  0  0
   -0.0000    2.9009    0.0038 C   0  0  0  0  0  0  0  0  0  0  0  0
    0.7646    3.2044    0.5520 H   0  0  0  0  0  0  0  0  0  0  0  0
   -0.8598    3.2057    0.3863 H   0  0  0  0  0  0  0  0  0  0  0  0
    0.1012    3.3476   -0.9853 H   0  0  0  0  0  0  0  0  0  0  0  0
   -0.0002    1.3963   -0.0010 C   0  0  0  0  0  0  0  0  0  0  0  0
   -1.1904    0.6886    0.0004 C   0  0  0  0  0  0  0  0  0  0  0  0
   -2.0600    1.1799    0.0004 H   0  0  0  0  0  0  0  0  0  0  0  0
   -1.1944   -0.6948   -0.0000 C   0  0  0  0  0  0  0  0  0  0  0  0
   -2.0728   -1.1895    0.0012 H   0  0  0  0  0  0  0  0  0  0  0  0
   -0.0005   -1.3863   -0.0004 C   0  0  0  0  0  0  0  0  0  0  0  0
   -0.0037   -2.3874   -0.0018 H   0  0  0  0  0  0  0  0  0  0  0  0
    1.1944   -0.6935    0.0000 C   0  0  0  0  0  0  0  0  0  0  0  0
    2.0776   -1.1932    0.0009 H   0  0  0  0  0  0  0  0  0  0  0  0
    1.1911    0.6897    0.0010 C   0  0  0  0  0  0  0  0  0  0  0  0
    2.0609    1.1875    0.0028 H   0  0  0  0  0  0  0  0  0  0  0  0
  1  5  1  0
  5  6  1  0
  5  7  2  0
  1  2  1  0
  1  3  1  0
  1  4  1  0
  8 12  1  0
 12 13  2  0
 13 15  1  0
 15 17  2  0
 17 19  1  0
 19 21  2  0
 21 12  1  0
  8  9  1  0
  8 10  1  0
  8 11  1  0
 13 14  1  0
 15 16  1  0
 17 18  1  0
 19 20  1  0
 21 22  1  0
M  CHG  1   6  -1
M  END
>  <PDB_ID>  (1926) 
pdb3tcj

>  <RESIDUE_NAME>  (1926) 
GLU   PHE

>  <FRAG_NAME>  (1926) 
ACET   MBZ

>  <FRAG_ATOM_NUM>  (1926) 
fragi: 7  fragj: 15

>  <atom.prop.CHAIN_ID>  (1926) 
A A A A A A A Z Z Z Z Z Z Z Z Z Z Z Z Z Z Z

>  <atom.prop.IS_HEAVY_ATOM>  (1926) 
1 0 0 0 1 1 1 1 0 0 0 1 1 0 1 0 1 0 1 0 1 0

>  <DIFUSE_FUNC_ATOM>  (1926) 
atom 6   atom 7   

>  <FINAL_SINGLE_POINT_ENERGY>  (1926) 
0

>  <NONCOV_INTER_ENERGY_QM>  (1926) 
0

>  <FF_Energy>  (1926) 
15.12

>  <QM_Energy>  (1926) 
-6.76

>  <source>  (1926) 
ACET_MBZ_02

>  <Index>  (1926) 
6823

$$$$
ACET-pdb3td9-A-GLU-106:MBZ-pdb3td9-A-PHE-128
     RDKit          3D

 22 21  0  0  0  0  0  0  0  0999 V2000
   -4.7911    3.4262   -1.9627 C   0  0  0  0  0  0  0  0  0  0  0  0
   -5.6572    3.8758   -1.8268 H   0  0  0  0  0  0  0  0  0  0  0  0
   -4.8982    2.5508   -2.4032 H   0  0  0  0  0  0  0  0  0  0  0  0
   -4.1737    4.0591   -2.6001 H   0  0  0  0  0  0  0  0  0  0  0  0
   -4.1887    3.1711   -0.5855 C   0  0  0  0  0  0  0  0  0  0  0  0
   -3.1510    3.7835   -0.2419 O   0  0  0  0  0  1  0  0  0  0  0  0
   -4.7730    2.3570    0.1597 O   0  0  0  0  0  0  0  0  0  0  0  0
    0.0142    2.9068    0.0651 C   0  0  0  0  0  0  0  0  0  0  0  0
   -0.7607    3.2340   -0.4474 H   0  0  0  0  0  0  0  0  0  0  0  0
    0.8668    3.2234   -0.3149 H   0  0  0  0  0  0  0  0  0  0  0  0
   -0.0654    3.3052    1.0765 H   0  0  0  0  0  0  0  0  0  0  0  0
    0.0081    1.4008    0.0134 C   0  0  0  0  0  0  0  0  0  0  0  0
   -1.1840    0.7044   -0.0008 C   0  0  0  0  0  0  0  0  0  0  0  0
   -2.0528    1.1927   -0.0130 H   0  0  0  0  0  0  0  0  0  0  0  0
   -1.2001   -0.6975    0.0000 C   0  0  0  0  0  0  0  0  0  0  0  0
   -2.0913   -1.1702    0.0105 H   0  0  0  0  0  0  0  0  0  0  0  0
   -0.0248   -1.3957   -0.0113 C   0  0  0  0  0  0  0  0  0  0  0  0
   -0.0189   -2.3939   -0.0281 H   0  0  0  0  0  0  0  0  0  0  0  0
    1.2001   -0.7008   -0.0000 C   0  0  0  0  0  0  0  0  0  0  0  0
    2.0679   -1.2100    0.0105 H   0  0  0  0  0  0  0  0  0  0  0  0
    1.2006    0.6889   -0.0012 C   0  0  0  0  0  0  0  0  0  0  0  0
    2.0708    1.1821   -0.0134 H   0  0  0  0  0  0  0  0  0  0  0  0
  1  5  1  0
  5  6  1  0
  5  7  2  0
  1  2  1  0
  1  3  1  0
  1  4  1  0
  8 12  1  0
 12 13  2  0
 13 15  1  0
 15 17  2  0
 17 19  1  0
 19 21  2  0
 21 12  1  0
  8  9  1  0
  8 10  1  0
  8 11  1  0
 13 14  1  0
 15 16  1  0
 17 18  1  0
 19 20  1  0
 21 22  1  0
M  CHG  1   6  -1
M  END
>  <PDB_ID>  (1927) 
pdb3td9

>  <RESIDUE_NAME>  (1927) 
GLU   PHE

>  <FRAG_NAME>  (1927) 
ACET   MBZ

>  <FRAG_ATOM_NUM>  (1927) 
fragi: 7  fragj: 15

>  <atom.prop.CHAIN_ID>  (1927) 
A A A A A A A Z Z Z Z Z Z Z Z Z Z Z Z Z Z Z

>  <atom.prop.IS_HEAVY_ATOM>  (1927) 
1 0 0 0 1 1 1 1 0 0 0 1 1 0 1 0 1 0 1 0 1 0

>  <DIFUSE_FUNC_ATOM>  (1927) 
atom 6   atom 7   

>  <FINAL_SINGLE_POINT_ENERGY>  (1927) 
0

>  <NONCOV_INTER_ENERGY_QM>  (1927) 
0

>  <FF_Energy>  (1927) 
-2.62

>  <QM_Energy>  (1927) 
-8.28

>  <source>  (1927) 
ACET_MBZ_02

>  <Index>  (1927) 
6874

$$$$
ACET-pdb4rfa-A-ASP-116:MBZ-pdb4rfa-A-PHE-120
     RDKit          3D

 22 21  0  0  0  0  0  0  0  0999 V2000
   -1.2371    5.9013   -4.1198 C   0  0  0  0  0  0  0  0  0  0  0  0
   -1.9249    5.7555   -4.8268 H   0  0  0  0  0  0  0  0  0  0  0  0
   -0.3252    5.7947   -4.5049 H   0  0  0  0  0  0  0  0  0  0  0  0
   -1.3339    6.9276   -3.7654 H   0  0  0  0  0  0  0  0  0  0  0  0
   -1.4314    4.9003   -3.0313 C   0  0  0  0  0  0  0  0  0  0  0  0
   -1.7760    5.2893   -1.8868 O   0  0  0  0  0  1  0  0  0  0  0  0
   -1.2198    3.7124   -3.3214 O   0  0  0  0  0  0  0  0  0  0  0  0
   -0.0241    2.8575    0.0572 C   0  0  0  0  0  0  0  0  0  0  0  0
   -0.6821    3.2029   -0.5871 H   0  0  0  0  0  0  0  0  0  0  0  0
    0.8811    3.1989   -0.1168 H   0  0  0  0  0  0  0  0  0  0  0  0
   -0.3209    3.2006    1.0483 H   0  0  0  0  0  0  0  0  0  0  0  0
   -0.0030    1.3873   -0.0236 C   0  0  0  0  0  0  0  0  0  0  0  0
   -1.1849    0.6877    0.0114 C   0  0  0  0  0  0  0  0  0  0  0  0
   -2.0568    1.1775    0.0441 H   0  0  0  0  0  0  0  0  0  0  0  0
   -1.1928   -0.6949   -0.0000 C   0  0  0  0  0  0  0  0  0  0  0  0
   -2.0718   -1.1874   -0.0178 H   0  0  0  0  0  0  0  0  0  0  0  0
   -0.0012   -1.3844    0.0147 C   0  0  0  0  0  0  0  0  0  0  0  0
   -0.0006   -2.3846    0.0352 H   0  0  0  0  0  0  0  0  0  0  0  0
    1.1928   -0.6882   -0.0000 C   0  0  0  0  0  0  0  0  0  0  0  0
    2.0769   -1.1883   -0.0076 H   0  0  0  0  0  0  0  0  0  0  0  0
    1.1891    0.6925   -0.0025 C   0  0  0  0  0  0  0  0  0  0  0  0
    2.0559    1.1915    0.0103 H   0  0  0  0  0  0  0  0  0  0  0  0
  1  5  1  0
  5  6  1  0
  5  7  2  0
  1  2  1  0
  1  3  1  0
  1  4  1  0
  8 12  1  0
 12 13  2  0
 13 15  1  0
 15 17  2  0
 17 19  1  0
 19 21  2  0
 21 12  1  0
  8  9  1  0
  8 10  1  0
  8 11  1  0
 13 14  1  0
 15 16  1  0
 17 18  1  0
 19 20  1  0
 21 22  1  0
M  CHG  1   6  -1
M  END
>  <PDB_ID>  (1928) 
pdb4rfa

>  <RESIDUE_NAME>  (1928) 
ASP   PHE

>  <FRAG_NAME>  (1928) 
ACET   MBZ

>  <FRAG_ATOM_NUM>  (1928) 
fragi: 7  fragj: 15

>  <atom.prop.CHAIN_ID>  (1928) 
A A A A A A A Z Z Z Z Z Z Z Z Z Z Z Z Z Z Z

>  <atom.prop.IS_HEAVY_ATOM>  (1928) 
1 0 0 0 1 1 1 1 0 0 0 1 1 0 1 0 1 0 1 0 1 0

>  <DIFUSE_FUNC_ATOM>  (1928) 
atom 6   atom 7   

>  <FINAL_SINGLE_POINT_ENERGY>  (1928) 
0

>  <NONCOV_INTER_ENERGY_QM>  (1928) 
0

>  <FF_Energy>  (1928) 
-0.5

>  <QM_Energy>  (1928) 
-5.7

>  <source>  (1928) 
ACET_MBZ_02

>  <Index>  (1928) 
6956

$$$$
ACET-pdb3teo-F-GLU-100:MBZ-pdb3teo-F-PHE-96
     RDKit          3D

 22 21  0  0  0  0  0  0  0  0999 V2000
   -5.1643    3.8803    0.4334 C   0  0  0  0  0  0  0  0  0  0  0  0
   -5.8617    3.3789    0.9019 H   0  0  0  0  0  0  0  0  0  0  0  0
   -5.5221    4.5188   -0.2159 H   0  0  0  0  0  0  0  0  0  0  0  0
   -4.5694    4.4223    1.1685 H   0  0  0  0  0  0  0  0  0  0  0  0
   -4.3180    2.8808   -0.3294 C   0  0  0  0  0  0  0  0  0  0  0  0
   -3.4080    3.3172   -1.0675 O   0  0  0  0  0  1  0  0  0  0  0  0
   -4.5556    1.6619   -0.1869 O   0  0  0  0  0  0  0  0  0  0  0  0
   -0.0020    2.8996   -0.0012 C   0  0  0  0  0  0  0  0  0  0  0  0
    0.7830    3.2073    0.5170 H   0  0  0  0  0  0  0  0  0  0  0  0
   -0.8466    3.2053    0.4128 H   0  0  0  0  0  0  0  0  0  0  0  0
    0.0612    3.3444   -0.9943 H   0  0  0  0  0  0  0  0  0  0  0  0
   -0.0006    1.3974   -0.0023 C   0  0  0  0  0  0  0  0  0  0  0  0
   -1.1931    0.6910   -0.0011 C   0  0  0  0  0  0  0  0  0  0  0  0
   -2.0613    1.1822   -0.0020 H   0  0  0  0  0  0  0  0  0  0  0  0
   -1.1978   -0.6940   -0.0000 C   0  0  0  0  0  0  0  0  0  0  0  0
   -2.0756   -1.1892    0.0006 H   0  0  0  0  0  0  0  0  0  0  0  0
   -0.0002   -1.3888    0.0021 C   0  0  0  0  0  0  0  0  0  0  0  0
   -0.0047   -2.3889    0.0050 H   0  0  0  0  0  0  0  0  0  0  0  0
    1.1978   -0.6962   -0.0000 C   0  0  0  0  0  0  0  0  0  0  0  0
    2.0792   -1.1949   -0.0008 H   0  0  0  0  0  0  0  0  0  0  0  0
    1.1940    0.6907    0.0013 C   0  0  0  0  0  0  0  0  0  0  0  0
    2.0630    1.1882    0.0043 H   0  0  0  0  0  0  0  0  0  0  0  0
  1  5  1  0
  5  6  1  0
  5  7  2  0
  1  2  1  0
  1  3  1  0
  1  4  1  0
  8 12  1  0
 12 13  2  0
 13 15  1  0
 15 17  2  0
 17 19  1  0
 19 21  2  0
 21 12  1  0
  8  9  1  0
  8 10  1  0
  8 11  1  0
 13 14  1  0
 15 16  1  0
 17 18  1  0
 19 20  1  0
 21 22  1  0
M  CHG  1   6  -1
M  END
>  <PDB_ID>  (1929) 
pdb3teo

>  <RESIDUE_NAME>  (1929) 
GLU   PHE

>  <FRAG_NAME>  (1929) 
ACET   MBZ

>  <FRAG_ATOM_NUM>  (1929) 
fragi: 7  fragj: 15

>  <atom.prop.CHAIN_ID>  (1929) 
A A A A A A A Z Z Z Z Z Z Z Z Z Z Z Z Z Z Z

>  <atom.prop.IS_HEAVY_ATOM>  (1929) 
1 0 0 0 1 1 1 1 0 0 0 1 1 0 1 0 1 0 1 0 1 0

>  <DIFUSE_FUNC_ATOM>  (1929) 
atom 6   atom 7   

>  <FINAL_SINGLE_POINT_ENERGY>  (1929) 
0

>  <NONCOV_INTER_ENERGY_QM>  (1929) 
0

>  <FF_Energy>  (1929) 
-2.8

>  <QM_Energy>  (1929) 
-8.43

>  <source>  (1929) 
ACET_MBZ_02

>  <Index>  (1929) 
7024

$$$$
ACET-pdb3teo-G-GLU-100:MBZ-pdb3teo-G-PHE-96
     RDKit          3D

 22 21  0  0  0  0  0  0  0  0999 V2000
   -5.3616    3.4006    0.8990 C   0  0  0  0  0  0  0  0  0  0  0  0
   -5.2088    3.0338    1.7956 H   0  0  0  0  0  0  0  0  0  0  0  0
   -6.3024    3.3516    0.6262 H   0  0  0  0  0  0  0  0  0  0  0  0
   -5.0583    4.4475    0.9012 H   0  0  0  0  0  0  0  0  0  0  0  0
   -4.5555    2.5613   -0.0831 C   0  0  0  0  0  0  0  0  0  0  0  0
   -3.7111    3.1266   -0.8188 O   0  0  0  0  0  1  0  0  0  0  0  0
   -4.7684    1.3285   -0.1195 O   0  0  0  0  0  0  0  0  0  0  0  0
   -0.0016    2.9092   -0.0035 C   0  0  0  0  0  0  0  0  0  0  0  0
    0.7705    3.2160    0.5316 H   0  0  0  0  0  0  0  0  0  0  0  0
   -0.8562    3.2152    0.3886 H   0  0  0  0  0  0  0  0  0  0  0  0
    0.0851    3.3498   -0.9967 H   0  0  0  0  0  0  0  0  0  0  0  0
   -0.0009    1.4034   -0.0012 C   0  0  0  0  0  0  0  0  0  0  0  0
   -1.1962    0.6932    0.0012 C   0  0  0  0  0  0  0  0  0  0  0  0
   -2.0640    1.1816    0.0030 H   0  0  0  0  0  0  0  0  0  0  0  0
   -1.1998   -0.6995   -0.0000 C   0  0  0  0  0  0  0  0  0  0  0  0
   -2.0765   -1.1927    0.0003 H   0  0  0  0  0  0  0  0  0  0  0  0
    0.0017   -1.3949   -0.0003 C   0  0  0  0  0  0  0  0  0  0  0  0
   -0.0021   -2.3937   -0.0011 H   0  0  0  0  0  0  0  0  0  0  0  0
    1.1998   -0.6972    0.0000 C   0  0  0  0  0  0  0  0  0  0  0  0
    2.0829   -1.1933    0.0011 H   0  0  0  0  0  0  0  0  0  0  0  0
    1.1954    0.6949    0.0003 C   0  0  0  0  0  0  0  0  0  0  0  0
    2.0639    1.1903    0.0003 H   0  0  0  0  0  0  0  0  0  0  0  0
  1  5  1  0
  5  6  1  0
  5  7  2  0
  1  2  1  0
  1  3  1  0
  1  4  1  0
  8 12  1  0
 12 13  2  0
 13 15  1  0
 15 17  2  0
 17 19  1  0
 19 21  2  0
 21 12  1  0
  8  9  1  0
  8 10  1  0
  8 11  1  0
 13 14  1  0
 15 16  1  0
 17 18  1  0
 19 20  1  0
 21 22  1  0
M  CHG  1   6  -1
M  END
>  <PDB_ID>  (1930) 
pdb3teo

>  <RESIDUE_NAME>  (1930) 
GLU   PHE

>  <FRAG_NAME>  (1930) 
ACET   MBZ

>  <FRAG_ATOM_NUM>  (1930) 
fragi: 7  fragj: 15

>  <atom.prop.CHAIN_ID>  (1930) 
A A A A A A A Z Z Z Z Z Z Z Z Z Z Z Z Z Z Z

>  <atom.prop.IS_HEAVY_ATOM>  (1930) 
1 0 0 0 1 1 1 1 0 0 0 1 1 0 1 0 1 0 1 0 1 0

>  <DIFUSE_FUNC_ATOM>  (1930) 
atom 6   atom 7   

>  <FINAL_SINGLE_POINT_ENERGY>  (1930) 
0

>  <NONCOV_INTER_ENERGY_QM>  (1930) 
0

>  <FF_Energy>  (1930) 
-2.92

>  <QM_Energy>  (1930) 
-8.07

>  <source>  (1930) 
ACET_MBZ_02

>  <Index>  (1930) 
7031

$$$$
ACET-pdb4rgp-A-GLU-3:MBZ-pdb4rgp-A-PHE-28
     RDKit          3D

 22 21  0  0  0  0  0  0  0  0999 V2000
   -6.4802    1.7585   -0.4317 C   0  0  0  0  0  0  0  0  0  0  0  0
   -7.1288    2.2980    0.0718 H   0  0  0  0  0  0  0  0  0  0  0  0
   -6.8873    0.9534   -0.8215 H   0  0  0  0  0  0  0  0  0  0  0  0
   -6.0821    2.3691   -1.2421 H   0  0  0  0  0  0  0  0  0  0  0  0
   -5.4073    1.3068    0.5381 C   0  0  0  0  0  0  0  0  0  0  0  0
   -4.3050    0.9465    0.0761 O   0  0  0  0  0  1  0  0  0  0  0  0
   -5.6658    1.3140    1.7609 O   0  0  0  0  0  0  0  0  0  0  0  0
   -0.0004    2.8956    0.0016 C   0  0  0  0  0  0  0  0  0  0  0  0
   -0.9294    3.2033   -0.1420 H   0  0  0  0  0  0  0  0  0  0  0  0
    0.5971    3.2051   -0.7229 H   0  0  0  0  0  0  0  0  0  0  0  0
    0.3542    3.3338    0.9345 H   0  0  0  0  0  0  0  0  0  0  0  0
   -0.0000    1.3943   -0.0013 C   0  0  0  0  0  0  0  0  0  0  0  0
   -1.1919    0.6877    0.0014 C   0  0  0  0  0  0  0  0  0  0  0  0
   -2.0600    1.1796    0.0034 H   0  0  0  0  0  0  0  0  0  0  0  0
   -1.1948   -0.6949    0.0000 C   0  0  0  0  0  0  0  0  0  0  0  0
   -2.0723   -1.1918    0.0010 H   0  0  0  0  0  0  0  0  0  0  0  0
    0.0011   -1.3850   -0.0007 C   0  0  0  0  0  0  0  0  0  0  0  0
   -0.0016   -2.3865   -0.0023 H   0  0  0  0  0  0  0  0  0  0  0  0
    1.1948   -0.6913    0.0000 C   0  0  0  0  0  0  0  0  0  0  0  0
    2.0787   -1.1915    0.0019 H   0  0  0  0  0  0  0  0  0  0  0  0
    1.1908    0.6892    0.0006 C   0  0  0  0  0  0  0  0  0  0  0  0
    2.0603    1.1882    0.0017 H   0  0  0  0  0  0  0  0  0  0  0  0
  1  5  1  0
  5  6  1  0
  5  7  2  0
  1  2  1  0
  1  3  1  0
  1  4  1  0
  8 12  1  0
 12 13  2  0
 13 15  1  0
 15 17  2  0
 17 19  1  0
 19 21  2  0
 21 12  1  0
  8  9  1  0
  8 10  1  0
  8 11  1  0
 13 14  1  0
 15 16  1  0
 17 18  1  0
 19 20  1  0
 21 22  1  0
M  CHG  1   6  -1
M  END
>  <PDB_ID>  (1931) 
pdb4rgp

>  <RESIDUE_NAME>  (1931) 
GLU   PHE

>  <FRAG_NAME>  (1931) 
ACET   MBZ

>  <FRAG_ATOM_NUM>  (1931) 
fragi: 7  fragj: 15

>  <atom.prop.CHAIN_ID>  (1931) 
A A A A A A A Z Z Z Z Z Z Z Z Z Z Z Z Z Z Z

>  <atom.prop.IS_HEAVY_ATOM>  (1931) 
1 0 0 0 1 1 1 1 0 0 0 1 1 0 1 0 1 0 1 0 1 0

>  <DIFUSE_FUNC_ATOM>  (1931) 
atom 6   atom 7   

>  <FINAL_SINGLE_POINT_ENERGY>  (1931) 
0

>  <NONCOV_INTER_ENERGY_QM>  (1931) 
0

>  <FF_Energy>  (1931) 
-1.17

>  <QM_Energy>  (1931) 
-6.75

>  <source>  (1931) 
ACET_MBZ_02

>  <Index>  (1931) 
7035

$$$$
ACET-pdb4rgp-A-ASP-243:MBZ-pdb4rgp-A-PHE-240
     RDKit          3D

 22 21  0  0  0  0  0  0  0  0999 V2000
    2.8450    4.2186    2.4368 C   0  0  0  0  0  0  0  0  0  0  0  0
    1.8923    4.4387    2.2631 H   0  0  0  0  0  0  0  0  0  0  0  0
    3.3710    5.0463    2.5900 H   0  0  0  0  0  0  0  0  0  0  0  0
    2.8914    3.6171    3.3447 H   0  0  0  0  0  0  0  0  0  0  0  0
    3.4075    3.4965    1.2295 C   0  0  0  0  0  0  0  0  0  0  0  0
    4.1551    2.5111    1.4165 O   0  0  0  0  0  1  0  0  0  0  0  0
    3.1085    3.9184    0.0919 O   0  0  0  0  0  0  0  0  0  0  0  0
    0.0049    2.8989    0.0032 C   0  0  0  0  0  0  0  0  0  0  0  0
    0.0455    3.2078   -0.9346 H   0  0  0  0  0  0  0  0  0  0  0  0
    0.7940    3.2013    0.5171 H   0  0  0  0  0  0  0  0  0  0  0  0
   -0.8797    3.3414    0.4611 H   0  0  0  0  0  0  0  0  0  0  0  0
    0.0008    1.3945   -0.0009 C   0  0  0  0  0  0  0  0  0  0  0  0
   -1.1913    0.6892    0.0008 C   0  0  0  0  0  0  0  0  0  0  0  0
   -2.0590    1.1813    0.0012 H   0  0  0  0  0  0  0  0  0  0  0  0
   -1.1947   -0.6918    0.0000 C   0  0  0  0  0  0  0  0  0  0  0  0
   -2.0740   -1.1877    0.0010 H   0  0  0  0  0  0  0  0  0  0  0  0
   -0.0005   -1.3848   -0.0005 C   0  0  0  0  0  0  0  0  0  0  0  0
   -0.0058   -2.3868   -0.0018 H   0  0  0  0  0  0  0  0  0  0  0  0
    1.1947   -0.6942    0.0000 C   0  0  0  0  0  0  0  0  0  0  0  0
    2.0769   -1.1951    0.0013 H   0  0  0  0  0  0  0  0  0  0  0  0
    1.1910    0.6871    0.0006 C   0  0  0  0  0  0  0  0  0  0  0  0
    2.0618    1.1851    0.0018 H   0  0  0  0  0  0  0  0  0  0  0  0
  1  5  1  0
  5  6  1  0
  5  7  2  0
  1  2  1  0
  1  3  1  0
  1  4  1  0
  8 12  1  0
 12 13  2  0
 13 15  1  0
 15 17  2  0
 17 19  1  0
 19 21  2  0
 21 12  1  0
  8  9  1  0
  8 10  1  0
  8 11  1  0
 13 14  1  0
 15 16  1  0
 17 18  1  0
 19 20  1  0
 21 22  1  0
M  CHG  1   6  -1
M  END
>  <PDB_ID>  (1932) 
pdb4rgp

>  <RESIDUE_NAME>  (1932) 
ASP   PHE

>  <FRAG_NAME>  (1932) 
ACET   MBZ

>  <FRAG_ATOM_NUM>  (1932) 
fragi: 7  fragj: 15

>  <atom.prop.CHAIN_ID>  (1932) 
A A A A A A A Z Z Z Z Z Z Z Z Z Z Z Z Z Z Z

>  <atom.prop.IS_HEAVY_ATOM>  (1932) 
1 0 0 0 1 1 1 1 0 0 0 1 1 0 1 0 1 0 1 0 1 0

>  <DIFUSE_FUNC_ATOM>  (1932) 
atom 6   atom 7   

>  <FINAL_SINGLE_POINT_ENERGY>  (1932) 
0

>  <NONCOV_INTER_ENERGY_QM>  (1932) 
0

>  <FF_Energy>  (1932) 
-2.31

>  <QM_Energy>  (1932) 
-7.55

>  <source>  (1932) 
ACET_MBZ_02

>  <Index>  (1932) 
7056

$$$$
ACET-pdb4rhj-A-ASP-141:MBZ-pdb4rhj-A-PHE-138
     RDKit          3D

 22 21  0  0  0  0  0  0  0  0999 V2000
    0.1952    5.1330    3.1655 C   0  0  0  0  0  0  0  0  0  0  0  0
    0.5312    4.9154    2.2566 H   0  0  0  0  0  0  0  0  0  0  0  0
    0.9433    5.1585    3.8172 H   0  0  0  0  0  0  0  0  0  0  0  0
   -0.2537    6.1256    3.1290 H   0  0  0  0  0  0  0  0  0  0  0  0
   -0.7885    4.0516    3.5932 C   0  0  0  0  0  0  0  0  0  0  0  0
   -0.9048    3.7993    4.8079 O   0  0  0  0  0  1  0  0  0  0  0  0
   -1.4353    3.4403    2.7200 O   0  0  0  0  0  0  0  0  0  0  0  0
   -0.0010    2.8865   -0.0055 C   0  0  0  0  0  0  0  0  0  0  0  0
    0.8539    3.1948    0.3833 H   0  0  0  0  0  0  0  0  0  0  0  0
   -0.7721    3.1944    0.5312 H   0  0  0  0  0  0  0  0  0  0  0  0
   -0.0917    3.3179   -1.0023 H   0  0  0  0  0  0  0  0  0  0  0  0
    0.0002    1.3889    0.0001 C   0  0  0  0  0  0  0  0  0  0  0  0
   -1.1890    0.6863   -0.0018 C   0  0  0  0  0  0  0  0  0  0  0  0
   -2.0573    1.1808   -0.0053 H   0  0  0  0  0  0  0  0  0  0  0  0
   -1.1922   -0.6883   -0.0000 C   0  0  0  0  0  0  0  0  0  0  0  0
   -2.0726   -1.1863    0.0035 H   0  0  0  0  0  0  0  0  0  0  0  0
   -0.0017   -1.3776   -0.0011 C   0  0  0  0  0  0  0  0  0  0  0  0
   -0.0057   -2.3821   -0.0032 H   0  0  0  0  0  0  0  0  0  0  0  0
    1.1922   -0.6907    0.0000 C   0  0  0  0  0  0  0  0  0  0  0  0
    2.0744   -1.1967    0.0003 H   0  0  0  0  0  0  0  0  0  0  0  0
    1.1905    0.6813    0.0028 C   0  0  0  0  0  0  0  0  0  0  0  0
    2.0602    1.1832    0.0062 H   0  0  0  0  0  0  0  0  0  0  0  0
  1  5  1  0
  5  6  1  0
  5  7  2  0
  1  2  1  0
  1  3  1  0
  1  4  1  0
  8 12  1  0
 12 13  2  0
 13 15  1  0
 15 17  2  0
 17 19  1  0
 19 21  2  0
 21 12  1  0
  8  9  1  0
  8 10  1  0
  8 11  1  0
 13 14  1  0
 15 16  1  0
 17 18  1  0
 19 20  1  0
 21 22  1  0
M  CHG  1   6  -1
M  END
>  <PDB_ID>  (1933) 
pdb4rhj

>  <RESIDUE_NAME>  (1933) 
ASP   PHE

>  <FRAG_NAME>  (1933) 
ACET   MBZ

>  <FRAG_ATOM_NUM>  (1933) 
fragi: 7  fragj: 15

>  <atom.prop.CHAIN_ID>  (1933) 
A A A A A A A Z Z Z Z Z Z Z Z Z Z Z Z Z Z Z

>  <atom.prop.IS_HEAVY_ATOM>  (1933) 
1 0 0 0 1 1 1 1 0 0 0 1 1 0 1 0 1 0 1 0 1 0

>  <DIFUSE_FUNC_ATOM>  (1933) 
atom 6   atom 7   

>  <FINAL_SINGLE_POINT_ENERGY>  (1933) 
0

>  <NONCOV_INTER_ENERGY_QM>  (1933) 
0

>  <FF_Energy>  (1933) 
-2.27

>  <QM_Energy>  (1933) 
-4.38

>  <source>  (1933) 
ACET_MBZ_02

>  <Index>  (1933) 
7116

$$$$
ACET-pdb4rhj-D-GLU-57:MBZ-pdb4rhj-D-PHE-75
     RDKit          3D

 22 21  0  0  0  0  0  0  0  0999 V2000
   -4.6935    1.1949    1.8541 C   0  0  0  0  0  0  0  0  0  0  0  0
   -3.9852    1.8028    2.1380 H   0  0  0  0  0  0  0  0  0  0  0  0
   -5.4905    1.2352    2.4164 H   0  0  0  0  0  0  0  0  0  0  0  0
   -4.9768    1.4476    0.8323 H   0  0  0  0  0  0  0  0  0  0  0  0
   -4.1492   -0.2146    1.9273 C   0  0  0  0  0  0  0  0  0  0  0  0
   -4.0825   -0.8468    0.8585 O   0  0  0  0  0  1  0  0  0  0  0  0
   -3.7969   -0.6882    3.0239 O   0  0  0  0  0  0  0  0  0  0  0  0
   -0.0006    2.8926    0.0027 C   0  0  0  0  0  0  0  0  0  0  0  0
    0.8458    3.1994   -0.4072 H   0  0  0  0  0  0  0  0  0  0  0  0
   -0.0754    3.1958    0.9409 H   0  0  0  0  0  0  0  0  0  0  0  0
   -0.8227    3.3372   -0.5580 H   0  0  0  0  0  0  0  0  0  0  0  0
    0.0006    1.3871   -0.0003 C   0  0  0  0  0  0  0  0  0  0  0  0
   -1.1752    0.6773    0.0000 C   0  0  0  0  0  0  0  0  0  0  0  0
   -2.0523    1.1691   -0.0012 H   0  0  0  0  0  0  0  0  0  0  0  0
   -1.1815   -0.6960   -0.0000 C   0  0  0  0  0  0  0  0  0  0  0  0
   -2.0675   -1.1877   -0.0003 H   0  0  0  0  0  0  0  0  0  0  0  0
   -0.0062   -1.3758    0.0028 C   0  0  0  0  0  0  0  0  0  0  0  0
    0.0002   -2.3812    0.0061 H   0  0  0  0  0  0  0  0  0  0  0  0
    1.1815   -0.6829   -0.0000 C   0  0  0  0  0  0  0  0  0  0  0  0
    2.0684   -1.1860    0.0010 H   0  0  0  0  0  0  0  0  0  0  0  0
    1.1808    0.6902   -0.0025 C   0  0  0  0  0  0  0  0  0  0  0  0
    2.0541    1.1871   -0.0068 H   0  0  0  0  0  0  0  0  0  0  0  0
  1  5  1  0
  5  6  1  0
  5  7  2  0
  1  2  1  0
  1  3  1  0
  1  4  1  0
  8 12  1  0
 12 13  2  0
 13 15  1  0
 15 17  2  0
 17 19  1  0
 19 21  2  0
 21 12  1  0
  8  9  1  0
  8 10  1  0
  8 11  1  0
 13 14  1  0
 15 16  1  0
 17 18  1  0
 19 20  1  0
 21 22  1  0
M  CHG  1   6  -1
M  END
>  <PDB_ID>  (1934) 
pdb4rhj

>  <RESIDUE_NAME>  (1934) 
GLU   PHE

>  <FRAG_NAME>  (1934) 
ACET   MBZ

>  <FRAG_ATOM_NUM>  (1934) 
fragi: 7  fragj: 15

>  <atom.prop.CHAIN_ID>  (1934) 
A A A A A A A Z Z Z Z Z Z Z Z Z Z Z Z Z Z Z

>  <atom.prop.IS_HEAVY_ATOM>  (1934) 
1 0 0 0 1 1 1 1 0 0 0 1 1 0 1 0 1 0 1 0 1 0

>  <DIFUSE_FUNC_ATOM>  (1934) 
atom 6   atom 7   

>  <FINAL_SINGLE_POINT_ENERGY>  (1934) 
0

>  <NONCOV_INTER_ENERGY_QM>  (1934) 
0

>  <FF_Energy>  (1934) 
-0.39

>  <QM_Energy>  (1934) 
-5.86

>  <source>  (1934) 
ACET_MBZ_02

>  <Index>  (1934) 
7128

$$$$
ACET-pdb4rhj-E-ASP-141:MBZ-pdb4rhj-E-PHE-138
     RDKit          3D

 22 21  0  0  0  0  0  0  0  0999 V2000
   -2.6999    5.2767    1.6181 C   0  0  0  0  0  0  0  0  0  0  0  0
   -1.7201    5.3214    1.4600 H   0  0  0  0  0  0  0  0  0  0  0  0
   -2.8939    5.2194    2.5898 H   0  0  0  0  0  0  0  0  0  0  0  0
   -3.1451    6.1961    1.2379 H   0  0  0  0  0  0  0  0  0  0  0  0
   -3.2493    4.0455    0.9363 C   0  0  0  0  0  0  0  0  0  0  0  0
   -3.4814    4.1114   -0.2879 O   0  0  0  0  0  1  0  0  0  0  0  0
   -3.4496    3.0182    1.6207 O   0  0  0  0  0  0  0  0  0  0  0  0
    0.0055    2.8979    0.0111 C   0  0  0  0  0  0  0  0  0  0  0  0
    0.6130    3.1936    0.7361 H   0  0  0  0  0  0  0  0  0  0  0  0
   -0.9223    3.2041    0.1793 H   0  0  0  0  0  0  0  0  0  0  0  0
    0.3448    3.3577   -0.9171 H   0  0  0  0  0  0  0  0  0  0  0  0
    0.0014    1.3940   -0.0053 C   0  0  0  0  0  0  0  0  0  0  0  0
   -1.1946    0.6886   -0.0025 C   0  0  0  0  0  0  0  0  0  0  0  0
   -2.0606    1.1802   -0.0039 H   0  0  0  0  0  0  0  0  0  0  0  0
   -1.1952   -0.6950    0.0000 C   0  0  0  0  0  0  0  0  0  0  0  0
   -2.0716   -1.1924    0.0050 H   0  0  0  0  0  0  0  0  0  0  0  0
    0.0020   -1.3810   -0.0023 C   0  0  0  0  0  0  0  0  0  0  0  0
    0.0006   -2.3851   -0.0057 H   0  0  0  0  0  0  0  0  0  0  0  0
    1.1952   -0.6896    0.0000 C   0  0  0  0  0  0  0  0  0  0  0  0
    2.0783   -1.1935   -0.0043 H   0  0  0  0  0  0  0  0  0  0  0  0
    1.1912    0.6829    0.0102 C   0  0  0  0  0  0  0  0  0  0  0  0
    2.0618    1.1849    0.0281 H   0  0  0  0  0  0  0  0  0  0  0  0
  1  5  1  0
  5  6  1  0
  5  7  2  0
  1  2  1  0
  1  3  1  0
  1  4  1  0
  8 12  1  0
 12 13  2  0
 13 15  1  0
 15 17  2  0
 17 19  1  0
 19 21  2  0
 21 12  1  0
  8  9  1  0
  8 10  1  0
  8 11  1  0
 13 14  1  0
 15 16  1  0
 17 18  1  0
 19 20  1  0
 21 22  1  0
M  CHG  1   6  -1
M  END
>  <PDB_ID>  (1935) 
pdb4rhj

>  <RESIDUE_NAME>  (1935) 
ASP   PHE

>  <FRAG_NAME>  (1935) 
ACET   MBZ

>  <FRAG_ATOM_NUM>  (1935) 
fragi: 7  fragj: 15

>  <atom.prop.CHAIN_ID>  (1935) 
A A A A A A A Z Z Z Z Z Z Z Z Z Z Z Z Z Z Z

>  <atom.prop.IS_HEAVY_ATOM>  (1935) 
1 0 0 0 1 1 1 1 0 0 0 1 1 0 1 0 1 0 1 0 1 0

>  <DIFUSE_FUNC_ATOM>  (1935) 
atom 6   atom 7   

>  <FINAL_SINGLE_POINT_ENERGY>  (1935) 
0

>  <NONCOV_INTER_ENERGY_QM>  (1935) 
0

>  <FF_Energy>  (1935) 
-2.11

>  <QM_Energy>  (1935) 
-7.51

>  <source>  (1935) 
ACET_MBZ_02

>  <Index>  (1935) 
7131

$$$$
ACET-pdb4rhh-C-ASP-79:MBZ-pdb4rhh-C-PHE-206
     RDKit          3D

 22 21  0  0  0  0  0  0  0  0999 V2000
    0.6272    0.5871    3.6986 C   0  0  0  0  0  0  0  0  0  0  0  0
   -0.1589    0.7353    3.1064 H   0  0  0  0  0  0  0  0  0  0  0  0
    0.4112    0.8594    4.6306 H   0  0  0  0  0  0  0  0  0  0  0  0
    0.8266   -0.4844    3.7113 H   0  0  0  0  0  0  0  0  0  0  0  0
    1.7951    1.4478    3.1902 C   0  0  0  0  0  0  0  0  0  0  0  0
    2.8864    0.9021    2.8728 O   0  0  0  0  0  1  0  0  0  0  0  0
    1.5853    2.7071    3.1169 O   0  0  0  0  0  0  0  0  0  0  0  0
    0.0298    2.9562    0.0520 C   0  0  0  0  0  0  0  0  0  0  0  0
    0.9111    3.2472   -0.2755 H   0  0  0  0  0  0  0  0  0  0  0  0
   -0.1242    3.2232    0.9868 H   0  0  0  0  0  0  0  0  0  0  0  0
   -0.7299    3.4399   -0.5619 H   0  0  0  0  0  0  0  0  0  0  0  0
    0.0057    1.4129    0.0020 C   0  0  0  0  0  0  0  0  0  0  0  0
   -1.1876    0.7045    0.0076 C   0  0  0  0  0  0  0  0  0  0  0  0
   -2.0580    1.1860    0.0160 H   0  0  0  0  0  0  0  0  0  0  0  0
   -1.1928   -0.7016    0.0000 C   0  0  0  0  0  0  0  0  0  0  0  0
   -2.0832   -1.1800    0.0064 H   0  0  0  0  0  0  0  0  0  0  0  0
   -0.0124   -1.4047   -0.0145 C   0  0  0  0  0  0  0  0  0  0  0  0
   -0.0138   -2.4008   -0.0363 H   0  0  0  0  0  0  0  0  0  0  0  0
    1.1928   -0.7074   -0.0000 C   0  0  0  0  0  0  0  0  0  0  0  0
    2.0737   -1.2031    0.0090 H   0  0  0  0  0  0  0  0  0  0  0  0
    1.1943    0.6963    0.0049 C   0  0  0  0  0  0  0  0  0  0  0  0
    2.0684    1.1807    0.0097 H   0  0  0  0  0  0  0  0  0  0  0  0
  1  5  1  0
  5  6  1  0
  5  7  2  0
  1  2  1  0
  1  3  1  0
  1  4  1  0
  8 12  1  0
 12 13  2  0
 13 15  1  0
 15 17  2  0
 17 19  1  0
 19 21  2  0
 21 12  1  0
  8  9  1  0
  8 10  1  0
  8 11  1  0
 13 14  1  0
 15 16  1  0
 17 18  1  0
 19 20  1  0
 21 22  1  0
M  CHG  1   6  -1
M  END
>  <PDB_ID>  (1936) 
pdb4rhh

>  <RESIDUE_NAME>  (1936) 
ASP   PHE

>  <FRAG_NAME>  (1936) 
ACET   MBZ

>  <FRAG_ATOM_NUM>  (1936) 
fragi: 7  fragj: 15

>  <atom.prop.CHAIN_ID>  (1936) 
A A A A A A A Z Z Z Z Z Z Z Z Z Z Z Z Z Z Z

>  <atom.prop.IS_HEAVY_ATOM>  (1936) 
1 0 0 0 1 1 1 1 0 0 0 1 1 0 1 0 1 0 1 0 1 0

>  <DIFUSE_FUNC_ATOM>  (1936) 
atom 6   atom 7   

>  <FINAL_SINGLE_POINT_ENERGY>  (1936) 
0

>  <NONCOV_INTER_ENERGY_QM>  (1936) 
0

>  <FF_Energy>  (1936) 
-0.85

>  <QM_Energy>  (1936) 
-6.25

>  <source>  (1936) 
ACET_MBZ_02

>  <Index>  (1936) 
7155

$$$$
ACET-pdb4rhh-D-ASP-79:MBZ-pdb4rhh-D-PHE-206
     RDKit          3D

 22 21  0  0  0  0  0  0  0  0999 V2000
    0.2916    0.4052    3.6740 C   0  0  0  0  0  0  0  0  0  0  0  0
   -0.4921    0.4725    3.0692 H   0  0  0  0  0  0  0  0  0  0  0  0
    0.0291    0.5994    4.6105 H   0  0  0  0  0  0  0  0  0  0  0  0
    0.6498   -0.6235    3.6371 H   0  0  0  0  0  0  0  0  0  0  0  0
    1.3416    1.4619    3.2321 C   0  0  0  0  0  0  0  0  0  0  0  0
    2.5499    1.1431    3.0518 O   0  0  0  0  0  1  0  0  0  0  0  0
    0.9246    2.6409    3.0643 O   0  0  0  0  0  0  0  0  0  0  0  0
    0.0128    2.9341   -0.0200 C   0  0  0  0  0  0  0  0  0  0  0  0
    0.8967    3.2322   -0.3442 H   0  0  0  0  0  0  0  0  0  0  0  0
   -0.1601    3.2491    0.8998 H   0  0  0  0  0  0  0  0  0  0  0  0
   -0.7418    3.3818   -0.6667 H   0  0  0  0  0  0  0  0  0  0  0  0
    0.0032    1.4226   -0.0073 C   0  0  0  0  0  0  0  0  0  0  0  0
   -1.2073    0.6944   -0.0055 C   0  0  0  0  0  0  0  0  0  0  0  0
   -2.0709    1.1853   -0.0091 H   0  0  0  0  0  0  0  0  0  0  0  0
   -1.2135   -0.7066    0.0000 C   0  0  0  0  0  0  0  0  0  0  0  0
   -2.0902   -1.1954   -0.0094 H   0  0  0  0  0  0  0  0  0  0  0  0
   -0.0108   -1.4070    0.0203 C   0  0  0  0  0  0  0  0  0  0  0  0
   -0.0072   -2.4013    0.0485 H   0  0  0  0  0  0  0  0  0  0  0  0
    1.2135   -0.7023   -0.0000 C   0  0  0  0  0  0  0  0  0  0  0  0
    2.0848   -1.2064   -0.0072 H   0  0  0  0  0  0  0  0  0  0  0  0
    1.2148    0.6989   -0.0075 C   0  0  0  0  0  0  0  0  0  0  0  0
    2.0776    1.1932   -0.0136 H   0  0  0  0  0  0  0  0  0  0  0  0
  1  5  1  0
  5  6  1  0
  5  7  2  0
  1  2  1  0
  1  3  1  0
  1  4  1  0
  8 12  1  0
 12 13  2  0
 13 15  1  0
 15 17  2  0
 17 19  1  0
 19 21  2  0
 21 12  1  0
  8  9  1  0
  8 10  1  0
  8 11  1  0
 13 14  1  0
 15 16  1  0
 17 18  1  0
 19 20  1  0
 21 22  1  0
M  CHG  1   6  -1
M  END
>  <PDB_ID>  (1937) 
pdb4rhh

>  <RESIDUE_NAME>  (1937) 
ASP   PHE

>  <FRAG_NAME>  (1937) 
ACET   MBZ

>  <FRAG_ATOM_NUM>  (1937) 
fragi: 7  fragj: 15

>  <atom.prop.CHAIN_ID>  (1937) 
A A A A A A A Z Z Z Z Z Z Z Z Z Z Z Z Z Z Z

>  <atom.prop.IS_HEAVY_ATOM>  (1937) 
1 0 0 0 1 1 1 1 0 0 0 1 1 0 1 0 1 0 1 0 1 0

>  <DIFUSE_FUNC_ATOM>  (1937) 
atom 6   atom 7   

>  <FINAL_SINGLE_POINT_ENERGY>  (1937) 
0

>  <NONCOV_INTER_ENERGY_QM>  (1937) 
0

>  <FF_Energy>  (1937) 
0.25

>  <QM_Energy>  (1937) 
-6.29

>  <source>  (1937) 
ACET_MBZ_02

>  <Index>  (1937) 
7166

$$$$
ACET-pdb4ri6-A-ASP-166:MBZ-pdb4ri6-A-PHE-156
     RDKit          3D

 22 21  0  0  0  0  0  0  0  0999 V2000
   -4.4558    3.0318    2.5990 C   0  0  0  0  0  0  0  0  0  0  0  0
   -4.2140    2.4536    3.3389 H   0  0  0  0  0  0  0  0  0  0  0  0
   -4.9111    2.5208    1.9116 H   0  0  0  0  0  0  0  0  0  0  0  0
   -5.1190    3.8181    2.9596 H   0  0  0  0  0  0  0  0  0  0  0  0
   -3.1897    3.5899    2.0068 C   0  0  0  0  0  0  0  0  0  0  0  0
   -3.2373    4.1436    0.8849 O   0  0  0  0  0  1  0  0  0  0  0  0
   -2.1452    3.4631    2.6684 O   0  0  0  0  0  0  0  0  0  0  0  0
   -0.0042    2.9104   -0.0291 C   0  0  0  0  0  0  0  0  0  0  0  0
    0.8453    3.2167    0.3235 H   0  0  0  0  0  0  0  0  0  0  0  0
   -0.7268    3.2106    0.5434 H   0  0  0  0  0  0  0  0  0  0  0  0
   -0.1457    3.3310   -1.0247 H   0  0  0  0  0  0  0  0  0  0  0  0
    0.0039    1.4028   -0.0128 C   0  0  0  0  0  0  0  0  0  0  0  0
   -1.1919    0.6857    0.0141 C   0  0  0  0  0  0  0  0  0  0  0  0
   -2.0007    1.1451    0.0015 H   0  0  0  0  0  0  0  0  0  0  0  0
   -1.1947   -0.7014   -0.0000 C   0  0  0  0  0  0  0  0  0  0  0  0
   -2.0011   -1.1651    0.0188 H   0  0  0  0  0  0  0  0  0  0  0  0
   -0.0098   -1.3896    0.0089 C   0  0  0  0  0  0  0  0  0  0  0  0
   -0.0128   -2.3193    0.0152 H   0  0  0  0  0  0  0  0  0  0  0  0
    1.1947   -0.6996    0.0000 C   0  0  0  0  0  0  0  0  0  0  0  0
    1.9986   -1.1675   -0.0030 H   0  0  0  0  0  0  0  0  0  0  0  0
    1.1978    0.7021   -0.0102 C   0  0  0  0  0  0  0  0  0  0  0  0
    2.0052    1.1630   -0.0217 H   0  0  0  0  0  0  0  0  0  0  0  0
  1  5  1  0
  5  6  1  0
  5  7  2  0
  1  2  1  0
  1  3  1  0
  1  4  1  0
  8 12  1  0
 12 13  2  0
 13 15  1  0
 15 17  2  0
 17 19  1  0
 19 21  2  0
 21 12  1  0
  8  9  1  0
  8 10  1  0
  8 11  1  0
 13 14  1  0
 15 16  1  0
 17 18  1  0
 19 20  1  0
 21 22  1  0
M  CHG  1   6  -1
M  END
>  <PDB_ID>  (1938) 
pdb4ri6

>  <RESIDUE_NAME>  (1938) 
ASP   PHE

>  <FRAG_NAME>  (1938) 
ACET   MBZ

>  <FRAG_ATOM_NUM>  (1938) 
fragi: 7  fragj: 15

>  <atom.prop.CHAIN_ID>  (1938) 
A A A A A A A Z Z Z Z Z Z Z Z Z Z Z Z Z Z Z

>  <atom.prop.IS_HEAVY_ATOM>  (1938) 
1 0 0 0 1 1 1 1 0 0 0 1 1 0 1 0 1 0 1 0 1 0

>  <DIFUSE_FUNC_ATOM>  (1938) 
atom 6   atom 7   

>  <FINAL_SINGLE_POINT_ENERGY>  (1938) 
0

>  <NONCOV_INTER_ENERGY_QM>  (1938) 
0

>  <FF_Energy>  (1938) 
-1.51

>  <QM_Energy>  (1938) 
-7.19

>  <source>  (1938) 
ACET_MBZ_02

>  <Index>  (1938) 
7190

$$$$
ACET-pdb4ri6-B-ASP-166:MBZ-pdb4ri6-B-PHE-156
     RDKit          3D

 22 21  0  0  0  0  0  0  0  0999 V2000
   -4.4730    3.0419    2.3344 C   0  0  0  0  0  0  0  0  0  0  0  0
   -4.2647    2.5136    3.1207 H   0  0  0  0  0  0  0  0  0  0  0  0
   -4.8679    2.4796    1.6501 H   0  0  0  0  0  0  0  0  0  0  0  0
   -5.1816    3.8240    2.6071 H   0  0  0  0  0  0  0  0  0  0  0  0
   -3.1790    3.6052    1.7903 C   0  0  0  0  0  0  0  0  0  0  0  0
   -3.1969    4.1264    0.6632 O   0  0  0  0  0  1  0  0  0  0  0  0
   -2.1588    3.4969    2.4919 O   0  0  0  0  0  0  0  0  0  0  0  0
   -0.0207    2.9016   -0.0420 C   0  0  0  0  0  0  0  0  0  0  0  0
    0.7802    3.2278    0.3958 H   0  0  0  0  0  0  0  0  0  0  0  0
   -0.8084    3.2113    0.4315 H   0  0  0  0  0  0  0  0  0  0  0  0
   -0.0478    3.2817   -1.0632 H   0  0  0  0  0  0  0  0  0  0  0  0
   -0.0041    1.4053    0.0152 C   0  0  0  0  0  0  0  0  0  0  0  0
   -1.1892    0.6918   -0.0047 C   0  0  0  0  0  0  0  0  0  0  0  0
   -1.9987    1.1487   -0.0074 H   0  0  0  0  0  0  0  0  0  0  0  0
   -1.1876   -0.6966   -0.0000 C   0  0  0  0  0  0  0  0  0  0  0  0
   -1.9949   -1.1593    0.0034 H   0  0  0  0  0  0  0  0  0  0  0  0
    0.0013   -1.3934   -0.0033 C   0  0  0  0  0  0  0  0  0  0  0  0
   -0.0012   -2.3237    0.0099 H   0  0  0  0  0  0  0  0  0  0  0  0
    1.1876   -0.7066    0.0000 C   0  0  0  0  0  0  0  0  0  0  0  0
    1.9921   -1.1729    0.0006 H   0  0  0  0  0  0  0  0  0  0  0  0
    1.1920    0.6994   -0.0072 C   0  0  0  0  0  0  0  0  0  0  0  0
    1.9997    1.1597   -0.0109 H   0  0  0  0  0  0  0  0  0  0  0  0
  1  5  1  0
  5  6  1  0
  5  7  2  0
  1  2  1  0
  1  3  1  0
  1  4  1  0
  8 12  1  0
 12 13  2  0
 13 15  1  0
 15 17  2  0
 17 19  1  0
 19 21  2  0
 21 12  1  0
  8  9  1  0
  8 10  1  0
  8 11  1  0
 13 14  1  0
 15 16  1  0
 17 18  1  0
 19 20  1  0
 21 22  1  0
M  CHG  1   6  -1
M  END
>  <PDB_ID>  (1939) 
pdb4ri6

>  <RESIDUE_NAME>  (1939) 
ASP   PHE

>  <FRAG_NAME>  (1939) 
ACET   MBZ

>  <FRAG_ATOM_NUM>  (1939) 
fragi: 7  fragj: 15

>  <atom.prop.CHAIN_ID>  (1939) 
A A A A A A A Z Z Z Z Z Z Z Z Z Z Z Z Z Z Z

>  <atom.prop.IS_HEAVY_ATOM>  (1939) 
1 0 0 0 1 1 1 1 0 0 0 1 1 0 1 0 1 0 1 0 1 0

>  <DIFUSE_FUNC_ATOM>  (1939) 
atom 6   atom 7   

>  <FINAL_SINGLE_POINT_ENERGY>  (1939) 
0

>  <NONCOV_INTER_ENERGY_QM>  (1939) 
0

>  <FF_Energy>  (1939) 
-1.27

>  <QM_Energy>  (1939) 
-7.47

>  <source>  (1939) 
ACET_MBZ_02

>  <Index>  (1939) 
7195

$$$$
ACET-pdb3tbg-B-GLU-215:MBZ-pdb3tbg-B-PHE-243
     RDKit          3D

 22 21  0  0  0  0  0  0  0  0999 V2000
    4.4522    3.7858   -0.1281 C   0  0  0  0  0  0  0  0  0  0  0  0
    5.0033    3.0360   -0.4538 H   0  0  0  0  0  0  0  0  0  0  0  0
    4.1003    3.6160    0.7761 H   0  0  0  0  0  0  0  0  0  0  0  0
    5.0838    4.6730   -0.0835 H   0  0  0  0  0  0  0  0  0  0  0  0
    3.2666    3.9280   -1.0652 C   0  0  0  0  0  0  0  0  0  0  0  0
    2.6411    5.0087   -1.0842 O   0  0  0  0  0  1  0  0  0  0  0  0
    2.9454    2.9520   -1.7713 O   0  0  0  0  0  0  0  0  0  0  0  0
   -0.0095    2.9037   -0.0042 C   0  0  0  0  0  0  0  0  0  0  0  0
    0.9265    3.2160   -0.0240 H   0  0  0  0  0  0  0  0  0  0  0  0
   -0.4783    3.2096    0.8088 H   0  0  0  0  0  0  0  0  0  0  0  0
   -0.5223    3.3295   -0.8666 H   0  0  0  0  0  0  0  0  0  0  0  0
   -0.0015    1.4033   -0.0005 C   0  0  0  0  0  0  0  0  0  0  0  0
   -1.1972    0.6941    0.0004 C   0  0  0  0  0  0  0  0  0  0  0  0
   -2.0654    1.1831   -0.0004 H   0  0  0  0  0  0  0  0  0  0  0  0
   -1.2050   -0.7009    0.0000 C   0  0  0  0  0  0  0  0  0  0  0  0
   -2.0795   -1.1922    0.0005 H   0  0  0  0  0  0  0  0  0  0  0  0
    0.0009   -1.3991    0.0008 C   0  0  0  0  0  0  0  0  0  0  0  0
   -0.0001   -2.3948    0.0015 H   0  0  0  0  0  0  0  0  0  0  0  0
    1.2050   -0.6958    0.0000 C   0  0  0  0  0  0  0  0  0  0  0  0
    2.0861   -1.1917    0.0016 H   0  0  0  0  0  0  0  0  0  0  0  0
    1.1978    0.6985   -0.0007 C   0  0  0  0  0  0  0  0  0  0  0  0
    2.0640    1.1952   -0.0021 H   0  0  0  0  0  0  0  0  0  0  0  0
  1  5  1  0
  5  6  1  0
  5  7  2  0
  1  2  1  0
  1  3  1  0
  1  4  1  0
  8 12  1  0
 12 13  2  0
 13 15  1  0
 15 17  2  0
 17 19  1  0
 19 21  2  0
 21 12  1  0
  8  9  1  0
  8 10  1  0
  8 11  1  0
 13 14  1  0
 15 16  1  0
 17 18  1  0
 19 20  1  0
 21 22  1  0
M  CHG  1   6  -1
M  END
>  <PDB_ID>  (1940) 
pdb3tbg

>  <RESIDUE_NAME>  (1940) 
GLU   PHE

>  <FRAG_NAME>  (1940) 
ACET   MBZ

>  <FRAG_ATOM_NUM>  (1940) 
fragi: 7  fragj: 15

>  <atom.prop.CHAIN_ID>  (1940) 
A A A A A A A Z Z Z Z Z Z Z Z Z Z Z Z Z Z Z

>  <atom.prop.IS_HEAVY_ATOM>  (1940) 
1 0 0 0 1 1 1 1 0 0 0 1 1 0 1 0 1 0 1 0 1 0

>  <DIFUSE_FUNC_ATOM>  (1940) 
atom 6   atom 7   

>  <FINAL_SINGLE_POINT_ENERGY>  (1940) 
0

>  <NONCOV_INTER_ENERGY_QM>  (1940) 
0

>  <FF_Energy>  (1940) 
-1.46

>  <QM_Energy>  (1940) 
-7.05

>  <source>  (1940) 
ACET_MBZ_02

>  <Index>  (1940) 
7281

$$$$
ACET-pdb4rkc-A-GLU-330:MBZ-pdb4rkc-A-PHE-338
     RDKit          3D

 22 21  0  0  0  0  0  0  0  0999 V2000
    4.2193    2.2207    0.4446 C   0  0  0  0  0  0  0  0  0  0  0  0
    4.2965    1.6207   -0.3342 H   0  0  0  0  0  0  0  0  0  0  0  0
    3.3621    2.0988    0.9169 H   0  0  0  0  0  0  0  0  0  0  0  0
    5.0279    1.9862    1.1370 H   0  0  0  0  0  0  0  0  0  0  0  0
    4.2582    3.6457   -0.0699 C   0  0  0  0  0  0  0  0  0  0  0  0
    4.9457    4.4403    0.6227 O   0  0  0  0  0  1  0  0  0  0  0  0
    3.6075    3.9398   -1.1643 O   0  0  0  0  0  0  0  0  0  0  0  0
    0.0107    2.8349    0.0279 C   0  0  0  0  0  0  0  0  0  0  0  0
    0.8837    3.1506    0.3866 H   0  0  0  0  0  0  0  0  0  0  0  0
   -0.7344    3.1549    0.6057 H   0  0  0  0  0  0  0  0  0  0  0  0
   -0.1212    3.2886   -0.9544 H   0  0  0  0  0  0  0  0  0  0  0  0
    0.0041    1.3831    0.0066 C   0  0  0  0  0  0  0  0  0  0  0  0
   -1.2006    0.6960   -0.0114 C   0  0  0  0  0  0  0  0  0  0  0  0
   -2.0577    1.1952   -0.0337 H   0  0  0  0  0  0  0  0  0  0  0  0
   -1.2062   -0.6824    0.0000 C   0  0  0  0  0  0  0  0  0  0  0  0
   -2.0807   -1.1810    0.0186 H   0  0  0  0  0  0  0  0  0  0  0  0
   -0.0069   -1.3698   -0.0128 C   0  0  0  0  0  0  0  0  0  0  0  0
   -0.0172   -2.3799   -0.0322 H   0  0  0  0  0  0  0  0  0  0  0  0
    1.2062   -0.7002    0.0000 C   0  0  0  0  0  0  0  0  0  0  0  0
    2.0747   -1.2112   -0.0023 H   0  0  0  0  0  0  0  0  0  0  0  0
    1.2034    0.6732    0.0175 C   0  0  0  0  0  0  0  0  0  0  0  0
    2.0679    1.1784    0.0373 H   0  0  0  0  0  0  0  0  0  0  0  0
  1  5  1  0
  5  6  1  0
  5  7  2  0
  1  2  1  0
  1  3  1  0
  1  4  1  0
  8 12  1  0
 12 13  2  0
 13 15  1  0
 15 17  2  0
 17 19  1  0
 19 21  2  0
 21 12  1  0
  8  9  1  0
  8 10  1  0
  8 11  1  0
 13 14  1  0
 15 16  1  0
 17 18  1  0
 19 20  1  0
 21 22  1  0
M  CHG  1   6  -1
M  END
>  <PDB_ID>  (1941) 
pdb4rkc

>  <RESIDUE_NAME>  (1941) 
GLU   PHE

>  <FRAG_NAME>  (1941) 
ACET   MBZ

>  <FRAG_ATOM_NUM>  (1941) 
fragi: 7  fragj: 15

>  <atom.prop.CHAIN_ID>  (1941) 
A A A A A A A Z Z Z Z Z Z Z Z Z Z Z Z Z Z Z

>  <atom.prop.IS_HEAVY_ATOM>  (1941) 
1 0 0 0 1 1 1 1 0 0 0 1 1 0 1 0 1 0 1 0 1 0

>  <DIFUSE_FUNC_ATOM>  (1941) 
atom 6   atom 7   

>  <FINAL_SINGLE_POINT_ENERGY>  (1941) 
0

>  <NONCOV_INTER_ENERGY_QM>  (1941) 
0

>  <FF_Energy>  (1941) 
2.78

>  <QM_Energy>  (1941) 
-3.01

>  <source>  (1941) 
ACET_MBZ_02

>  <Index>  (1941) 
7287

$$$$
ACET-pdb4rkf-A-GLU-162:MBZ-pdb4rkf-A-PHE-146
     RDKit          3D

 22 21  0  0  0  0  0  0  0  0999 V2000
    3.7570    1.2195   -2.2615 C   0  0  0  0  0  0  0  0  0  0  0  0
    4.0271    1.3698   -3.1999 H   0  0  0  0  0  0  0  0  0  0  0  0
    2.8989    0.7317   -2.2066 H   0  0  0  0  0  0  0  0  0  0  0  0
    4.5226    0.6050   -1.7879 H   0  0  0  0  0  0  0  0  0  0  0  0
    3.5628    2.5705   -1.6150 C   0  0  0  0  0  0  0  0  0  0  0  0
    4.0752    2.7997   -0.4802 O   0  0  0  0  0  1  0  0  0  0  0  0
    2.8963    3.4124   -2.2546 O   0  0  0  0  0  0  0  0  0  0  0  0
   -0.0035    2.9216   -0.0293 C   0  0  0  0  0  0  0  0  0  0  0  0
    0.8752    3.2368    0.2866 H   0  0  0  0  0  0  0  0  0  0  0  0
   -0.7369    3.2396    0.5470 H   0  0  0  0  0  0  0  0  0  0  0  0
   -0.1635    3.3390   -1.0234 H   0  0  0  0  0  0  0  0  0  0  0  0
   -0.0014    1.4132    0.0003 C   0  0  0  0  0  0  0  0  0  0  0  0
   -1.2008    0.6914    0.0068 C   0  0  0  0  0  0  0  0  0  0  0  0
   -2.0680    1.1798    0.0150 H   0  0  0  0  0  0  0  0  0  0  0  0
   -1.2020   -0.7022    0.0000 C   0  0  0  0  0  0  0  0  0  0  0  0
   -2.0759   -1.1985    0.0001 H   0  0  0  0  0  0  0  0  0  0  0  0
    0.0059   -1.4000   -0.0046 C   0  0  0  0  0  0  0  0  0  0  0  0
    0.0021   -2.3957   -0.0115 H   0  0  0  0  0  0  0  0  0  0  0  0
    1.2020   -0.6962   -0.0000 C   0  0  0  0  0  0  0  0  0  0  0  0
    2.0870   -1.1915    0.0067 H   0  0  0  0  0  0  0  0  0  0  0  0
    1.1964    0.6939   -0.0025 C   0  0  0  0  0  0  0  0  0  0  0  0
    2.0655    1.1915   -0.0071 H   0  0  0  0  0  0  0  0  0  0  0  0
  1  5  1  0
  5  6  1  0
  5  7  2  0
  1  2  1  0
  1  3  1  0
  1  4  1  0
  8 12  1  0
 12 13  2  0
 13 15  1  0
 15 17  2  0
 17 19  1  0
 19 21  2  0
 21 12  1  0
  8  9  1  0
  8 10  1  0
  8 11  1  0
 13 14  1  0
 15 16  1  0
 17 18  1  0
 19 20  1  0
 21 22  1  0
M  CHG  1   6  -1
M  END
>  <PDB_ID>  (1942) 
pdb4rkf

>  <RESIDUE_NAME>  (1942) 
GLU   PHE

>  <FRAG_NAME>  (1942) 
ACET   MBZ

>  <FRAG_ATOM_NUM>  (1942) 
fragi: 7  fragj: 15

>  <atom.prop.CHAIN_ID>  (1942) 
A A A A A A A Z Z Z Z Z Z Z Z Z Z Z Z Z Z Z

>  <atom.prop.IS_HEAVY_ATOM>  (1942) 
1 0 0 0 1 1 1 1 0 0 0 1 1 0 1 0 1 0 1 0 1 0

>  <DIFUSE_FUNC_ATOM>  (1942) 
atom 6   atom 7   

>  <FINAL_SINGLE_POINT_ENERGY>  (1942) 
0

>  <NONCOV_INTER_ENERGY_QM>  (1942) 
0

>  <FF_Energy>  (1942) 
-1.72

>  <QM_Energy>  (1942) 
-7.34

>  <source>  (1942) 
ACET_MBZ_02

>  <Index>  (1942) 
7295

$$$$
ACET-pdb4rkf-B-GLU-162:MBZ-pdb4rkf-B-PHE-146
     RDKit          3D

 22 21  0  0  0  0  0  0  0  0999 V2000
    3.9474    1.1163   -2.3317 C   0  0  0  0  0  0  0  0  0  0  0  0
    4.3390    1.3030   -3.2177 H   0  0  0  0  0  0  0  0  0  0  0  0
    3.0889    0.6354   -2.4060 H   0  0  0  0  0  0  0  0  0  0  0  0
    4.6444    0.4866   -1.7786 H   0  0  0  0  0  0  0  0  0  0  0  0
    3.6791    2.4349   -1.6596 C   0  0  0  0  0  0  0  0  0  0  0  0
    4.1502    2.6534   -0.5272 O   0  0  0  0  0  1  0  0  0  0  0  0
    2.9644    3.2453   -2.2795 O   0  0  0  0  0  0  0  0  0  0  0  0
    0.0036    2.9147   -0.0525 C   0  0  0  0  0  0  0  0  0  0  0  0
    0.8837    3.2315    0.2564 H   0  0  0  0  0  0  0  0  0  0  0  0
   -0.7271    3.2358    0.5248 H   0  0  0  0  0  0  0  0  0  0  0  0
   -0.1614    3.3305   -1.0465 H   0  0  0  0  0  0  0  0  0  0  0  0
    0.0053    1.4040   -0.0176 C   0  0  0  0  0  0  0  0  0  0  0  0
   -1.1970    0.6966    0.0066 C   0  0  0  0  0  0  0  0  0  0  0  0
   -2.0598    1.1854    0.0272 H   0  0  0  0  0  0  0  0  0  0  0  0
   -1.1937   -0.6946    0.0000 C   0  0  0  0  0  0  0  0  0  0  0  0
   -2.0754   -1.1886   -0.0157 H   0  0  0  0  0  0  0  0  0  0  0  0
   -0.0009   -1.3932    0.0162 C   0  0  0  0  0  0  0  0  0  0  0  0
   -0.0104   -2.3936    0.0391 H   0  0  0  0  0  0  0  0  0  0  0  0
    1.1937   -0.7064   -0.0000 C   0  0  0  0  0  0  0  0  0  0  0  0
    2.0777   -1.1987   -0.0063 H   0  0  0  0  0  0  0  0  0  0  0  0
    1.1926    0.6936   -0.0052 C   0  0  0  0  0  0  0  0  0  0  0  0
    2.0665    1.1808   -0.0008 H   0  0  0  0  0  0  0  0  0  0  0  0
  1  5  1  0
  5  6  1  0
  5  7  2  0
  1  2  1  0
  1  3  1  0
  1  4  1  0
  8 12  1  0
 12 13  2  0
 13 15  1  0
 15 17  2  0
 17 19  1  0
 19 21  2  0
 21 12  1  0
  8  9  1  0
  8 10  1  0
  8 11  1  0
 13 14  1  0
 15 16  1  0
 17 18  1  0
 19 20  1  0
 21 22  1  0
M  CHG  1   6  -1
M  END
>  <PDB_ID>  (1943) 
pdb4rkf

>  <RESIDUE_NAME>  (1943) 
GLU   PHE

>  <FRAG_NAME>  (1943) 
ACET   MBZ

>  <FRAG_ATOM_NUM>  (1943) 
fragi: 7  fragj: 15

>  <atom.prop.CHAIN_ID>  (1943) 
A A A A A A A Z Z Z Z Z Z Z Z Z Z Z Z Z Z Z

>  <atom.prop.IS_HEAVY_ATOM>  (1943) 
1 0 0 0 1 1 1 1 0 0 0 1 1 0 1 0 1 0 1 0 1 0

>  <DIFUSE_FUNC_ATOM>  (1943) 
atom 6   atom 7   

>  <FINAL_SINGLE_POINT_ENERGY>  (1943) 
0

>  <NONCOV_INTER_ENERGY_QM>  (1943) 
0

>  <FF_Energy>  (1943) 
-2.14

>  <QM_Energy>  (1943) 
-7.45

>  <source>  (1943) 
ACET_MBZ_02

>  <Index>  (1943) 
7299

$$$$
ACET-pdb4rlz-A-GLU-426:MBZ-pdb4rlz-A-PHE-423
     RDKit          3D

 22 21  0  0  0  0  0  0  0  0999 V2000
    2.2206    3.0095   -3.1333 C   0  0  0  0  0  0  0  0  0  0  0  0
    2.7392    2.8831   -3.9589 H   0  0  0  0  0  0  0  0  0  0  0  0
    2.6249    2.5473   -2.3649 H   0  0  0  0  0  0  0  0  0  0  0  0
    2.1845    4.0763   -2.9126 H   0  0  0  0  0  0  0  0  0  0  0  0
    0.8472    2.4102   -3.3575 C   0  0  0  0  0  0  0  0  0  0  0  0
   -0.0852    3.1478   -3.7449 O   0  0  0  0  0  1  0  0  0  0  0  0
    0.6981    1.1921   -3.1503 O   0  0  0  0  0  0  0  0  0  0  0  0
   -0.0047    2.9002   -0.0094 C   0  0  0  0  0  0  0  0  0  0  0  0
   -0.8962    3.2011   -0.3182 H   0  0  0  0  0  0  0  0  0  0  0  0
    0.7079    3.2032   -0.6257 H   0  0  0  0  0  0  0  0  0  0  0  0
    0.1817    3.3540    0.9639 H   0  0  0  0  0  0  0  0  0  0  0  0
   -0.0007    1.3962    0.0020 C   0  0  0  0  0  0  0  0  0  0  0  0
   -1.1922    0.6913   -0.0004 C   0  0  0  0  0  0  0  0  0  0  0  0
   -2.0608    1.1825   -0.0039 H   0  0  0  0  0  0  0  0  0  0  0  0
   -1.1955   -0.6927   -0.0000 C   0  0  0  0  0  0  0  0  0  0  0  0
   -2.0737   -1.1880    0.0022 H   0  0  0  0  0  0  0  0  0  0  0  0
    0.0013   -1.3864   -0.0003 C   0  0  0  0  0  0  0  0  0  0  0  0
   -0.0051   -2.3882   -0.0016 H   0  0  0  0  0  0  0  0  0  0  0  0
    1.1955   -0.6965    0.0000 C   0  0  0  0  0  0  0  0  0  0  0  0
    2.0790   -1.1948    0.0027 H   0  0  0  0  0  0  0  0  0  0  0  0
    1.1916    0.6881   -0.0013 C   0  0  0  0  0  0  0  0  0  0  0  0
    2.0618    1.1855   -0.0058 H   0  0  0  0  0  0  0  0  0  0  0  0
  1  5  1  0
  5  6  1  0
  5  7  2  0
  1  2  1  0
  1  3  1  0
  1  4  1  0
  8 12  1  0
 12 13  2  0
 13 15  1  0
 15 17  2  0
 17 19  1  0
 19 21  2  0
 21 12  1  0
  8  9  1  0
  8 10  1  0
  8 11  1  0
 13 14  1  0
 15 16  1  0
 17 18  1  0
 19 20  1  0
 21 22  1  0
M  CHG  1   6  -1
M  END
>  <PDB_ID>  (1944) 
pdb4rlz

>  <RESIDUE_NAME>  (1944) 
GLU   PHE

>  <FRAG_NAME>  (1944) 
ACET   MBZ

>  <FRAG_ATOM_NUM>  (1944) 
fragi: 7  fragj: 15

>  <atom.prop.CHAIN_ID>  (1944) 
A A A A A A A Z Z Z Z Z Z Z Z Z Z Z Z Z Z Z

>  <atom.prop.IS_HEAVY_ATOM>  (1944) 
1 0 0 0 1 1 1 1 0 0 0 1 1 0 1 0 1 0 1 0 1 0

>  <DIFUSE_FUNC_ATOM>  (1944) 
atom 6   atom 7   

>  <FINAL_SINGLE_POINT_ENERGY>  (1944) 
0

>  <NONCOV_INTER_ENERGY_QM>  (1944) 
0

>  <FF_Energy>  (1944) 
3.12

>  <QM_Energy>  (1944) 
-1.96

>  <source>  (1944) 
ACET_MBZ_02

>  <Index>  (1944) 
7380

$$$$
ACET-pdb4rm4-A-ASP-134:MBZ-pdb4rm4-A-PHE-129
     RDKit          3D

 22 21  0  0  0  0  0  0  0  0999 V2000
    3.9640    3.2710    3.0566 C   0  0  0  0  0  0  0  0  0  0  0  0
    3.9794    2.5845    2.3377 H   0  0  0  0  0  0  0  0  0  0  0  0
    3.4404    2.9450    3.8357 H   0  0  0  0  0  0  0  0  0  0  0  0
    4.9902    3.4326    3.3867 H   0  0  0  0  0  0  0  0  0  0  0  0
    3.3159    4.5276    2.5204 C   0  0  0  0  0  0  0  0  0  0  0  0
    3.7549    5.6329    2.8859 O   0  0  0  0  0  1  0  0  0  0  0  0
    2.3521    4.4089    1.7350 O   0  0  0  0  0  0  0  0  0  0  0  0
    0.0066    2.8988    0.0096 C   0  0  0  0  0  0  0  0  0  0  0  0
    0.7966    3.2011    0.5223 H   0  0  0  0  0  0  0  0  0  0  0  0
   -0.8339    3.2075    0.4300 H   0  0  0  0  0  0  0  0  0  0  0  0
    0.0639    3.3446   -0.9834 H   0  0  0  0  0  0  0  0  0  0  0  0
    0.0016    1.3976    0.0026 C   0  0  0  0  0  0  0  0  0  0  0  0
   -1.1923    0.6906    0.0019 C   0  0  0  0  0  0  0  0  0  0  0  0
   -2.0600    1.1783    0.0010 H   0  0  0  0  0  0  0  0  0  0  0  0
   -1.1939   -0.6997    0.0000 C   0  0  0  0  0  0  0  0  0  0  0  0
   -2.0732   -1.1917    0.0024 H   0  0  0  0  0  0  0  0  0  0  0  0
   -0.0002   -1.3874   -0.0038 C   0  0  0  0  0  0  0  0  0  0  0  0
    0.0004   -2.3894   -0.0099 H   0  0  0  0  0  0  0  0  0  0  0  0
    1.1939   -0.6918   -0.0000 C   0  0  0  0  0  0  0  0  0  0  0  0
    2.0777   -1.1914    0.0046 H   0  0  0  0  0  0  0  0  0  0  0  0
    1.1909    0.6907   -0.0007 C   0  0  0  0  0  0  0  0  0  0  0  0
    2.0620    1.1875   -0.0041 H   0  0  0  0  0  0  0  0  0  0  0  0
  1  5  1  0
  5  6  1  0
  5  7  2  0
  1  2  1  0
  1  3  1  0
  1  4  1  0
  8 12  1  0
 12 13  2  0
 13 15  1  0
 15 17  2  0
 17 19  1  0
 19 21  2  0
 21 12  1  0
  8  9  1  0
  8 10  1  0
  8 11  1  0
 13 14  1  0
 15 16  1  0
 17 18  1  0
 19 20  1  0
 21 22  1  0
M  CHG  1   6  -1
M  END
>  <PDB_ID>  (1945) 
pdb4rm4

>  <RESIDUE_NAME>  (1945) 
ASP   PHE

>  <FRAG_NAME>  (1945) 
ACET   MBZ

>  <FRAG_ATOM_NUM>  (1945) 
fragi: 7  fragj: 15

>  <atom.prop.CHAIN_ID>  (1945) 
A A A A A A A Z Z Z Z Z Z Z Z Z Z Z Z Z Z Z

>  <atom.prop.IS_HEAVY_ATOM>  (1945) 
1 0 0 0 1 1 1 1 0 0 0 1 1 0 1 0 1 0 1 0 1 0

>  <DIFUSE_FUNC_ATOM>  (1945) 
atom 6   atom 7   

>  <FINAL_SINGLE_POINT_ENERGY>  (1945) 
0

>  <NONCOV_INTER_ENERGY_QM>  (1945) 
0

>  <FF_Energy>  (1945) 
-0.7

>  <QM_Energy>  (1945) 
-5.91

>  <source>  (1945) 
ACET_MBZ_02

>  <Index>  (1945) 
7387

$$$$
ACET-pdb3tlf-A-GLU-38:MBZ-pdb3tlf-A-PHE-6
     RDKit          3D

 22 21  0  0  0  0  0  0  0  0999 V2000
   -3.9235    1.8935    2.2325 C   0  0  0  0  0  0  0  0  0  0  0  0
   -4.0474    1.3123    1.4475 H   0  0  0  0  0  0  0  0  0  0  0  0
   -4.7761    2.0888    2.6845 H   0  0  0  0  0  0  0  0  0  0  0  0
   -3.2662    1.3850    2.9378 H   0  0  0  0  0  0  0  0  0  0  0  0
   -3.3592    3.2133    1.7370 C   0  0  0  0  0  0  0  0  0  0  0  0
   -2.5279    3.8480    2.4299 O   0  0  0  0  0  1  0  0  0  0  0  0
   -3.7081    3.5792    0.5944 O   0  0  0  0  0  0  0  0  0  0  0  0
    0.0082    2.9254    0.0077 C   0  0  0  0  0  0  0  0  0  0  0  0
    0.9434    3.2227   -0.1549 H   0  0  0  0  0  0  0  0  0  0  0  0
   -0.2921    3.2097    0.9128 H   0  0  0  0  0  0  0  0  0  0  0  0
   -0.6332    3.4094   -0.7287 H   0  0  0  0  0  0  0  0  0  0  0  0
    0.0021    1.4105   -0.0185 C   0  0  0  0  0  0  0  0  0  0  0  0
   -1.2004    0.7040    0.0107 C   0  0  0  0  0  0  0  0  0  0  0  0
   -2.0629    1.1929    0.0385 H   0  0  0  0  0  0  0  0  0  0  0  0
   -1.1996   -0.6887   -0.0000 C   0  0  0  0  0  0  0  0  0  0  0  0
   -2.0791   -1.1830   -0.0184 H   0  0  0  0  0  0  0  0  0  0  0  0
    0.0001   -1.3936    0.0161 C   0  0  0  0  0  0  0  0  0  0  0  0
   -0.0210   -2.3962    0.0388 H   0  0  0  0  0  0  0  0  0  0  0  0
    1.1996   -0.7189   -0.0000 C   0  0  0  0  0  0  0  0  0  0  0  0
    2.0787   -1.2099   -0.0049 H   0  0  0  0  0  0  0  0  0  0  0  0
    1.1982    0.6867   -0.0082 C   0  0  0  0  0  0  0  0  0  0  0  0
    2.0705    1.1743   -0.0070 H   0  0  0  0  0  0  0  0  0  0  0  0
  1  5  1  0
  5  6  1  0
  5  7  2  0
  1  2  1  0
  1  3  1  0
  1  4  1  0
  8 12  1  0
 12 13  2  0
 13 15  1  0
 15 17  2  0
 17 19  1  0
 19 21  2  0
 21 12  1  0
  8  9  1  0
  8 10  1  0
  8 11  1  0
 13 14  1  0
 15 16  1  0
 17 18  1  0
 19 20  1  0
 21 22  1  0
M  CHG  1   6  -1
M  END
>  <PDB_ID>  (1946) 
pdb3tlf

>  <RESIDUE_NAME>  (1946) 
GLU   PHE

>  <FRAG_NAME>  (1946) 
ACET   MBZ

>  <FRAG_ATOM_NUM>  (1946) 
fragi: 7  fragj: 15

>  <atom.prop.CHAIN_ID>  (1946) 
A A A A A A A Z Z Z Z Z Z Z Z Z Z Z Z Z Z Z

>  <atom.prop.IS_HEAVY_ATOM>  (1946) 
1 0 0 0 1 1 1 1 0 0 0 1 1 0 1 0 1 0 1 0 1 0

>  <DIFUSE_FUNC_ATOM>  (1946) 
atom 6   atom 7   

>  <FINAL_SINGLE_POINT_ENERGY>  (1946) 
0

>  <NONCOV_INTER_ENERGY_QM>  (1946) 
0

>  <FF_Energy>  (1946) 
-2.46

>  <QM_Energy>  (1946) 
-7.55

>  <source>  (1946) 
ACET_MBZ_02

>  <Index>  (1946) 
7486

$$$$
ACET-pdb3tlf-B-GLU-38:MBZ-pdb3tlf-B-PHE-6
     RDKit          3D

 22 21  0  0  0  0  0  0  0  0999 V2000
   -3.9696    1.8489    2.1847 C   0  0  0  0  0  0  0  0  0  0  0  0
   -4.0797    1.2538    1.4063 H   0  0  0  0  0  0  0  0  0  0  0  0
   -4.8347    2.0597    2.6082 H   0  0  0  0  0  0  0  0  0  0  0  0
   -3.3386    1.3461    2.9175 H   0  0  0  0  0  0  0  0  0  0  0  0
   -3.3859    3.1628    1.6704 C   0  0  0  0  0  0  0  0  0  0  0  0
   -2.6147    3.8285    2.3991 O   0  0  0  0  0  1  0  0  0  0  0  0
   -3.7009    3.5392    0.5254 O   0  0  0  0  0  0  0  0  0  0  0  0
    0.0071    2.8875    0.0398 C   0  0  0  0  0  0  0  0  0  0  0  0
    0.9469    3.1912   -0.0477 H   0  0  0  0  0  0  0  0  0  0  0  0
   -0.3765    3.1737    0.9083 H   0  0  0  0  0  0  0  0  0  0  0  0
   -0.5741    3.3548   -0.7552 H   0  0  0  0  0  0  0  0  0  0  0  0
   -0.0002    1.3929    0.0021 C   0  0  0  0  0  0  0  0  0  0  0  0
   -1.2008    0.6907    0.0051 C   0  0  0  0  0  0  0  0  0  0  0  0
   -2.0626    1.1862    0.0097 H   0  0  0  0  0  0  0  0  0  0  0  0
   -1.2021   -0.6887    0.0000 C   0  0  0  0  0  0  0  0  0  0  0  0
   -2.0742   -1.1912    0.0055 H   0  0  0  0  0  0  0  0  0  0  0  0
    0.0049   -1.3814   -0.0106 C   0  0  0  0  0  0  0  0  0  0  0  0
   -0.0059   -2.3847   -0.0264 H   0  0  0  0  0  0  0  0  0  0  0  0
    1.2021   -0.6973    0.0000 C   0  0  0  0  0  0  0  0  0  0  0  0
    2.0818   -1.1971    0.0070 H   0  0  0  0  0  0  0  0  0  0  0  0
    1.1960    0.6838    0.0034 C   0  0  0  0  0  0  0  0  0  0  0  0
    2.0635    1.1854    0.0056 H   0  0  0  0  0  0  0  0  0  0  0  0
  1  5  1  0
  5  6  1  0
  5  7  2  0
  1  2  1  0
  1  3  1  0
  1  4  1  0
  8 12  1  0
 12 13  2  0
 13 15  1  0
 15 17  2  0
 17 19  1  0
 19 21  2  0
 21 12  1  0
  8  9  1  0
  8 10  1  0
  8 11  1  0
 13 14  1  0
 15 16  1  0
 17 18  1  0
 19 20  1  0
 21 22  1  0
M  CHG  1   6  -1
M  END
>  <PDB_ID>  (1947) 
pdb3tlf

>  <RESIDUE_NAME>  (1947) 
GLU   PHE

>  <FRAG_NAME>  (1947) 
ACET   MBZ

>  <FRAG_ATOM_NUM>  (1947) 
fragi: 7  fragj: 15

>  <atom.prop.CHAIN_ID>  (1947) 
A A A A A A A Z Z Z Z Z Z Z Z Z Z Z Z Z Z Z

>  <atom.prop.IS_HEAVY_ATOM>  (1947) 
1 0 0 0 1 1 1 1 0 0 0 1 1 0 1 0 1 0 1 0 1 0

>  <DIFUSE_FUNC_ATOM>  (1947) 
atom 6   atom 7   

>  <FINAL_SINGLE_POINT_ENERGY>  (1947) 
0

>  <NONCOV_INTER_ENERGY_QM>  (1947) 
0

>  <FF_Energy>  (1947) 
-2.48

>  <QM_Energy>  (1947) 
-7.61

>  <source>  (1947) 
ACET_MBZ_02

>  <Index>  (1947) 
7488

$$$$
ACET-pdb3tlf-D-GLU-38:MBZ-pdb3tlf-D-PHE-6
     RDKit          3D

 22 21  0  0  0  0  0  0  0  0999 V2000
   -3.9260    1.8729    2.1673 C   0  0  0  0  0  0  0  0  0  0  0  0
   -4.0386    1.2571    1.4079 H   0  0  0  0  0  0  0  0  0  0  0  0
   -4.7841    2.0831    2.6021 H   0  0  0  0  0  0  0  0  0  0  0  0
   -3.2776    1.3948    2.9015 H   0  0  0  0  0  0  0  0  0  0  0  0
   -3.3587    3.1732    1.6226 C   0  0  0  0  0  0  0  0  0  0  0  0
   -2.6044    3.8805    2.3375 O   0  0  0  0  0  1  0  0  0  0  0  0
   -3.7046    3.5266    0.4679 O   0  0  0  0  0  0  0  0  0  0  0  0
    0.0033    2.8989   -0.0104 C   0  0  0  0  0  0  0  0  0  0  0  0
    0.9384    3.2015   -0.1223 H   0  0  0  0  0  0  0  0  0  0  0  0
   -0.3765    3.2159    0.8458 H   0  0  0  0  0  0  0  0  0  0  0  0
   -0.5861    3.3359   -0.8165 H   0  0  0  0  0  0  0  0  0  0  0  0
   -0.0046    1.4021    0.0008 C   0  0  0  0  0  0  0  0  0  0  0  0
   -1.1910    0.6870   -0.0048 C   0  0  0  0  0  0  0  0  0  0  0  0
   -2.0646    1.1731   -0.0134 H   0  0  0  0  0  0  0  0  0  0  0  0
   -1.1956   -0.7041    0.0000 C   0  0  0  0  0  0  0  0  0  0  0  0
   -2.0707   -1.1978   -0.0094 H   0  0  0  0  0  0  0  0  0  0  0  0
    0.0066   -1.3959    0.0190 C   0  0  0  0  0  0  0  0  0  0  0  0
    0.0094   -2.3913    0.0457 H   0  0  0  0  0  0  0  0  0  0  0  0
    1.1956   -0.6866    0.0000 C   0  0  0  0  0  0  0  0  0  0  0  0
    2.0849   -1.1818   -0.0013 H   0  0  0  0  0  0  0  0  0  0  0  0
    1.1890    0.6974   -0.0150 C   0  0  0  0  0  0  0  0  0  0  0  0
    2.0568    1.1966   -0.0384 H   0  0  0  0  0  0  0  0  0  0  0  0
  1  5  1  0
  5  6  1  0
  5  7  2  0
  1  2  1  0
  1  3  1  0
  1  4  1  0
  8 12  1  0
 12 13  2  0
 13 15  1  0
 15 17  2  0
 17 19  1  0
 19 21  2  0
 21 12  1  0
  8  9  1  0
  8 10  1  0
  8 11  1  0
 13 14  1  0
 15 16  1  0
 17 18  1  0
 19 20  1  0
 21 22  1  0
M  CHG  1   6  -1
M  END
>  <PDB_ID>  (1948) 
pdb3tlf

>  <RESIDUE_NAME>  (1948) 
GLU   PHE

>  <FRAG_NAME>  (1948) 
ACET   MBZ

>  <FRAG_ATOM_NUM>  (1948) 
fragi: 7  fragj: 15

>  <atom.prop.CHAIN_ID>  (1948) 
A A A A A A A Z Z Z Z Z Z Z Z Z Z Z Z Z Z Z

>  <atom.prop.IS_HEAVY_ATOM>  (1948) 
1 0 0 0 1 1 1 1 0 0 0 1 1 0 1 0 1 0 1 0 1 0

>  <DIFUSE_FUNC_ATOM>  (1948) 
atom 6   atom 7   

>  <FINAL_SINGLE_POINT_ENERGY>  (1948) 
0

>  <NONCOV_INTER_ENERGY_QM>  (1948) 
0

>  <FF_Energy>  (1948) 
-2.45

>  <QM_Energy>  (1948) 
-7.56

>  <source>  (1948) 
ACET_MBZ_02

>  <Index>  (1948) 
7491

$$$$
ACET-pdb3tlj-A-GLU-170:MBZ-pdb3tlj-A-PHE-126
     RDKit          3D

 22 21  0  0  0  0  0  0  0  0999 V2000
    3.4106    4.0119   -0.8222 C   0  0  0  0  0  0  0  0  0  0  0  0
    2.5013    3.8972   -0.4870 H   0  0  0  0  0  0  0  0  0  0  0  0
    3.5780    4.8996   -1.1935 H   0  0  0  0  0  0  0  0  0  0  0  0
    4.1084    3.8383   -0.0030 H   0  0  0  0  0  0  0  0  0  0  0  0
    3.5985    2.9968   -1.9759 C   0  0  0  0  0  0  0  0  0  0  0  0
    4.0491    1.8501   -1.7242 O   0  0  0  0  0  1  0  0  0  0  0  0
    3.2699    3.3381   -3.1196 O   0  0  0  0  0  0  0  0  0  0  0  0
    0.0031    2.9294    0.0691 C   0  0  0  0  0  0  0  0  0  0  0  0
   -0.6458    3.2534   -0.6053 H   0  0  0  0  0  0  0  0  0  0  0  0
    0.9207    3.2351   -0.1446 H   0  0  0  0  0  0  0  0  0  0  0  0
   -0.2748    3.3608    1.0308 H   0  0  0  0  0  0  0  0  0  0  0  0
   -0.0033    1.4175    0.0307 C   0  0  0  0  0  0  0  0  0  0  0  0
   -1.2044    0.7024   -0.0113 C   0  0  0  0  0  0  0  0  0  0  0  0
   -2.0706    1.1818   -0.0511 H   0  0  0  0  0  0  0  0  0  0  0  0
   -1.2075   -0.7125    0.0000 C   0  0  0  0  0  0  0  0  0  0  0  0
   -2.0770   -1.2019    0.0015 H   0  0  0  0  0  0  0  0  0  0  0  0
    0.0137   -1.4150    0.0114 C   0  0  0  0  0  0  0  0  0  0  0  0
    0.0074   -2.4073    0.0269 H   0  0  0  0  0  0  0  0  0  0  0  0
    1.2075   -0.7058   -0.0000 C   0  0  0  0  0  0  0  0  0  0  0  0
    2.0964   -1.1823    0.0147 H   0  0  0  0  0  0  0  0  0  0  0  0
    1.1940    0.7134   -0.0308 C   0  0  0  0  0  0  0  0  0  0  0  0
    2.0612    1.1998   -0.0988 H   0  0  0  0  0  0  0  0  0  0  0  0
  1  5  1  0
  5  6  1  0
  5  7  2  0
  1  2  1  0
  1  3  1  0
  1  4  1  0
  8 12  1  0
 12 13  2  0
 13 15  1  0
 15 17  2  0
 17 19  1  0
 19 21  2  0
 21 12  1  0
  8  9  1  0
  8 10  1  0
  8 11  1  0
 13 14  1  0
 15 16  1  0
 17 18  1  0
 19 20  1  0
 21 22  1  0
M  CHG  1   6  -1
M  END
>  <PDB_ID>  (1949) 
pdb3tlj

>  <RESIDUE_NAME>  (1949) 
GLU   PHE

>  <FRAG_NAME>  (1949) 
ACET   MBZ

>  <FRAG_ATOM_NUM>  (1949) 
fragi: 7  fragj: 15

>  <atom.prop.CHAIN_ID>  (1949) 
A A A A A A A Z Z Z Z Z Z Z Z Z Z Z Z Z Z Z

>  <atom.prop.IS_HEAVY_ATOM>  (1949) 
1 0 0 0 1 1 1 1 0 0 0 1 1 0 1 0 1 0 1 0 1 0

>  <DIFUSE_FUNC_ATOM>  (1949) 
atom 6   atom 7   

>  <FINAL_SINGLE_POINT_ENERGY>  (1949) 
0

>  <NONCOV_INTER_ENERGY_QM>  (1949) 
0

>  <FF_Energy>  (1949) 
2.07

>  <QM_Energy>  (1949) 
-3.79

>  <source>  (1949) 
ACET_MBZ_02

>  <Index>  (1949) 
7498

$$$$
ACET-pdb4rox-B-GLU-424:MBZ-pdb4rox-B-PHE-421
     RDKit          3D

 22 21  0  0  0  0  0  0  0  0999 V2000
    4.2086    4.0474   -0.2501 C   0  0  0  0  0  0  0  0  0  0  0  0
    5.1117    4.0213   -0.6380 H   0  0  0  0  0  0  0  0  0  0  0  0
    4.0421    3.2892    0.3540 H   0  0  0  0  0  0  0  0  0  0  0  0
    4.1111    4.9697    0.3226 H   0  0  0  0  0  0  0  0  0  0  0  0
    3.2139    3.9496   -1.3930 C   0  0  0  0  0  0  0  0  0  0  0  0
    2.7214    5.0014   -1.8567 O   0  0  0  0  0  1  0  0  0  0  0  0
    2.9268    2.8152   -1.8295 O   0  0  0  0  0  0  0  0  0  0  0  0
   -0.0001    2.8949   -0.0130 C   0  0  0  0  0  0  0  0  0  0  0  0
   -0.6003    3.1955   -0.7412 H   0  0  0  0  0  0  0  0  0  0  0  0
    0.9287    3.2023   -0.1684 H   0  0  0  0  0  0  0  0  0  0  0  0
   -0.3489    3.3518    0.9131 H   0  0  0  0  0  0  0  0  0  0  0  0
    0.0008    1.3955    0.0031 C   0  0  0  0  0  0  0  0  0  0  0  0
   -1.1915    0.6912   -0.0019 C   0  0  0  0  0  0  0  0  0  0  0  0
   -2.0587    1.1829   -0.0079 H   0  0  0  0  0  0  0  0  0  0  0  0
   -1.1963   -0.6923    0.0000 C   0  0  0  0  0  0  0  0  0  0  0  0
   -2.0752   -1.1874    0.0019 H   0  0  0  0  0  0  0  0  0  0  0  0
   -0.0009   -1.3881    0.0007 C   0  0  0  0  0  0  0  0  0  0  0  0
   -0.0067   -2.3887    0.0010 H   0  0  0  0  0  0  0  0  0  0  0  0
    1.1963   -0.6955    0.0000 C   0  0  0  0  0  0  0  0  0  0  0  0
    2.0788   -1.1949    0.0027 H   0  0  0  0  0  0  0  0  0  0  0  0
    1.1917    0.6892   -0.0019 C   0  0  0  0  0  0  0  0  0  0  0  0
    2.0623    1.1868   -0.0082 H   0  0  0  0  0  0  0  0  0  0  0  0
  1  5  1  0
  5  6  1  0
  5  7  2  0
  1  2  1  0
  1  3  1  0
  1  4  1  0
  8 12  1  0
 12 13  2  0
 13 15  1  0
 15 17  2  0
 17 19  1  0
 19 21  2  0
 21 12  1  0
  8  9  1  0
  8 10  1  0
  8 11  1  0
 13 14  1  0
 15 16  1  0
 17 18  1  0
 19 20  1  0
 21 22  1  0
M  CHG  1   6  -1
M  END
>  <PDB_ID>  (1950) 
pdb4rox

>  <RESIDUE_NAME>  (1950) 
GLU   PHE

>  <FRAG_NAME>  (1950) 
ACET   MBZ

>  <FRAG_ATOM_NUM>  (1950) 
fragi: 7  fragj: 15

>  <atom.prop.CHAIN_ID>  (1950) 
A A A A A A A Z Z Z Z Z Z Z Z Z Z Z Z Z Z Z

>  <atom.prop.IS_HEAVY_ATOM>  (1950) 
1 0 0 0 1 1 1 1 0 0 0 1 1 0 1 0 1 0 1 0 1 0

>  <DIFUSE_FUNC_ATOM>  (1950) 
atom 6   atom 7   

>  <FINAL_SINGLE_POINT_ENERGY>  (1950) 
0

>  <NONCOV_INTER_ENERGY_QM>  (1950) 
0

>  <FF_Energy>  (1950) 
-1.26

>  <QM_Energy>  (1950) 
-6.57

>  <source>  (1950) 
ACET_MBZ_02

>  <Index>  (1950) 
7517

$$$$
ACET-pdb3tml-B-ASP-198:MBZ-pdb3tml-B-PHE-236
     RDKit          3D

 22 21  0  0  0  0  0  0  0  0999 V2000
    4.2834    3.3599   -0.9523 C   0  0  0  0  0  0  0  0  0  0  0  0
    3.6207    3.5982   -1.6529 H   0  0  0  0  0  0  0  0  0  0  0  0
    5.1922    3.6615   -1.2145 H   0  0  0  0  0  0  0  0  0  0  0  0
    4.0065    3.8824   -0.0367 H   0  0  0  0  0  0  0  0  0  0  0  0
    4.3006    1.8399   -0.7955 C   0  0  0  0  0  0  0  0  0  0  0  0
    4.2333    1.3299    0.3543 O   0  0  0  0  0  1  0  0  0  0  0  0
    4.3660    1.1454   -1.8467 O   0  0  0  0  0  0  0  0  0  0  0  0
   -0.0192    2.8982    0.0943 C   0  0  0  0  0  0  0  0  0  0  0  0
   -0.6709    3.2387   -0.5538 H   0  0  0  0  0  0  0  0  0  0  0  0
    0.8882    3.2300   -0.0688 H   0  0  0  0  0  0  0  0  0  0  0  0
   -0.3266    3.2263    1.0873 H   0  0  0  0  0  0  0  0  0  0  0  0
    0.0046    1.4009   -0.0075 C   0  0  0  0  0  0  0  0  0  0  0  0
   -1.1892    0.6862    0.0139 C   0  0  0  0  0  0  0  0  0  0  0  0
   -2.0581    1.1787    0.0384 H   0  0  0  0  0  0  0  0  0  0  0  0
   -1.1995   -0.7032   -0.0000 C   0  0  0  0  0  0  0  0  0  0  0  0
   -2.0772   -1.1935    0.0108 H   0  0  0  0  0  0  0  0  0  0  0  0
   -0.0030   -1.3948   -0.0259 C   0  0  0  0  0  0  0  0  0  0  0  0
    0.0037   -2.3907   -0.0632 H   0  0  0  0  0  0  0  0  0  0  0  0
    1.1995   -0.6873   -0.0000 C   0  0  0  0  0  0  0  0  0  0  0  0
    2.0809   -1.1850    0.0065 H   0  0  0  0  0  0  0  0  0  0  0  0
    1.1875    0.6982    0.0195 C   0  0  0  0  0  0  0  0  0  0  0  0
    2.0612    1.1952    0.0534 H   0  0  0  0  0  0  0  0  0  0  0  0
  1  5  1  0
  5  6  1  0
  5  7  2  0
  1  2  1  0
  1  3  1  0
  1  4  1  0
  8 12  1  0
 12 13  2  0
 13 15  1  0
 15 17  2  0
 17 19  1  0
 19 21  2  0
 21 12  1  0
  8  9  1  0
  8 10  1  0
  8 11  1  0
 13 14  1  0
 15 16  1  0
 17 18  1  0
 19 20  1  0
 21 22  1  0
M  CHG  1   6  -1
M  END
>  <PDB_ID>  (1951) 
pdb3tml

>  <RESIDUE_NAME>  (1951) 
ASP   PHE

>  <FRAG_NAME>  (1951) 
ACET   MBZ

>  <FRAG_ATOM_NUM>  (1951) 
fragi: 7  fragj: 15

>  <atom.prop.CHAIN_ID>  (1951) 
A A A A A A A Z Z Z Z Z Z Z Z Z Z Z Z Z Z Z

>  <atom.prop.IS_HEAVY_ATOM>  (1951) 
1 0 0 0 1 1 1 1 0 0 0 1 1 0 1 0 1 0 1 0 1 0

>  <DIFUSE_FUNC_ATOM>  (1951) 
atom 6   atom 7   

>  <FINAL_SINGLE_POINT_ENERGY>  (1951) 
0

>  <NONCOV_INTER_ENERGY_QM>  (1951) 
0

>  <FF_Energy>  (1951) 
0.44

>  <QM_Energy>  (1951) 
-6.43

>  <source>  (1951) 
ACET_MBZ_02

>  <Index>  (1951) 
7558

$$$$
ACET-pdb3tml-C-ASP-270:MBZ-pdb3tml-C-PHE-14
     RDKit          3D

 22 21  0  0  0  0  0  0  0  0999 V2000
    4.6689    1.3688   -0.7414 C   0  0  0  0  0  0  0  0  0  0  0  0
    4.0061    0.7995   -1.2202 H   0  0  0  0  0  0  0  0  0  0  0  0
    5.0127    0.8910    0.0617 H   0  0  0  0  0  0  0  0  0  0  0  0
    5.5089    1.5432   -1.4137 H   0  0  0  0  0  0  0  0  0  0  0  0
    3.9657    2.6483   -0.2804 C   0  0  0  0  0  0  0  0  0  0  0  0
    3.4611    3.4225   -1.1306 O   0  0  0  0  0  1  0  0  0  0  0  0
    3.8344    2.8310    0.9738 O   0  0  0  0  0  0  0  0  0  0  0  0
   -0.0054    2.9151    0.0115 C   0  0  0  0  0  0  0  0  0  0  0  0
   -0.7912    3.2166   -0.5074 H   0  0  0  0  0  0  0  0  0  0  0  0
    0.8388    3.2172   -0.4038 H   0  0  0  0  0  0  0  0  0  0  0  0
   -0.0682    3.3761    0.9973 H   0  0  0  0  0  0  0  0  0  0  0  0
   -0.0057    1.4018    0.0266 C   0  0  0  0  0  0  0  0  0  0  0  0
   -1.1743    0.6945   -0.0188 C   0  0  0  0  0  0  0  0  0  0  0  0
   -2.0548    1.1778   -0.0689 H   0  0  0  0  0  0  0  0  0  0  0  0
   -1.1867   -0.6958    0.0000 C   0  0  0  0  0  0  0  0  0  0  0  0
   -2.0689   -1.1816    0.0114 H   0  0  0  0  0  0  0  0  0  0  0  0
    0.0035   -1.3911    0.0045 C   0  0  0  0  0  0  0  0  0  0  0  0
   -0.0040   -2.3912    0.0109 H   0  0  0  0  0  0  0  0  0  0  0  0
    1.1867   -0.6995   -0.0000 C   0  0  0  0  0  0  0  0  0  0  0  0
    2.0762   -1.1884    0.0076 H   0  0  0  0  0  0  0  0  0  0  0  0
    1.1765    0.6900   -0.0123 C   0  0  0  0  0  0  0  0  0  0  0  0
    2.0520    1.1842   -0.0516 H   0  0  0  0  0  0  0  0  0  0  0  0
  1  5  1  0
  5  6  1  0
  5  7  2  0
  1  2  1  0
  1  3  1  0
  1  4  1  0
  8 12  1  0
 12 13  2  0
 13 15  1  0
 15 17  2  0
 17 19  1  0
 19 21  2  0
 21 12  1  0
  8  9  1  0
  8 10  1  0
  8 11  1  0
 13 14  1  0
 15 16  1  0
 17 18  1  0
 19 20  1  0
 21 22  1  0
M  CHG  1   6  -1
M  END
>  <PDB_ID>  (1952) 
pdb3tml

>  <RESIDUE_NAME>  (1952) 
ASP   PHE

>  <FRAG_NAME>  (1952) 
ACET   MBZ

>  <FRAG_ATOM_NUM>  (1952) 
fragi: 7  fragj: 15

>  <atom.prop.CHAIN_ID>  (1952) 
A A A A A A A Z Z Z Z Z Z Z Z Z Z Z Z Z Z Z

>  <atom.prop.IS_HEAVY_ATOM>  (1952) 
1 0 0 0 1 1 1 1 0 0 0 1 1 0 1 0 1 0 1 0 1 0

>  <DIFUSE_FUNC_ATOM>  (1952) 
atom 6   atom 7   

>  <FINAL_SINGLE_POINT_ENERGY>  (1952) 
0

>  <NONCOV_INTER_ENERGY_QM>  (1952) 
0

>  <FF_Energy>  (1952) 
-0.61

>  <QM_Energy>  (1952) 
-7.46

>  <source>  (1952) 
ACET_MBZ_02

>  <Index>  (1952) 
7559

$$$$
ACET-pdb3tml-D-ASP-198:MBZ-pdb3tml-D-PHE-236
     RDKit          3D

 22 21  0  0  0  0  0  0  0  0999 V2000
    4.1933    3.5559   -1.2167 C   0  0  0  0  0  0  0  0  0  0  0  0
    3.5214    3.8613   -1.8932 H   0  0  0  0  0  0  0  0  0  0  0  0
    5.1066    3.8473   -1.5008 H   0  0  0  0  0  0  0  0  0  0  0  0
    3.9655    4.0603   -0.2777 H   0  0  0  0  0  0  0  0  0  0  0  0
    4.1562    2.0699   -1.1211 C   0  0  0  0  0  0  0  0  0  0  0  0
    4.2834    1.4559   -0.0156 O   0  0  0  0  0  1  0  0  0  0  0  0
    3.9931    1.4832   -2.2048 O   0  0  0  0  0  0  0  0  0  0  0  0
   -0.0295    2.9128    0.0835 C   0  0  0  0  0  0  0  0  0  0  0  0
   -0.6701    3.2429   -0.5777 H   0  0  0  0  0  0  0  0  0  0  0  0
    0.8799    3.2438   -0.0620 H   0  0  0  0  0  0  0  0  0  0  0  0
   -0.3564    3.2506    1.0670 H   0  0  0  0  0  0  0  0  0  0  0  0
    0.0028    1.3984   -0.0128 C   0  0  0  0  0  0  0  0  0  0  0  0
   -1.1867    0.6751    0.0231 C   0  0  0  0  0  0  0  0  0  0  0  0
   -2.0593    1.1698    0.0660 H   0  0  0  0  0  0  0  0  0  0  0  0
   -1.2023   -0.7125    0.0000 C   0  0  0  0  0  0  0  0  0  0  0  0
   -2.0745   -1.2026   -0.0029 H   0  0  0  0  0  0  0  0  0  0  0  0
   -0.0005   -1.3941   -0.0163 C   0  0  0  0  0  0  0  0  0  0  0  0
    0.0155   -2.3908   -0.0403 H   0  0  0  0  0  0  0  0  0  0  0  0
    1.2023   -0.6771   -0.0000 C   0  0  0  0  0  0  0  0  0  0  0  0
    2.0854   -1.1715    0.0091 H   0  0  0  0  0  0  0  0  0  0  0  0
    1.1845    0.7103    0.0060 C   0  0  0  0  0  0  0  0  0  0  0  0
    2.0575    1.2085    0.0241 H   0  0  0  0  0  0  0  0  0  0  0  0
  1  5  1  0
  5  6  1  0
  5  7  2  0
  1  2  1  0
  1  3  1  0
  1  4  1  0
  8 12  1  0
 12 13  2  0
 13 15  1  0
 15 17  2  0
 17 19  1  0
 19 21  2  0
 21 12  1  0
  8  9  1  0
  8 10  1  0
  8 11  1  0
 13 14  1  0
 15 16  1  0
 17 18  1  0
 19 20  1  0
 21 22  1  0
M  CHG  1   6  -1
M  END
>  <PDB_ID>  (1953) 
pdb3tml

>  <RESIDUE_NAME>  (1953) 
ASP   PHE

>  <FRAG_NAME>  (1953) 
ACET   MBZ

>  <FRAG_ATOM_NUM>  (1953) 
fragi: 7  fragj: 15

>  <atom.prop.CHAIN_ID>  (1953) 
A A A A A A A Z Z Z Z Z Z Z Z Z Z Z Z Z Z Z

>  <atom.prop.IS_HEAVY_ATOM>  (1953) 
1 0 0 0 1 1 1 1 0 0 0 1 1 0 1 0 1 0 1 0 1 0

>  <DIFUSE_FUNC_ATOM>  (1953) 
atom 6   atom 7   

>  <FINAL_SINGLE_POINT_ENERGY>  (1953) 
0

>  <NONCOV_INTER_ENERGY_QM>  (1953) 
0

>  <FF_Energy>  (1953) 
-0.31

>  <QM_Energy>  (1953) 
-6.69

>  <source>  (1953) 
ACET_MBZ_02

>  <Index>  (1953) 
7563

$$$$
ACET-pdb3tl3-B-GLU-40:MBZ-pdb3tl3-B-PHE-52
     RDKit          3D

 22 21  0  0  0  0  0  0  0  0999 V2000
    1.4352   -0.3322   -2.9631 C   0  0  0  0  0  0  0  0  0  0  0  0
    1.2944    0.1591   -2.1031 H   0  0  0  0  0  0  0  0  0  0  0  0
    1.0529   -1.2538   -2.8835 H   0  0  0  0  0  0  0  0  0  0  0  0
    0.8763    0.1925   -3.7379 H   0  0  0  0  0  0  0  0  0  0  0  0
    2.9092   -0.4656   -3.1783 C   0  0  0  0  0  0  0  0  0  0  0  0
    3.4990   -0.0258   -4.1554 O   0  0  0  0  0  1  0  0  0  0  0  0
    3.4700   -1.0898   -2.2538 O   0  0  0  0  0  0  0  0  0  0  0  0
   -0.0113    2.8927   -0.0035 C   0  0  0  0  0  0  0  0  0  0  0  0
   -0.7554    3.1953   -0.5774 H   0  0  0  0  0  0  0  0  0  0  0  0
    0.8607    3.2057   -0.3466 H   0  0  0  0  0  0  0  0  0  0  0  0
   -0.1557    3.3223    0.9878 H   0  0  0  0  0  0  0  0  0  0  0  0
   -0.0017    1.3941   -0.0064 C   0  0  0  0  0  0  0  0  0  0  0  0
   -1.1921    0.6897    0.0023 C   0  0  0  0  0  0  0  0  0  0  0  0
   -2.0603    1.1854    0.0088 H   0  0  0  0  0  0  0  0  0  0  0  0
   -1.1987   -0.6872   -0.0000 C   0  0  0  0  0  0  0  0  0  0  0  0
   -2.0801   -1.1829   -0.0029 H   0  0  0  0  0  0  0  0  0  0  0  0
   -0.0083   -1.3835    0.0040 C   0  0  0  0  0  0  0  0  0  0  0  0
   -0.0161   -2.3861    0.0095 H   0  0  0  0  0  0  0  0  0  0  0  0
    1.1987   -0.7008    0.0000 C   0  0  0  0  0  0  0  0  0  0  0  0
    2.0747   -1.2055   -0.0019 H   0  0  0  0  0  0  0  0  0  0  0  0
    1.2021    0.6876    0.0002 C   0  0  0  0  0  0  0  0  0  0  0  0
    2.0655    1.1841    0.0037 H   0  0  0  0  0  0  0  0  0  0  0  0
  1  5  1  0
  5  6  1  0
  5  7  2  0
  1  2  1  0
  1  3  1  0
  1  4  1  0
  8 12  1  0
 12 13  2  0
 13 15  1  0
 15 17  2  0
 17 19  1  0
 19 21  2  0
 21 12  1  0
  8  9  1  0
  8 10  1  0
  8 11  1  0
 13 14  1  0
 15 16  1  0
 17 18  1  0
 19 20  1  0
 21 22  1  0
M  CHG  1   6  -1
M  END
>  <PDB_ID>  (1954) 
pdb3tl3

>  <RESIDUE_NAME>  (1954) 
GLU   PHE

>  <FRAG_NAME>  (1954) 
ACET   MBZ

>  <FRAG_ATOM_NUM>  (1954) 
fragi: 7  fragj: 15

>  <atom.prop.CHAIN_ID>  (1954) 
A A A A A A A Z Z Z Z Z Z Z Z Z Z Z Z Z Z Z

>  <atom.prop.IS_HEAVY_ATOM>  (1954) 
1 0 0 0 1 1 1 1 0 0 0 1 1 0 1 0 1 0 1 0 1 0

>  <DIFUSE_FUNC_ATOM>  (1954) 
atom 6   atom 7   

>  <FINAL_SINGLE_POINT_ENERGY>  (1954) 
0

>  <NONCOV_INTER_ENERGY_QM>  (1954) 
0

>  <FF_Energy>  (1954) 
10.25

>  <QM_Energy>  (1954) 
1.09

>  <source>  (1954) 
ACET_MBZ_02

>  <Index>  (1954) 
7564

$$$$
ACET-pdb4rpn-C-GLU-229:MBZ-pdb4rpn-C-PHE-204
     RDKit          3D

 22 21  0  0  0  0  0  0  0  0999 V2000
    3.2970   -3.2860    0.6668 C   0  0  0  0  0  0  0  0  0  0  0  0
    3.3283   -2.5218    0.0464 H   0  0  0  0  0  0  0  0  0  0  0  0
    4.1166   -3.8312    0.6183 H   0  0  0  0  0  0  0  0  0  0  0  0
    3.1919   -2.9042    1.6822 H   0  0  0  0  0  0  0  0  0  0  0  0
    2.1400   -4.1697    0.2386 C   0  0  0  0  0  0  0  0  0  0  0  0
    1.7589   -4.0989   -0.9439 O   0  0  0  0  0  1  0  0  0  0  0  0
    1.6227   -4.9382    1.0772 O   0  0  0  0  0  0  0  0  0  0  0  0
   -0.0021    2.8818   -0.0132 C   0  0  0  0  0  0  0  0  0  0  0  0
    0.8914    3.1991    0.2638 H   0  0  0  0  0  0  0  0  0  0  0  0
   -0.7058    3.1983    0.6048 H   0  0  0  0  0  0  0  0  0  0  0  0
   -0.2125    3.3032   -0.9962 H   0  0  0  0  0  0  0  0  0  0  0  0
    0.0020    1.3913    0.0019 C   0  0  0  0  0  0  0  0  0  0  0  0
   -1.1844    0.6866   -0.0067 C   0  0  0  0  0  0  0  0  0  0  0  0
   -2.0549    1.1793   -0.0197 H   0  0  0  0  0  0  0  0  0  0  0  0
   -1.1900   -0.6929   -0.0000 C   0  0  0  0  0  0  0  0  0  0  0  0
   -2.0731   -1.1858    0.0022 H   0  0  0  0  0  0  0  0  0  0  0  0
   -0.0036   -1.3844    0.0054 C   0  0  0  0  0  0  0  0  0  0  0  0
   -0.0051   -2.3862    0.0132 H   0  0  0  0  0  0  0  0  0  0  0  0
    1.1900   -0.6917    0.0000 C   0  0  0  0  0  0  0  0  0  0  0  0
    2.0742   -1.1904   -0.0017 H   0  0  0  0  0  0  0  0  0  0  0  0
    1.1860    0.6912   -0.0006 C   0  0  0  0  0  0  0  0  0  0  0  0
    2.0585    1.1859   -0.0039 H   0  0  0  0  0  0  0  0  0  0  0  0
  1  5  1  0
  5  6  1  0
  5  7  2  0
  1  2  1  0
  1  3  1  0
  1  4  1  0
  8 12  1  0
 12 13  2  0
 13 15  1  0
 15 17  2  0
 17 19  1  0
 19 21  2  0
 21 12  1  0
  8  9  1  0
  8 10  1  0
  8 11  1  0
 13 14  1  0
 15 16  1  0
 17 18  1  0
 19 20  1  0
 21 22  1  0
M  CHG  1   6  -1
M  END
>  <PDB_ID>  (1955) 
pdb4rpn

>  <RESIDUE_NAME>  (1955) 
GLU   PHE

>  <FRAG_NAME>  (1955) 
ACET   MBZ

>  <FRAG_ATOM_NUM>  (1955) 
fragi: 7  fragj: 15

>  <atom.prop.CHAIN_ID>  (1955) 
A A A A A A A Z Z Z Z Z Z Z Z Z Z Z Z Z Z Z

>  <atom.prop.IS_HEAVY_ATOM>  (1955) 
1 0 0 0 1 1 1 1 0 0 0 1 1 0 1 0 1 0 1 0 1 0

>  <DIFUSE_FUNC_ATOM>  (1955) 
atom 6   atom 7   

>  <FINAL_SINGLE_POINT_ENERGY>  (1955) 
0

>  <NONCOV_INTER_ENERGY_QM>  (1955) 
0

>  <FF_Energy>  (1955) 
1.07

>  <QM_Energy>  (1955) 
-3.96

>  <source>  (1955) 
ACET_MBZ_02

>  <Index>  (1955) 
7575

$$$$
ACET-pdb3toc-B-ASP-209:MBZ-pdb3toc-B-PHE-213
     RDKit          3D

 22 21  0  0  0  0  0  0  0  0999 V2000
   -4.4249    4.8576   -1.3831 C   0  0  0  0  0  0  0  0  0  0  0  0
   -5.0861    5.2500   -0.7558 H   0  0  0  0  0  0  0  0  0  0  0  0
   -4.7980    4.0558   -1.8321 H   0  0  0  0  0  0  0  0  0  0  0  0
   -4.2038    5.6016   -2.1485 H   0  0  0  0  0  0  0  0  0  0  0  0
   -3.1868    4.4345   -0.5827 C   0  0  0  0  0  0  0  0  0  0  0  0
   -2.2091    5.2127   -0.5104 O   0  0  0  0  0  1  0  0  0  0  0  0
   -3.1973    3.3154   -0.0172 O   0  0  0  0  0  0  0  0  0  0  0  0
   -0.0094    2.9140    0.0095 C   0  0  0  0  0  0  0  0  0  0  0  0
    0.4321    3.2144    0.8439 H   0  0  0  0  0  0  0  0  0  0  0  0
   -0.9530    3.2132   -0.0214 H   0  0  0  0  0  0  0  0  0  0  0  0
    0.5130    3.3782   -0.8270 H   0  0  0  0  0  0  0  0  0  0  0  0
   -0.0001    1.4041   -0.0035 C   0  0  0  0  0  0  0  0  0  0  0  0
   -1.1949    0.6888    0.0004 C   0  0  0  0  0  0  0  0  0  0  0  0
   -2.0636    1.1775    0.0021 H   0  0  0  0  0  0  0  0  0  0  0  0
   -1.1972   -0.7014    0.0000 C   0  0  0  0  0  0  0  0  0  0  0  0
   -2.0755   -1.1941    0.0006 H   0  0  0  0  0  0  0  0  0  0  0  0
   -0.0004   -1.3929    0.0003 C   0  0  0  0  0  0  0  0  0  0  0  0
   -0.0005   -2.3928    0.0003 H   0  0  0  0  0  0  0  0  0  0  0  0
    1.1972   -0.6960    0.0000 C   0  0  0  0  0  0  0  0  0  0  0  0
    2.0809   -1.1924   -0.0010 H   0  0  0  0  0  0  0  0  0  0  0  0
    1.1954    0.6974    0.0027 C   0  0  0  0  0  0  0  0  0  0  0  0
    2.0640    1.1910    0.0079 H   0  0  0  0  0  0  0  0  0  0  0  0
  1  5  1  0
  5  6  1  0
  5  7  2  0
  1  2  1  0
  1  3  1  0
  1  4  1  0
  8 12  1  0
 12 13  2  0
 13 15  1  0
 15 17  2  0
 17 19  1  0
 19 21  2  0
 21 12  1  0
  8  9  1  0
  8 10  1  0
  8 11  1  0
 13 14  1  0
 15 16  1  0
 17 18  1  0
 19 20  1  0
 21 22  1  0
M  CHG  1   6  -1
M  END
>  <PDB_ID>  (1956) 
pdb3toc

>  <RESIDUE_NAME>  (1956) 
ASP   PHE

>  <FRAG_NAME>  (1956) 
ACET   MBZ

>  <FRAG_ATOM_NUM>  (1956) 
fragi: 7  fragj: 15

>  <atom.prop.CHAIN_ID>  (1956) 
A A A A A A A Z Z Z Z Z Z Z Z Z Z Z Z Z Z Z

>  <atom.prop.IS_HEAVY_ATOM>  (1956) 
1 0 0 0 1 1 1 1 0 0 0 1 1 0 1 0 1 0 1 0 1 0

>  <DIFUSE_FUNC_ATOM>  (1956) 
atom 6   atom 7   

>  <FINAL_SINGLE_POINT_ENERGY>  (1956) 
0

>  <NONCOV_INTER_ENERGY_QM>  (1956) 
0

>  <FF_Energy>  (1956) 
-0.19

>  <QM_Energy>  (1956) 
-9.04

>  <source>  (1956) 
ACET_MBZ_02

>  <Index>  (1956) 
7634

$$$$
ACET-pdb3tpc-G-GLU-78:MBZ-pdb3tpc-G-PHE-74
     RDKit          3D

 22 21  0  0  0  0  0  0  0  0999 V2000
   -0.8703   -0.9181   -3.1817 C   0  0  0  0  0  0  0  0  0  0  0  0
   -0.2862   -0.4212   -3.8225 H   0  0  0  0  0  0  0  0  0  0  0  0
   -0.9017   -0.4305   -2.3103 H   0  0  0  0  0  0  0  0  0  0  0  0
   -1.8795   -0.9277   -3.5934 H   0  0  0  0  0  0  0  0  0  0  0  0
   -0.2419   -2.2567   -2.9334 C   0  0  0  0  0  0  0  0  0  0  0  0
   -0.7919   -3.3223   -3.1651 O   0  0  0  0  0  1  0  0  0  0  0  0
    0.9053   -2.1576   -2.4506 O   0  0  0  0  0  0  0  0  0  0  0  0
    0.0066    2.9288   -0.0108 C   0  0  0  0  0  0  0  0  0  0  0  0
    0.8816    3.2272    0.3328 H   0  0  0  0  0  0  0  0  0  0  0  0
   -0.7343    3.2331    0.5646 H   0  0  0  0  0  0  0  0  0  0  0  0
   -0.1338    3.3649   -0.9999 H   0  0  0  0  0  0  0  0  0  0  0  0
    0.0017    1.4093   -0.0034 C   0  0  0  0  0  0  0  0  0  0  0  0
   -1.1951    0.6998   -0.0007 C   0  0  0  0  0  0  0  0  0  0  0  0
   -2.0638    1.1845   -0.0007 H   0  0  0  0  0  0  0  0  0  0  0  0
   -1.2048   -0.7068   -0.0000 C   0  0  0  0  0  0  0  0  0  0  0  0
   -2.0832   -1.1904   -0.0008 H   0  0  0  0  0  0  0  0  0  0  0  0
   -0.0047   -1.4048    0.0033 C   0  0  0  0  0  0  0  0  0  0  0  0
   -0.0005   -2.3983    0.0080 H   0  0  0  0  0  0  0  0  0  0  0  0
    1.2048   -0.6956    0.0000 C   0  0  0  0  0  0  0  0  0  0  0  0
    2.0838   -1.1937   -0.0014 H   0  0  0  0  0  0  0  0  0  0  0  0
    1.1982    0.6982    0.0008 C   0  0  0  0  0  0  0  0  0  0  0  0
    2.0666    1.1938    0.0036 H   0  0  0  0  0  0  0  0  0  0  0  0
  1  5  1  0
  5  6  1  0
  5  7  2  0
  1  2  1  0
  1  3  1  0
  1  4  1  0
  8 12  1  0
 12 13  2  0
 13 15  1  0
 15 17  2  0
 17 19  1  0
 19 21  2  0
 21 12  1  0
  8  9  1  0
  8 10  1  0
  8 11  1  0
 13 14  1  0
 15 16  1  0
 17 18  1  0
 19 20  1  0
 21 22  1  0
M  CHG  1   6  -1
M  END
>  <PDB_ID>  (1957) 
pdb3tpc

>  <RESIDUE_NAME>  (1957) 
GLU   PHE

>  <FRAG_NAME>  (1957) 
ACET   MBZ

>  <FRAG_ATOM_NUM>  (1957) 
fragi: 7  fragj: 15

>  <atom.prop.CHAIN_ID>  (1957) 
A A A A A A A Z Z Z Z Z Z Z Z Z Z Z Z Z Z Z

>  <atom.prop.IS_HEAVY_ATOM>  (1957) 
1 0 0 0 1 1 1 1 0 0 0 1 1 0 1 0 1 0 1 0 1 0

>  <DIFUSE_FUNC_ATOM>  (1957) 
atom 6   atom 7   

>  <FINAL_SINGLE_POINT_ENERGY>  (1957) 
0

>  <NONCOV_INTER_ENERGY_QM>  (1957) 
0

>  <FF_Energy>  (1957) 
8.49

>  <QM_Energy>  (1957) 
0.37

>  <source>  (1957) 
ACET_MBZ_02

>  <Index>  (1957) 
7708

$$$$
ACET-pdb3tqx-B-ASP-125:MBZ-pdb3tqx-B-PHE-173
     RDKit          3D

 22 21  0  0  0  0  0  0  0  0999 V2000
    2.5956    6.1140   -1.4455 C   0  0  0  0  0  0  0  0  0  0  0  0
    3.4156    6.6637   -1.3361 H   0  0  0  0  0  0  0  0  0  0  0  0
    1.9608    6.2803   -0.7009 H   0  0  0  0  0  0  0  0  0  0  0  0
    2.1111    6.4130   -2.3750 H   0  0  0  0  0  0  0  0  0  0  0  0
    2.9848    4.6500   -1.4392 C   0  0  0  0  0  0  0  0  0  0  0  0
    2.1616    3.8158   -1.8738 O   0  0  0  0  0  1  0  0  0  0  0  0
    4.1154    4.3329   -1.0102 O   0  0  0  0  0  0  0  0  0  0  0  0
    0.0049    2.8942    0.0028 C   0  0  0  0  0  0  0  0  0  0  0  0
    0.8157    3.1995   -0.4763 H   0  0  0  0  0  0  0  0  0  0  0  0
    0.0098    3.1999    0.9445 H   0  0  0  0  0  0  0  0  0  0  0  0
   -0.8597    3.3419   -0.4873 H   0  0  0  0  0  0  0  0  0  0  0  0
   -0.0006    1.3941   -0.0004 C   0  0  0  0  0  0  0  0  0  0  0  0
   -1.1918    0.6903   -0.0004 C   0  0  0  0  0  0  0  0  0  0  0  0
   -2.0597    1.1809   -0.0017 H   0  0  0  0  0  0  0  0  0  0  0  0
   -1.1949   -0.6931    0.0000 C   0  0  0  0  0  0  0  0  0  0  0  0
   -2.0734   -1.1890    0.0016 H   0  0  0  0  0  0  0  0  0  0  0  0
    0.0013   -1.3845   -0.0002 C   0  0  0  0  0  0  0  0  0  0  0  0
   -0.0037   -2.3869   -0.0010 H   0  0  0  0  0  0  0  0  0  0  0  0
    1.1949   -0.6936   -0.0000 C   0  0  0  0  0  0  0  0  0  0  0  0
    2.0784   -1.1943    0.0013 H   0  0  0  0  0  0  0  0  0  0  0  0
    1.1910    0.6868    0.0009 C   0  0  0  0  0  0  0  0  0  0  0  0
    2.0603    1.1862    0.0022 H   0  0  0  0  0  0  0  0  0  0  0  0
  1  5  1  0
  5  6  1  0
  5  7  2  0
  1  2  1  0
  1  3  1  0
  1  4  1  0
  8 12  1  0
 12 13  2  0
 13 15  1  0
 15 17  2  0
 17 19  1  0
 19 21  2  0
 21 12  1  0
  8  9  1  0
  8 10  1  0
  8 11  1  0
 13 14  1  0
 15 16  1  0
 17 18  1  0
 19 20  1  0
 21 22  1  0
M  CHG  1   6  -1
M  END
>  <PDB_ID>  (1958) 
pdb3tqx

>  <RESIDUE_NAME>  (1958) 
ASP   PHE

>  <FRAG_NAME>  (1958) 
ACET   MBZ

>  <FRAG_ATOM_NUM>  (1958) 
fragi: 7  fragj: 15

>  <atom.prop.CHAIN_ID>  (1958) 
A A A A A A A Z Z Z Z Z Z Z Z Z Z Z Z Z Z Z

>  <atom.prop.IS_HEAVY_ATOM>  (1958) 
1 0 0 0 1 1 1 1 0 0 0 1 1 0 1 0 1 0 1 0 1 0

>  <DIFUSE_FUNC_ATOM>  (1958) 
atom 6   atom 7   

>  <FINAL_SINGLE_POINT_ENERGY>  (1958) 
0

>  <NONCOV_INTER_ENERGY_QM>  (1958) 
0

>  <FF_Energy>  (1958) 
4.1

>  <QM_Energy>  (1958) 
-6.0

>  <source>  (1958) 
ACET_MBZ_02

>  <Index>  (1958) 
7825

$$$$
ACET-pdb4s12-B-GLU-121:MBZ-pdb4s12-B-PHE-153
     RDKit          3D

 22 21  0  0  0  0  0  0  0  0999 V2000
   -0.7398    0.8338   -3.2583 C   0  0  0  0  0  0  0  0  0  0  0  0
   -0.5913    0.2073   -4.0055 H   0  0  0  0  0  0  0  0  0  0  0  0
   -0.3860    0.4785   -2.4088 H   0  0  0  0  0  0  0  0  0  0  0  0
   -0.2098    1.7588   -3.4850 H   0  0  0  0  0  0  0  0  0  0  0  0
   -2.2350    1.0107   -3.0953 C   0  0  0  0  0  0  0  0  0  0  0  0
   -2.6897    2.1667   -2.9700 O   0  0  0  0  0  1  0  0  0  0  0  0
   -2.9531   -0.0184   -3.0870 O   0  0  0  0  0  0  0  0  0  0  0  0
    0.0072    2.8755    0.0264 C   0  0  0  0  0  0  0  0  0  0  0  0
   -0.5817    3.1967   -0.6991 H   0  0  0  0  0  0  0  0  0  0  0  0
    0.9372    3.1846   -0.1008 H   0  0  0  0  0  0  0  0  0  0  0  0
   -0.3599    3.2872    0.9665 H   0  0  0  0  0  0  0  0  0  0  0  0
    0.0034    1.3924    0.0080 C   0  0  0  0  0  0  0  0  0  0  0  0
   -1.1949    0.6977    0.0021 C   0  0  0  0  0  0  0  0  0  0  0  0
   -2.0583    1.1880   -0.0020 H   0  0  0  0  0  0  0  0  0  0  0  0
   -1.1974   -0.6911   -0.0000 C   0  0  0  0  0  0  0  0  0  0  0  0
   -2.0764   -1.1846    0.0108 H   0  0  0  0  0  0  0  0  0  0  0  0
   -0.0009   -1.3863   -0.0151 C   0  0  0  0  0  0  0  0  0  0  0  0
   -0.0100   -2.3888   -0.0378 H   0  0  0  0  0  0  0  0  0  0  0  0
    1.1974   -0.7009   -0.0000 C   0  0  0  0  0  0  0  0  0  0  0  0
    2.0781   -1.1985    0.0091 H   0  0  0  0  0  0  0  0  0  0  0  0
    1.1924    0.6882    0.0050 C   0  0  0  0  0  0  0  0  0  0  0  0
    2.0634    1.1825    0.0054 H   0  0  0  0  0  0  0  0  0  0  0  0
  1  5  1  0
  5  6  1  0
  5  7  2  0
  1  2  1  0
  1  3  1  0
  1  4  1  0
  8 12  1  0
 12 13  2  0
 13 15  1  0
 15 17  2  0
 17 19  1  0
 19 21  2  0
 21 12  1  0
  8  9  1  0
  8 10  1  0
  8 11  1  0
 13 14  1  0
 15 16  1  0
 17 18  1  0
 19 20  1  0
 21 22  1  0
M  CHG  1   6  -1
M  END
>  <PDB_ID>  (1959) 
pdb4s12

>  <RESIDUE_NAME>  (1959) 
GLU   PHE

>  <FRAG_NAME>  (1959) 
ACET   MBZ

>  <FRAG_ATOM_NUM>  (1959) 
fragi: 7  fragj: 15

>  <atom.prop.CHAIN_ID>  (1959) 
A A A A A A A Z Z Z Z Z Z Z Z Z Z Z Z Z Z Z

>  <atom.prop.IS_HEAVY_ATOM>  (1959) 
1 0 0 0 1 1 1 1 0 0 0 1 1 0 1 0 1 0 1 0 1 0

>  <DIFUSE_FUNC_ATOM>  (1959) 
atom 6   atom 7   

>  <FINAL_SINGLE_POINT_ENERGY>  (1959) 
0

>  <NONCOV_INTER_ENERGY_QM>  (1959) 
0

>  <FF_Energy>  (1959) 
0.47

>  <QM_Energy>  (1959) 
-4.89

>  <source>  (1959) 
ACET_MBZ_02

>  <Index>  (1959) 
8103

$$$$
ACET-pdb3ttl-A-GLU-66:MBZ-pdb3ttl-A-PHE-85
     RDKit          3D

 22 21  0  0  0  0  0  0  0  0999 V2000
   -1.3597   -0.0268   -3.0704 C   0  0  0  0  0  0  0  0  0  0  0  0
   -0.6789    0.1401   -2.3819 H   0  0  0  0  0  0  0  0  0  0  0  0
   -1.0449    0.2060   -3.9715 H   0  0  0  0  0  0  0  0  0  0  0  0
   -1.6026   -1.0893   -3.0573 H   0  0  0  0  0  0  0  0  0  0  0  0
   -2.5573    0.8732   -2.7575 C   0  0  0  0  0  0  0  0  0  0  0  0
   -2.3529    2.1064   -2.6737 O   0  0  0  0  0  1  0  0  0  0  0  0
   -3.6939    0.3549   -2.5979 O   0  0  0  0  0  0  0  0  0  0  0  0
    0.0035    2.9230    0.0207 C   0  0  0  0  0  0  0  0  0  0  0  0
   -0.6756    3.2382   -0.6168 H   0  0  0  0  0  0  0  0  0  0  0  0
    0.9080    3.2274   -0.2182 H   0  0  0  0  0  0  0  0  0  0  0  0
   -0.2406    3.3296    1.0020 H   0  0  0  0  0  0  0  0  0  0  0  0
    0.0008    1.4085   -0.0086 C   0  0  0  0  0  0  0  0  0  0  0  0
   -1.1990    0.6900   -0.0020 C   0  0  0  0  0  0  0  0  0  0  0  0
   -2.0668    1.1731   -0.0000 H   0  0  0  0  0  0  0  0  0  0  0  0
   -1.1993   -0.7134   -0.0000 C   0  0  0  0  0  0  0  0  0  0  0  0
   -2.0731   -1.2034    0.0025 H   0  0  0  0  0  0  0  0  0  0  0  0
    0.0044   -1.3970    0.0003 C   0  0  0  0  0  0  0  0  0  0  0  0
    0.0128   -2.3953   -0.0004 H   0  0  0  0  0  0  0  0  0  0  0  0
    1.1993   -0.6869    0.0000 C   0  0  0  0  0  0  0  0  0  0  0  0
    2.0855   -1.1842   -0.0065 H   0  0  0  0  0  0  0  0  0  0  0  0
    1.1938    0.6988    0.0103 C   0  0  0  0  0  0  0  0  0  0  0  0
    2.0637    1.1969    0.0313 H   0  0  0  0  0  0  0  0  0  0  0  0
  1  5  1  0
  5  6  1  0
  5  7  2  0
  1  2  1  0
  1  3  1  0
  1  4  1  0
  8 12  1  0
 12 13  2  0
 13 15  1  0
 15 17  2  0
 17 19  1  0
 19 21  2  0
 21 12  1  0
  8  9  1  0
  8 10  1  0
  8 11  1  0
 13 14  1  0
 15 16  1  0
 17 18  1  0
 19 20  1  0
 21 22  1  0
M  CHG  1   6  -1
M  END
>  <PDB_ID>  (1960) 
pdb3ttl

>  <RESIDUE_NAME>  (1960) 
GLU   PHE

>  <FRAG_NAME>  (1960) 
ACET   MBZ

>  <FRAG_ATOM_NUM>  (1960) 
fragi: 7  fragj: 15

>  <atom.prop.CHAIN_ID>  (1960) 
A A A A A A A Z Z Z Z Z Z Z Z Z Z Z Z Z Z Z

>  <atom.prop.IS_HEAVY_ATOM>  (1960) 
1 0 0 0 1 1 1 1 0 0 0 1 1 0 1 0 1 0 1 0 1 0

>  <DIFUSE_FUNC_ATOM>  (1960) 
atom 6   atom 7   

>  <FINAL_SINGLE_POINT_ENERGY>  (1960) 
0

>  <NONCOV_INTER_ENERGY_QM>  (1960) 
0

>  <FF_Energy>  (1960) 
2.54

>  <QM_Energy>  (1960) 
-5.23

>  <source>  (1960) 
ACET_MBZ_02

>  <Index>  (1960) 
8113

$$$$
ACET-pdb4s13-E-GLU-357:MBZ-pdb4s13-E-PHE-414
     RDKit          3D

 22 21  0  0  0  0  0  0  0  0999 V2000
    1.5373    0.9427   -3.7337 C   0  0  0  0  0  0  0  0  0  0  0  0
    2.1865    0.8089   -3.0062 H   0  0  0  0  0  0  0  0  0  0  0  0
    1.9794    1.1009   -4.5986 H   0  0  0  0  0  0  0  0  0  0  0  0
    0.9385    0.0361   -3.8215 H   0  0  0  0  0  0  0  0  0  0  0  0
    0.7218    2.1872   -3.3992 C   0  0  0  0  0  0  0  0  0  0  0  0
   -0.5338    2.1325   -3.4272 O   0  0  0  0  0  1  0  0  0  0  0  0
    1.3412    3.2343   -3.1181 O   0  0  0  0  0  0  0  0  0  0  0  0
   -0.0043    2.8913    0.0026 C   0  0  0  0  0  0  0  0  0  0  0  0
   -0.6105    3.1982   -0.7135 H   0  0  0  0  0  0  0  0  0  0  0  0
    0.9214    3.2001   -0.1479 H   0  0  0  0  0  0  0  0  0  0  0  0
   -0.3528    3.3135    0.9452 H   0  0  0  0  0  0  0  0  0  0  0  0
    0.0007    1.3921   -0.0054 C   0  0  0  0  0  0  0  0  0  0  0  0
   -1.1851    0.6876    0.0055 C   0  0  0  0  0  0  0  0  0  0  0  0
   -2.0560    1.1782    0.0160 H   0  0  0  0  0  0  0  0  0  0  0  0
   -1.1901   -0.6943    0.0000 C   0  0  0  0  0  0  0  0  0  0  0  0
   -2.0721   -1.1871   -0.0017 H   0  0  0  0  0  0  0  0  0  0  0  0
   -0.0027   -1.3829   -0.0012 C   0  0  0  0  0  0  0  0  0  0  0  0
   -0.0062   -2.3870   -0.0032 H   0  0  0  0  0  0  0  0  0  0  0  0
    1.1901   -0.6948   -0.0000 C   0  0  0  0  0  0  0  0  0  0  0  0
    2.0736   -1.1921    0.0020 H   0  0  0  0  0  0  0  0  0  0  0  0
    1.1871    0.6923    0.0011 C   0  0  0  0  0  0  0  0  0  0  0  0
    2.0589    1.1859    0.0060 H   0  0  0  0  0  0  0  0  0  0  0  0
  1  5  1  0
  5  6  1  0
  5  7  2  0
  1  2  1  0
  1  3  1  0
  1  4  1  0
  8 12  1  0
 12 13  2  0
 13 15  1  0
 15 17  2  0
 17 19  1  0
 19 21  2  0
 21 12  1  0
  8  9  1  0
  8 10  1  0
  8 11  1  0
 13 14  1  0
 15 16  1  0
 17 18  1  0
 19 20  1  0
 21 22  1  0
M  CHG  1   6  -1
M  END
>  <PDB_ID>  (1961) 
pdb4s13

>  <RESIDUE_NAME>  (1961) 
GLU   PHE

>  <FRAG_NAME>  (1961) 
ACET   MBZ

>  <FRAG_ATOM_NUM>  (1961) 
fragi: 7  fragj: 15

>  <atom.prop.CHAIN_ID>  (1961) 
A A A A A A A Z Z Z Z Z Z Z Z Z Z Z Z Z Z Z

>  <atom.prop.IS_HEAVY_ATOM>  (1961) 
1 0 0 0 1 1 1 1 0 0 0 1 1 0 1 0 1 0 1 0 1 0

>  <DIFUSE_FUNC_ATOM>  (1961) 
atom 6   atom 7   

>  <FINAL_SINGLE_POINT_ENERGY>  (1961) 
0

>  <NONCOV_INTER_ENERGY_QM>  (1961) 
0

>  <FF_Energy>  (1961) 
0.35

>  <QM_Energy>  (1961) 
-5.5

>  <source>  (1961) 
ACET_MBZ_02

>  <Index>  (1961) 
8144

$$$$
ACET-pdb4rya-A-GLU-275:MBZ-pdb4rya-A-PHE-269
     RDKit          3D

 22 21  0  0  0  0  0  0  0  0999 V2000
   -4.9801    3.5424   -1.7721 C   0  0  0  0  0  0  0  0  0  0  0  0
   -5.1464    3.1248   -2.6402 H   0  0  0  0  0  0  0  0  0  0  0  0
   -4.2894    4.2330   -1.8035 H   0  0  0  0  0  0  0  0  0  0  0  0
   -5.9077    3.9836   -1.4074 H   0  0  0  0  0  0  0  0  0  0  0  0
   -4.4962    2.4602   -0.8326 C   0  0  0  0  0  0  0  0  0  0  0  0
   -3.9352    2.8059    0.2198 O   0  0  0  0  0  1  0  0  0  0  0  0
   -4.6848    1.2666   -1.1474 O   0  0  0  0  0  0  0  0  0  0  0  0
    0.0269    2.8882   -0.1482 C   0  0  0  0  0  0  0  0  0  0  0  0
    0.8518    3.2253    0.2586 H   0  0  0  0  0  0  0  0  0  0  0  0
   -0.7812    3.2527    0.2699 H   0  0  0  0  0  0  0  0  0  0  0  0
    0.0247    3.2013   -1.1922 H   0  0  0  0  0  0  0  0  0  0  0  0
    0.0026    1.3898   -0.0053 C   0  0  0  0  0  0  0  0  0  0  0  0
   -1.1779    0.6945    0.0058 C   0  0  0  0  0  0  0  0  0  0  0  0
   -2.0516    1.1816    0.0172 H   0  0  0  0  0  0  0  0  0  0  0  0
   -1.1926   -0.6992   -0.0000 C   0  0  0  0  0  0  0  0  0  0  0  0
   -2.0769   -1.1800   -0.0058 H   0  0  0  0  0  0  0  0  0  0  0  0
   -0.0088   -1.3888    0.0049 C   0  0  0  0  0  0  0  0  0  0  0  0
   -0.0036   -2.3883    0.0116 H   0  0  0  0  0  0  0  0  0  0  0  0
    1.1926   -0.6894   -0.0000 C   0  0  0  0  0  0  0  0  0  0  0  0
    2.0733   -1.1893    0.0016 H   0  0  0  0  0  0  0  0  0  0  0  0
    1.1841    0.6930   -0.0054 C   0  0  0  0  0  0  0  0  0  0  0  0
    2.0577    1.1900   -0.0102 H   0  0  0  0  0  0  0  0  0  0  0  0
  1  5  1  0
  5  6  1  0
  5  7  2  0
  1  2  1  0
  1  3  1  0
  1  4  1  0
  8 12  1  0
 12 13  2  0
 13 15  1  0
 15 17  2  0
 17 19  1  0
 19 21  2  0
 21 12  1  0
  8  9  1  0
  8 10  1  0
  8 11  1  0
 13 14  1  0
 15 16  1  0
 17 18  1  0
 19 20  1  0
 21 22  1  0
M  CHG  1   6  -1
M  END
>  <PDB_ID>  (1962) 
pdb4rya

>  <RESIDUE_NAME>  (1962) 
GLU   PHE

>  <FRAG_NAME>  (1962) 
ACET   MBZ

>  <FRAG_ATOM_NUM>  (1962) 
fragi: 7  fragj: 15

>  <atom.prop.CHAIN_ID>  (1962) 
A A A A A A A Z Z Z Z Z Z Z Z Z Z Z Z Z Z Z

>  <atom.prop.IS_HEAVY_ATOM>  (1962) 
1 0 0 0 1 1 1 1 0 0 0 1 1 0 1 0 1 0 1 0 1 0

>  <DIFUSE_FUNC_ATOM>  (1962) 
atom 6   atom 7   

>  <FINAL_SINGLE_POINT_ENERGY>  (1962) 
0

>  <NONCOV_INTER_ENERGY_QM>  (1962) 
0

>  <FF_Energy>  (1962) 
-2.88

>  <QM_Energy>  (1962) 
-8.13

>  <source>  (1962) 
ACET_MBZ_02

>  <Index>  (1962) 
8187

$$$$
ACET-pdb3tw9-B-GLU-221:MBZ-pdb3tw9-B-PHE-248
     RDKit          3D

 22 21  0  0  0  0  0  0  0  0999 V2000
   -3.4776    2.4175   -3.2383 C   0  0  0  0  0  0  0  0  0  0  0  0
   -4.1415    2.7038   -3.9083 H   0  0  0  0  0  0  0  0  0  0  0  0
   -3.2717    1.4566   -3.3137 H   0  0  0  0  0  0  0  0  0  0  0  0
   -2.5598    2.9831   -3.3988 H   0  0  0  0  0  0  0  0  0  0  0  0
   -4.1073    2.6360   -1.8577 C   0  0  0  0  0  0  0  0  0  0  0  0
   -3.4176    3.1317   -0.9388 O   0  0  0  0  0  1  0  0  0  0  0  0
   -5.2919    2.2925   -1.6853 O   0  0  0  0  0  0  0  0  0  0  0  0
    0.0007    2.9126   -0.0174 C   0  0  0  0  0  0  0  0  0  0  0  0
   -0.7037    3.2148   -0.6387 H   0  0  0  0  0  0  0  0  0  0  0  0
    0.8958    3.2115   -0.3097 H   0  0  0  0  0  0  0  0  0  0  0  0
   -0.1990    3.3596    0.9565 H   0  0  0  0  0  0  0  0  0  0  0  0
   -0.0052    1.4074   -0.0025 C   0  0  0  0  0  0  0  0  0  0  0  0
   -1.2102    0.7031    0.0046 C   0  0  0  0  0  0  0  0  0  0  0  0
   -2.0728    1.1839    0.0115 H   0  0  0  0  0  0  0  0  0  0  0  0
   -1.2074   -0.7067   -0.0000 C   0  0  0  0  0  0  0  0  0  0  0  0
   -2.0755   -1.2002   -0.0033 H   0  0  0  0  0  0  0  0  0  0  0  0
    0.0099   -1.3935    0.0022 C   0  0  0  0  0  0  0  0  0  0  0  0
    0.0040   -2.3968    0.0053 H   0  0  0  0  0  0  0  0  0  0  0  0
    1.2074   -0.7021   -0.0000 C   0  0  0  0  0  0  0  0  0  0  0  0
    2.0896   -1.1980    0.0030 H   0  0  0  0  0  0  0  0  0  0  0  0
    1.2056    0.6917   -0.0043 C   0  0  0  0  0  0  0  0  0  0  0  0
    2.0675    1.1910   -0.0100 H   0  0  0  0  0  0  0  0  0  0  0  0
  1  5  1  0
  5  6  1  0
  5  7  2  0
  1  2  1  0
  1  3  1  0
  1  4  1  0
  8 12  1  0
 12 13  2  0
 13 15  1  0
 15 17  2  0
 17 19  1  0
 19 21  2  0
 21 12  1  0
  8  9  1  0
  8 10  1  0
  8 11  1  0
 13 14  1  0
 15 16  1  0
 17 18  1  0
 19 20  1  0
 21 22  1  0
M  CHG  1   6  -1
M  END
>  <PDB_ID>  (1963) 
pdb3tw9

>  <RESIDUE_NAME>  (1963) 
GLU   PHE

>  <FRAG_NAME>  (1963) 
ACET   MBZ

>  <FRAG_ATOM_NUM>  (1963) 
fragi: 7  fragj: 15

>  <atom.prop.CHAIN_ID>  (1963) 
A A A A A A A Z Z Z Z Z Z Z Z Z Z Z Z Z Z Z

>  <atom.prop.IS_HEAVY_ATOM>  (1963) 
1 0 0 0 1 1 1 1 0 0 0 1 1 0 1 0 1 0 1 0 1 0

>  <DIFUSE_FUNC_ATOM>  (1963) 
atom 6   atom 7   

>  <FINAL_SINGLE_POINT_ENERGY>  (1963) 
0

>  <NONCOV_INTER_ENERGY_QM>  (1963) 
0

>  <FF_Energy>  (1963) 
-2.55

>  <QM_Energy>  (1963) 
-7.63

>  <source>  (1963) 
ACET_MBZ_02

>  <Index>  (1963) 
8267

$$$$
ACET-pdb3twk-B-GLU-119:MBZ-pdb3twk-B-PHE-111
     RDKit          3D

 22 21  0  0  0  0  0  0  0  0999 V2000
   -0.1271   -4.0426    2.3995 C   0  0  0  0  0  0  0  0  0  0  0  0
    0.5097   -3.2948    2.3589 H   0  0  0  0  0  0  0  0  0  0  0  0
    0.1154   -4.7024    3.0858 H   0  0  0  0  0  0  0  0  0  0  0  0
   -1.1100   -3.6397    2.6437 H   0  0  0  0  0  0  0  0  0  0  0  0
   -0.0947   -4.7475    1.0547 C   0  0  0  0  0  0  0  0  0  0  0  0
   -0.6032   -4.1834    0.0634 O   0  0  0  0  0  1  0  0  0  0  0  0
    0.4502   -5.8691    0.9852 O   0  0  0  0  0  0  0  0  0  0  0  0
   -0.0017    2.9024    0.0335 C   0  0  0  0  0  0  0  0  0  0  0  0
   -0.6590    3.2234   -0.6305 H   0  0  0  0  0  0  0  0  0  0  0  0
    0.9106    3.2143   -0.1824 H   0  0  0  0  0  0  0  0  0  0  0  0
   -0.2763    3.3178    1.0031 H   0  0  0  0  0  0  0  0  0  0  0  0
   -0.0007    1.4010    0.0002 C   0  0  0  0  0  0  0  0  0  0  0  0
   -1.1968    0.6925   -0.0005 C   0  0  0  0  0  0  0  0  0  0  0  0
   -2.0636    1.1836   -0.0027 H   0  0  0  0  0  0  0  0  0  0  0  0
   -1.2016   -0.6970    0.0000 C   0  0  0  0  0  0  0  0  0  0  0  0
   -2.0766   -1.1915    0.0013 H   0  0  0  0  0  0  0  0  0  0  0  0
    0.0012   -1.3925    0.0006 C   0  0  0  0  0  0  0  0  0  0  0  0
   -0.0037   -2.3916    0.0015 H   0  0  0  0  0  0  0  0  0  0  0  0
    1.2016   -0.6975    0.0000 C   0  0  0  0  0  0  0  0  0  0  0  0
    2.0833   -1.1944    0.0017 H   0  0  0  0  0  0  0  0  0  0  0  0
    1.1963    0.6935   -0.0003 C   0  0  0  0  0  0  0  0  0  0  0  0
    2.0644    1.1897   -0.0019 H   0  0  0  0  0  0  0  0  0  0  0  0
  1  5  1  0
  5  6  1  0
  5  7  2  0
  1  2  1  0
  1  3  1  0
  1  4  1  0
  8 12  1  0
 12 13  2  0
 13 15  1  0
 15 17  2  0
 17 19  1  0
 19 21  2  0
 21 12  1  0
  8  9  1  0
  8 10  1  0
  8 11  1  0
 13 14  1  0
 15 16  1  0
 17 18  1  0
 19 20  1  0
 21 22  1  0
M  CHG  1   6  -1
M  END
>  <PDB_ID>  (1964) 
pdb3twk

>  <RESIDUE_NAME>  (1964) 
GLU   PHE

>  <FRAG_NAME>  (1964) 
ACET   MBZ

>  <FRAG_ATOM_NUM>  (1964) 
fragi: 7  fragj: 15

>  <atom.prop.CHAIN_ID>  (1964) 
A A A A A A A Z Z Z Z Z Z Z Z Z Z Z Z Z Z Z

>  <atom.prop.IS_HEAVY_ATOM>  (1964) 
1 0 0 0 1 1 1 1 0 0 0 1 1 0 1 0 1 0 1 0 1 0

>  <DIFUSE_FUNC_ATOM>  (1964) 
atom 6   atom 7   

>  <FINAL_SINGLE_POINT_ENERGY>  (1964) 
0

>  <NONCOV_INTER_ENERGY_QM>  (1964) 
0

>  <FF_Energy>  (1964) 
14.61

>  <QM_Energy>  (1964) 
-4.41

>  <source>  (1964) 
ACET_MBZ_02

>  <Index>  (1964) 
8276

$$$$
ACET-pdb3two-A-ASP-324:MBZ-pdb3two-A-PHE-17
     RDKit          3D

 22 21  0  0  0  0  0  0  0  0999 V2000
   -5.1162    3.4601   -2.2778 C   0  0  0  0  0  0  0  0  0  0  0  0
   -4.7876    4.3198   -2.6331 H   0  0  0  0  0  0  0  0  0  0  0  0
   -6.0851    3.4877   -2.0959 H   0  0  0  0  0  0  0  0  0  0  0  0
   -4.9285    2.6864   -3.0223 H   0  0  0  0  0  0  0  0  0  0  0  0
   -4.3829    3.1669   -0.9627 C   0  0  0  0  0  0  0  0  0  0  0  0
   -3.2467    3.6462   -0.7469 O   0  0  0  0  0  1  0  0  0  0  0  0
   -4.9458    2.4164   -0.1574 O   0  0  0  0  0  0  0  0  0  0  0  0
   -0.0350    2.9199    0.0353 C   0  0  0  0  0  0  0  0  0  0  0  0
   -0.7340    3.2302   -0.5819 H   0  0  0  0  0  0  0  0  0  0  0  0
    0.8571    3.2490   -0.2125 H   0  0  0  0  0  0  0  0  0  0  0  0
   -0.2695    3.3095    1.0260 H   0  0  0  0  0  0  0  0  0  0  0  0
   -0.0081    1.4152   -0.0026 C   0  0  0  0  0  0  0  0  0  0  0  0
   -1.2100    0.6874   -0.0053 C   0  0  0  0  0  0  0  0  0  0  0  0
   -2.0795    1.1741   -0.0120 H   0  0  0  0  0  0  0  0  0  0  0  0
   -1.2237   -0.7232   -0.0000 C   0  0  0  0  0  0  0  0  0  0  0  0
   -2.0824   -1.2169    0.0018 H   0  0  0  0  0  0  0  0  0  0  0  0
    0.0153   -1.4269    0.0051 C   0  0  0  0  0  0  0  0  0  0  0  0
    0.0257   -2.4075    0.0114 H   0  0  0  0  0  0  0  0  0  0  0  0
    1.2237   -0.6836    0.0000 C   0  0  0  0  0  0  0  0  0  0  0  0
    2.1101   -1.1660   -0.0039 H   0  0  0  0  0  0  0  0  0  0  0  0
    1.2028    0.7311    0.0028 C   0  0  0  0  0  0  0  0  0  0  0  0
    2.0618    1.2274    0.0080 H   0  0  0  0  0  0  0  0  0  0  0  0
  1  5  1  0
  5  6  1  0
  5  7  2  0
  1  2  1  0
  1  3  1  0
  1  4  1  0
  8 12  1  0
 12 13  2  0
 13 15  1  0
 15 17  2  0
 17 19  1  0
 19 21  2  0
 21 12  1  0
  8  9  1  0
  8 10  1  0
  8 11  1  0
 13 14  1  0
 15 16  1  0
 17 18  1  0
 19 20  1  0
 21 22  1  0
M  CHG  1   6  -1
M  END
>  <PDB_ID>  (1965) 
pdb3two

>  <RESIDUE_NAME>  (1965) 
ASP   PHE

>  <FRAG_NAME>  (1965) 
ACET   MBZ

>  <FRAG_ATOM_NUM>  (1965) 
fragi: 7  fragj: 15

>  <atom.prop.CHAIN_ID>  (1965) 
A A A A A A A Z Z Z Z Z Z Z Z Z Z Z Z Z Z Z

>  <atom.prop.IS_HEAVY_ATOM>  (1965) 
1 0 0 0 1 1 1 1 0 0 0 1 1 0 1 0 1 0 1 0 1 0

>  <DIFUSE_FUNC_ATOM>  (1965) 
atom 6   atom 7   

>  <FINAL_SINGLE_POINT_ENERGY>  (1965) 
0

>  <NONCOV_INTER_ENERGY_QM>  (1965) 
0

>  <FF_Energy>  (1965) 
-2.62

>  <QM_Energy>  (1965) 
-8.33

>  <source>  (1965) 
ACET_MBZ_02

>  <Index>  (1965) 
8278

$$$$
ACET-pdb3ty2-A-GLU-122:MBZ-pdb3ty2-A-PHE-125
     RDKit          3D

 22 21  0  0  0  0  0  0  0  0999 V2000
    5.0684   -2.5213   -1.4514 C   0  0  0  0  0  0  0  0  0  0  0  0
    5.7588   -3.2196   -1.4924 H   0  0  0  0  0  0  0  0  0  0  0  0
    5.4343   -1.6253   -1.6269 H   0  0  0  0  0  0  0  0  0  0  0  0
    4.3214   -2.7387   -2.2149 H   0  0  0  0  0  0  0  0  0  0  0  0
    4.5015   -2.5173   -0.0373 C   0  0  0  0  0  0  0  0  0  0  0  0
    3.3227   -2.8905    0.1538 O   0  0  0  0  0  1  0  0  0  0  0  0
    5.2411   -2.1443    0.8913 O   0  0  0  0  0  0  0  0  0  0  0  0
   -0.0148    2.8990    0.0162 C   0  0  0  0  0  0  0  0  0  0  0  0
    0.3339    3.1994    0.8941 H   0  0  0  0  0  0  0  0  0  0  0  0
   -0.9499    3.2002   -0.1161 H   0  0  0  0  0  0  0  0  0  0  0  0
    0.5937    3.3692   -0.7564 H   0  0  0  0  0  0  0  0  0  0  0  0
   -0.0007    1.3955   -0.0031 C   0  0  0  0  0  0  0  0  0  0  0  0
   -1.1906    0.6872    0.0015 C   0  0  0  0  0  0  0  0  0  0  0  0
   -2.0603    1.1784    0.0042 H   0  0  0  0  0  0  0  0  0  0  0  0
   -1.1944   -0.6950    0.0000 C   0  0  0  0  0  0  0  0  0  0  0  0
   -2.0734   -1.1900    0.0014 H   0  0  0  0  0  0  0  0  0  0  0  0
   -0.0009   -1.3861   -0.0021 C   0  0  0  0  0  0  0  0  0  0  0  0
   -0.0030   -2.3873   -0.0058 H   0  0  0  0  0  0  0  0  0  0  0  0
    1.1944   -0.6933    0.0000 C   0  0  0  0  0  0  0  0  0  0  0  0
    2.0775   -1.1925   -0.0001 H   0  0  0  0  0  0  0  0  0  0  0  0
    1.1921    0.6917    0.0036 C   0  0  0  0  0  0  0  0  0  0  0  0
    2.0612    1.1887    0.0103 H   0  0  0  0  0  0  0  0  0  0  0  0
  1  5  1  0
  5  6  1  0
  5  7  2  0
  1  2  1  0
  1  3  1  0
  1  4  1  0
  8 12  1  0
 12 13  2  0
 13 15  1  0
 15 17  2  0
 17 19  1  0
 19 21  2  0
 21 12  1  0
  8  9  1  0
  8 10  1  0
  8 11  1  0
 13 14  1  0
 15 16  1  0
 17 18  1  0
 19 20  1  0
 21 22  1  0
M  CHG  1   6  -1
M  END
>  <PDB_ID>  (1966) 
pdb3ty2

>  <RESIDUE_NAME>  (1966) 
GLU   PHE

>  <FRAG_NAME>  (1966) 
ACET   MBZ

>  <FRAG_ATOM_NUM>  (1966) 
fragi: 7  fragj: 15

>  <atom.prop.CHAIN_ID>  (1966) 
A A A A A A A Z Z Z Z Z Z Z Z Z Z Z Z Z Z Z

>  <atom.prop.IS_HEAVY_ATOM>  (1966) 
1 0 0 0 1 1 1 1 0 0 0 1 1 0 1 0 1 0 1 0 1 0

>  <DIFUSE_FUNC_ATOM>  (1966) 
atom 6   atom 7   

>  <FINAL_SINGLE_POINT_ENERGY>  (1966) 
0

>  <NONCOV_INTER_ENERGY_QM>  (1966) 
0

>  <FF_Energy>  (1966) 
0.82

>  <QM_Energy>  (1966) 
-5.83

>  <source>  (1966) 
ACET_MBZ_02

>  <Index>  (1966) 
8340

$$$$
ACET-pdb4tl6-B-GLU-183:MBZ-pdb4tl6-C-PHE-199
     RDKit          3D

 22 21  0  0  0  0  0  0  0  0999 V2000
   -2.1034   -0.1177    3.4855 C   0  0  0  0  0  0  0  0  0  0  0  0
   -2.5826   -0.1405    2.6208 H   0  0  0  0  0  0  0  0  0  0  0  0
   -2.7298    0.0121    4.2394 H   0  0  0  0  0  0  0  0  0  0  0  0
   -1.5683   -1.0575    3.6216 H   0  0  0  0  0  0  0  0  0  0  0  0
   -1.1951    1.1144    3.4526 C   0  0  0  0  0  0  0  0  0  0  0  0
   -1.7410    2.2039    3.1446 O   0  0  0  0  0  1  0  0  0  0  0  0
    0.0135    0.9859    3.7594 O   0  0  0  0  0  0  0  0  0  0  0  0
   -0.0177    2.9016   -0.0367 C   0  0  0  0  0  0  0  0  0  0  0  0
    0.8469    3.2196    0.3092 H   0  0  0  0  0  0  0  0  0  0  0  0
   -0.7736    3.2105    0.5128 H   0  0  0  0  0  0  0  0  0  0  0  0
   -0.1462    3.3092   -1.0393 H   0  0  0  0  0  0  0  0  0  0  0  0
   -0.0062    1.3935   -0.0105 C   0  0  0  0  0  0  0  0  0  0  0  0
   -1.1953    0.6770    0.0088 C   0  0  0  0  0  0  0  0  0  0  0  0
   -2.0645    1.1762    0.0281 H   0  0  0  0  0  0  0  0  0  0  0  0
   -1.1978   -0.6866   -0.0000 C   0  0  0  0  0  0  0  0  0  0  0  0
   -2.0751   -1.1918   -0.0207 H   0  0  0  0  0  0  0  0  0  0  0  0
   -0.0042   -1.3773    0.0217 C   0  0  0  0  0  0  0  0  0  0  0  0
   -0.0133   -2.3832    0.0533 H   0  0  0  0  0  0  0  0  0  0  0  0
    1.1978   -0.6993    0.0000 C   0  0  0  0  0  0  0  0  0  0  0  0
    2.0761   -1.2026   -0.0002 H   0  0  0  0  0  0  0  0  0  0  0  0
    1.2058    0.6927   -0.0199 C   0  0  0  0  0  0  0  0  0  0  0  0
    2.0636    1.1881   -0.0413 H   0  0  0  0  0  0  0  0  0  0  0  0
  1  5  1  0
  5  6  1  0
  5  7  2  0
  1  2  1  0
  1  3  1  0
  1  4  1  0
  8 12  1  0
 12 13  2  0
 13 15  1  0
 15 17  2  0
 17 19  1  0
 19 21  2  0
 21 12  1  0
  8  9  1  0
  8 10  1  0
  8 11  1  0
 13 14  1  0
 15 16  1  0
 17 18  1  0
 19 20  1  0
 21 22  1  0
M  CHG  1   6  -1
M  END
>  <PDB_ID>  (1967) 
pdb4tl6

>  <RESIDUE_NAME>  (1967) 
GLU   PHE

>  <FRAG_NAME>  (1967) 
ACET   MBZ

>  <FRAG_ATOM_NUM>  (1967) 
fragi: 7  fragj: 15

>  <atom.prop.CHAIN_ID>  (1967) 
A A A A A A A Z Z Z Z Z Z Z Z Z Z Z Z Z Z Z

>  <atom.prop.IS_HEAVY_ATOM>  (1967) 
1 0 0 0 1 1 1 1 0 0 0 1 1 0 1 0 1 0 1 0 1 0

>  <DIFUSE_FUNC_ATOM>  (1967) 
atom 6   atom 7   

>  <FINAL_SINGLE_POINT_ENERGY>  (1967) 
0

>  <NONCOV_INTER_ENERGY_QM>  (1967) 
0

>  <FF_Energy>  (1967) 
1.34

>  <QM_Energy>  (1967) 
-3.71

>  <source>  (1967) 
ACET_MBZ_02

>  <Index>  (1967) 
8391

$$$$
ACET-pdb3tyr-A-GLU-73:MBZ-pdb3tyr-B-PHE-19
     RDKit          3D

 22 21  0  0  0  0  0  0  0  0999 V2000
   -3.7235    2.8614    1.9870 C   0  0  0  0  0  0  0  0  0  0  0  0
   -3.6028    1.8901    1.8996 H   0  0  0  0  0  0  0  0  0  0  0  0
   -4.6099    3.0949    2.3436 H   0  0  0  0  0  0  0  0  0  0  0  0
   -2.9664    3.2399    2.6738 H   0  0  0  0  0  0  0  0  0  0  0  0
   -3.6127    3.4645    0.6025 C   0  0  0  0  0  0  0  0  0  0  0  0
   -2.8599    4.4599    0.4804 O   0  0  0  0  0  1  0  0  0  0  0  0
   -4.2919    2.9378   -0.3244 O   0  0  0  0  0  0  0  0  0  0  0  0
   -0.0124    2.8970   -0.0451 C   0  0  0  0  0  0  0  0  0  0  0  0
    0.7992    3.2462    0.3783 H   0  0  0  0  0  0  0  0  0  0  0  0
   -0.8333    3.2239    0.3782 H   0  0  0  0  0  0  0  0  0  0  0  0
   -0.0177    3.2505   -1.0762 H   0  0  0  0  0  0  0  0  0  0  0  0
    0.0082    1.4114    0.0269 C   0  0  0  0  0  0  0  0  0  0  0  0
   -1.2044    0.6973    0.0132 C   0  0  0  0  0  0  0  0  0  0  0  0
   -2.0632    1.1870    0.0116 H   0  0  0  0  0  0  0  0  0  0  0  0
   -1.2023   -0.6995   -0.0000 C   0  0  0  0  0  0  0  0  0  0  0  0
   -2.0827   -1.1928    0.0099 H   0  0  0  0  0  0  0  0  0  0  0  0
   -0.0030   -1.4037   -0.0247 C   0  0  0  0  0  0  0  0  0  0  0  0
   -0.0093   -2.3989   -0.0604 H   0  0  0  0  0  0  0  0  0  0  0  0
    1.2023   -0.7069   -0.0000 C   0  0  0  0  0  0  0  0  0  0  0  0
    2.0819   -1.1975    0.0305 H   0  0  0  0  0  0  0  0  0  0  0  0
    1.1992    0.7014   -0.0153 C   0  0  0  0  0  0  0  0  0  0  0  0
    2.0703    1.1866   -0.0580 H   0  0  0  0  0  0  0  0  0  0  0  0
  1  5  1  0
  5  6  1  0
  5  7  2  0
  1  2  1  0
  1  3  1  0
  1  4  1  0
  8 12  1  0
 12 13  2  0
 13 15  1  0
 15 17  2  0
 17 19  1  0
 19 21  2  0
 21 12  1  0
  8  9  1  0
  8 10  1  0
  8 11  1  0
 13 14  1  0
 15 16  1  0
 17 18  1  0
 19 20  1  0
 21 22  1  0
M  CHG  1   6  -1
M  END
>  <PDB_ID>  (1968) 
pdb3tyr

>  <RESIDUE_NAME>  (1968) 
GLU   PHE

>  <FRAG_NAME>  (1968) 
ACET   MBZ

>  <FRAG_ATOM_NUM>  (1968) 
fragi: 7  fragj: 15

>  <atom.prop.CHAIN_ID>  (1968) 
A A A A A A A Z Z Z Z Z Z Z Z Z Z Z Z Z Z Z

>  <atom.prop.IS_HEAVY_ATOM>  (1968) 
1 0 0 0 1 1 1 1 0 0 0 1 1 0 1 0 1 0 1 0 1 0

>  <DIFUSE_FUNC_ATOM>  (1968) 
atom 6   atom 7   

>  <FINAL_SINGLE_POINT_ENERGY>  (1968) 
0

>  <NONCOV_INTER_ENERGY_QM>  (1968) 
0

>  <FF_Energy>  (1968) 
-2.31

>  <QM_Energy>  (1968) 
-7.6

>  <source>  (1968) 
ACET_MBZ_02

>  <Index>  (1968) 
8417

$$$$
ACET-pdb3txy-A-GLU-142:MBZ-pdb3txy-A-PHE-108
     RDKit          3D

 22 21  0  0  0  0  0  0  0  0999 V2000
    1.8816    1.4901    3.3959 C   0  0  0  0  0  0  0  0  0  0  0  0
    1.2051    0.9437    2.9258 H   0  0  0  0  0  0  0  0  0  0  0  0
    1.7727    1.4308    4.3763 H   0  0  0  0  0  0  0  0  0  0  0  0
    2.8713    1.1164    3.1335 H   0  0  0  0  0  0  0  0  0  0  0  0
    1.6309    2.9493    3.0048 C   0  0  0  0  0  0  0  0  0  0  0  0
    0.5554    3.4462    3.3784 O   0  0  0  0  0  1  0  0  0  0  0  0
    2.4715    3.6009    2.3428 O   0  0  0  0  0  0  0  0  0  0  0  0
   -0.0190    2.8939    0.0622 C   0  0  0  0  0  0  0  0  0  0  0  0
    0.8421    3.1902    0.4545 H   0  0  0  0  0  0  0  0  0  0  0  0
   -0.7811    3.1693    0.6336 H   0  0  0  0  0  0  0  0  0  0  0  0
   -0.1332    3.3728   -0.9103 H   0  0  0  0  0  0  0  0  0  0  0  0
   -0.0051    1.3954    0.0064 C   0  0  0  0  0  0  0  0  0  0  0  0
   -1.1903    0.6851    0.0070 C   0  0  0  0  0  0  0  0  0  0  0  0
   -2.0629    1.1786    0.0115 H   0  0  0  0  0  0  0  0  0  0  0  0
   -1.1980   -0.6935    0.0000 C   0  0  0  0  0  0  0  0  0  0  0  0
   -2.0741   -1.1913    0.0110 H   0  0  0  0  0  0  0  0  0  0  0  0
    0.0007   -1.3856   -0.0201 C   0  0  0  0  0  0  0  0  0  0  0  0
   -0.0007   -2.3846   -0.0500 H   0  0  0  0  0  0  0  0  0  0  0  0
    1.1980   -0.6890   -0.0000 C   0  0  0  0  0  0  0  0  0  0  0  0
    2.0799   -1.1930    0.0117 H   0  0  0  0  0  0  0  0  0  0  0  0
    1.1946    0.6876    0.0067 C   0  0  0  0  0  0  0  0  0  0  0  0
    2.0596    1.1913    0.0114 H   0  0  0  0  0  0  0  0  0  0  0  0
  1  5  1  0
  5  6  1  0
  5  7  2  0
  1  2  1  0
  1  3  1  0
  1  4  1  0
  8 12  1  0
 12 13  2  0
 13 15  1  0
 15 17  2  0
 17 19  1  0
 19 21  2  0
 21 12  1  0
  8  9  1  0
  8 10  1  0
  8 11  1  0
 13 14  1  0
 15 16  1  0
 17 18  1  0
 19 20  1  0
 21 22  1  0
M  CHG  1   6  -1
M  END
>  <PDB_ID>  (1969) 
pdb3txy

>  <RESIDUE_NAME>  (1969) 
GLU   PHE

>  <FRAG_NAME>  (1969) 
ACET   MBZ

>  <FRAG_ATOM_NUM>  (1969) 
fragi: 7  fragj: 15

>  <atom.prop.CHAIN_ID>  (1969) 
A A A A A A A Z Z Z Z Z Z Z Z Z Z Z Z Z Z Z

>  <atom.prop.IS_HEAVY_ATOM>  (1969) 
1 0 0 0 1 1 1 1 0 0 0 1 1 0 1 0 1 0 1 0 1 0

>  <DIFUSE_FUNC_ATOM>  (1969) 
atom 6   atom 7   

>  <FINAL_SINGLE_POINT_ENERGY>  (1969) 
0

>  <NONCOV_INTER_ENERGY_QM>  (1969) 
0

>  <FF_Energy>  (1969) 
-1.08

>  <QM_Energy>  (1969) 
-6.98

>  <source>  (1969) 
ACET_MBZ_02

>  <Index>  (1969) 
8421

$$$$
ACET-pdb3ty2-A-GLU-260:MBZ-pdb3ty2-B-PHE-183
     RDKit          3D

 22 21  0  0  0  0  0  0  0  0999 V2000
   -2.8903    2.1419   -3.6327 C   0  0  0  0  0  0  0  0  0  0  0  0
   -2.8078    1.3788   -3.0236 H   0  0  0  0  0  0  0  0  0  0  0  0
   -2.0415    2.3791   -4.0612 H   0  0  0  0  0  0  0  0  0  0  0  0
   -3.6072    1.8823   -4.4115 H   0  0  0  0  0  0  0  0  0  0  0  0
   -3.3418    3.3373   -2.8142 C   0  0  0  0  0  0  0  0  0  0  0  0
   -4.3700    3.9453   -3.1732 O   0  0  0  0  0  1  0  0  0  0  0  0
   -2.6767    3.6713   -1.8113 O   0  0  0  0  0  0  0  0  0  0  0  0
    0.0024    2.8915   -0.0101 C   0  0  0  0  0  0  0  0  0  0  0  0
   -0.6204    3.1941   -0.7181 H   0  0  0  0  0  0  0  0  0  0  0  0
    0.9269    3.1970   -0.1971 H   0  0  0  0  0  0  0  0  0  0  0  0
   -0.3140    3.3494    0.9270 H   0  0  0  0  0  0  0  0  0  0  0  0
   -0.0001    1.3942    0.0050 C   0  0  0  0  0  0  0  0  0  0  0  0
   -1.1918    0.6891   -0.0053 C   0  0  0  0  0  0  0  0  0  0  0  0
   -2.0601    1.1795   -0.0185 H   0  0  0  0  0  0  0  0  0  0  0  0
   -1.1945   -0.6953    0.0000 C   0  0  0  0  0  0  0  0  0  0  0  0
   -2.0727   -1.1912    0.0037 H   0  0  0  0  0  0  0  0  0  0  0  0
    0.0018   -1.3861    0.0026 C   0  0  0  0  0  0  0  0  0  0  0  0
   -0.0014   -2.3874    0.0060 H   0  0  0  0  0  0  0  0  0  0  0  0
    1.1945   -0.6918    0.0000 C   0  0  0  0  0  0  0  0  0  0  0  0
    2.0786   -1.1909    0.0013 H   0  0  0  0  0  0  0  0  0  0  0  0
    1.1901    0.6898   -0.0023 C   0  0  0  0  0  0  0  0  0  0  0  0
    2.0599    1.1888   -0.0102 H   0  0  0  0  0  0  0  0  0  0  0  0
  1  5  1  0
  5  6  1  0
  5  7  2  0
  1  2  1  0
  1  3  1  0
  1  4  1  0
  8 12  1  0
 12 13  2  0
 13 15  1  0
 15 17  2  0
 17 19  1  0
 19 21  2  0
 21 12  1  0
  8  9  1  0
  8 10  1  0
  8 11  1  0
 13 14  1  0
 15 16  1  0
 17 18  1  0
 19 20  1  0
 21 22  1  0
M  CHG  1   6  -1
M  END
>  <PDB_ID>  (1970) 
pdb3ty2

>  <RESIDUE_NAME>  (1970) 
GLU   PHE

>  <FRAG_NAME>  (1970) 
ACET   MBZ

>  <FRAG_ATOM_NUM>  (1970) 
fragi: 7  fragj: 15

>  <atom.prop.CHAIN_ID>  (1970) 
A A A A A A A Z Z Z Z Z Z Z Z Z Z Z Z Z Z Z

>  <atom.prop.IS_HEAVY_ATOM>  (1970) 
1 0 0 0 1 1 1 1 0 0 0 1 1 0 1 0 1 0 1 0 1 0

>  <DIFUSE_FUNC_ATOM>  (1970) 
atom 6   atom 7   

>  <FINAL_SINGLE_POINT_ENERGY>  (1970) 
0

>  <NONCOV_INTER_ENERGY_QM>  (1970) 
0

>  <FF_Energy>  (1970) 
-1.42

>  <QM_Energy>  (1970) 
-6.69

>  <source>  (1970) 
ACET_MBZ_02

>  <Index>  (1970) 
8458

$$$$
ACET-pdb3u0g-D-GLU-261:MBZ-pdb3u0g-D-PHE-290
     RDKit          3D

 22 21  0  0  0  0  0  0  0  0999 V2000
   -2.3846   -4.0559   -2.3484 C   0  0  0  0  0  0  0  0  0  0  0  0
   -2.9162   -3.4273   -2.8937 H   0  0  0  0  0  0  0  0  0  0  0  0
   -2.7225   -4.9806   -2.4288 H   0  0  0  0  0  0  0  0  0  0  0  0
   -1.3582   -4.0366   -2.7146 H   0  0  0  0  0  0  0  0  0  0  0  0
   -2.5153   -3.6427   -0.9087 C   0  0  0  0  0  0  0  0  0  0  0  0
   -1.9193   -4.3133   -0.0375 O   0  0  0  0  0  1  0  0  0  0  0  0
   -3.2369   -2.6482   -0.6769 O   0  0  0  0  0  0  0  0  0  0  0  0
   -0.0218    2.9412   -0.0486 C   0  0  0  0  0  0  0  0  0  0  0  0
    0.9043    3.2500   -0.0780 H   0  0  0  0  0  0  0  0  0  0  0  0
   -0.5119    3.2603    0.7345 H   0  0  0  0  0  0  0  0  0  0  0  0
   -0.5308    3.3082   -0.9398 H   0  0  0  0  0  0  0  0  0  0  0  0
    0.0006    1.4113    0.0096 C   0  0  0  0  0  0  0  0  0  0  0  0
   -1.2086    0.6927   -0.0026 C   0  0  0  0  0  0  0  0  0  0  0  0
   -2.0690    1.1919   -0.0144 H   0  0  0  0  0  0  0  0  0  0  0  0
   -1.2112   -0.6883   -0.0000 C   0  0  0  0  0  0  0  0  0  0  0  0
   -2.0860   -1.1906    0.0045 H   0  0  0  0  0  0  0  0  0  0  0  0
   -0.0033   -1.3971   -0.0021 C   0  0  0  0  0  0  0  0  0  0  0  0
   -0.0157   -2.3939   -0.0053 H   0  0  0  0  0  0  0  0  0  0  0  0
    1.2112   -0.7067    0.0000 C   0  0  0  0  0  0  0  0  0  0  0  0
    2.0847   -1.2093    0.0067 H   0  0  0  0  0  0  0  0  0  0  0  0
    1.2114    0.6882   -0.0049 C   0  0  0  0  0  0  0  0  0  0  0  0
    2.0738    1.1859   -0.0194 H   0  0  0  0  0  0  0  0  0  0  0  0
  1  5  1  0
  5  6  1  0
  5  7  2  0
  1  2  1  0
  1  3  1  0
  1  4  1  0
  8 12  1  0
 12 13  2  0
 13 15  1  0
 15 17  2  0
 17 19  1  0
 19 21  2  0
 21 12  1  0
  8  9  1  0
  8 10  1  0
  8 11  1  0
 13 14  1  0
 15 16  1  0
 17 18  1  0
 19 20  1  0
 21 22  1  0
M  CHG  1   6  -1
M  END
>  <PDB_ID>  (1971) 
pdb3u0g

>  <RESIDUE_NAME>  (1971) 
GLU   PHE

>  <FRAG_NAME>  (1971) 
ACET   MBZ

>  <FRAG_ATOM_NUM>  (1971) 
fragi: 7  fragj: 15

>  <atom.prop.CHAIN_ID>  (1971) 
A A A A A A A Z Z Z Z Z Z Z Z Z Z Z Z Z Z Z

>  <atom.prop.IS_HEAVY_ATOM>  (1971) 
1 0 0 0 1 1 1 1 0 0 0 1 1 0 1 0 1 0 1 0 1 0

>  <DIFUSE_FUNC_ATOM>  (1971) 
atom 6   atom 7   

>  <FINAL_SINGLE_POINT_ENERGY>  (1971) 
0

>  <NONCOV_INTER_ENERGY_QM>  (1971) 
0

>  <FF_Energy>  (1971) 
6.17

>  <QM_Energy>  (1971) 
-6.59

>  <source>  (1971) 
ACET_MBZ_02

>  <Index>  (1971) 
8608

$$$$
ACET-pdb3u0o-B-GLU-123:MBZ-pdb3u0o-A-PHE-37
     RDKit          3D

 22 21  0  0  0  0  0  0  0  0999 V2000
    5.9274   -2.8506   -0.8328 C   0  0  0  0  0  0  0  0  0  0  0  0
    6.6280   -3.1913   -0.2358 H   0  0  0  0  0  0  0  0  0  0  0  0
    6.1912   -2.0175   -1.2818 H   0  0  0  0  0  0  0  0  0  0  0  0
    5.7314   -3.6045   -1.5952 H   0  0  0  0  0  0  0  0  0  0  0  0
    4.7028   -2.5323    0.0357 C   0  0  0  0  0  0  0  0  0  0  0  0
    3.7171   -1.9425   -0.4745 O   0  0  0  0  0  1  0  0  0  0  0  0
    4.7299   -2.8717    1.2431 O   0  0  0  0  0  0  0  0  0  0  0  0
   -0.0090    2.8935   -0.0256 C   0  0  0  0  0  0  0  0  0  0  0  0
   -0.8163    3.1877   -0.5480 H   0  0  0  0  0  0  0  0  0  0  0  0
    0.8163    3.2007   -0.5116 H   0  0  0  0  0  0  0  0  0  0  0  0
   -0.0345    3.4079    0.9351 H   0  0  0  0  0  0  0  0  0  0  0  0
    0.0021    1.3988   -0.0073 C   0  0  0  0  0  0  0  0  0  0  0  0
   -1.1984    0.6930   -0.0089 C   0  0  0  0  0  0  0  0  0  0  0  0
   -2.0633    1.1942   -0.0172 H   0  0  0  0  0  0  0  0  0  0  0  0
   -1.2192   -0.6927   -0.0000 C   0  0  0  0  0  0  0  0  0  0  0  0
   -2.0885   -1.1857   -0.0104 H   0  0  0  0  0  0  0  0  0  0  0  0
   -0.0065   -1.3906    0.0255 C   0  0  0  0  0  0  0  0  0  0  0  0
   -0.0116   -2.3901    0.0618 H   0  0  0  0  0  0  0  0  0  0  0  0
    1.2192   -0.7009    0.0000 C   0  0  0  0  0  0  0  0  0  0  0  0
    2.0858   -1.2010   -0.0089 H   0  0  0  0  0  0  0  0  0  0  0  0
    1.2028    0.6923   -0.0092 C   0  0  0  0  0  0  0  0  0  0  0  0
    2.0696    1.1942   -0.0185 H   0  0  0  0  0  0  0  0  0  0  0  0
  1  5  1  0
  5  6  1  0
  5  7  2  0
  1  2  1  0
  1  3  1  0
  1  4  1  0
  8 12  1  0
 12 13  2  0
 13 15  1  0
 15 17  2  0
 17 19  1  0
 19 21  2  0
 21 12  1  0
  8  9  1  0
  8 10  1  0
  8 11  1  0
 13 14  1  0
 15 16  1  0
 17 18  1  0
 19 20  1  0
 21 22  1  0
M  CHG  1   6  -1
M  END
>  <PDB_ID>  (1972) 
pdb3u0o

>  <RESIDUE_NAME>  (1972) 
GLU   PHE

>  <FRAG_NAME>  (1972) 
ACET   MBZ

>  <FRAG_ATOM_NUM>  (1972) 
fragi: 7  fragj: 15

>  <atom.prop.CHAIN_ID>  (1972) 
A A A A A A A Z Z Z Z Z Z Z Z Z Z Z Z Z Z Z

>  <atom.prop.IS_HEAVY_ATOM>  (1972) 
1 0 0 0 1 1 1 1 0 0 0 1 1 0 1 0 1 0 1 0 1 0

>  <DIFUSE_FUNC_ATOM>  (1972) 
atom 6   atom 7   

>  <FINAL_SINGLE_POINT_ENERGY>  (1972) 
0

>  <NONCOV_INTER_ENERGY_QM>  (1972) 
0

>  <FF_Energy>  (1972) 
19.46

>  <QM_Energy>  (1972) 
-5.39

>  <source>  (1972) 
ACET_MBZ_02

>  <Index>  (1972) 
8609

$$$$
ACET-pdb3u0g-A-GLU-261:MBZ-pdb3u0g-A-PHE-290
     RDKit          3D

 22 21  0  0  0  0  0  0  0  0999 V2000
   -3.5798   -3.6184   -2.1450 C   0  0  0  0  0  0  0  0  0  0  0  0
   -4.0973   -2.9291   -2.6262 H   0  0  0  0  0  0  0  0  0  0  0  0
   -4.0201   -4.5008   -2.1920 H   0  0  0  0  0  0  0  0  0  0  0  0
   -2.6022   -3.7006   -2.6200 H   0  0  0  0  0  0  0  0  0  0  0  0
   -3.5173   -3.2132   -0.6900 C   0  0  0  0  0  0  0  0  0  0  0  0
   -2.9417   -3.9987    0.1007 O   0  0  0  0  0  1  0  0  0  0  0  0
   -4.0549   -2.1180   -0.3669 O   0  0  0  0  0  0  0  0  0  0  0  0
   -0.0064    2.9224   -0.0000 C   0  0  0  0  0  0  0  0  0  0  0  0
    0.9086    3.2266   -0.1884 H   0  0  0  0  0  0  0  0  0  0  0  0
   -0.3253    3.2189    0.8811 H   0  0  0  0  0  0  0  0  0  0  0  0
   -0.6662    3.3426   -0.7590 H   0  0  0  0  0  0  0  0  0  0  0  0
    0.0008    1.4039   -0.0014 C   0  0  0  0  0  0  0  0  0  0  0  0
   -1.1958    0.6841   -0.0057 C   0  0  0  0  0  0  0  0  0  0  0  0
   -2.0629    1.1747   -0.0139 H   0  0  0  0  0  0  0  0  0  0  0  0
   -1.1907   -0.6974    0.0000 C   0  0  0  0  0  0  0  0  0  0  0  0
   -2.0695   -1.1974   -0.0007 H   0  0  0  0  0  0  0  0  0  0  0  0
    0.0037   -1.3858    0.0075 C   0  0  0  0  0  0  0  0  0  0  0  0
   -0.0009   -2.3892    0.0175 H   0  0  0  0  0  0  0  0  0  0  0  0
    1.1907   -0.6955   -0.0000 C   0  0  0  0  0  0  0  0  0  0  0  0
    2.0784   -1.1923   -0.0040 H   0  0  0  0  0  0  0  0  0  0  0  0
    1.1913    0.6906   -0.0003 C   0  0  0  0  0  0  0  0  0  0  0  0
    2.0630    1.1845   -0.0003 H   0  0  0  0  0  0  0  0  0  0  0  0
  1  5  1  0
  5  6  1  0
  5  7  2  0
  1  2  1  0
  1  3  1  0
  1  4  1  0
  8 12  1  0
 12 13  2  0
 13 15  1  0
 15 17  2  0
 17 19  1  0
 19 21  2  0
 21 12  1  0
  8  9  1  0
  8 10  1  0
  8 11  1  0
 13 14  1  0
 15 16  1  0
 17 18  1  0
 19 20  1  0
 21 22  1  0
M  CHG  1   6  -1
M  END
>  <PDB_ID>  (1973) 
pdb3u0g

>  <RESIDUE_NAME>  (1973) 
GLU   PHE

>  <FRAG_NAME>  (1973) 
ACET   MBZ

>  <FRAG_ATOM_NUM>  (1973) 
fragi: 7  fragj: 15

>  <atom.prop.CHAIN_ID>  (1973) 
A A A A A A A Z Z Z Z Z Z Z Z Z Z Z Z Z Z Z

>  <atom.prop.IS_HEAVY_ATOM>  (1973) 
1 0 0 0 1 1 1 1 0 0 0 1 1 0 1 0 1 0 1 0 1 0

>  <DIFUSE_FUNC_ATOM>  (1973) 
atom 6   atom 7   

>  <FINAL_SINGLE_POINT_ENERGY>  (1973) 
0

>  <NONCOV_INTER_ENERGY_QM>  (1973) 
0

>  <FF_Energy>  (1973) 
-1.35

>  <QM_Energy>  (1973) 
-6.88

>  <source>  (1973) 
ACET_MBZ_02

>  <Index>  (1973) 
8616

$$$$
ACET-pdb3u0g-C-GLU-261:MBZ-pdb3u0g-C-PHE-290
     RDKit          3D

 22 21  0  0  0  0  0  0  0  0999 V2000
   -2.6253   -4.1769   -1.9621 C   0  0  0  0  0  0  0  0  0  0  0  0
   -3.0323   -3.5182   -2.5709 H   0  0  0  0  0  0  0  0  0  0  0  0
   -3.0851   -5.0475   -2.0005 H   0  0  0  0  0  0  0  0  0  0  0  0
   -1.5880   -4.3237   -2.2633 H   0  0  0  0  0  0  0  0  0  0  0  0
   -2.7684   -3.6463   -0.5509 C   0  0  0  0  0  0  0  0  0  0  0  0
   -2.1295   -4.2844    0.3491 O   0  0  0  0  0  1  0  0  0  0  0  0
   -3.5356   -2.6332   -0.3785 O   0  0  0  0  0  0  0  0  0  0  0  0
   -0.0260    2.9253   -0.0666 C   0  0  0  0  0  0  0  0  0  0  0  0
    0.8957    3.2407   -0.0563 H   0  0  0  0  0  0  0  0  0  0  0  0
   -0.5637    3.2546    0.6767 H   0  0  0  0  0  0  0  0  0  0  0  0
   -0.4901    3.2536   -0.9966 H   0  0  0  0  0  0  0  0  0  0  0  0
    0.0014    1.4070    0.0168 C   0  0  0  0  0  0  0  0  0  0  0  0
   -1.1967    0.6890   -0.0062 C   0  0  0  0  0  0  0  0  0  0  0  0
   -2.0641    1.1810   -0.0290 H   0  0  0  0  0  0  0  0  0  0  0  0
   -1.2009   -0.6998   -0.0000 C   0  0  0  0  0  0  0  0  0  0  0  0
   -2.0798   -1.1932    0.0037 H   0  0  0  0  0  0  0  0  0  0  0  0
   -0.0043   -1.3968    0.0031 C   0  0  0  0  0  0  0  0  0  0  0  0
   -0.0009   -2.3922    0.0073 H   0  0  0  0  0  0  0  0  0  0  0  0
    1.2009   -0.6909    0.0000 C   0  0  0  0  0  0  0  0  0  0  0  0
    2.0809   -1.1960    0.0096 H   0  0  0  0  0  0  0  0  0  0  0  0
    1.1996    0.6916   -0.0137 C   0  0  0  0  0  0  0  0  0  0  0  0
    2.0663    1.1914   -0.0461 H   0  0  0  0  0  0  0  0  0  0  0  0
  1  5  1  0
  5  6  1  0
  5  7  2  0
  1  2  1  0
  1  3  1  0
  1  4  1  0
  8 12  1  0
 12 13  2  0
 13 15  1  0
 15 17  2  0
 17 19  1  0
 19 21  2  0
 21 12  1  0
  8  9  1  0
  8 10  1  0
  8 11  1  0
 13 14  1  0
 15 16  1  0
 17 18  1  0
 19 20  1  0
 21 22  1  0
M  CHG  1   6  -1
M  END
>  <PDB_ID>  (1974) 
pdb3u0g

>  <RESIDUE_NAME>  (1974) 
GLU   PHE

>  <FRAG_NAME>  (1974) 
ACET   MBZ

>  <FRAG_ATOM_NUM>  (1974) 
fragi: 7  fragj: 15

>  <atom.prop.CHAIN_ID>  (1974) 
A A A A A A A Z Z Z Z Z Z Z Z Z Z Z Z Z Z Z

>  <atom.prop.IS_HEAVY_ATOM>  (1974) 
1 0 0 0 1 1 1 1 0 0 0 1 1 0 1 0 1 0 1 0 1 0

>  <DIFUSE_FUNC_ATOM>  (1974) 
atom 6   atom 7   

>  <FINAL_SINGLE_POINT_ENERGY>  (1974) 
0

>  <NONCOV_INTER_ENERGY_QM>  (1974) 
0

>  <FF_Energy>  (1974) 
1.21

>  <QM_Energy>  (1974) 
-6.89

>  <source>  (1974) 
ACET_MBZ_02

>  <Index>  (1974) 
8619

$$$$
ACET-pdb3u0g-E-GLU-261:MBZ-pdb3u0g-E-PHE-290
     RDKit          3D

 22 21  0  0  0  0  0  0  0  0999 V2000
   -2.2302   -4.0581   -2.4297 C   0  0  0  0  0  0  0  0  0  0  0  0
   -2.7693   -3.4744   -3.0270 H   0  0  0  0  0  0  0  0  0  0  0  0
   -2.4981   -5.0089   -2.5403 H   0  0  0  0  0  0  0  0  0  0  0  0
   -1.1847   -3.9652   -2.7237 H   0  0  0  0  0  0  0  0  0  0  0  0
   -2.5354   -3.6613   -1.0068 C   0  0  0  0  0  0  0  0  0  0  0  0
   -1.9934   -4.2873   -0.0824 O   0  0  0  0  0  1  0  0  0  0  0  0
   -3.3407   -2.7392   -0.8218 O   0  0  0  0  0  0  0  0  0  0  0  0
   -0.0192    2.8856   -0.0299 C   0  0  0  0  0  0  0  0  0  0  0  0
    0.9099    3.2079    0.0266 H   0  0  0  0  0  0  0  0  0  0  0  0
   -0.5673    3.2044    0.7238 H   0  0  0  0  0  0  0  0  0  0  0  0
   -0.4549    3.2763   -0.9495 H   0  0  0  0  0  0  0  0  0  0  0  0
   -0.0004    1.3946    0.0018 C   0  0  0  0  0  0  0  0  0  0  0  0
   -1.1986    0.6879    0.0046 C   0  0  0  0  0  0  0  0  0  0  0  0
   -2.0632    1.1805    0.0092 H   0  0  0  0  0  0  0  0  0  0  0  0
   -1.1983   -0.6944   -0.0000 C   0  0  0  0  0  0  0  0  0  0  0  0
   -2.0745   -1.1933   -0.0075 H   0  0  0  0  0  0  0  0  0  0  0  0
   -0.0002   -1.3821    0.0082 C   0  0  0  0  0  0  0  0  0  0  0  0
   -0.0019   -2.3854    0.0200 H   0  0  0  0  0  0  0  0  0  0  0  0
    1.1983   -0.6914    0.0000 C   0  0  0  0  0  0  0  0  0  0  0  0
    2.0791   -1.1974    0.0063 H   0  0  0  0  0  0  0  0  0  0  0  0
    1.1992    0.6854   -0.0146 C   0  0  0  0  0  0  0  0  0  0  0  0
    2.0641    1.1869   -0.0379 H   0  0  0  0  0  0  0  0  0  0  0  0
  1  5  1  0
  5  6  1  0
  5  7  2  0
  1  2  1  0
  1  3  1  0
  1  4  1  0
  8 12  1  0
 12 13  2  0
 13 15  1  0
 15 17  2  0
 17 19  1  0
 19 21  2  0
 21 12  1  0
  8  9  1  0
  8 10  1  0
  8 11  1  0
 13 14  1  0
 15 16  1  0
 17 18  1  0
 19 20  1  0
 21 22  1  0
M  CHG  1   6  -1
M  END
>  <PDB_ID>  (1975) 
pdb3u0g

>  <RESIDUE_NAME>  (1975) 
GLU   PHE

>  <FRAG_NAME>  (1975) 
ACET   MBZ

>  <FRAG_ATOM_NUM>  (1975) 
fragi: 7  fragj: 15

>  <atom.prop.CHAIN_ID>  (1975) 
A A A A A A A Z Z Z Z Z Z Z Z Z Z Z Z Z Z Z

>  <atom.prop.IS_HEAVY_ATOM>  (1975) 
1 0 0 0 1 1 1 1 0 0 0 1 1 0 1 0 1 0 1 0 1 0

>  <DIFUSE_FUNC_ATOM>  (1975) 
atom 6   atom 7   

>  <FINAL_SINGLE_POINT_ENERGY>  (1975) 
0

>  <NONCOV_INTER_ENERGY_QM>  (1975) 
0

>  <FF_Energy>  (1975) 
-0.78

>  <QM_Energy>  (1975) 
-7.26

>  <source>  (1975) 
ACET_MBZ_02

>  <Index>  (1975) 
8623

$$$$
ACET-pdb4trh-A-ASP-83:MBZ-pdb4trh-A-PHE-11
     RDKit          3D

 22 21  0  0  0  0  0  0  0  0999 V2000
   -4.3181    1.3500    1.4814 C   0  0  0  0  0  0  0  0  0  0  0  0
   -4.8097    1.5256    2.3195 H   0  0  0  0  0  0  0  0  0  0  0  0
   -3.6258    0.6577    1.6051 H   0  0  0  0  0  0  0  0  0  0  0  0
   -5.0281    0.9985    0.7328 H   0  0  0  0  0  0  0  0  0  0  0  0
   -3.6173    2.6609    1.0499 C   0  0  0  0  0  0  0  0  0  0  0  0
   -3.8577    3.1232   -0.1189 O   0  0  0  0  0  1  0  0  0  0  0  0
   -2.8218    3.2068    1.8487 O   0  0  0  0  0  0  0  0  0  0  0  0
    0.0206    2.8891   -0.0014 C   0  0  0  0  0  0  0  0  0  0  0  0
    0.9485    3.1853    0.1441 H   0  0  0  0  0  0  0  0  0  0  0  0
   -0.5819    3.1997    0.7139 H   0  0  0  0  0  0  0  0  0  0  0  0
   -0.3281    3.3013   -0.9483 H   0  0  0  0  0  0  0  0  0  0  0  0
    0.0098    1.3882    0.0078 C   0  0  0  0  0  0  0  0  0  0  0  0
   -1.1795    0.6997   -0.0045 C   0  0  0  0  0  0  0  0  0  0  0  0
   -2.0469    1.1929   -0.0186 H   0  0  0  0  0  0  0  0  0  0  0  0
   -1.1924   -0.6870    0.0000 C   0  0  0  0  0  0  0  0  0  0  0  0
   -2.0820   -1.1685   -0.0045 H   0  0  0  0  0  0  0  0  0  0  0  0
   -0.0187   -1.3785    0.0128 C   0  0  0  0  0  0  0  0  0  0  0  0
   -0.0204   -2.3845    0.0309 H   0  0  0  0  0  0  0  0  0  0  0  0
    1.1924   -0.6989    0.0000 C   0  0  0  0  0  0  0  0  0  0  0  0
    2.0638   -1.2073    0.0038 H   0  0  0  0  0  0  0  0  0  0  0  0
    1.1884    0.6765   -0.0160 C   0  0  0  0  0  0  0  0  0  0  0  0
    2.0646    1.1731   -0.0467 H   0  0  0  0  0  0  0  0  0  0  0  0
  1  5  1  0
  5  6  1  0
  5  7  2  0
  1  2  1  0
  1  3  1  0
  1  4  1  0
  8 12  1  0
 12 13  2  0
 13 15  1  0
 15 17  2  0
 17 19  1  0
 19 21  2  0
 21 12  1  0
  8  9  1  0
  8 10  1  0
  8 11  1  0
 13 14  1  0
 15 16  1  0
 17 18  1  0
 19 20  1  0
 21 22  1  0
M  CHG  1   6  -1
M  END
>  <PDB_ID>  (1976) 
pdb4trh

>  <RESIDUE_NAME>  (1976) 
ASP   PHE

>  <FRAG_NAME>  (1976) 
ACET   MBZ

>  <FRAG_ATOM_NUM>  (1976) 
fragi: 7  fragj: 15

>  <atom.prop.CHAIN_ID>  (1976) 
A A A A A A A Z Z Z Z Z Z Z Z Z Z Z Z Z Z Z

>  <atom.prop.IS_HEAVY_ATOM>  (1976) 
1 0 0 0 1 1 1 1 0 0 0 1 1 0 1 0 1 0 1 0 1 0

>  <DIFUSE_FUNC_ATOM>  (1976) 
atom 6   atom 7   

>  <FINAL_SINGLE_POINT_ENERGY>  (1976) 
0

>  <NONCOV_INTER_ENERGY_QM>  (1976) 
0

>  <FF_Energy>  (1976) 
0.2

>  <QM_Energy>  (1976) 
-7.89

>  <source>  (1976) 
ACET_MBZ_02

>  <Index>  (1976) 
8753

$$$$
ACET-pdb3u1r-A-GLU-229:MBZ-pdb3u1r-A-PHE-236
     RDKit          3D

 22 21  0  0  0  0  0  0  0  0999 V2000
    0.9653    0.3177   -3.3600 C   0  0  0  0  0  0  0  0  0  0  0  0
    0.4225    0.7529   -4.0654 H   0  0  0  0  0  0  0  0  0  0  0  0
    0.4470    0.2271   -2.5206 H   0  0  0  0  0  0  0  0  0  0  0  0
    1.2138   -0.6854   -3.7066 H   0  0  0  0  0  0  0  0  0  0  0  0
    2.1547    1.2160   -3.0730 C   0  0  0  0  0  0  0  0  0  0  0  0
    3.2936    0.6982   -2.9846 O   0  0  0  0  0  1  0  0  0  0  0  0
    1.9472    2.4566   -2.9730 O   0  0  0  0  0  0  0  0  0  0  0  0
    0.0228    2.9436   -0.0406 C   0  0  0  0  0  0  0  0  0  0  0  0
    0.5871    3.2219   -0.8017 H   0  0  0  0  0  0  0  0  0  0  0  0
    0.3990    3.2509    0.8197 H   0  0  0  0  0  0  0  0  0  0  0  0
   -0.9495    3.4213   -0.1617 H   0  0  0  0  0  0  0  0  0  0  0  0
    0.0011    1.4058   -0.0158 C   0  0  0  0  0  0  0  0  0  0  0  0
   -1.1940    0.7022    0.0385 C   0  0  0  0  0  0  0  0  0  0  0  0
   -2.0589    1.1982    0.1057 H   0  0  0  0  0  0  0  0  0  0  0  0
   -1.2175   -0.6905   -0.0000 C   0  0  0  0  0  0  0  0  0  0  0  0
   -2.0933   -1.1738   -0.0386 H   0  0  0  0  0  0  0  0  0  0  0  0
   -0.0150   -1.3957    0.0179 C   0  0  0  0  0  0  0  0  0  0  0  0
   -0.0156   -2.3898    0.0421 H   0  0  0  0  0  0  0  0  0  0  0  0
    1.2175   -0.6969    0.0000 C   0  0  0  0  0  0  0  0  0  0  0  0
    2.0802   -1.2121    0.0183 H   0  0  0  0  0  0  0  0  0  0  0  0
    1.2080    0.6751   -0.0405 C   0  0  0  0  0  0  0  0  0  0  0  0
    2.0715    1.1862   -0.0897 H   0  0  0  0  0  0  0  0  0  0  0  0
  1  5  1  0
  5  6  1  0
  5  7  2  0
  1  2  1  0
  1  3  1  0
  1  4  1  0
  8 12  1  0
 12 13  2  0
 13 15  1  0
 15 17  2  0
 17 19  1  0
 19 21  2  0
 21 12  1  0
  8  9  1  0
  8 10  1  0
  8 11  1  0
 13 14  1  0
 15 16  1  0
 17 18  1  0
 19 20  1  0
 21 22  1  0
M  CHG  1   6  -1
M  END
>  <PDB_ID>  (1977) 
pdb3u1r

>  <RESIDUE_NAME>  (1977) 
GLU   PHE

>  <FRAG_NAME>  (1977) 
ACET   MBZ

>  <FRAG_ATOM_NUM>  (1977) 
fragi: 7  fragj: 15

>  <atom.prop.CHAIN_ID>  (1977) 
A A A A A A A Z Z Z Z Z Z Z Z Z Z Z Z Z Z Z

>  <atom.prop.IS_HEAVY_ATOM>  (1977) 
1 0 0 0 1 1 1 1 0 0 0 1 1 0 1 0 1 0 1 0 1 0

>  <DIFUSE_FUNC_ATOM>  (1977) 
atom 6   atom 7   

>  <FINAL_SINGLE_POINT_ENERGY>  (1977) 
0

>  <NONCOV_INTER_ENERGY_QM>  (1977) 
0

>  <FF_Energy>  (1977) 
-0.28

>  <QM_Energy>  (1977) 
-6.51

>  <source>  (1977) 
ACET_MBZ_02

>  <Index>  (1977) 
8819

$$$$
ACET-pdb3u4l-P-ASP-18:MBZ-pdb3u4l-P-PHE-39
     RDKit          3D

 22 21  0  0  0  0  0  0  0  0999 V2000
    2.7223    0.2912   -3.2373 C   0  0  0  0  0  0  0  0  0  0  0  0
    2.5178    0.1388   -4.2001 H   0  0  0  0  0  0  0  0  0  0  0  0
    2.2343   -0.3704   -2.6753 H   0  0  0  0  0  0  0  0  0  0  0  0
    3.7921    0.1462   -3.0872 H   0  0  0  0  0  0  0  0  0  0  0  0
    2.2439    1.6890   -2.8604 C   0  0  0  0  0  0  0  0  0  0  0  0
    3.0310    2.4761   -2.2694 O   0  0  0  0  0  1  0  0  0  0  0  0
    1.0552    2.0103   -3.1165 O   0  0  0  0  0  0  0  0  0  0  0  0
    0.0264    2.9019    0.0392 C   0  0  0  0  0  0  0  0  0  0  0  0
    0.8883    3.2013   -0.3482 H   0  0  0  0  0  0  0  0  0  0  0  0
   -0.0501    3.1795    0.9879 H   0  0  0  0  0  0  0  0  0  0  0  0
   -0.7757    3.3878   -0.5163 H   0  0  0  0  0  0  0  0  0  0  0  0
   -0.0010    1.3926   -0.0038 C   0  0  0  0  0  0  0  0  0  0  0  0
   -1.1993    0.6887    0.0173 C   0  0  0  0  0  0  0  0  0  0  0  0
   -2.0625    1.1817    0.0442 H   0  0  0  0  0  0  0  0  0  0  0  0
   -1.2002   -0.6941   -0.0000 C   0  0  0  0  0  0  0  0  0  0  0  0
   -2.0661   -1.1986   -0.0032 H   0  0  0  0  0  0  0  0  0  0  0  0
    0.0163   -1.3824   -0.0116 C   0  0  0  0  0  0  0  0  0  0  0  0
    0.0096   -2.3838   -0.0287 H   0  0  0  0  0  0  0  0  0  0  0  0
    1.2002   -0.6864    0.0000 C   0  0  0  0  0  0  0  0  0  0  0  0
    2.0879   -1.1837    0.0112 H   0  0  0  0  0  0  0  0  0  0  0  0
    1.1840    0.6816   -0.0019 C   0  0  0  0  0  0  0  0  0  0  0  0
    2.0579    1.1907   -0.0023 H   0  0  0  0  0  0  0  0  0  0  0  0
  1  5  1  0
  5  6  1  0
  5  7  2  0
  1  2  1  0
  1  3  1  0
  1  4  1  0
  8 12  1  0
 12 13  2  0
 13 15  1  0
 15 17  2  0
 17 19  1  0
 19 21  2  0
 21 12  1  0
  8  9  1  0
  8 10  1  0
  8 11  1  0
 13 14  1  0
 15 16  1  0
 17 18  1  0
 19 20  1  0
 21 22  1  0
M  CHG  1   6  -1
M  END
>  <PDB_ID>  (1978) 
pdb3u4l

>  <RESIDUE_NAME>  (1978) 
ASP   PHE

>  <FRAG_NAME>  (1978) 
ACET   MBZ

>  <FRAG_ATOM_NUM>  (1978) 
fragi: 7  fragj: 15

>  <atom.prop.CHAIN_ID>  (1978) 
A A A A A A A Z Z Z Z Z Z Z Z Z Z Z Z Z Z Z

>  <atom.prop.IS_HEAVY_ATOM>  (1978) 
1 0 0 0 1 1 1 1 0 0 0 1 1 0 1 0 1 0 1 0 1 0

>  <DIFUSE_FUNC_ATOM>  (1978) 
atom 6   atom 7   

>  <FINAL_SINGLE_POINT_ENERGY>  (1978) 
0

>  <NONCOV_INTER_ENERGY_QM>  (1978) 
0

>  <FF_Energy>  (1978) 
0.62

>  <QM_Energy>  (1978) 
-6.19

>  <source>  (1978) 
ACET_MBZ_02

>  <Index>  (1978) 
8947

$$$$
ACET-pdb4tq3-C-ASP-198:MBZ-pdb4tq3-C-PHE-201
     RDKit          3D

 22 21  0  0  0  0  0  0  0  0999 V2000
    5.0955    4.6669    0.2810 C   0  0  0  0  0  0  0  0  0  0  0  0
    5.8518    4.7164   -0.3590 H   0  0  0  0  0  0  0  0  0  0  0  0
    5.4282    4.6007    1.2126 H   0  0  0  0  0  0  0  0  0  0  0  0
    4.5265    5.5927    0.1955 H   0  0  0  0  0  0  0  0  0  0  0  0
    4.2682    3.4160   -0.0342 C   0  0  0  0  0  0  0  0  0  0  0  0
    3.4365    3.4619   -0.9677 O   0  0  0  0  0  1  0  0  0  0  0  0
    4.4343    2.3869    0.6625 O   0  0  0  0  0  0  0  0  0  0  0  0
    0.0068    2.9250   -0.0002 C   0  0  0  0  0  0  0  0  0  0  0  0
   -0.3289    3.2262   -0.8781 H   0  0  0  0  0  0  0  0  0  0  0  0
    0.9351    3.2218    0.1554 H   0  0  0  0  0  0  0  0  0  0  0  0
   -0.6201    3.3770    0.7686 H   0  0  0  0  0  0  0  0  0  0  0  0
   -0.0017    1.4047    0.0038 C   0  0  0  0  0  0  0  0  0  0  0  0
   -1.1964    0.6971   -0.0082 C   0  0  0  0  0  0  0  0  0  0  0  0
   -2.0641    1.1842   -0.0239 H   0  0  0  0  0  0  0  0  0  0  0  0
   -1.1990   -0.6965   -0.0000 C   0  0  0  0  0  0  0  0  0  0  0  0
   -2.0757   -1.1897    0.0070 H   0  0  0  0  0  0  0  0  0  0  0  0
    0.0029   -1.3939    0.0009 C   0  0  0  0  0  0  0  0  0  0  0  0
   -0.0039   -2.3932    0.0020 H   0  0  0  0  0  0  0  0  0  0  0  0
    1.1990   -0.6989   -0.0000 C   0  0  0  0  0  0  0  0  0  0  0  0
    2.0823   -1.1970   -0.0015 H   0  0  0  0  0  0  0  0  0  0  0  0
    1.1952    0.6876    0.0035 C   0  0  0  0  0  0  0  0  0  0  0  0
    2.0646    1.1862    0.0047 H   0  0  0  0  0  0  0  0  0  0  0  0
  1  5  1  0
  5  6  1  0
  5  7  2  0
  1  2  1  0
  1  3  1  0
  1  4  1  0
  8 12  1  0
 12 13  2  0
 13 15  1  0
 15 17  2  0
 17 19  1  0
 19 21  2  0
 21 12  1  0
  8  9  1  0
  8 10  1  0
  8 11  1  0
 13 14  1  0
 15 16  1  0
 17 18  1  0
 19 20  1  0
 21 22  1  0
M  CHG  1   6  -1
M  END
>  <PDB_ID>  (1979) 
pdb4tq3

>  <RESIDUE_NAME>  (1979) 
ASP   PHE

>  <FRAG_NAME>  (1979) 
ACET   MBZ

>  <FRAG_ATOM_NUM>  (1979) 
fragi: 7  fragj: 15

>  <atom.prop.CHAIN_ID>  (1979) 
A A A A A A A Z Z Z Z Z Z Z Z Z Z Z Z Z Z Z

>  <atom.prop.IS_HEAVY_ATOM>  (1979) 
1 0 0 0 1 1 1 1 0 0 0 1 1 0 1 0 1 0 1 0 1 0

>  <DIFUSE_FUNC_ATOM>  (1979) 
atom 6   atom 7   

>  <FINAL_SINGLE_POINT_ENERGY>  (1979) 
0

>  <NONCOV_INTER_ENERGY_QM>  (1979) 
0

>  <FF_Energy>  (1979) 
-2.92

>  <QM_Energy>  (1979) 
-8.58

>  <source>  (1979) 
ACET_MBZ_02

>  <Index>  (1979) 
8952

$$$$
ACET-pdb3u4l-A-GLU-259:MBZ-pdb3u4l-A-PHE-223
     RDKit          3D

 22 21  0  0  0  0  0  0  0  0999 V2000
   -1.4702    0.9221   -3.6992 C   0  0  0  0  0  0  0  0  0  0  0  0
   -0.9184    0.3981   -3.0811 H   0  0  0  0  0  0  0  0  0  0  0  0
   -1.1191    0.9183   -4.6148 H   0  0  0  0  0  0  0  0  0  0  0  0
   -2.4583    0.4626   -3.7245 H   0  0  0  0  0  0  0  0  0  0  0  0
   -1.4973    2.3548   -3.2106 C   0  0  0  0  0  0  0  0  0  0  0  0
   -0.4805    3.0577   -3.4115 O   0  0  0  0  0  1  0  0  0  0  0  0
   -2.5371    2.7795   -2.6382 O   0  0  0  0  0  0  0  0  0  0  0  0
   -0.0094    2.8880    0.0056 C   0  0  0  0  0  0  0  0  0  0  0  0
   -0.6766    3.1880   -0.6585 H   0  0  0  0  0  0  0  0  0  0  0  0
    0.8976    3.2029   -0.2263 H   0  0  0  0  0  0  0  0  0  0  0  0
   -0.2793    3.3040    0.9763 H   0  0  0  0  0  0  0  0  0  0  0  0
    0.0068    1.3915   -0.0037 C   0  0  0  0  0  0  0  0  0  0  0  0
   -1.1944    0.6761    0.0091 C   0  0  0  0  0  0  0  0  0  0  0  0
   -2.0585    1.1755    0.0241 H   0  0  0  0  0  0  0  0  0  0  0  0
   -1.2027   -0.7030    0.0000 C   0  0  0  0  0  0  0  0  0  0  0  0
   -2.0806   -1.1970   -0.0024 H   0  0  0  0  0  0  0  0  0  0  0  0
   -0.0117   -1.3849   -0.0040 C   0  0  0  0  0  0  0  0  0  0  0  0
    0.0021   -2.3851   -0.0105 H   0  0  0  0  0  0  0  0  0  0  0  0
    1.2027   -0.6796   -0.0000 C   0  0  0  0  0  0  0  0  0  0  0  0
    2.0775   -1.1884    0.0056 H   0  0  0  0  0  0  0  0  0  0  0  0
    1.1993    0.6998   -0.0014 C   0  0  0  0  0  0  0  0  0  0  0  0
    2.0655    1.1991   -0.0018 H   0  0  0  0  0  0  0  0  0  0  0  0
  1  5  1  0
  5  6  1  0
  5  7  2  0
  1  2  1  0
  1  3  1  0
  1  4  1  0
  8 12  1  0
 12 13  2  0
 13 15  1  0
 15 17  2  0
 17 19  1  0
 19 21  2  0
 21 12  1  0
  8  9  1  0
  8 10  1  0
  8 11  1  0
 13 14  1  0
 15 16  1  0
 17 18  1  0
 19 20  1  0
 21 22  1  0
M  CHG  1   6  -1
M  END
>  <PDB_ID>  (1980) 
pdb3u4l

>  <RESIDUE_NAME>  (1980) 
GLU   PHE

>  <FRAG_NAME>  (1980) 
ACET   MBZ

>  <FRAG_ATOM_NUM>  (1980) 
fragi: 7  fragj: 15

>  <atom.prop.CHAIN_ID>  (1980) 
A A A A A A A Z Z Z Z Z Z Z Z Z Z Z Z Z Z Z

>  <atom.prop.IS_HEAVY_ATOM>  (1980) 
1 0 0 0 1 1 1 1 0 0 0 1 1 0 1 0 1 0 1 0 1 0

>  <DIFUSE_FUNC_ATOM>  (1980) 
atom 6   atom 7   

>  <FINAL_SINGLE_POINT_ENERGY>  (1980) 
0

>  <NONCOV_INTER_ENERGY_QM>  (1980) 
0

>  <FF_Energy>  (1980) 
-1.09

>  <QM_Energy>  (1980) 
-7.22

>  <source>  (1980) 
ACET_MBZ_02

>  <Index>  (1980) 
8953

$$$$
ACET-pdb3u6g-A-GLU-52:MBZ-pdb3u6g-B-PHE-98
     RDKit          3D

 22 21  0  0  0  0  0  0  0  0999 V2000
    0.0504   -6.1636   -0.5185 C   0  0  0  0  0  0  0  0  0  0  0  0
    0.5529   -5.6993   -1.2315 H   0  0  0  0  0  0  0  0  0  0  0  0
   -0.9215   -6.1482   -0.6927 H   0  0  0  0  0  0  0  0  0  0  0  0
    0.3777   -7.2030   -0.4924 H   0  0  0  0  0  0  0  0  0  0  0  0
    0.2901   -5.3948    0.7803 C   0  0  0  0  0  0  0  0  0  0  0  0
    0.5852   -4.2243    0.8411 O   0  0  0  0  0  1  0  0  0  0  0  0
    0.1514   -6.1405    1.7775 O   0  0  0  0  0  0  0  0  0  0  0  0
    0.0387    2.9144   -0.0400 C   0  0  0  0  0  0  0  0  0  0  0  0
   -0.3745    3.2099   -0.8926 H   0  0  0  0  0  0  0  0  0  0  0  0
    0.9893    3.1968    0.0071 H   0  0  0  0  0  0  0  0  0  0  0  0
   -0.4921    3.4110    0.7722 H   0  0  0  0  0  0  0  0  0  0  0  0
    0.0030    1.3991   -0.0082 C   0  0  0  0  0  0  0  0  0  0  0  0
   -1.1811    0.7007   -0.0122 C   0  0  0  0  0  0  0  0  0  0  0  0
   -2.0533    1.1746   -0.0253 H   0  0  0  0  0  0  0  0  0  0  0  0
   -1.1778   -0.7053    0.0000 C   0  0  0  0  0  0  0  0  0  0  0  0
   -2.0678   -1.1839   -0.0051 H   0  0  0  0  0  0  0  0  0  0  0  0
   -0.0055   -1.3794    0.0201 C   0  0  0  0  0  0  0  0  0  0  0  0
   -0.0006   -2.3883    0.0494 H   0  0  0  0  0  0  0  0  0  0  0  0
    1.1778   -0.6933    0.0000 C   0  0  0  0  0  0  0  0  0  0  0  0
    2.0660   -1.1989   -0.0137 H   0  0  0  0  0  0  0  0  0  0  0  0
    1.1835    0.6781    0.0004 C   0  0  0  0  0  0  0  0  0  0  0  0
    2.0604    1.1738    0.0057 H   0  0  0  0  0  0  0  0  0  0  0  0
  1  5  1  0
  5  6  1  0
  5  7  2  0
  1  2  1  0
  1  3  1  0
  1  4  1  0
  8 12  1  0
 12 13  2  0
 13 15  1  0
 15 17  2  0
 17 19  1  0
 19 21  2  0
 21 12  1  0
  8  9  1  0
  8 10  1  0
  8 11  1  0
 13 14  1  0
 15 16  1  0
 17 18  1  0
 19 20  1  0
 21 22  1  0
M  CHG  1   6  -1
M  END
>  <PDB_ID>  (1981) 
pdb3u6g

>  <RESIDUE_NAME>  (1981) 
GLU   PHE

>  <FRAG_NAME>  (1981) 
ACET   MBZ

>  <FRAG_ATOM_NUM>  (1981) 
fragi: 7  fragj: 15

>  <atom.prop.CHAIN_ID>  (1981) 
A A A A A A A Z Z Z Z Z Z Z Z Z Z Z Z Z Z Z

>  <atom.prop.IS_HEAVY_ATOM>  (1981) 
1 0 0 0 1 1 1 1 0 0 0 1 1 0 1 0 1 0 1 0 1 0

>  <DIFUSE_FUNC_ATOM>  (1981) 
atom 6   atom 7   

>  <FINAL_SINGLE_POINT_ENERGY>  (1981) 
0

>  <NONCOV_INTER_ENERGY_QM>  (1981) 
0

>  <FF_Energy>  (1981) 
1.93

>  <QM_Energy>  (1981) 
-4.93

>  <source>  (1981) 
ACET_MBZ_02

>  <Index>  (1981) 
9056

$$$$
ACET-pdb3u7v-A-GLU-509:MBZ-pdb3u7v-A-PHE-520
     RDKit          3D

 22 21  0  0  0  0  0  0  0  0999 V2000
   -4.3399    0.7117    1.0827 C   0  0  0  0  0  0  0  0  0  0  0  0
   -4.1582    1.2477    1.8808 H   0  0  0  0  0  0  0  0  0  0  0  0
   -3.6372    0.0586    0.8912 H   0  0  0  0  0  0  0  0  0  0  0  0
   -5.2857    0.1869    1.2174 H   0  0  0  0  0  0  0  0  0  0  0  0
   -4.4009    1.6680   -0.0998 C   0  0  0  0  0  0  0  0  0  0  0  0
   -5.0136    1.3156   -1.1343 O   0  0  0  0  0  1  0  0  0  0  0  0
   -3.8571    2.7899    0.0169 O   0  0  0  0  0  0  0  0  0  0  0  0
   -0.0263    2.8896    0.0512 C   0  0  0  0  0  0  0  0  0  0  0  0
   -0.8268    3.2005   -0.4410 H   0  0  0  0  0  0  0  0  0  0  0  0
    0.8049    3.2200   -0.3742 H   0  0  0  0  0  0  0  0  0  0  0  0
   -0.0725    3.3180    1.0524 H   0  0  0  0  0  0  0  0  0  0  0  0
   -0.0066    1.3867    0.0154 C   0  0  0  0  0  0  0  0  0  0  0  0
   -1.1754    0.6844   -0.0013 C   0  0  0  0  0  0  0  0  0  0  0  0
   -2.0562    1.1725   -0.0161 H   0  0  0  0  0  0  0  0  0  0  0  0
   -1.1916   -0.6998    0.0000 C   0  0  0  0  0  0  0  0  0  0  0  0
   -2.0691   -1.1879    0.0149 H   0  0  0  0  0  0  0  0  0  0  0  0
    0.0010   -1.3829   -0.0166 C   0  0  0  0  0  0  0  0  0  0  0  0
    0.0108   -2.3810   -0.0409 H   0  0  0  0  0  0  0  0  0  0  0  0
    1.1916   -0.6732   -0.0000 C   0  0  0  0  0  0  0  0  0  0  0  0
    2.0774   -1.1805    0.0122 H   0  0  0  0  0  0  0  0  0  0  0  0
    1.1810    0.6847    0.0025 C   0  0  0  0  0  0  0  0  0  0  0  0
    2.0501    1.1963   -0.0058 H   0  0  0  0  0  0  0  0  0  0  0  0
  1  5  1  0
  5  6  1  0
  5  7  2  0
  1  2  1  0
  1  3  1  0
  1  4  1  0
  8 12  1  0
 12 13  2  0
 13 15  1  0
 15 17  2  0
 17 19  1  0
 19 21  2  0
 21 12  1  0
  8  9  1  0
  8 10  1  0
  8 11  1  0
 13 14  1  0
 15 16  1  0
 17 18  1  0
 19 20  1  0
 21 22  1  0
M  CHG  1   6  -1
M  END
>  <PDB_ID>  (1982) 
pdb3u7v

>  <RESIDUE_NAME>  (1982) 
GLU   PHE

>  <FRAG_NAME>  (1982) 
ACET   MBZ

>  <FRAG_ATOM_NUM>  (1982) 
fragi: 7  fragj: 15

>  <atom.prop.CHAIN_ID>  (1982) 
A A A A A A A Z Z Z Z Z Z Z Z Z Z Z Z Z Z Z

>  <atom.prop.IS_HEAVY_ATOM>  (1982) 
1 0 0 0 1 1 1 1 0 0 0 1 1 0 1 0 1 0 1 0 1 0

>  <DIFUSE_FUNC_ATOM>  (1982) 
atom 6   atom 7   

>  <FINAL_SINGLE_POINT_ENERGY>  (1982) 
0

>  <NONCOV_INTER_ENERGY_QM>  (1982) 
0

>  <FF_Energy>  (1982) 
1.45

>  <QM_Energy>  (1982) 
-5.53

>  <source>  (1982) 
ACET_MBZ_02

>  <Index>  (1982) 
9135

$$$$
ACET-pdb3u7y-H-ASP-76:MBZ-pdb3u7y-H-PHE-29
     RDKit          3D

 22 21  0  0  0  0  0  0  0  0999 V2000
    0.5772    1.3430   -3.9851 C   0  0  0  0  0  0  0  0  0  0  0  0
    0.4116    1.1947   -4.9540 H   0  0  0  0  0  0  0  0  0  0  0  0
   -0.2694    1.2584   -3.4718 H   0  0  0  0  0  0  0  0  0  0  0  0
    1.2589    0.5665   -3.6383 H   0  0  0  0  0  0  0  0  0  0  0  0
    1.1310    2.7376   -3.7914 C   0  0  0  0  0  0  0  0  0  0  0  0
    2.1420    3.0671   -4.4428 O   0  0  0  0  0  1  0  0  0  0  0  0
    0.5474    3.5083   -3.0018 O   0  0  0  0  0  0  0  0  0  0  0  0
    0.0139    2.8946   -0.0105 C   0  0  0  0  0  0  0  0  0  0  0  0
   -0.2181    3.1949   -0.9254 H   0  0  0  0  0  0  0  0  0  0  0  0
    0.9221    3.1991    0.2441 H   0  0  0  0  0  0  0  0  0  0  0  0
   -0.6942    3.3564    0.6777 H   0  0  0  0  0  0  0  0  0  0  0  0
    0.0024    1.3949    0.0058 C   0  0  0  0  0  0  0  0  0  0  0  0
   -1.1905    0.6928   -0.0024 C   0  0  0  0  0  0  0  0  0  0  0  0
   -2.0575    1.1839   -0.0116 H   0  0  0  0  0  0  0  0  0  0  0  0
   -1.1953   -0.6932    0.0000 C   0  0  0  0  0  0  0  0  0  0  0  0
   -2.0760   -1.1857    0.0036 H   0  0  0  0  0  0  0  0  0  0  0  0
   -0.0041   -1.3876   -0.0006 C   0  0  0  0  0  0  0  0  0  0  0  0
   -0.0059   -2.3876   -0.0021 H   0  0  0  0  0  0  0  0  0  0  0  0
    1.1953   -0.6936    0.0000 C   0  0  0  0  0  0  0  0  0  0  0  0
    2.0765   -1.1966    0.0038 H   0  0  0  0  0  0  0  0  0  0  0  0
    1.1921    0.6867   -0.0028 C   0  0  0  0  0  0  0  0  0  0  0  0
    2.0632    1.1851   -0.0125 H   0  0  0  0  0  0  0  0  0  0  0  0
  1  5  1  0
  5  6  1  0
  5  7  2  0
  1  2  1  0
  1  3  1  0
  1  4  1  0
  8 12  1  0
 12 13  2  0
 13 15  1  0
 15 17  2  0
 17 19  1  0
 19 21  2  0
 21 12  1  0
  8  9  1  0
  8 10  1  0
  8 11  1  0
 13 14  1  0
 15 16  1  0
 17 18  1  0
 19 20  1  0
 21 22  1  0
M  CHG  1   6  -1
M  END
>  <PDB_ID>  (1983) 
pdb3u7y

>  <RESIDUE_NAME>  (1983) 
ASP   PHE

>  <FRAG_NAME>  (1983) 
ACET   MBZ

>  <FRAG_ATOM_NUM>  (1983) 
fragi: 7  fragj: 15

>  <atom.prop.CHAIN_ID>  (1983) 
A A A A A A A Z Z Z Z Z Z Z Z Z Z Z Z Z Z Z

>  <atom.prop.IS_HEAVY_ATOM>  (1983) 
1 0 0 0 1 1 1 1 0 0 0 1 1 0 1 0 1 0 1 0 1 0

>  <DIFUSE_FUNC_ATOM>  (1983) 
atom 6   atom 7   

>  <FINAL_SINGLE_POINT_ENERGY>  (1983) 
0

>  <NONCOV_INTER_ENERGY_QM>  (1983) 
0

>  <FF_Energy>  (1983) 
0.7

>  <QM_Energy>  (1983) 
-5.28

>  <source>  (1983) 
ACET_MBZ_02

>  <Index>  (1983) 
9136

$$$$
ACET-pdb3u84-A-ASP-418:MBZ-pdb3u84-A-PHE-553
     RDKit          3D

 22 21  0  0  0  0  0  0  0  0999 V2000
   -3.9848    1.1125    2.6143 C   0  0  0  0  0  0  0  0  0  0  0  0
   -3.4812    0.3786    2.1752 H   0  0  0  0  0  0  0  0  0  0  0  0
   -4.9277    1.1224    2.3072 H   0  0  0  0  0  0  0  0  0  0  0  0
   -3.9799    0.9317    3.6893 H   0  0  0  0  0  0  0  0  0  0  0  0
   -3.3364    2.4382    2.2397 C   0  0  0  0  0  0  0  0  0  0  0  0
   -2.3629    2.8419    2.9133 O   0  0  0  0  0  1  0  0  0  0  0  0
   -3.7978    3.0767    1.2694 O   0  0  0  0  0  0  0  0  0  0  0  0
   -0.0007    2.8954    0.0026 C   0  0  0  0  0  0  0  0  0  0  0  0
    0.8545    3.2021   -0.3868 H   0  0  0  0  0  0  0  0  0  0  0  0
   -0.1026    3.2016    0.9371 H   0  0  0  0  0  0  0  0  0  0  0  0
   -0.8101    3.3331   -0.5818 H   0  0  0  0  0  0  0  0  0  0  0  0
   -0.0001    1.3946    0.0018 C   0  0  0  0  0  0  0  0  0  0  0  0
   -1.1919    0.6886   -0.0006 C   0  0  0  0  0  0  0  0  0  0  0  0
   -2.0596    1.1798   -0.0038 H   0  0  0  0  0  0  0  0  0  0  0  0
   -1.1947   -0.6952   -0.0000 C   0  0  0  0  0  0  0  0  0  0  0  0
   -2.0731   -1.1910    0.0023 H   0  0  0  0  0  0  0  0  0  0  0  0
    0.0008   -1.3855   -0.0002 C   0  0  0  0  0  0  0  0  0  0  0  0
   -0.0019   -2.3877   -0.0014 H   0  0  0  0  0  0  0  0  0  0  0  0
    1.1947   -0.6928    0.0000 C   0  0  0  0  0  0  0  0  0  0  0  0
    2.0781   -1.1917    0.0030 H   0  0  0  0  0  0  0  0  0  0  0  0
    1.1912    0.6902   -0.0010 C   0  0  0  0  0  0  0  0  0  0  0  0
    2.0608    1.1877   -0.0051 H   0  0  0  0  0  0  0  0  0  0  0  0
  1  5  1  0
  5  6  1  0
  5  7  2  0
  1  2  1  0
  1  3  1  0
  1  4  1  0
  8 12  1  0
 12 13  2  0
 13 15  1  0
 15 17  2  0
 17 19  1  0
 19 21  2  0
 21 12  1  0
  8  9  1  0
  8 10  1  0
  8 11  1  0
 13 14  1  0
 15 16  1  0
 17 18  1  0
 19 20  1  0
 21 22  1  0
M  CHG  1   6  -1
M  END
>  <PDB_ID>  (1984) 
pdb3u84

>  <RESIDUE_NAME>  (1984) 
ASP   PHE

>  <FRAG_NAME>  (1984) 
ACET   MBZ

>  <FRAG_ATOM_NUM>  (1984) 
fragi: 7  fragj: 15

>  <atom.prop.CHAIN_ID>  (1984) 
A A A A A A A Z Z Z Z Z Z Z Z Z Z Z Z Z Z Z

>  <atom.prop.IS_HEAVY_ATOM>  (1984) 
1 0 0 0 1 1 1 1 0 0 0 1 1 0 1 0 1 0 1 0 1 0

>  <DIFUSE_FUNC_ATOM>  (1984) 
atom 6   atom 7   

>  <FINAL_SINGLE_POINT_ENERGY>  (1984) 
0

>  <NONCOV_INTER_ENERGY_QM>  (1984) 
0

>  <FF_Energy>  (1984) 
-1.78

>  <QM_Energy>  (1984) 
-6.86

>  <source>  (1984) 
ACET_MBZ_02

>  <Index>  (1984) 
9163

$$$$
ACET-pdb3ubf-A-ASP-452:MBZ-pdb3ubf-A-PHE-448
     RDKit          3D

 22 21  0  0  0  0  0  0  0  0999 V2000
    3.0896    3.1642   -2.4307 C   0  0  0  0  0  0  0  0  0  0  0  0
    2.2810    3.6885   -2.1837 H   0  0  0  0  0  0  0  0  0  0  0  0
    2.8289    2.2620   -2.7579 H   0  0  0  0  0  0  0  0  0  0  0  0
    3.5844    3.6846   -3.2507 H   0  0  0  0  0  0  0  0  0  0  0  0
    3.9670    3.0101   -1.2083 C   0  0  0  0  0  0  0  0  0  0  0  0
    5.1996    2.8549   -1.3459 O   0  0  0  0  0  1  0  0  0  0  0  0
    3.4121    3.0414   -0.0929 O   0  0  0  0  0  0  0  0  0  0  0  0
   -0.0033    2.8940    0.0315 C   0  0  0  0  0  0  0  0  0  0  0  0
   -0.9124    3.2105   -0.1905 H   0  0  0  0  0  0  0  0  0  0  0  0
    0.6633    3.2240   -0.6185 H   0  0  0  0  0  0  0  0  0  0  0  0
    0.2582    3.3034    1.0072 H   0  0  0  0  0  0  0  0  0  0  0  0
   -0.0004    1.4028   -0.0059 C   0  0  0  0  0  0  0  0  0  0  0  0
   -1.1991    0.6969    0.0028 C   0  0  0  0  0  0  0  0  0  0  0  0
   -2.0646    1.1911    0.0098 H   0  0  0  0  0  0  0  0  0  0  0  0
   -1.2068   -0.6895   -0.0000 C   0  0  0  0  0  0  0  0  0  0  0  0
   -2.0829   -1.1853   -0.0010 H   0  0  0  0  0  0  0  0  0  0  0  0
   -0.0019   -1.3988    0.0009 C   0  0  0  0  0  0  0  0  0  0  0  0
   -0.0154   -2.3954    0.0015 H   0  0  0  0  0  0  0  0  0  0  0  0
    1.2068   -0.7083    0.0000 C   0  0  0  0  0  0  0  0  0  0  0  0
    2.0841   -1.2020   -0.0006 H   0  0  0  0  0  0  0  0  0  0  0  0
    1.2015    0.6969    0.0022 C   0  0  0  0  0  0  0  0  0  0  0  0
    2.0670    1.1882    0.0088 H   0  0  0  0  0  0  0  0  0  0  0  0
  1  5  1  0
  5  6  1  0
  5  7  2  0
  1  2  1  0
  1  3  1  0
  1  4  1  0
  8 12  1  0
 12 13  2  0
 13 15  1  0
 15 17  2  0
 17 19  1  0
 19 21  2  0
 21 12  1  0
  8  9  1  0
  8 10  1  0
  8 11  1  0
 13 14  1  0
 15 16  1  0
 17 18  1  0
 19 20  1  0
 21 22  1  0
M  CHG  1   6  -1
M  END
>  <PDB_ID>  (1985) 
pdb3ubf

>  <RESIDUE_NAME>  (1985) 
ASP   PHE

>  <FRAG_NAME>  (1985) 
ACET   MBZ

>  <FRAG_ATOM_NUM>  (1985) 
fragi: 7  fragj: 15

>  <atom.prop.CHAIN_ID>  (1985) 
A A A A A A A Z Z Z Z Z Z Z Z Z Z Z Z Z Z Z

>  <atom.prop.IS_HEAVY_ATOM>  (1985) 
1 0 0 0 1 1 1 1 0 0 0 1 1 0 1 0 1 0 1 0 1 0

>  <DIFUSE_FUNC_ATOM>  (1985) 
atom 6   atom 7   

>  <FINAL_SINGLE_POINT_ENERGY>  (1985) 
0

>  <NONCOV_INTER_ENERGY_QM>  (1985) 
0

>  <FF_Energy>  (1985) 
-1.82

>  <QM_Energy>  (1985) 
-7.59

>  <source>  (1985) 
ACET_MBZ_02

>  <Index>  (1985) 
9305

$$$$
ACET-pdb3ube-D-GLU-132:MBZ-pdb3ube-D-PHE-138
     RDKit          3D

 22 21  0  0  0  0  0  0  0  0999 V2000
    4.1756   -1.0340    1.4294 C   0  0  0  0  0  0  0  0  0  0  0  0
    3.3389   -0.6405    1.0974 H   0  0  0  0  0  0  0  0  0  0  0  0
    4.9233   -0.9069    0.8052 H   0  0  0  0  0  0  0  0  0  0  0  0
    4.4297   -0.5527    2.3738 H   0  0  0  0  0  0  0  0  0  0  0  0
    3.9521   -2.5297    1.5756 C   0  0  0  0  0  0  0  0  0  0  0  0
    4.5390   -3.1429    2.4957 O   0  0  0  0  0  1  0  0  0  0  0  0
    3.1791   -3.0901    0.7695 O   0  0  0  0  0  0  0  0  0  0  0  0
   -0.0021    2.9021   -0.0067 C   0  0  0  0  0  0  0  0  0  0  0  0
   -0.9170    3.2054   -0.2286 H   0  0  0  0  0  0  0  0  0  0  0  0
    0.6502    3.2050   -0.6867 H   0  0  0  0  0  0  0  0  0  0  0  0
    0.2764    3.3531    0.9457 H   0  0  0  0  0  0  0  0  0  0  0  0
   -0.0005    1.3966    0.0008 C   0  0  0  0  0  0  0  0  0  0  0  0
   -1.1925    0.6894   -0.0006 C   0  0  0  0  0  0  0  0  0  0  0  0
   -2.0609    1.1805   -0.0033 H   0  0  0  0  0  0  0  0  0  0  0  0
   -1.1959   -0.6957    0.0000 C   0  0  0  0  0  0  0  0  0  0  0  0
   -2.0736   -1.1908    0.0012 H   0  0  0  0  0  0  0  0  0  0  0  0
    0.0011   -1.3878    0.0001 C   0  0  0  0  0  0  0  0  0  0  0  0
   -0.0015   -2.3884    0.0002 H   0  0  0  0  0  0  0  0  0  0  0  0
    1.1959   -0.6926   -0.0000 C   0  0  0  0  0  0  0  0  0  0  0  0
    2.0794   -1.1922    0.0014 H   0  0  0  0  0  0  0  0  0  0  0  0
    1.1918    0.6901   -0.0003 C   0  0  0  0  0  0  0  0  0  0  0  0
    2.0610    1.1891   -0.0024 H   0  0  0  0  0  0  0  0  0  0  0  0
  1  5  1  0
  5  6  1  0
  5  7  2  0
  1  2  1  0
  1  3  1  0
  1  4  1  0
  8 12  1  0
 12 13  2  0
 13 15  1  0
 15 17  2  0
 17 19  1  0
 19 21  2  0
 21 12  1  0
  8  9  1  0
  8 10  1  0
  8 11  1  0
 13 14  1  0
 15 16  1  0
 17 18  1  0
 19 20  1  0
 21 22  1  0
M  CHG  1   6  -1
M  END
>  <PDB_ID>  (1986) 
pdb3ube

>  <RESIDUE_NAME>  (1986) 
GLU   PHE

>  <FRAG_NAME>  (1986) 
ACET   MBZ

>  <FRAG_ATOM_NUM>  (1986) 
fragi: 7  fragj: 15

>  <atom.prop.CHAIN_ID>  (1986) 
A A A A A A A Z Z Z Z Z Z Z Z Z Z Z Z Z Z Z

>  <atom.prop.IS_HEAVY_ATOM>  (1986) 
1 0 0 0 1 1 1 1 0 0 0 1 1 0 1 0 1 0 1 0 1 0

>  <DIFUSE_FUNC_ATOM>  (1986) 
atom 6   atom 7   

>  <FINAL_SINGLE_POINT_ENERGY>  (1986) 
0

>  <NONCOV_INTER_ENERGY_QM>  (1986) 
0

>  <FF_Energy>  (1986) 
4.98

>  <QM_Energy>  (1986) 
-3.22

>  <source>  (1986) 
ACET_MBZ_02

>  <Index>  (1986) 
9327

$$$$
ACET-pdb4u0t-F-GLU-254:MBZ-pdb4u0t-F-PHE-85
     RDKit          3D

 22 21  0  0  0  0  0  0  0  0999 V2000
    3.0563   -3.7956   -0.4307 C   0  0  0  0  0  0  0  0  0  0  0  0
    2.1126   -3.7141   -0.7215 H   0  0  0  0  0  0  0  0  0  0  0  0
    3.1515   -3.5720    0.5299 H   0  0  0  0  0  0  0  0  0  0  0  0
    3.3807   -4.8248   -0.5847 H   0  0  0  0  0  0  0  0  0  0  0  0
    3.8548   -2.7615   -1.2098 C   0  0  0  0  0  0  0  0  0  0  0  0
    4.2817   -2.9996   -2.3671 O   0  0  0  0  0  1  0  0  0  0  0  0
    4.0324   -1.6796   -0.6398 O   0  0  0  0  0  0  0  0  0  0  0  0
    0.0280    2.9259    0.0288 C   0  0  0  0  0  0  0  0  0  0  0  0
    0.8524    3.2243   -0.4242 H   0  0  0  0  0  0  0  0  0  0  0  0
    0.0098    3.2095    0.9739 H   0  0  0  0  0  0  0  0  0  0  0  0
   -0.8119    3.4077   -0.4720 H   0  0  0  0  0  0  0  0  0  0  0  0
   -0.0009    1.4040   -0.0056 C   0  0  0  0  0  0  0  0  0  0  0  0
   -1.1883    0.6951    0.0137 C   0  0  0  0  0  0  0  0  0  0  0  0
   -2.0597    1.1793    0.0368 H   0  0  0  0  0  0  0  0  0  0  0  0
   -1.1934   -0.7013    0.0000 C   0  0  0  0  0  0  0  0  0  0  0  0
   -2.0725   -1.1893    0.0055 H   0  0  0  0  0  0  0  0  0  0  0  0
    0.0001   -1.3885   -0.0193 C   0  0  0  0  0  0  0  0  0  0  0  0
    0.0003   -2.3905   -0.0476 H   0  0  0  0  0  0  0  0  0  0  0  0
    1.1934   -0.6942   -0.0000 C   0  0  0  0  0  0  0  0  0  0  0  0
    2.0774   -1.1954    0.0075 H   0  0  0  0  0  0  0  0  0  0  0  0
    1.1890    0.6849    0.0112 C   0  0  0  0  0  0  0  0  0  0  0  0
    2.0610    1.1845    0.0313 H   0  0  0  0  0  0  0  0  0  0  0  0
  1  5  1  0
  5  6  1  0
  5  7  2  0
  1  2  1  0
  1  3  1  0
  1  4  1  0
  8 12  1  0
 12 13  2  0
 13 15  1  0
 15 17  2  0
 17 19  1  0
 19 21  2  0
 21 12  1  0
  8  9  1  0
  8 10  1  0
  8 11  1  0
 13 14  1  0
 15 16  1  0
 17 18  1  0
 19 20  1  0
 21 22  1  0
M  CHG  1   6  -1
M  END
>  <PDB_ID>  (1987) 
pdb4u0t

>  <RESIDUE_NAME>  (1987) 
GLU   PHE

>  <FRAG_NAME>  (1987) 
ACET   MBZ

>  <FRAG_ATOM_NUM>  (1987) 
fragi: 7  fragj: 15

>  <atom.prop.CHAIN_ID>  (1987) 
A A A A A A A Z Z Z Z Z Z Z Z Z Z Z Z Z Z Z

>  <atom.prop.IS_HEAVY_ATOM>  (1987) 
1 0 0 0 1 1 1 1 0 0 0 1 1 0 1 0 1 0 1 0 1 0

>  <DIFUSE_FUNC_ATOM>  (1987) 
atom 6   atom 7   

>  <FINAL_SINGLE_POINT_ENERGY>  (1987) 
0

>  <NONCOV_INTER_ENERGY_QM>  (1987) 
0

>  <FF_Energy>  (1987) 
1.28

>  <QM_Energy>  (1987) 
-5.48

>  <source>  (1987) 
ACET_MBZ_02

>  <Index>  (1987) 
9349

$$$$
ACET-pdb3ucs-B-ASP-47:MBZ-pdb3ucs-B-PHE-8
     RDKit          3D

 22 21  0  0  0  0  0  0  0  0999 V2000
   -3.8578   -2.3527   -0.7517 C   0  0  0  0  0  0  0  0  0  0  0  0
   -3.0903   -2.8042   -1.2013 H   0  0  0  0  0  0  0  0  0  0  0  0
   -3.5430   -1.8869    0.0714 H   0  0  0  0  0  0  0  0  0  0  0  0
   -4.2332   -1.5907   -1.4346 H   0  0  0  0  0  0  0  0  0  0  0  0
   -4.8870   -3.3867   -0.3728 C   0  0  0  0  0  0  0  0  0  0  0  0
   -6.0910   -3.1755   -0.6294 O   0  0  0  0  0  1  0  0  0  0  0  0
   -4.4604   -4.4306    0.1974 O   0  0  0  0  0  0  0  0  0  0  0  0
    0.0119    2.9175    0.0071 C   0  0  0  0  0  0  0  0  0  0  0  0
   -0.6268    3.2261   -0.6837 H   0  0  0  0  0  0  0  0  0  0  0  0
    0.9331    3.2163   -0.1995 H   0  0  0  0  0  0  0  0  0  0  0  0
   -0.2776    3.3808    0.9503 H   0  0  0  0  0  0  0  0  0  0  0  0
    0.0001    1.4068    0.0138 C   0  0  0  0  0  0  0  0  0  0  0  0
   -1.1872    0.7009   -0.0091 C   0  0  0  0  0  0  0  0  0  0  0  0
   -2.0587    1.1809   -0.0335 H   0  0  0  0  0  0  0  0  0  0  0  0
   -1.1877   -0.6984    0.0000 C   0  0  0  0  0  0  0  0  0  0  0  0
   -2.0745   -1.1829    0.0065 H   0  0  0  0  0  0  0  0  0  0  0  0
   -0.0042   -1.3925    0.0018 C   0  0  0  0  0  0  0  0  0  0  0  0
   -0.0121   -2.3962    0.0041 H   0  0  0  0  0  0  0  0  0  0  0  0
    1.1877   -0.7087    0.0000 C   0  0  0  0  0  0  0  0  0  0  0  0
    2.0726   -1.2019    0.0048 H   0  0  0  0  0  0  0  0  0  0  0  0
    1.1913    0.6921   -0.0066 C   0  0  0  0  0  0  0  0  0  0  0  0
    2.0630    1.1781   -0.0274 H   0  0  0  0  0  0  0  0  0  0  0  0
  1  5  1  0
  5  6  1  0
  5  7  2  0
  1  2  1  0
  1  3  1  0
  1  4  1  0
  8 12  1  0
 12 13  2  0
 13 15  1  0
 15 17  2  0
 17 19  1  0
 19 21  2  0
 21 12  1  0
  8  9  1  0
  8 10  1  0
  8 11  1  0
 13 14  1  0
 15 16  1  0
 17 18  1  0
 19 20  1  0
 21 22  1  0
M  CHG  1   6  -1
M  END
>  <PDB_ID>  (1988) 
pdb3ucs

>  <RESIDUE_NAME>  (1988) 
ASP   PHE

>  <FRAG_NAME>  (1988) 
ACET   MBZ

>  <FRAG_ATOM_NUM>  (1988) 
fragi: 7  fragj: 15

>  <atom.prop.CHAIN_ID>  (1988) 
A A A A A A A Z Z Z Z Z Z Z Z Z Z Z Z Z Z Z

>  <atom.prop.IS_HEAVY_ATOM>  (1988) 
1 0 0 0 1 1 1 1 0 0 0 1 1 0 1 0 1 0 1 0 1 0

>  <DIFUSE_FUNC_ATOM>  (1988) 
atom 6   atom 7   

>  <FINAL_SINGLE_POINT_ENERGY>  (1988) 
0

>  <NONCOV_INTER_ENERGY_QM>  (1988) 
0

>  <FF_Energy>  (1988) 
14.66

>  <QM_Energy>  (1988) 
1.13

>  <source>  (1988) 
ACET_MBZ_02

>  <Index>  (1988) 
9426

$$$$
ACET-pdb3ueb-C-GLU-20:MBZ-pdb3ueb-D-PHE-39
     RDKit          3D

 22 21  0  0  0  0  0  0  0  0999 V2000
   -1.2047    1.2478   -4.9213 C   0  0  0  0  0  0  0  0  0  0  0  0
   -1.3042    0.4510   -4.3534 H   0  0  0  0  0  0  0  0  0  0  0  0
   -0.8993    1.0211   -5.8282 H   0  0  0  0  0  0  0  0  0  0  0  0
   -2.1791    1.7297   -5.0014 H   0  0  0  0  0  0  0  0  0  0  0  0
   -0.1438    2.1360   -4.2879 C   0  0  0  0  0  0  0  0  0  0  0  0
   -0.3953    2.6942   -3.1972 O   0  0  0  0  0  1  0  0  0  0  0  0
    0.9501    2.2673   -4.8773 O   0  0  0  0  0  0  0  0  0  0  0  0
    0.0043    2.9079   -0.0159 C   0  0  0  0  0  0  0  0  0  0  0  0
   -0.9021    3.2197    0.2206 H   0  0  0  0  0  0  0  0  0  0  0  0
    0.2658    3.2033   -0.9213 H   0  0  0  0  0  0  0  0  0  0  0  0
    0.7050    3.3479    0.6938 H   0  0  0  0  0  0  0  0  0  0  0  0
   -0.0012    1.4051    0.0007 C   0  0  0  0  0  0  0  0  0  0  0  0
   -1.1977    0.6983    0.0003 C   0  0  0  0  0  0  0  0  0  0  0  0
   -2.0640    1.1881   -0.0015 H   0  0  0  0  0  0  0  0  0  0  0  0
   -1.2023   -0.6928    0.0000 C   0  0  0  0  0  0  0  0  0  0  0  0
   -2.0794   -1.1877    0.0018 H   0  0  0  0  0  0  0  0  0  0  0  0
    0.0017   -1.3977   -0.0010 C   0  0  0  0  0  0  0  0  0  0  0  0
   -0.0111   -2.3955   -0.0028 H   0  0  0  0  0  0  0  0  0  0  0  0
    1.2023   -0.7065   -0.0000 C   0  0  0  0  0  0  0  0  0  0  0  0
    2.0835   -1.1990    0.0027 H   0  0  0  0  0  0  0  0  0  0  0  0
    1.1973    0.6935   -0.0000 C   0  0  0  0  0  0  0  0  0  0  0  0
    2.0662    1.1861   -0.0014 H   0  0  0  0  0  0  0  0  0  0  0  0
  1  5  1  0
  5  6  1  0
  5  7  2  0
  1  2  1  0
  1  3  1  0
  1  4  1  0
  8 12  1  0
 12 13  2  0
 13 15  1  0
 15 17  2  0
 17 19  1  0
 19 21  2  0
 21 12  1  0
  8  9  1  0
  8 10  1  0
  8 11  1  0
 13 14  1  0
 15 16  1  0
 17 18  1  0
 19 20  1  0
 21 22  1  0
M  CHG  1   6  -1
M  END
>  <PDB_ID>  (1989) 
pdb3ueb

>  <RESIDUE_NAME>  (1989) 
GLU   PHE

>  <FRAG_NAME>  (1989) 
ACET   MBZ

>  <FRAG_ATOM_NUM>  (1989) 
fragi: 7  fragj: 15

>  <atom.prop.CHAIN_ID>  (1989) 
A A A A A A A Z Z Z Z Z Z Z Z Z Z Z Z Z Z Z

>  <atom.prop.IS_HEAVY_ATOM>  (1989) 
1 0 0 0 1 1 1 1 0 0 0 1 1 0 1 0 1 0 1 0 1 0

>  <DIFUSE_FUNC_ATOM>  (1989) 
atom 6   atom 7   

>  <FINAL_SINGLE_POINT_ENERGY>  (1989) 
0

>  <NONCOV_INTER_ENERGY_QM>  (1989) 
0

>  <FF_Energy>  (1989) 
-1.81

>  <QM_Energy>  (1989) 
-4.35

>  <source>  (1989) 
ACET_MBZ_02

>  <Index>  (1989) 
9454

$$$$
ACET-pdb3ufx-A-ASP-79:MBZ-pdb3ufx-E-PHE-150
     RDKit          3D

 22 21  0  0  0  0  0  0  0  0999 V2000
   -4.6155    4.1531    2.0287 C   0  0  0  0  0  0  0  0  0  0  0  0
   -5.4634    3.8709    1.5912 H   0  0  0  0  0  0  0  0  0  0  0  0
   -4.7137    5.0621    2.4183 H   0  0  0  0  0  0  0  0  0  0  0  0
   -4.4115    3.4589    2.8439 H   0  0  0  0  0  0  0  0  0  0  0  0
   -3.5156    4.1805    0.9926 C   0  0  0  0  0  0  0  0  0  0  0  0
   -3.5833    3.3391    0.0696 O   0  0  0  0  0  1  0  0  0  0  0  0
   -2.5987    5.0431    1.1014 O   0  0  0  0  0  0  0  0  0  0  0  0
    0.0122    2.9216    0.0130 C   0  0  0  0  0  0  0  0  0  0  0  0
    0.8520    3.2130    0.4467 H   0  0  0  0  0  0  0  0  0  0  0  0
   -0.7794    3.2238    0.5218 H   0  0  0  0  0  0  0  0  0  0  0  0
   -0.0303    3.3890   -0.9708 H   0  0  0  0  0  0  0  0  0  0  0  0
    0.0012    1.4033   -0.0067 C   0  0  0  0  0  0  0  0  0  0  0  0
   -1.1952    0.6971    0.0034 C   0  0  0  0  0  0  0  0  0  0  0  0
   -2.0626    1.1807    0.0121 H   0  0  0  0  0  0  0  0  0  0  0  0
   -1.1981   -0.7060   -0.0000 C   0  0  0  0  0  0  0  0  0  0  0  0
   -2.0717   -1.1965   -0.0005 H   0  0  0  0  0  0  0  0  0  0  0  0
    0.0091   -1.3947   -0.0004 C   0  0  0  0  0  0  0  0  0  0  0  0
    0.0112   -2.3925   -0.0008 H   0  0  0  0  0  0  0  0  0  0  0  0
    1.1981   -0.6879   -0.0000 C   0  0  0  0  0  0  0  0  0  0  0  0
    2.0859   -1.1850   -0.0010 H   0  0  0  0  0  0  0  0  0  0  0  0
    1.1849    0.6882    0.0037 C   0  0  0  0  0  0  0  0  0  0  0  0
    2.0608    1.1912    0.0138 H   0  0  0  0  0  0  0  0  0  0  0  0
  1  5  1  0
  5  6  1  0
  5  7  2  0
  1  2  1  0
  1  3  1  0
  1  4  1  0
  8 12  1  0
 12 13  2  0
 13 15  1  0
 15 17  2  0
 17 19  1  0
 19 21  2  0
 21 12  1  0
  8  9  1  0
  8 10  1  0
  8 11  1  0
 13 14  1  0
 15 16  1  0
 17 18  1  0
 19 20  1  0
 21 22  1  0
M  CHG  1   6  -1
M  END
>  <PDB_ID>  (1990) 
pdb3ufx

>  <RESIDUE_NAME>  (1990) 
ASP   PHE

>  <FRAG_NAME>  (1990) 
ACET   MBZ

>  <FRAG_ATOM_NUM>  (1990) 
fragi: 7  fragj: 15

>  <atom.prop.CHAIN_ID>  (1990) 
A A A A A A A Z Z Z Z Z Z Z Z Z Z Z Z Z Z Z

>  <atom.prop.IS_HEAVY_ATOM>  (1990) 
1 0 0 0 1 1 1 1 0 0 0 1 1 0 1 0 1 0 1 0 1 0

>  <DIFUSE_FUNC_ATOM>  (1990) 
atom 6   atom 7   

>  <FINAL_SINGLE_POINT_ENERGY>  (1990) 
0

>  <NONCOV_INTER_ENERGY_QM>  (1990) 
0

>  <FF_Energy>  (1990) 
-2.64

>  <QM_Energy>  (1990) 
-8.5

>  <source>  (1990) 
ACET_MBZ_02

>  <Index>  (1990) 
9512

$$$$
ACET-pdb3ufx-F-ASP-79:MBZ-pdb3ufx-I-PHE-150
     RDKit          3D

 22 21  0  0  0  0  0  0  0  0999 V2000
   -4.6799    4.0322    2.0984 C   0  0  0  0  0  0  0  0  0  0  0  0
   -5.5234    3.7468    1.6511 H   0  0  0  0  0  0  0  0  0  0  0  0
   -4.7907    4.9395    2.4926 H   0  0  0  0  0  0  0  0  0  0  0  0
   -4.4774    3.3344    2.9109 H   0  0  0  0  0  0  0  0  0  0  0  0
   -3.5745    4.0799    1.0680 C   0  0  0  0  0  0  0  0  0  0  0  0
   -3.6064    3.2517    0.1386 O   0  0  0  0  0  1  0  0  0  0  0  0
   -2.6939    4.9618    1.1658 O   0  0  0  0  0  0  0  0  0  0  0  0
   -0.0028    2.9254    0.0046 C   0  0  0  0  0  0  0  0  0  0  0  0
    0.8359    3.2296    0.4301 H   0  0  0  0  0  0  0  0  0  0  0  0
   -0.7953    3.2245    0.5129 H   0  0  0  0  0  0  0  0  0  0  0  0
   -0.0545    3.3820   -0.9837 H   0  0  0  0  0  0  0  0  0  0  0  0
    0.0011    1.4097   -0.0041 C   0  0  0  0  0  0  0  0  0  0  0  0
   -1.1965    0.6909    0.0088 C   0  0  0  0  0  0  0  0  0  0  0  0
   -2.0655    1.1776    0.0232 H   0  0  0  0  0  0  0  0  0  0  0  0
   -1.2026   -0.7094    0.0000 C   0  0  0  0  0  0  0  0  0  0  0  0
   -2.0789   -1.1975   -0.0005 H   0  0  0  0  0  0  0  0  0  0  0  0
   -0.0008   -1.4013   -0.0062 C   0  0  0  0  0  0  0  0  0  0  0  0
    0.0022   -2.3986   -0.0158 H   0  0  0  0  0  0  0  0  0  0  0  0
    1.2026   -0.6970   -0.0000 C   0  0  0  0  0  0  0  0  0  0  0  0
    2.0849   -1.1885    0.0046 H   0  0  0  0  0  0  0  0  0  0  0  0
    1.1962    0.7071    0.0015 C   0  0  0  0  0  0  0  0  0  0  0  0
    2.0659    1.1968    0.0055 H   0  0  0  0  0  0  0  0  0  0  0  0
  1  5  1  0
  5  6  1  0
  5  7  2  0
  1  2  1  0
  1  3  1  0
  1  4  1  0
  8 12  1  0
 12 13  2  0
 13 15  1  0
 15 17  2  0
 17 19  1  0
 19 21  2  0
 21 12  1  0
  8  9  1  0
  8 10  1  0
  8 11  1  0
 13 14  1  0
 15 16  1  0
 17 18  1  0
 19 20  1  0
 21 22  1  0
M  CHG  1   6  -1
M  END
>  <PDB_ID>  (1991) 
pdb3ufx

>  <RESIDUE_NAME>  (1991) 
ASP   PHE

>  <FRAG_NAME>  (1991) 
ACET   MBZ

>  <FRAG_ATOM_NUM>  (1991) 
fragi: 7  fragj: 15

>  <atom.prop.CHAIN_ID>  (1991) 
A A A A A A A Z Z Z Z Z Z Z Z Z Z Z Z Z Z Z

>  <atom.prop.IS_HEAVY_ATOM>  (1991) 
1 0 0 0 1 1 1 1 0 0 0 1 1 0 1 0 1 0 1 0 1 0

>  <DIFUSE_FUNC_ATOM>  (1991) 
atom 6   atom 7   

>  <FINAL_SINGLE_POINT_ENERGY>  (1991) 
0

>  <NONCOV_INTER_ENERGY_QM>  (1991) 
0

>  <FF_Energy>  (1991) 
-2.7

>  <QM_Energy>  (1991) 
-8.72

>  <source>  (1991) 
ACET_MBZ_02

>  <Index>  (1991) 
9521

$$$$
ACET-pdb3uhj-A-ASP-143:MBZ-pdb3uhj-A-PHE-269
     RDKit          3D

 22 21  0  0  0  0  0  0  0  0999 V2000
   -4.1394    3.1362   -3.4436 C   0  0  0  0  0  0  0  0  0  0  0  0
   -3.3584    3.7237   -3.6245 H   0  0  0  0  0  0  0  0  0  0  0  0
   -4.8625    3.6477   -2.9954 H   0  0  0  0  0  0  0  0  0  0  0  0
   -4.5200    2.7733   -4.3984 H   0  0  0  0  0  0  0  0  0  0  0  0
   -3.7012    2.0110   -2.5312 C   0  0  0  0  0  0  0  0  0  0  0  0
   -4.2659    0.8791   -2.5789 O   0  0  0  0  0  1  0  0  0  0  0  0
   -2.7659    2.2715   -1.7454 O   0  0  0  0  0  0  0  0  0  0  0  0
   -0.0489    2.9352   -0.0424 C   0  0  0  0  0  0  0  0  0  0  0  0
   -0.8024    3.2327    0.5330 H   0  0  0  0  0  0  0  0  0  0  0  0
   -0.2016    3.2084   -0.9859 H   0  0  0  0  0  0  0  0  0  0  0  0
    0.8460    3.4530    0.3027 H   0  0  0  0  0  0  0  0  0  0  0  0
   -0.0001    1.4163    0.0014 C   0  0  0  0  0  0  0  0  0  0  0  0
   -1.1983    0.6916   -0.0045 C   0  0  0  0  0  0  0  0  0  0  0  0
   -2.0680    1.1807   -0.0132 H   0  0  0  0  0  0  0  0  0  0  0  0
   -1.2095   -0.7086   -0.0000 C   0  0  0  0  0  0  0  0  0  0  0  0
   -2.0808   -1.1985    0.0020 H   0  0  0  0  0  0  0  0  0  0  0  0
    0.0031   -1.4096    0.0037 C   0  0  0  0  0  0  0  0  0  0  0  0
    0.0056   -2.4007    0.0081 H   0  0  0  0  0  0  0  0  0  0  0  0
    1.2095   -0.6940    0.0000 C   0  0  0  0  0  0  0  0  0  0  0  0
    2.0915   -1.1858   -0.0005 H   0  0  0  0  0  0  0  0  0  0  0  0
    1.1953    0.7042   -0.0006 C   0  0  0  0  0  0  0  0  0  0  0  0
    2.0661    1.2009   -0.0027 H   0  0  0  0  0  0  0  0  0  0  0  0
  1  5  1  0
  5  6  1  0
  5  7  2  0
  1  2  1  0
  1  3  1  0
  1  4  1  0
  8 12  1  0
 12 13  2  0
 13 15  1  0
 15 17  2  0
 17 19  1  0
 19 21  2  0
 21 12  1  0
  8  9  1  0
  8 10  1  0
  8 11  1  0
 13 14  1  0
 15 16  1  0
 17 18  1  0
 19 20  1  0
 21 22  1  0
M  CHG  1   6  -1
M  END
>  <PDB_ID>  (1992) 
pdb3uhj

>  <RESIDUE_NAME>  (1992) 
ASP   PHE

>  <FRAG_NAME>  (1992) 
ACET   MBZ

>  <FRAG_ATOM_NUM>  (1992) 
fragi: 7  fragj: 15

>  <atom.prop.CHAIN_ID>  (1992) 
A A A A A A A Z Z Z Z Z Z Z Z Z Z Z Z Z Z Z

>  <atom.prop.IS_HEAVY_ATOM>  (1992) 
1 0 0 0 1 1 1 1 0 0 0 1 1 0 1 0 1 0 1 0 1 0

>  <DIFUSE_FUNC_ATOM>  (1992) 
atom 6   atom 7   

>  <FINAL_SINGLE_POINT_ENERGY>  (1992) 
0

>  <NONCOV_INTER_ENERGY_QM>  (1992) 
0

>  <FF_Energy>  (1992) 
2.9

>  <QM_Energy>  (1992) 
-5.66

>  <source>  (1992) 
ACET_MBZ_02

>  <Index>  (1992) 
9601

$$$$
ACET-pdb3uhj-B-ASP-143:MBZ-pdb3uhj-B-PHE-269
     RDKit          3D

 22 21  0  0  0  0  0  0  0  0999 V2000
   -3.8403    2.5071   -2.8748 C   0  0  0  0  0  0  0  0  0  0  0  0
   -2.8898    2.7221   -3.0314 H   0  0  0  0  0  0  0  0  0  0  0  0
   -4.3080    3.2441   -2.4142 H   0  0  0  0  0  0  0  0  0  0  0  0
   -4.3138    2.3694   -3.8469 H   0  0  0  0  0  0  0  0  0  0  0  0
   -3.9253    1.2483   -2.0081 C   0  0  0  0  0  0  0  0  0  0  0  0
   -3.8667    0.1333   -2.5925 O   0  0  0  0  0  1  0  0  0  0  0  0
   -4.0528    1.3643   -0.7500 O   0  0  0  0  0  0  0  0  0  0  0  0
   -0.0465    2.9390   -0.0087 C   0  0  0  0  0  0  0  0  0  0  0  0
   -0.9089    3.2224    0.4008 H   0  0  0  0  0  0  0  0  0  0  0  0
   -0.0034    3.2406   -0.9574 H   0  0  0  0  0  0  0  0  0  0  0  0
    0.7519    3.4490    0.5304 H   0  0  0  0  0  0  0  0  0  0  0  0
    0.0020    1.4320    0.0036 C   0  0  0  0  0  0  0  0  0  0  0  0
   -1.1996    0.7065   -0.0031 C   0  0  0  0  0  0  0  0  0  0  0  0
   -2.0713    1.1807   -0.0119 H   0  0  0  0  0  0  0  0  0  0  0  0
   -1.2112   -0.7275    0.0000 C   0  0  0  0  0  0  0  0  0  0  0  0
   -2.0816   -1.2038   -0.0012 H   0  0  0  0  0  0  0  0  0  0  0  0
    0.0089   -1.4304    0.0060 C   0  0  0  0  0  0  0  0  0  0  0  0
    0.0145   -2.4168    0.0142 H   0  0  0  0  0  0  0  0  0  0  0  0
    1.2112   -0.7025   -0.0000 C   0  0  0  0  0  0  0  0  0  0  0  0
    2.0992   -1.1765    0.0013 H   0  0  0  0  0  0  0  0  0  0  0  0
    1.1887    0.7220   -0.0065 C   0  0  0  0  0  0  0  0  0  0  0  0
    2.0668    1.2064   -0.0200 H   0  0  0  0  0  0  0  0  0  0  0  0
  1  5  1  0
  5  6  1  0
  5  7  2  0
  1  2  1  0
  1  3  1  0
  1  4  1  0
  8 12  1  0
 12 13  2  0
 13 15  1  0
 15 17  2  0
 17 19  1  0
 19 21  2  0
 21 12  1  0
  8  9  1  0
  8 10  1  0
  8 11  1  0
 13 14  1  0
 15 16  1  0
 17 18  1  0
 19 20  1  0
 21 22  1  0
M  CHG  1   6  -1
M  END
>  <PDB_ID>  (1993) 
pdb3uhj

>  <RESIDUE_NAME>  (1993) 
ASP   PHE

>  <FRAG_NAME>  (1993) 
ACET   MBZ

>  <FRAG_ATOM_NUM>  (1993) 
fragi: 7  fragj: 15

>  <atom.prop.CHAIN_ID>  (1993) 
A A A A A A A Z Z Z Z Z Z Z Z Z Z Z Z Z Z Z

>  <atom.prop.IS_HEAVY_ATOM>  (1993) 
1 0 0 0 1 1 1 1 0 0 0 1 1 0 1 0 1 0 1 0 1 0

>  <DIFUSE_FUNC_ATOM>  (1993) 
atom 6   atom 7   

>  <FINAL_SINGLE_POINT_ENERGY>  (1993) 
0

>  <NONCOV_INTER_ENERGY_QM>  (1993) 
0

>  <FF_Energy>  (1993) 
1.23

>  <QM_Energy>  (1993) 
-6.64

>  <source>  (1993) 
ACET_MBZ_02

>  <Index>  (1993) 
9604

$$$$
ACET-pdb3uhj-F-GLU-94:MBZ-pdb3uhj-F-PHE-86
     RDKit          3D

 22 21  0  0  0  0  0  0  0  0999 V2000
   -4.5407   -1.0034    2.8150 C   0  0  0  0  0  0  0  0  0  0  0  0
   -5.1437   -0.5842    3.4636 H   0  0  0  0  0  0  0  0  0  0  0  0
   -3.6607   -1.2112    3.1923 H   0  0  0  0  0  0  0  0  0  0  0  0
   -4.9969   -1.9375    2.4870 H   0  0  0  0  0  0  0  0  0  0  0  0
   -4.3415   -0.0391    1.6720 C   0  0  0  0  0  0  0  0  0  0  0  0
   -4.0942   -0.5264    0.5493 O   0  0  0  0  0  1  0  0  0  0  0  0
   -4.4360    1.1917    1.8771 O   0  0  0  0  0  0  0  0  0  0  0  0
   -0.0167    2.8374    0.0061 C   0  0  0  0  0  0  0  0  0  0  0  0
   -0.2497    3.1506   -0.9036 H   0  0  0  0  0  0  0  0  0  0  0  0
    0.8828    3.1532    0.2735 H   0  0  0  0  0  0  0  0  0  0  0  0
   -0.7413    3.2596    0.7023 H   0  0  0  0  0  0  0  0  0  0  0  0
   -0.0044    1.3511   -0.0021 C   0  0  0  0  0  0  0  0  0  0  0  0
   -1.1635    0.6623   -0.0001 C   0  0  0  0  0  0  0  0  0  0  0  0
   -2.0395    1.1739    0.0001 H   0  0  0  0  0  0  0  0  0  0  0  0
   -1.1626   -0.6513   -0.0000 C   0  0  0  0  0  0  0  0  0  0  0  0
   -2.0512   -1.1708    0.0053 H   0  0  0  0  0  0  0  0  0  0  0  0
   -0.0010   -1.3294   -0.0055 C   0  0  0  0  0  0  0  0  0  0  0  0
   -0.0229   -2.3510   -0.0139 H   0  0  0  0  0  0  0  0  0  0  0  0
    1.1626   -0.6839   -0.0000 C   0  0  0  0  0  0  0  0  0  0  0  0
    2.0505   -1.2000   -0.0000 H   0  0  0  0  0  0  0  0  0  0  0  0
    1.1689    0.6511    0.0076 C   0  0  0  0  0  0  0  0  0  0  0  0
    2.0420    1.1610    0.0201 H   0  0  0  0  0  0  0  0  0  0  0  0
  1  5  1  0
  5  6  1  0
  5  7  2  0
  1  2  1  0
  1  3  1  0
  1  4  1  0
  8 12  1  0
 12 13  2  0
 13 15  1  0
 15 17  2  0
 17 19  1  0
 19 21  2  0
 21 12  1  0
  8  9  1  0
  8 10  1  0
  8 11  1  0
 13 14  1  0
 15 16  1  0
 17 18  1  0
 19 20  1  0
 21 22  1  0
M  CHG  1   6  -1
M  END
>  <PDB_ID>  (1994) 
pdb3uhj

>  <RESIDUE_NAME>  (1994) 
GLU   PHE

>  <FRAG_NAME>  (1994) 
ACET   MBZ

>  <FRAG_ATOM_NUM>  (1994) 
fragi: 7  fragj: 15

>  <atom.prop.CHAIN_ID>  (1994) 
A A A A A A A Z Z Z Z Z Z Z Z Z Z Z Z Z Z Z

>  <atom.prop.IS_HEAVY_ATOM>  (1994) 
1 0 0 0 1 1 1 1 0 0 0 1 1 0 1 0 1 0 1 0 1 0

>  <DIFUSE_FUNC_ATOM>  (1994) 
atom 6   atom 7   

>  <FINAL_SINGLE_POINT_ENERGY>  (1994) 
0

>  <NONCOV_INTER_ENERGY_QM>  (1994) 
0

>  <FF_Energy>  (1994) 
-0.93

>  <QM_Energy>  (1994) 
-7.14

>  <source>  (1994) 
ACET_MBZ_02

>  <Index>  (1994) 
9614

$$$$
ACET-pdb3uhj-F-ASP-143:MBZ-pdb3uhj-F-PHE-269
     RDKit          3D

 22 21  0  0  0  0  0  0  0  0999 V2000
   -2.8958    2.6198   -4.0475 C   0  0  0  0  0  0  0  0  0  0  0  0
   -1.9946    2.9889   -3.8833 H   0  0  0  0  0  0  0  0  0  0  0  0
   -3.6001    3.2309   -3.7242 H   0  0  0  0  0  0  0  0  0  0  0  0
   -3.0215    2.4926   -5.1227 H   0  0  0  0  0  0  0  0  0  0  0  0
   -3.0189    1.2815   -3.2606 C   0  0  0  0  0  0  0  0  0  0  0  0
   -2.9157    0.1826   -3.8761 O   0  0  0  0  0  1  0  0  0  0  0  0
   -3.2370    1.3321   -2.0151 O   0  0  0  0  0  0  0  0  0  0  0  0
   -0.0298    2.9064   -0.0338 C   0  0  0  0  0  0  0  0  0  0  0  0
   -0.9802    3.1985    0.0321 H   0  0  0  0  0  0  0  0  0  0  0  0
    0.3579    3.1981   -0.9035 H   0  0  0  0  0  0  0  0  0  0  0  0
    0.5219    3.4185    0.7545 H   0  0  0  0  0  0  0  0  0  0  0  0
    0.0034    1.4096    0.0139 C   0  0  0  0  0  0  0  0  0  0  0  0
   -1.1972    0.6903    0.0016 C   0  0  0  0  0  0  0  0  0  0  0  0
   -2.0642    1.1848   -0.0073 H   0  0  0  0  0  0  0  0  0  0  0  0
   -1.2082   -0.7017   -0.0000 C   0  0  0  0  0  0  0  0  0  0  0  0
   -2.0853   -1.1920   -0.0011 H   0  0  0  0  0  0  0  0  0  0  0  0
   -0.0073   -1.3999    0.0019 C   0  0  0  0  0  0  0  0  0  0  0  0
   -0.0076   -2.3973    0.0036 H   0  0  0  0  0  0  0  0  0  0  0  0
    1.2082   -0.7013   -0.0000 C   0  0  0  0  0  0  0  0  0  0  0  0
    2.0826   -1.1960    0.0122 H   0  0  0  0  0  0  0  0  0  0  0  0
    1.2011    0.7031   -0.0174 C   0  0  0  0  0  0  0  0  0  0  0  0
    2.0686    1.1942   -0.0534 H   0  0  0  0  0  0  0  0  0  0  0  0
  1  5  1  0
  5  6  1  0
  5  7  2  0
  1  2  1  0
  1  3  1  0
  1  4  1  0
  8 12  1  0
 12 13  2  0
 13 15  1  0
 15 17  2  0
 17 19  1  0
 19 21  2  0
 21 12  1  0
  8  9  1  0
  8 10  1  0
  8 11  1  0
 13 14  1  0
 15 16  1  0
 17 18  1  0
 19 20  1  0
 21 22  1  0
M  CHG  1   6  -1
M  END
>  <PDB_ID>  (1995) 
pdb3uhj

>  <RESIDUE_NAME>  (1995) 
ASP   PHE

>  <FRAG_NAME>  (1995) 
ACET   MBZ

>  <FRAG_ATOM_NUM>  (1995) 
fragi: 7  fragj: 15

>  <atom.prop.CHAIN_ID>  (1995) 
A A A A A A A Z Z Z Z Z Z Z Z Z Z Z Z Z Z Z

>  <atom.prop.IS_HEAVY_ATOM>  (1995) 
1 0 0 0 1 1 1 1 0 0 0 1 1 0 1 0 1 0 1 0 1 0

>  <DIFUSE_FUNC_ATOM>  (1995) 
atom 6   atom 7   

>  <FINAL_SINGLE_POINT_ENERGY>  (1995) 
0

>  <NONCOV_INTER_ENERGY_QM>  (1995) 
0

>  <FF_Energy>  (1995) 
0.82

>  <QM_Energy>  (1995) 
-4.2

>  <source>  (1995) 
ACET_MBZ_02

>  <Index>  (1995) 
9616

$$$$
ACET-pdb3uj2-G-GLU-76:MBZ-pdb3uj2-G-PHE-108
     RDKit          3D

 22 21  0  0  0  0  0  0  0  0999 V2000
   -3.0622   -3.5435    2.6069 C   0  0  0  0  0  0  0  0  0  0  0  0
   -3.0199   -4.5175    2.7204 H   0  0  0  0  0  0  0  0  0  0  0  0
   -3.8346   -3.1443    3.0616 H   0  0  0  0  0  0  0  0  0  0  0  0
   -2.1518   -3.1064    3.0171 H   0  0  0  0  0  0  0  0  0  0  0  0
   -3.2160   -3.2640    1.1206 C   0  0  0  0  0  0  0  0  0  0  0  0
   -2.8113   -4.1231    0.3062 O   0  0  0  0  0  1  0  0  0  0  0  0
   -3.7341   -2.1818    0.7683 O   0  0  0  0  0  0  0  0  0  0  0  0
    0.0031    2.8874    0.0044 C   0  0  0  0  0  0  0  0  0  0  0  0
    0.5719    3.1969   -0.7448 H   0  0  0  0  0  0  0  0  0  0  0  0
    0.3654    3.1912    0.8748 H   0  0  0  0  0  0  0  0  0  0  0  0
   -0.9839    3.3329   -0.1203 H   0  0  0  0  0  0  0  0  0  0  0  0
   -0.0006    1.3907   -0.0007 C   0  0  0  0  0  0  0  0  0  0  0  0
   -1.1918    0.6882    0.0002 C   0  0  0  0  0  0  0  0  0  0  0  0
   -2.0589    1.1806    0.0000 H   0  0  0  0  0  0  0  0  0  0  0  0
   -1.1935   -0.6915    0.0000 C   0  0  0  0  0  0  0  0  0  0  0  0
   -2.0714   -1.1893    0.0025 H   0  0  0  0  0  0  0  0  0  0  0  0
    0.0015   -1.3820   -0.0020 C   0  0  0  0  0  0  0  0  0  0  0  0
   -0.0025   -2.3845   -0.0056 H   0  0  0  0  0  0  0  0  0  0  0  0
    1.1935   -0.6909    0.0000 C   0  0  0  0  0  0  0  0  0  0  0  0
    2.0773   -1.1927    0.0014 H   0  0  0  0  0  0  0  0  0  0  0  0
    1.1909    0.6855    0.0026 C   0  0  0  0  0  0  0  0  0  0  0  0
    2.0595    1.1861    0.0057 H   0  0  0  0  0  0  0  0  0  0  0  0
  1  5  1  0
  5  6  1  0
  5  7  2  0
  1  2  1  0
  1  3  1  0
  1  4  1  0
  8 12  1  0
 12 13  2  0
 13 15  1  0
 15 17  2  0
 17 19  1  0
 19 21  2  0
 21 12  1  0
  8  9  1  0
  8 10  1  0
  8 11  1  0
 13 14  1  0
 15 16  1  0
 17 18  1  0
 19 20  1  0
 21 22  1  0
M  CHG  1   6  -1
M  END
>  <PDB_ID>  (1996) 
pdb3uj2

>  <RESIDUE_NAME>  (1996) 
GLU   PHE

>  <FRAG_NAME>  (1996) 
ACET   MBZ

>  <FRAG_ATOM_NUM>  (1996) 
fragi: 7  fragj: 15

>  <atom.prop.CHAIN_ID>  (1996) 
A A A A A A A Z Z Z Z Z Z Z Z Z Z Z Z Z Z Z

>  <atom.prop.IS_HEAVY_ATOM>  (1996) 
1 0 0 0 1 1 1 1 0 0 0 1 1 0 1 0 1 0 1 0 1 0

>  <DIFUSE_FUNC_ATOM>  (1996) 
atom 6   atom 7   

>  <FINAL_SINGLE_POINT_ENERGY>  (1996) 
0

>  <NONCOV_INTER_ENERGY_QM>  (1996) 
0

>  <FF_Energy>  (1996) 
1.32

>  <QM_Energy>  (1996) 
-6.58

>  <source>  (1996) 
ACET_MBZ_02

>  <Index>  (1996) 
9679

$$$$
ACET-pdb3ufx-D-ASP-79:MBZ-pdb3ufx-B-PHE-150
     RDKit          3D

 22 21  0  0  0  0  0  0  0  0999 V2000
   -4.6276    3.9374    1.9897 C   0  0  0  0  0  0  0  0  0  0  0  0
   -5.5052    3.7021    1.5882 H   0  0  0  0  0  0  0  0  0  0  0  0
   -4.6540    4.8528    2.3721 H   0  0  0  0  0  0  0  0  0  0  0  0
   -4.4358    3.2397    2.8048 H   0  0  0  0  0  0  0  0  0  0  0  0
   -3.5647    3.8842    0.9132 C   0  0  0  0  0  0  0  0  0  0  0  0
   -3.6306    2.9892    0.0351 O   0  0  0  0  0  1  0  0  0  0  0  0
   -2.6677    4.7528    0.9375 O   0  0  0  0  0  0  0  0  0  0  0  0
    0.0069    2.8962    0.0082 C   0  0  0  0  0  0  0  0  0  0  0  0
    0.8471    3.1999    0.4318 H   0  0  0  0  0  0  0  0  0  0  0  0
   -0.7831    3.2039    0.5178 H   0  0  0  0  0  0  0  0  0  0  0  0
   -0.0439    3.3546   -0.9794 H   0  0  0  0  0  0  0  0  0  0  0  0
    0.0021    1.3939   -0.0051 C   0  0  0  0  0  0  0  0  0  0  0  0
   -1.1954    0.6869    0.0023 C   0  0  0  0  0  0  0  0  0  0  0  0
   -2.0607    1.1809    0.0077 H   0  0  0  0  0  0  0  0  0  0  0  0
   -1.1996   -0.6957   -0.0000 C   0  0  0  0  0  0  0  0  0  0  0  0
   -2.0775   -1.1920    0.0004 H   0  0  0  0  0  0  0  0  0  0  0  0
   -0.0028   -1.3863   -0.0005 C   0  0  0  0  0  0  0  0  0  0  0  0
   -0.0007   -2.3856   -0.0021 H   0  0  0  0  0  0  0  0  0  0  0  0
    1.1996   -0.6863   -0.0000 C   0  0  0  0  0  0  0  0  0  0  0  0
    2.0790   -1.1931   -0.0008 H   0  0  0  0  0  0  0  0  0  0  0  0
    1.1961    0.6875    0.0033 C   0  0  0  0  0  0  0  0  0  0  0  0
    2.0633    1.1913    0.0110 H   0  0  0  0  0  0  0  0  0  0  0  0
  1  5  1  0
  5  6  1  0
  5  7  2  0
  1  2  1  0
  1  3  1  0
  1  4  1  0
  8 12  1  0
 12 13  2  0
 13 15  1  0
 15 17  2  0
 17 19  1  0
 19 21  2  0
 21 12  1  0
  8  9  1  0
  8 10  1  0
  8 11  1  0
 13 14  1  0
 15 16  1  0
 17 18  1  0
 19 20  1  0
 21 22  1  0
M  CHG  1   6  -1
M  END
>  <PDB_ID>  (1997) 
pdb3ufx

>  <RESIDUE_NAME>  (1997) 
ASP   PHE

>  <FRAG_NAME>  (1997) 
ACET   MBZ

>  <FRAG_ATOM_NUM>  (1997) 
fragi: 7  fragj: 15

>  <atom.prop.CHAIN_ID>  (1997) 
A A A A A A A Z Z Z Z Z Z Z Z Z Z Z Z Z Z Z

>  <atom.prop.IS_HEAVY_ATOM>  (1997) 
1 0 0 0 1 1 1 1 0 0 0 1 1 0 1 0 1 0 1 0 1 0

>  <DIFUSE_FUNC_ATOM>  (1997) 
atom 6   atom 7   

>  <FINAL_SINGLE_POINT_ENERGY>  (1997) 
0

>  <NONCOV_INTER_ENERGY_QM>  (1997) 
0

>  <FF_Energy>  (1997) 
-2.32

>  <QM_Energy>  (1997) 
-9.17

>  <source>  (1997) 
ACET_MBZ_02

>  <Index>  (1997) 
9773

$$$$
ACET-pdb3umg-D-GLU-92:MBZ-pdb3umg-D-PHE-88
     RDKit          3D

 22 21  0  0  0  0  0  0  0  0999 V2000
    3.8783   -0.3367    2.3217 C   0  0  0  0  0  0  0  0  0  0  0  0
    3.4786   -1.0816    2.8128 H   0  0  0  0  0  0  0  0  0  0  0  0
    3.2452    0.3844    2.1350 H   0  0  0  0  0  0  0  0  0  0  0  0
    4.7056    0.0643    2.9073 H   0  0  0  0  0  0  0  0  0  0  0  0
    4.3470   -0.8880    0.9666 C   0  0  0  0  0  0  0  0  0  0  0  0
    4.8740   -0.1135    0.1385 O   0  0  0  0  0  1  0  0  0  0  0  0
    4.1708   -2.1025    0.7211 O   0  0  0  0  0  0  0  0  0  0  0  0
   -0.0242    2.9152   -0.0578 C   0  0  0  0  0  0  0  0  0  0  0  0
   -0.9630    3.1899   -0.2504 H   0  0  0  0  0  0  0  0  0  0  0  0
    0.5721    3.1981   -0.8054 H   0  0  0  0  0  0  0  0  0  0  0  0
    0.3006    3.4279    0.8475 H   0  0  0  0  0  0  0  0  0  0  0  0
    0.0045    1.4092   -0.0001 C   0  0  0  0  0  0  0  0  0  0  0  0
   -1.1992    0.6879   -0.0010 C   0  0  0  0  0  0  0  0  0  0  0  0
   -2.0671    1.1779   -0.0039 H   0  0  0  0  0  0  0  0  0  0  0  0
   -1.2157   -0.7191   -0.0000 C   0  0  0  0  0  0  0  0  0  0  0  0
   -2.0902   -1.2006   -0.0085 H   0  0  0  0  0  0  0  0  0  0  0  0
   -0.0122   -1.4074    0.0142 C   0  0  0  0  0  0  0  0  0  0  0  0
    0.0083   -2.3997    0.0340 H   0  0  0  0  0  0  0  0  0  0  0  0
    1.2157   -0.6842   -0.0000 C   0  0  0  0  0  0  0  0  0  0  0  0
    2.0879   -1.1869    0.0003 H   0  0  0  0  0  0  0  0  0  0  0  0
    1.2070    0.7135   -0.0131 C   0  0  0  0  0  0  0  0  0  0  0  0
    2.0701    1.2105   -0.0325 H   0  0  0  0  0  0  0  0  0  0  0  0
  1  5  1  0
  5  6  1  0
  5  7  2  0
  1  2  1  0
  1  3  1  0
  1  4  1  0
  8 12  1  0
 12 13  2  0
 13 15  1  0
 15 17  2  0
 17 19  1  0
 19 21  2  0
 21 12  1  0
  8  9  1  0
  8 10  1  0
  8 11  1  0
 13 14  1  0
 15 16  1  0
 17 18  1  0
 19 20  1  0
 21 22  1  0
M  CHG  1   6  -1
M  END
>  <PDB_ID>  (1998) 
pdb3umg

>  <RESIDUE_NAME>  (1998) 
GLU   PHE

>  <FRAG_NAME>  (1998) 
ACET   MBZ

>  <FRAG_ATOM_NUM>  (1998) 
fragi: 7  fragj: 15

>  <atom.prop.CHAIN_ID>  (1998) 
A A A A A A A Z Z Z Z Z Z Z Z Z Z Z Z Z Z Z

>  <atom.prop.IS_HEAVY_ATOM>  (1998) 
1 0 0 0 1 1 1 1 0 0 0 1 1 0 1 0 1 0 1 0 1 0

>  <DIFUSE_FUNC_ATOM>  (1998) 
atom 6   atom 7   

>  <FINAL_SINGLE_POINT_ENERGY>  (1998) 
0

>  <NONCOV_INTER_ENERGY_QM>  (1998) 
0

>  <FF_Energy>  (1998) 
-1.67

>  <QM_Energy>  (1998) 
-6.81

>  <source>  (1998) 
ACET_MBZ_02

>  <Index>  (1998) 
9930

$$$$
ACET-pdb4udg-A-ASP-187:MBZ-pdb4udg-A-PHE-190
     RDKit          3D

 22 21  0  0  0  0  0  0  0  0999 V2000
    5.9940    3.3286   -1.0181 C   0  0  0  0  0  0  0  0  0  0  0  0
    6.4291    2.5400   -1.4466 H   0  0  0  0  0  0  0  0  0  0  0  0
    6.4161    3.5097   -0.1330 H   0  0  0  0  0  0  0  0  0  0  0  0
    6.1831    4.1929   -1.6548 H   0  0  0  0  0  0  0  0  0  0  0  0
    4.5280    3.0327   -0.8151 C   0  0  0  0  0  0  0  0  0  0  0  0
    3.6790    3.6367   -1.5191 O   0  0  0  0  0  1  0  0  0  0  0  0
    4.2204    2.2366    0.0997 O   0  0  0  0  0  0  0  0  0  0  0  0
   -0.0382    2.8988   -0.0725 C   0  0  0  0  0  0  0  0  0  0  0  0
    0.7914    3.2311    0.3251 H   0  0  0  0  0  0  0  0  0  0  0  0
   -0.8392    3.1963    0.4041 H   0  0  0  0  0  0  0  0  0  0  0  0
   -0.0960    3.2886   -1.0888 H   0  0  0  0  0  0  0  0  0  0  0  0
   -0.0026    1.3631   -0.0197 C   0  0  0  0  0  0  0  0  0  0  0  0
   -1.1823    0.6663    0.0097 C   0  0  0  0  0  0  0  0  0  0  0  0
   -2.0538    1.1731    0.0376 H   0  0  0  0  0  0  0  0  0  0  0  0
   -1.2028   -0.6923   -0.0000 C   0  0  0  0  0  0  0  0  0  0  0  0
   -2.0700   -1.1951   -0.0069 H   0  0  0  0  0  0  0  0  0  0  0  0
    0.0014   -1.3676    0.0016 C   0  0  0  0  0  0  0  0  0  0  0  0
    0.0081   -2.3739    0.0038 H   0  0  0  0  0  0  0  0  0  0  0  0
    1.2028   -0.6725   -0.0000 C   0  0  0  0  0  0  0  0  0  0  0  0
    2.0812   -1.1711   -0.0055 H   0  0  0  0  0  0  0  0  0  0  0  0
    1.1835    0.7031    0.0084 C   0  0  0  0  0  0  0  0  0  0  0  0
    2.0480    1.2088    0.0340 H   0  0  0  0  0  0  0  0  0  0  0  0
  1  5  1  0
  5  6  1  0
  5  7  2  0
  1  2  1  0
  1  3  1  0
  1  4  1  0
  8 12  1  0
 12 13  2  0
 13 15  1  0
 15 17  2  0
 17 19  1  0
 19 21  2  0
 21 12  1  0
  8  9  1  0
  8 10  1  0
  8 11  1  0
 13 14  1  0
 15 16  1  0
 17 18  1  0
 19 20  1  0
 21 22  1  0
M  CHG  1   6  -1
M  END
>  <PDB_ID>  (1999) 
pdb4udg

>  <RESIDUE_NAME>  (1999) 
ASP   PHE

>  <FRAG_NAME>  (1999) 
ACET   MBZ

>  <FRAG_ATOM_NUM>  (1999) 
fragi: 7  fragj: 15

>  <atom.prop.CHAIN_ID>  (1999) 
A A A A A A A Z Z Z Z Z Z Z Z Z Z Z Z Z Z Z

>  <atom.prop.IS_HEAVY_ATOM>  (1999) 
1 0 0 0 1 1 1 1 0 0 0 1 1 0 1 0 1 0 1 0 1 0

>  <DIFUSE_FUNC_ATOM>  (1999) 
atom 6   atom 7   

>  <FINAL_SINGLE_POINT_ENERGY>  (1999) 
0

>  <NONCOV_INTER_ENERGY_QM>  (1999) 
0

>  <FF_Energy>  (1999) 
-2.34

>  <QM_Energy>  (1999) 
-8.06

>  <source>  (1999) 
ACET_MBZ_02

>  <Index>  (1999) 
9952

$$$$
ACET-pdb4udg-B-ASP-187:MBZ-pdb4udg-B-PHE-190
     RDKit          3D

 22 21  0  0  0  0  0  0  0  0999 V2000
    5.9781    3.3328   -1.0904 C   0  0  0  0  0  0  0  0  0  0  0  0
    6.3986    2.5526   -1.5474 H   0  0  0  0  0  0  0  0  0  0  0  0
    6.4268    3.4953   -0.2145 H   0  0  0  0  0  0  0  0  0  0  0  0
    6.1409    4.2108   -1.7155 H   0  0  0  0  0  0  0  0  0  0  0  0
    4.5129    3.0184   -0.8375 C   0  0  0  0  0  0  0  0  0  0  0  0
    3.6440    3.6721   -1.4681 O   0  0  0  0  0  1  0  0  0  0  0  0
    4.2277    2.1497    0.0427 O   0  0  0  0  0  0  0  0  0  0  0  0
   -0.0720    2.8935   -0.0679 C   0  0  0  0  0  0  0  0  0  0  0  0
    0.7606    3.2478    0.3284 H   0  0  0  0  0  0  0  0  0  0  0  0
   -0.8672    3.1882    0.4393 H   0  0  0  0  0  0  0  0  0  0  0  0
   -0.1554    3.2841   -1.0821 H   0  0  0  0  0  0  0  0  0  0  0  0
   -0.0144    1.4071   -0.0196 C   0  0  0  0  0  0  0  0  0  0  0  0
   -1.1995    0.6595   -0.0139 C   0  0  0  0  0  0  0  0  0  0  0  0
   -2.0766    1.1527   -0.0212 H   0  0  0  0  0  0  0  0  0  0  0  0
   -1.1931   -0.7076   -0.0000 C   0  0  0  0  0  0  0  0  0  0  0  0
   -2.0586   -1.2220   -0.0103 H   0  0  0  0  0  0  0  0  0  0  0  0
    0.0206   -1.3881    0.0301 C   0  0  0  0  0  0  0  0  0  0  0  0
    0.0212   -2.3871    0.0732 H   0  0  0  0  0  0  0  0  0  0  0  0
    1.1931   -0.6826    0.0000 C   0  0  0  0  0  0  0  0  0  0  0  0
    2.0913   -1.1705   -0.0243 H   0  0  0  0  0  0  0  0  0  0  0  0
    1.1934    0.7117    0.0034 C   0  0  0  0  0  0  0  0  0  0  0  0
    2.0525    1.2079    0.0211 H   0  0  0  0  0  0  0  0  0  0  0  0
  1  5  1  0
  5  6  1  0
  5  7  2  0
  1  2  1  0
  1  3  1  0
  1  4  1  0
  8 12  1  0
 12 13  2  0
 13 15  1  0
 15 17  2  0
 17 19  1  0
 19 21  2  0
 21 12  1  0
  8  9  1  0
  8 10  1  0
  8 11  1  0
 13 14  1  0
 15 16  1  0
 17 18  1  0
 19 20  1  0
 21 22  1  0
M  CHG  1   6  -1
M  END
>  <PDB_ID>  (2000) 
pdb4udg

>  <RESIDUE_NAME>  (2000) 
ASP   PHE

>  <FRAG_NAME>  (2000) 
ACET   MBZ

>  <FRAG_ATOM_NUM>  (2000) 
fragi: 7  fragj: 15

>  <atom.prop.CHAIN_ID>  (2000) 
A A A A A A A Z Z Z Z Z Z Z Z Z Z Z Z Z Z Z

>  <atom.prop.IS_HEAVY_ATOM>  (2000) 
1 0 0 0 1 1 1 1 0 0 0 1 1 0 1 0 1 0 1 0 1 0

>  <DIFUSE_FUNC_ATOM>  (2000) 
atom 6   atom 7   

>  <FINAL_SINGLE_POINT_ENERGY>  (2000) 
0

>  <NONCOV_INTER_ENERGY_QM>  (2000) 
0

>  <FF_Energy>  (2000) 
-2.22

>  <QM_Energy>  (2000) 
-8.22

>  <source>  (2000) 
ACET_MBZ_02

>  <Index>  (2000) 
9954

$$$$
ACET-pdb4udg-D-ASP-187:MBZ-pdb4udg-D-PHE-190
     RDKit          3D

 22 21  0  0  0  0  0  0  0  0999 V2000
    5.9421    3.4101   -0.8552 C   0  0  0  0  0  0  0  0  0  0  0  0
    6.4042    2.6500   -1.3077 H   0  0  0  0  0  0  0  0  0  0  0  0
    6.3798    3.5969    0.0209 H   0  0  0  0  0  0  0  0  0  0  0  0
    6.1049    4.2892   -1.4787 H   0  0  0  0  0  0  0  0  0  0  0  0
    4.4912    3.0576   -0.6313 C   0  0  0  0  0  0  0  0  0  0  0  0
    3.6206    3.6885   -1.2942 O   0  0  0  0  0  1  0  0  0  0  0  0
    4.1991    2.1902    0.1814 O   0  0  0  0  0  0  0  0  0  0  0  0
   -0.1046    2.8558   -0.0011 C   0  0  0  0  0  0  0  0  0  0  0  0
    0.7253    3.2121    0.4067 H   0  0  0  0  0  0  0  0  0  0  0  0
   -0.9015    3.1283    0.5220 H   0  0  0  0  0  0  0  0  0  0  0  0
   -0.1971    3.2928   -0.9954 H   0  0  0  0  0  0  0  0  0  0  0  0
   -0.0298    1.3811   -0.0106 C   0  0  0  0  0  0  0  0  0  0  0  0
   -1.1756    0.6379   -0.0264 C   0  0  0  0  0  0  0  0  0  0  0  0
   -2.0714    1.1348   -0.0618 H   0  0  0  0  0  0  0  0  0  0  0  0
   -1.1824   -0.7029   -0.0000 C   0  0  0  0  0  0  0  0  0  0  0  0
   -2.0429   -1.2233    0.0189 H   0  0  0  0  0  0  0  0  0  0  0  0
    0.0278   -1.3659    0.0029 C   0  0  0  0  0  0  0  0  0  0  0  0
    0.0331   -2.3738    0.0068 H   0  0  0  0  0  0  0  0  0  0  0  0
    1.1824   -0.6650    0.0000 C   0  0  0  0  0  0  0  0  0  0  0  0
    2.0881   -1.1499   -0.0268 H   0  0  0  0  0  0  0  0  0  0  0  0
    1.1777    0.7148    0.0341 C   0  0  0  0  0  0  0  0  0  0  0  0
    2.0295    1.2191    0.0891 H   0  0  0  0  0  0  0  0  0  0  0  0
  1  5  1  0
  5  6  1  0
  5  7  2  0
  1  2  1  0
  1  3  1  0
  1  4  1  0
  8 12  1  0
 12 13  2  0
 13 15  1  0
 15 17  2  0
 17 19  1  0
 19 21  2  0
 21 12  1  0
  8  9  1  0
  8 10  1  0
  8 11  1  0
 13 14  1  0
 15 16  1  0
 17 18  1  0
 19 20  1  0
 21 22  1  0
M  CHG  1   6  -1
M  END
>  <PDB_ID>  (2001) 
pdb4udg

>  <RESIDUE_NAME>  (2001) 
ASP   PHE

>  <FRAG_NAME>  (2001) 
ACET   MBZ

>  <FRAG_ATOM_NUM>  (2001) 
fragi: 7  fragj: 15

>  <atom.prop.CHAIN_ID>  (2001) 
A A A A A A A Z Z Z Z Z Z Z Z Z Z Z Z Z Z Z

>  <atom.prop.IS_HEAVY_ATOM>  (2001) 
1 0 0 0 1 1 1 1 0 0 0 1 1 0 1 0 1 0 1 0 1 0

>  <DIFUSE_FUNC_ATOM>  (2001) 
atom 6   atom 7   

>  <FINAL_SINGLE_POINT_ENERGY>  (2001) 
0

>  <NONCOV_INTER_ENERGY_QM>  (2001) 
0

>  <FF_Energy>  (2001) 
-2.23

>  <QM_Energy>  (2001) 
-8.08

>  <source>  (2001) 
ACET_MBZ_02

>  <Index>  (2001) 
9964

$$$$
ACET-pdb4udg-E-ASP-187:MBZ-pdb4udg-E-PHE-190
     RDKit          3D

 22 21  0  0  0  0  0  0  0  0999 V2000
    6.0903    3.3422   -0.7632 C   0  0  0  0  0  0  0  0  0  0  0  0
    6.5100    2.5845   -1.2464 H   0  0  0  0  0  0  0  0  0  0  0  0
    6.4957    3.4528    0.1351 H   0  0  0  0  0  0  0  0  0  0  0  0
    6.2588    4.2548   -1.3351 H   0  0  0  0  0  0  0  0  0  0  0  0
    4.5999    3.0263   -0.5812 C   0  0  0  0  0  0  0  0  0  0  0  0
    3.8073    3.6912   -1.2281 O   0  0  0  0  0  1  0  0  0  0  0  0
    4.2922    2.1333    0.1962 O   0  0  0  0  0  0  0  0  0  0  0  0
   -0.0142    2.8667    0.0086 C   0  0  0  0  0  0  0  0  0  0  0  0
    0.8164    3.1801    0.4458 H   0  0  0  0  0  0  0  0  0  0  0  0
   -0.8156    3.1684    0.5061 H   0  0  0  0  0  0  0  0  0  0  0  0
   -0.0543    3.3151   -0.9841 H   0  0  0  0  0  0  0  0  0  0  0  0
   -0.0035    1.3710    0.0008 C   0  0  0  0  0  0  0  0  0  0  0  0
   -1.1663    0.6568    0.0126 C   0  0  0  0  0  0  0  0  0  0  0  0
   -2.0492    1.1546    0.0299 H   0  0  0  0  0  0  0  0  0  0  0  0
   -1.1755   -0.6967   -0.0000 C   0  0  0  0  0  0  0  0  0  0  0  0
   -2.0543   -1.1984    0.0001 H   0  0  0  0  0  0  0  0  0  0  0  0
    0.0050   -1.3627   -0.0102 C   0  0  0  0  0  0  0  0  0  0  0  0
    0.0189   -2.3692   -0.0256 H   0  0  0  0  0  0  0  0  0  0  0  0
    1.1755   -0.6601    0.0000 C   0  0  0  0  0  0  0  0  0  0  0  0
    2.0707   -1.1626    0.0115 H   0  0  0  0  0  0  0  0  0  0  0  0
    1.1649    0.6917   -0.0032 C   0  0  0  0  0  0  0  0  0  0  0  0
    2.0395    1.1994   -0.0094 H   0  0  0  0  0  0  0  0  0  0  0  0
  1  5  1  0
  5  6  1  0
  5  7  2  0
  1  2  1  0
  1  3  1  0
  1  4  1  0
  8 12  1  0
 12 13  2  0
 13 15  1  0
 15 17  2  0
 17 19  1  0
 19 21  2  0
 21 12  1  0
  8  9  1  0
  8 10  1  0
  8 11  1  0
 13 14  1  0
 15 16  1  0
 17 18  1  0
 19 20  1  0
 21 22  1  0
M  CHG  1   6  -1
M  END
>  <PDB_ID>  (2002) 
pdb4udg

>  <RESIDUE_NAME>  (2002) 
ASP   PHE

>  <FRAG_NAME>  (2002) 
ACET   MBZ

>  <FRAG_ATOM_NUM>  (2002) 
fragi: 7  fragj: 15

>  <atom.prop.CHAIN_ID>  (2002) 
A A A A A A A Z Z Z Z Z Z Z Z Z Z Z Z Z Z Z

>  <atom.prop.IS_HEAVY_ATOM>  (2002) 
1 0 0 0 1 1 1 1 0 0 0 1 1 0 1 0 1 0 1 0 1 0

>  <DIFUSE_FUNC_ATOM>  (2002) 
atom 6   atom 7   

>  <FINAL_SINGLE_POINT_ENERGY>  (2002) 
0

>  <NONCOV_INTER_ENERGY_QM>  (2002) 
0

>  <FF_Energy>  (2002) 
-2.55

>  <QM_Energy>  (2002) 
-7.76

>  <source>  (2002) 
ACET_MBZ_02

>  <Index>  (2002) 
9969

$$$$
ACET-pdb4um9-D-GLU-30:MBZ-pdb4um9-D-PHE-457
     RDKit          3D

 22 21  0  0  0  0  0  0  0  0999 V2000
   -3.9875   -3.5639   -0.9481 C   0  0  0  0  0  0  0  0  0  0  0  0
   -4.5845   -3.2268   -0.2188 H   0  0  0  0  0  0  0  0  0  0  0  0
   -3.0849   -3.7709   -0.5669 H   0  0  0  0  0  0  0  0  0  0  0  0
   -4.4125   -4.4988   -1.3130 H   0  0  0  0  0  0  0  0  0  0  0  0
   -3.8199   -2.4644   -1.9483 C   0  0  0  0  0  0  0  0  0  0  0  0
   -4.1329   -2.5662   -3.1282 O   0  0  0  0  0  1  0  0  0  0  0  0
   -3.3166   -1.4389   -1.4506 O   0  0  0  0  0  0  0  0  0  0  0  0
    0.0022    2.8971   -0.0022 C   0  0  0  0  0  0  0  0  0  0  0  0
   -0.7145    3.2028   -0.6110 H   0  0  0  0  0  0  0  0  0  0  0  0
    0.8915    3.2008   -0.3127 H   0  0  0  0  0  0  0  0  0  0  0  0
   -0.1788    3.3429    0.9758 H   0  0  0  0  0  0  0  0  0  0  0  0
   -0.0006    1.3943    0.0018 C   0  0  0  0  0  0  0  0  0  0  0  0
   -1.1911    0.6893    0.0003 C   0  0  0  0  0  0  0  0  0  0  0  0
   -2.0599    1.1805   -0.0019 H   0  0  0  0  0  0  0  0  0  0  0  0
   -1.1944   -0.6927   -0.0000 C   0  0  0  0  0  0  0  0  0  0  0  0
   -2.0736   -1.1887    0.0015 H   0  0  0  0  0  0  0  0  0  0  0  0
    0.0004   -1.3842   -0.0007 C   0  0  0  0  0  0  0  0  0  0  0  0
   -0.0045   -2.3864   -0.0017 H   0  0  0  0  0  0  0  0  0  0  0  0
    1.1944   -0.6939   -0.0000 C   0  0  0  0  0  0  0  0  0  0  0  0
    2.0777   -1.1943    0.0033 H   0  0  0  0  0  0  0  0  0  0  0  0
    1.1913    0.6872   -0.0014 C   0  0  0  0  0  0  0  0  0  0  0  0
    2.0606    1.1857   -0.0059 H   0  0  0  0  0  0  0  0  0  0  0  0
  1  5  1  0
  5  6  1  0
  5  7  2  0
  1  2  1  0
  1  3  1  0
  1  4  1  0
  8 12  1  0
 12 13  2  0
 13 15  1  0
 15 17  2  0
 17 19  1  0
 19 21  2  0
 21 12  1  0
  8  9  1  0
  8 10  1  0
  8 11  1  0
 13 14  1  0
 15 16  1  0
 17 18  1  0
 19 20  1  0
 21 22  1  0
M  CHG  1   6  -1
M  END
>  <PDB_ID>  (2003) 
pdb4um9

>  <RESIDUE_NAME>  (2003) 
GLU   PHE

>  <FRAG_NAME>  (2003) 
ACET   MBZ

>  <FRAG_ATOM_NUM>  (2003) 
fragi: 7  fragj: 15

>  <atom.prop.CHAIN_ID>  (2003) 
A A A A A A A Z Z Z Z Z Z Z Z Z Z Z Z Z Z Z

>  <atom.prop.IS_HEAVY_ATOM>  (2003) 
1 0 0 0 1 1 1 1 0 0 0 1 1 0 1 0 1 0 1 0 1 0

>  <DIFUSE_FUNC_ATOM>  (2003) 
atom 6   atom 7   

>  <FINAL_SINGLE_POINT_ENERGY>  (2003) 
0

>  <NONCOV_INTER_ENERGY_QM>  (2003) 
0

>  <FF_Energy>  (2003) 
13.83

>  <QM_Energy>  (2003) 
-2.13

>  <source>  (2003) 
ACET_MBZ_02

>  <Index>  (2003) 
10290

$$$$
ACET-pdb3utn-X-ASP-28:MBZ-pdb3utn-X-PHE-44
     RDKit          3D

 22 21  0  0  0  0  0  0  0  0999 V2000
   -4.3489    0.9755   -1.0830 C   0  0  0  0  0  0  0  0  0  0  0  0
   -4.5545    0.4126   -0.2885 H   0  0  0  0  0  0  0  0  0  0  0  0
   -3.4485    0.7485   -1.4407 H   0  0  0  0  0  0  0  0  0  0  0  0
   -5.0858    0.7540   -1.8551 H   0  0  0  0  0  0  0  0  0  0  0  0
   -4.3620    2.4214   -0.6723 C   0  0  0  0  0  0  0  0  0  0  0  0
   -5.1902    3.1879   -1.2020 O   0  0  0  0  0  1  0  0  0  0  0  0
   -3.5382    2.7882    0.1796 O   0  0  0  0  0  0  0  0  0  0  0  0
   -0.0184    2.8744    0.0336 C   0  0  0  0  0  0  0  0  0  0  0  0
   -0.7597    3.1931   -0.5323 H   0  0  0  0  0  0  0  0  0  0  0  0
    0.8542    3.2033   -0.2853 H   0  0  0  0  0  0  0  0  0  0  0  0
   -0.1752    3.2553    1.0427 H   0  0  0  0  0  0  0  0  0  0  0  0
   -0.0028    1.3908   -0.0096 C   0  0  0  0  0  0  0  0  0  0  0  0
   -1.1952    0.6838    0.0168 C   0  0  0  0  0  0  0  0  0  0  0  0
   -2.0622    1.1755    0.0472 H   0  0  0  0  0  0  0  0  0  0  0  0
   -1.1965   -0.6963    0.0000 C   0  0  0  0  0  0  0  0  0  0  0  0
   -2.0720   -1.1956   -0.0025 H   0  0  0  0  0  0  0  0  0  0  0  0
    0.0018   -1.3829   -0.0115 C   0  0  0  0  0  0  0  0  0  0  0  0
    0.0017   -2.3852   -0.0287 H   0  0  0  0  0  0  0  0  0  0  0  0
    1.1965   -0.6889   -0.0000 C   0  0  0  0  0  0  0  0  0  0  0  0
    2.0803   -1.1901    0.0071 H   0  0  0  0  0  0  0  0  0  0  0  0
    1.1962    0.6936    0.0044 C   0  0  0  0  0  0  0  0  0  0  0  0
    2.0602    1.1922    0.0168 H   0  0  0  0  0  0  0  0  0  0  0  0
  1  5  1  0
  5  6  1  0
  5  7  2  0
  1  2  1  0
  1  3  1  0
  1  4  1  0
  8 12  1  0
 12 13  2  0
 13 15  1  0
 15 17  2  0
 17 19  1  0
 19 21  2  0
 21 12  1  0
  8  9  1  0
  8 10  1  0
  8 11  1  0
 13 14  1  0
 15 16  1  0
 17 18  1  0
 19 20  1  0
 21 22  1  0
M  CHG  1   6  -1
M  END
>  <PDB_ID>  (2004) 
pdb3utn

>  <RESIDUE_NAME>  (2004) 
ASP   PHE

>  <FRAG_NAME>  (2004) 
ACET   MBZ

>  <FRAG_ATOM_NUM>  (2004) 
fragi: 7  fragj: 15

>  <atom.prop.CHAIN_ID>  (2004) 
A A A A A A A Z Z Z Z Z Z Z Z Z Z Z Z Z Z Z

>  <atom.prop.IS_HEAVY_ATOM>  (2004) 
1 0 0 0 1 1 1 1 0 0 0 1 1 0 1 0 1 0 1 0 1 0

>  <DIFUSE_FUNC_ATOM>  (2004) 
atom 6   atom 7   

>  <FINAL_SINGLE_POINT_ENERGY>  (2004) 
0

>  <NONCOV_INTER_ENERGY_QM>  (2004) 
0

>  <FF_Energy>  (2004) 
1.26

>  <QM_Energy>  (2004) 
-6.92

>  <source>  (2004) 
ACET_MBZ_02

>  <Index>  (2004) 
10439

$$$$
ACET-pdb3usu-D-ASP-62:MBZ-pdb3usu-D-PHE-240
     RDKit          3D

 22 21  0  0  0  0  0  0  0  0999 V2000
   -3.5641   -1.7650   -2.4469 C   0  0  0  0  0  0  0  0  0  0  0  0
   -2.7157   -2.2652   -2.3234 H   0  0  0  0  0  0  0  0  0  0  0  0
   -3.4017   -0.9139   -2.9294 H   0  0  0  0  0  0  0  0  0  0  0  0
   -4.2383   -2.3768   -3.0464 H   0  0  0  0  0  0  0  0  0  0  0  0
   -4.1409   -1.4447   -1.0803 C   0  0  0  0  0  0  0  0  0  0  0  0
   -4.2255   -2.3772   -0.2603 O   0  0  0  0  0  1  0  0  0  0  0  0
   -4.4867   -0.2664   -0.8361 O   0  0  0  0  0  0  0  0  0  0  0  0
    0.0128    2.8781   -0.0178 C   0  0  0  0  0  0  0  0  0  0  0  0
    0.7782    3.1899    0.5195 H   0  0  0  0  0  0  0  0  0  0  0  0
   -0.8456    3.2005    0.3433 H   0  0  0  0  0  0  0  0  0  0  0  0
    0.1248    3.2717   -1.0280 H   0  0  0  0  0  0  0  0  0  0  0  0
   -0.0003    1.3858    0.0124 C   0  0  0  0  0  0  0  0  0  0  0  0
   -1.1823    0.7015   -0.0123 C   0  0  0  0  0  0  0  0  0  0  0  0
   -2.0517    1.1884   -0.0402 H   0  0  0  0  0  0  0  0  0  0  0  0
   -1.1862   -0.6839    0.0000 C   0  0  0  0  0  0  0  0  0  0  0  0
   -2.0713   -1.1735   -0.0003 H   0  0  0  0  0  0  0  0  0  0  0  0
   -0.0025   -1.3773    0.0137 C   0  0  0  0  0  0  0  0  0  0  0  0
   -0.0113   -2.3813    0.0329 H   0  0  0  0  0  0  0  0  0  0  0  0
    1.1862   -0.6956    0.0000 C   0  0  0  0  0  0  0  0  0  0  0  0
    2.0695   -1.2029    0.0011 H   0  0  0  0  0  0  0  0  0  0  0  0
    1.1851    0.6694   -0.0138 C   0  0  0  0  0  0  0  0  0  0  0  0
    2.0573    1.1726   -0.0438 H   0  0  0  0  0  0  0  0  0  0  0  0
  1  5  1  0
  5  6  1  0
  5  7  2  0
  1  2  1  0
  1  3  1  0
  1  4  1  0
  8 12  1  0
 12 13  2  0
 13 15  1  0
 15 17  2  0
 17 19  1  0
 19 21  2  0
 21 12  1  0
  8  9  1  0
  8 10  1  0
  8 11  1  0
 13 14  1  0
 15 16  1  0
 17 18  1  0
 19 20  1  0
 21 22  1  0
M  CHG  1   6  -1
M  END
>  <PDB_ID>  (2005) 
pdb3usu

>  <RESIDUE_NAME>  (2005) 
ASP   PHE

>  <FRAG_NAME>  (2005) 
ACET   MBZ

>  <FRAG_ATOM_NUM>  (2005) 
fragi: 7  fragj: 15

>  <atom.prop.CHAIN_ID>  (2005) 
A A A A A A A Z Z Z Z Z Z Z Z Z Z Z Z Z Z Z

>  <atom.prop.IS_HEAVY_ATOM>  (2005) 
1 0 0 0 1 1 1 1 0 0 0 1 1 0 1 0 1 0 1 0 1 0

>  <DIFUSE_FUNC_ATOM>  (2005) 
atom 6   atom 7   

>  <FINAL_SINGLE_POINT_ENERGY>  (2005) 
0

>  <NONCOV_INTER_ENERGY_QM>  (2005) 
0

>  <FF_Energy>  (2005) 
-0.48

>  <QM_Energy>  (2005) 
-6.58

>  <source>  (2005) 
ACET_MBZ_02

>  <Index>  (2005) 
10460

$$$$
ACET-pdb3usu-E-ASP-62:MBZ-pdb3usu-E-PHE-240
     RDKit          3D

 22 21  0  0  0  0  0  0  0  0999 V2000
   -3.9567   -1.6013   -2.2718 C   0  0  0  0  0  0  0  0  0  0  0  0
   -3.1908   -2.2238   -2.1387 H   0  0  0  0  0  0  0  0  0  0  0  0
   -3.6993   -0.8693   -2.8943 H   0  0  0  0  0  0  0  0  0  0  0  0
   -4.7708   -2.1630   -2.7300 H   0  0  0  0  0  0  0  0  0  0  0  0
   -4.3428   -1.0093   -0.9516 C   0  0  0  0  0  0  0  0  0  0  0  0
   -4.1587   -1.7037    0.0706 O   0  0  0  0  0  1  0  0  0  0  0  0
   -4.8651    0.1345   -0.9287 O   0  0  0  0  0  0  0  0  0  0  0  0
    0.0080    2.8730   -0.0464 C   0  0  0  0  0  0  0  0  0  0  0  0
    0.7871    3.2010    0.4611 H   0  0  0  0  0  0  0  0  0  0  0  0
   -0.8409    3.2040    0.3297 H   0  0  0  0  0  0  0  0  0  0  0  0
    0.0911    3.2502   -1.0657 H   0  0  0  0  0  0  0  0  0  0  0  0
    0.0004    1.3892    0.0088 C   0  0  0  0  0  0  0  0  0  0  0  0
   -1.1865    0.6953   -0.0017 C   0  0  0  0  0  0  0  0  0  0  0  0
   -2.0546    1.1886   -0.0121 H   0  0  0  0  0  0  0  0  0  0  0  0
   -1.1908   -0.6817   -0.0000 C   0  0  0  0  0  0  0  0  0  0  0  0
   -2.0733   -1.1774    0.0107 H   0  0  0  0  0  0  0  0  0  0  0  0
   -0.0024   -1.3792   -0.0113 C   0  0  0  0  0  0  0  0  0  0  0  0
   -0.0160   -2.3831   -0.0277 H   0  0  0  0  0  0  0  0  0  0  0  0
    1.1908   -0.7004    0.0000 C   0  0  0  0  0  0  0  0  0  0  0  0
    2.0717   -1.2030    0.0066 H   0  0  0  0  0  0  0  0  0  0  0  0
    1.1886    0.6768    0.0042 C   0  0  0  0  0  0  0  0  0  0  0  0
    2.0612    1.1757    0.0035 H   0  0  0  0  0  0  0  0  0  0  0  0
  1  5  1  0
  5  6  1  0
  5  7  2  0
  1  2  1  0
  1  3  1  0
  1  4  1  0
  8 12  1  0
 12 13  2  0
 13 15  1  0
 15 17  2  0
 17 19  1  0
 19 21  2  0
 21 12  1  0
  8  9  1  0
  8 10  1  0
  8 11  1  0
 13 14  1  0
 15 16  1  0
 17 18  1  0
 19 20  1  0
 21 22  1  0
M  CHG  1   6  -1
M  END
>  <PDB_ID>  (2006) 
pdb3usu

>  <RESIDUE_NAME>  (2006) 
ASP   PHE

>  <FRAG_NAME>  (2006) 
ACET   MBZ

>  <FRAG_ATOM_NUM>  (2006) 
fragi: 7  fragj: 15

>  <atom.prop.CHAIN_ID>  (2006) 
A A A A A A A Z Z Z Z Z Z Z Z Z Z Z Z Z Z Z

>  <atom.prop.IS_HEAVY_ATOM>  (2006) 
1 0 0 0 1 1 1 1 0 0 0 1 1 0 1 0 1 0 1 0 1 0

>  <DIFUSE_FUNC_ATOM>  (2006) 
atom 6   atom 7   

>  <FINAL_SINGLE_POINT_ENERGY>  (2006) 
0

>  <NONCOV_INTER_ENERGY_QM>  (2006) 
0

>  <FF_Energy>  (2006) 
0.56

>  <QM_Energy>  (2006) 
-6.57

>  <source>  (2006) 
ACET_MBZ_02

>  <Index>  (2006) 
10461

$$$$
ACET-pdb4ure-A-GLU-218:MBZ-pdb4ure-B-PHE-233
     RDKit          3D

 22 21  0  0  0  0  0  0  0  0999 V2000
   -0.7670    5.2992   -3.2295 C   0  0  0  0  0  0  0  0  0  0  0  0
   -1.0953    6.1523   -2.8437 H   0  0  0  0  0  0  0  0  0  0  0  0
   -0.7967    5.3296   -4.2213 H   0  0  0  0  0  0  0  0  0  0  0  0
    0.2668    5.1525   -2.9165 H   0  0  0  0  0  0  0  0  0  0  0  0
   -1.7168    4.2107   -2.7866 C   0  0  0  0  0  0  0  0  0  0  0  0
   -1.4614    3.0483   -3.1333 O   0  0  0  0  0  1  0  0  0  0  0  0
   -2.7072    4.5044   -2.0782 O   0  0  0  0  0  0  0  0  0  0  0  0
    0.0227    2.9151    0.1177 C   0  0  0  0  0  0  0  0  0  0  0  0
   -0.3912    3.2440   -0.7093 H   0  0  0  0  0  0  0  0  0  0  0  0
    0.9554    3.2057    0.2135 H   0  0  0  0  0  0  0  0  0  0  0  0
   -0.5429    3.3132    0.9602 H   0  0  0  0  0  0  0  0  0  0  0  0
    0.0091    1.4000    0.0737 C   0  0  0  0  0  0  0  0  0  0  0  0
   -1.1764    0.6779   -0.0065 C   0  0  0  0  0  0  0  0  0  0  0  0
   -2.0470    1.1728   -0.0719 H   0  0  0  0  0  0  0  0  0  0  0  0
   -1.1852   -0.7008   -0.0000 C   0  0  0  0  0  0  0  0  0  0  0  0
   -2.0682   -1.1905    0.0619 H   0  0  0  0  0  0  0  0  0  0  0  0
   -0.0070   -1.3890   -0.0759 C   0  0  0  0  0  0  0  0  0  0  0  0
   -0.0020   -2.3809   -0.1843 H   0  0  0  0  0  0  0  0  0  0  0  0
    1.1852   -0.6906    0.0000 C   0  0  0  0  0  0  0  0  0  0  0  0
    2.0690   -1.1823    0.0508 H   0  0  0  0  0  0  0  0  0  0  0  0
    1.1743    0.7025    0.0087 C   0  0  0  0  0  0  0  0  0  0  0  0
    2.0563    1.1897   -0.0355 H   0  0  0  0  0  0  0  0  0  0  0  0
  1  5  1  0
  5  6  1  0
  5  7  2  0
  1  2  1  0
  1  3  1  0
  1  4  1  0
  8 12  1  0
 12 13  2  0
 13 15  1  0
 15 17  2  0
 17 19  1  0
 19 21  2  0
 21 12  1  0
  8  9  1  0
  8 10  1  0
  8 11  1  0
 13 14  1  0
 15 16  1  0
 17 18  1  0
 19 20  1  0
 21 22  1  0
M  CHG  1   6  -1
M  END
>  <PDB_ID>  (2007) 
pdb4ure

>  <RESIDUE_NAME>  (2007) 
GLU   PHE

>  <FRAG_NAME>  (2007) 
ACET   MBZ

>  <FRAG_ATOM_NUM>  (2007) 
fragi: 7  fragj: 15

>  <atom.prop.CHAIN_ID>  (2007) 
A A A A A A A Z Z Z Z Z Z Z Z Z Z Z Z Z Z Z

>  <atom.prop.IS_HEAVY_ATOM>  (2007) 
1 0 0 0 1 1 1 1 0 0 0 1 1 0 1 0 1 0 1 0 1 0

>  <DIFUSE_FUNC_ATOM>  (2007) 
atom 6   atom 7   

>  <FINAL_SINGLE_POINT_ENERGY>  (2007) 
0

>  <NONCOV_INTER_ENERGY_QM>  (2007) 
0

>  <FF_Energy>  (2007) 
-0.19

>  <QM_Energy>  (2007) 
-5.36

>  <source>  (2007) 
ACET_MBZ_02

>  <Index>  (2007) 
10477

$$$$
ACET-pdb4uwo-B-ASP-199:MBZ-pdb4uwo-B-PHE-117
     RDKit          3D

 22 21  0  0  0  0  0  0  0  0999 V2000
   -5.4744    2.6612    1.9776 C   0  0  0  0  0  0  0  0  0  0  0  0
   -5.5174    3.6256    2.0667 H   0  0  0  0  0  0  0  0  0  0  0  0
   -5.1295    2.2690    2.7945 H   0  0  0  0  0  0  0  0  0  0  0  0
   -6.4782    2.2772    1.7962 H   0  0  0  0  0  0  0  0  0  0  0  0
   -4.5034    2.3393    0.8599 C   0  0  0  0  0  0  0  0  0  0  0  0
   -4.5514    1.2213    0.2859 O   0  0  0  0  0  1  0  0  0  0  0  0
   -3.6794    3.2231    0.5648 O   0  0  0  0  0  0  0  0  0  0  0  0
    0.0027    2.9249    0.0418 C   0  0  0  0  0  0  0  0  0  0  0  0
    0.8708    3.2014    0.3752 H   0  0  0  0  0  0  0  0  0  0  0  0
   -0.6890    3.2088    0.6593 H   0  0  0  0  0  0  0  0  0  0  0  0
   -0.1704    3.4079   -0.9199 H   0  0  0  0  0  0  0  0  0  0  0  0
   -0.0116    1.4074    0.0011 C   0  0  0  0  0  0  0  0  0  0  0  0
   -1.1896    0.7001    0.0113 C   0  0  0  0  0  0  0  0  0  0  0  0
   -2.0004    1.1573    0.0182 H   0  0  0  0  0  0  0  0  0  0  0  0
   -1.1857   -0.7047    0.0000 C   0  0  0  0  0  0  0  0  0  0  0  0
   -1.9886   -1.1730   -0.0018 H   0  0  0  0  0  0  0  0  0  0  0  0
    0.0172   -1.3882   -0.0104 C   0  0  0  0  0  0  0  0  0  0  0  0
    0.0233   -2.3184   -0.0189 H   0  0  0  0  0  0  0  0  0  0  0  0
    1.1857   -0.7014   -0.0000 C   0  0  0  0  0  0  0  0  0  0  0  0
    1.9931   -1.1628   -0.0138 H   0  0  0  0  0  0  0  0  0  0  0  0
    1.1840    0.6869   -0.0019 C   0  0  0  0  0  0  0  0  0  0  0  0
    1.9928    1.1451    0.0051 H   0  0  0  0  0  0  0  0  0  0  0  0
  1  5  1  0
  5  6  1  0
  5  7  2  0
  1  2  1  0
  1  3  1  0
  1  4  1  0
  8 12  1  0
 12 13  2  0
 13 15  1  0
 15 17  2  0
 17 19  1  0
 19 21  2  0
 21 12  1  0
  8  9  1  0
  8 10  1  0
  8 11  1  0
 13 14  1  0
 15 16  1  0
 17 18  1  0
 19 20  1  0
 21 22  1  0
M  CHG  1   6  -1
M  END
>  <PDB_ID>  (2008) 
pdb4uwo

>  <RESIDUE_NAME>  (2008) 
ASP   PHE

>  <FRAG_NAME>  (2008) 
ACET   MBZ

>  <FRAG_ATOM_NUM>  (2008) 
fragi: 7  fragj: 15

>  <atom.prop.CHAIN_ID>  (2008) 
A A A A A A A Z Z Z Z Z Z Z Z Z Z Z Z Z Z Z

>  <atom.prop.IS_HEAVY_ATOM>  (2008) 
1 0 0 0 1 1 1 1 0 0 0 1 1 0 1 0 1 0 1 0 1 0

>  <DIFUSE_FUNC_ATOM>  (2008) 
atom 6   atom 7   

>  <FINAL_SINGLE_POINT_ENERGY>  (2008) 
0

>  <NONCOV_INTER_ENERGY_QM>  (2008) 
0

>  <FF_Energy>  (2008) 
-2.94

>  <QM_Energy>  (2008) 
-8.6

>  <source>  (2008) 
ACET_MBZ_02

>  <Index>  (2008) 
10650

$$$$
ACET-pdb3uyy-B-GLU-64:MBZ-pdb3uyy-A-PHE-168
     RDKit          3D

 22 21  0  0  0  0  0  0  0  0999 V2000
    1.2920    0.1988   -3.5394 C   0  0  0  0  0  0  0  0  0  0  0  0
    0.8169   -0.3548   -4.1917 H   0  0  0  0  0  0  0  0  0  0  0  0
    1.2872   -0.1827   -2.6377 H   0  0  0  0  0  0  0  0  0  0  0  0
    2.3272    0.3005   -3.8650 H   0  0  0  0  0  0  0  0  0  0  0  0
    0.5553    1.5505   -3.4662 C   0  0  0  0  0  0  0  0  0  0  0  0
    1.0987    2.5032   -2.8663 O   0  0  0  0  0  1  0  0  0  0  0  0
   -0.5673    1.6590   -4.0036 O   0  0  0  0  0  0  0  0  0  0  0  0
    0.0022    2.9160   -0.0806 C   0  0  0  0  0  0  0  0  0  0  0  0
   -0.7063    3.1912   -0.7183 H   0  0  0  0  0  0  0  0  0  0  0  0
    0.8957    3.2025   -0.4031 H   0  0  0  0  0  0  0  0  0  0  0  0
   -0.1870    3.4280    0.8629 H   0  0  0  0  0  0  0  0  0  0  0  0
   -0.0020    1.4090   -0.0016 C   0  0  0  0  0  0  0  0  0  0  0  0
   -1.1986    0.6984    0.0014 C   0  0  0  0  0  0  0  0  0  0  0  0
   -2.0666    1.1857    0.0029 H   0  0  0  0  0  0  0  0  0  0  0  0
   -1.2025   -0.6977    0.0000 C   0  0  0  0  0  0  0  0  0  0  0  0
   -2.0793   -1.1901    0.0013 H   0  0  0  0  0  0  0  0  0  0  0  0
    0.0012   -1.3988   -0.0022 C   0  0  0  0  0  0  0  0  0  0  0  0
   -0.0070   -2.3969   -0.0061 H   0  0  0  0  0  0  0  0  0  0  0  0
    1.2025   -0.7049    0.0000 C   0  0  0  0  0  0  0  0  0  0  0  0
    2.0834   -1.1998    0.0013 H   0  0  0  0  0  0  0  0  0  0  0  0
    1.1994    0.6940    0.0023 C   0  0  0  0  0  0  0  0  0  0  0  0
    2.0673    1.1877    0.0064 H   0  0  0  0  0  0  0  0  0  0  0  0
  1  5  1  0
  5  6  1  0
  5  7  2  0
  1  2  1  0
  1  3  1  0
  1  4  1  0
  8 12  1  0
 12 13  2  0
 13 15  1  0
 15 17  2  0
 17 19  1  0
 19 21  2  0
 21 12  1  0
  8  9  1  0
  8 10  1  0
  8 11  1  0
 13 14  1  0
 15 16  1  0
 17 18  1  0
 19 20  1  0
 21 22  1  0
M  CHG  1   6  -1
M  END
>  <PDB_ID>  (2009) 
pdb3uyy

>  <RESIDUE_NAME>  (2009) 
GLU   PHE

>  <FRAG_NAME>  (2009) 
ACET   MBZ

>  <FRAG_ATOM_NUM>  (2009) 
fragi: 7  fragj: 15

>  <atom.prop.CHAIN_ID>  (2009) 
A A A A A A A Z Z Z Z Z Z Z Z Z Z Z Z Z Z Z

>  <atom.prop.IS_HEAVY_ATOM>  (2009) 
1 0 0 0 1 1 1 1 0 0 0 1 1 0 1 0 1 0 1 0 1 0

>  <DIFUSE_FUNC_ATOM>  (2009) 
atom 6   atom 7   

>  <FINAL_SINGLE_POINT_ENERGY>  (2009) 
0

>  <NONCOV_INTER_ENERGY_QM>  (2009) 
0

>  <FF_Energy>  (2009) 
-2.67

>  <QM_Energy>  (2009) 
-4.84

>  <source>  (2009) 
ACET_MBZ_02

>  <Index>  (2009) 
10703

$$$$
ACET-pdb4uzy-A-GLU-570:MBZ-pdb4uzy-A-PHE-532
     RDKit          3D

 22 21  0  0  0  0  0  0  0  0999 V2000
    3.0356    1.0977   -4.2993 C   0  0  0  0  0  0  0  0  0  0  0  0
    3.6384    0.3489   -4.5758 H   0  0  0  0  0  0  0  0  0  0  0  0
    3.5418    1.9593   -4.3283 H   0  0  0  0  0  0  0  0  0  0  0  0
    2.2296    1.1602   -5.0304 H   0  0  0  0  0  0  0  0  0  0  0  0
    2.6283    0.8560   -2.8782 C   0  0  0  0  0  0  0  0  0  0  0  0
    1.4686    0.7279   -2.5136 O   0  0  0  0  0  1  0  0  0  0  0  0
    3.6077    0.8105   -2.1058 O   0  0  0  0  0  0  0  0  0  0  0  0
    0.0028    2.8959    0.0178 C   0  0  0  0  0  0  0  0  0  0  0  0
   -0.7905    3.2117   -0.4757 H   0  0  0  0  0  0  0  0  0  0  0  0
    0.8410    3.2078   -0.3973 H   0  0  0  0  0  0  0  0  0  0  0  0
   -0.0443    3.3018    1.0283 H   0  0  0  0  0  0  0  0  0  0  0  0
    0.0005    1.3989   -0.0069 C   0  0  0  0  0  0  0  0  0  0  0  0
   -1.1952    0.6902    0.0091 C   0  0  0  0  0  0  0  0  0  0  0  0
   -2.0616    1.1806    0.0262 H   0  0  0  0  0  0  0  0  0  0  0  0
   -1.1988   -0.6979    0.0000 C   0  0  0  0  0  0  0  0  0  0  0  0
   -2.0750   -1.1930   -0.0006 H   0  0  0  0  0  0  0  0  0  0  0  0
    0.0011   -1.3895   -0.0068 C   0  0  0  0  0  0  0  0  0  0  0  0
   -0.0014   -2.3901   -0.0170 H   0  0  0  0  0  0  0  0  0  0  0  0
    1.1988   -0.6941   -0.0000 C   0  0  0  0  0  0  0  0  0  0  0  0
    2.0812   -1.1922    0.0027 H   0  0  0  0  0  0  0  0  0  0  0  0
    1.1936    0.6926    0.0046 C   0  0  0  0  0  0  0  0  0  0  0  0
    2.0627    1.1904    0.0156 H   0  0  0  0  0  0  0  0  0  0  0  0
  1  5  1  0
  5  6  1  0
  5  7  2  0
  1  2  1  0
  1  3  1  0
  1  4  1  0
  8 12  1  0
 12 13  2  0
 13 15  1  0
 15 17  2  0
 17 19  1  0
 19 21  2  0
 21 12  1  0
  8  9  1  0
  8 10  1  0
  8 11  1  0
 13 14  1  0
 15 16  1  0
 17 18  1  0
 19 20  1  0
 21 22  1  0
M  CHG  1   6  -1
M  END
>  <PDB_ID>  (2010) 
pdb4uzy

>  <RESIDUE_NAME>  (2010) 
GLU   PHE

>  <FRAG_NAME>  (2010) 
ACET   MBZ

>  <FRAG_ATOM_NUM>  (2010) 
fragi: 7  fragj: 15

>  <atom.prop.CHAIN_ID>  (2010) 
A A A A A A A Z Z Z Z Z Z Z Z Z Z Z Z Z Z Z

>  <atom.prop.IS_HEAVY_ATOM>  (2010) 
1 0 0 0 1 1 1 1 0 0 0 1 1 0 1 0 1 0 1 0 1 0

>  <DIFUSE_FUNC_ATOM>  (2010) 
atom 6   atom 7   

>  <FINAL_SINGLE_POINT_ENERGY>  (2010) 
0

>  <NONCOV_INTER_ENERGY_QM>  (2010) 
0

>  <FF_Energy>  (2010) 
12.09

>  <QM_Energy>  (2010) 
0.47

>  <source>  (2010) 
ACET_MBZ_02

>  <Index>  (2010) 
10776

$$$$
ACET-pdb3uw3-B-GLU-173:MBZ-pdb3uw3-B-PHE-217
     RDKit          3D

 22 21  0  0  0  0  0  0  0  0999 V2000
    5.1857    1.4364   -1.3917 C   0  0  0  0  0  0  0  0  0  0  0  0
    4.9056    1.2420   -0.4695 H   0  0  0  0  0  0  0  0  0  0  0  0
    6.1113    1.7671   -1.4375 H   0  0  0  0  0  0  0  0  0  0  0  0
    5.1278    0.5107   -1.9641 H   0  0  0  0  0  0  0  0  0  0  0  0
    4.2809    2.5200   -1.9320 C   0  0  0  0  0  0  0  0  0  0  0  0
    4.6374    3.1025   -2.9878 O   0  0  0  0  0  1  0  0  0  0  0  0
    3.2439    2.8264   -1.2936 O   0  0  0  0  0  0  0  0  0  0  0  0
   -0.0333    2.8899    0.0469 C   0  0  0  0  0  0  0  0  0  0  0  0
    0.8794    3.2123    0.2403 H   0  0  0  0  0  0  0  0  0  0  0  0
   -0.6730    3.1716    0.7440 H   0  0  0  0  0  0  0  0  0  0  0  0
   -0.3507    3.3402   -0.8936 H   0  0  0  0  0  0  0  0  0  0  0  0
   -0.0037    1.3897    0.0148 C   0  0  0  0  0  0  0  0  0  0  0  0
   -1.2014    0.6778    0.0126 C   0  0  0  0  0  0  0  0  0  0  0  0
   -2.0666    1.1705    0.0188 H   0  0  0  0  0  0  0  0  0  0  0  0
   -1.1972   -0.7008    0.0000 C   0  0  0  0  0  0  0  0  0  0  0  0
   -2.0673   -1.2044    0.0079 H   0  0  0  0  0  0  0  0  0  0  0  0
    0.0036   -1.3664   -0.0217 C   0  0  0  0  0  0  0  0  0  0  0  0
    0.0044   -2.3808   -0.0556 H   0  0  0  0  0  0  0  0  0  0  0  0
    1.1972   -0.6894   -0.0000 C   0  0  0  0  0  0  0  0  0  0  0  0
    2.0780   -1.1940    0.0215 H   0  0  0  0  0  0  0  0  0  0  0  0
    1.2016    0.6891   -0.0057 C   0  0  0  0  0  0  0  0  0  0  0  0
    2.0616    1.1908   -0.0250 H   0  0  0  0  0  0  0  0  0  0  0  0
  1  5  1  0
  5  6  1  0
  5  7  2  0
  1  2  1  0
  1  3  1  0
  1  4  1  0
  8 12  1  0
 12 13  2  0
 13 15  1  0
 15 17  2  0
 17 19  1  0
 19 21  2  0
 21 12  1  0
  8  9  1  0
  8 10  1  0
  8 11  1  0
 13 14  1  0
 15 16  1  0
 17 18  1  0
 19 20  1  0
 21 22  1  0
M  CHG  1   6  -1
M  END
>  <PDB_ID>  (2011) 
pdb3uw3

>  <RESIDUE_NAME>  (2011) 
GLU   PHE

>  <FRAG_NAME>  (2011) 
ACET   MBZ

>  <FRAG_ATOM_NUM>  (2011) 
fragi: 7  fragj: 15

>  <atom.prop.CHAIN_ID>  (2011) 
A A A A A A A Z Z Z Z Z Z Z Z Z Z Z Z Z Z Z

>  <atom.prop.IS_HEAVY_ATOM>  (2011) 
1 0 0 0 1 1 1 1 0 0 0 1 1 0 1 0 1 0 1 0 1 0

>  <DIFUSE_FUNC_ATOM>  (2011) 
atom 6   atom 7   

>  <FINAL_SINGLE_POINT_ENERGY>  (2011) 
0

>  <NONCOV_INTER_ENERGY_QM>  (2011) 
0

>  <FF_Energy>  (2011) 
-1.32

>  <QM_Energy>  (2011) 
-6.72

>  <source>  (2011) 
ACET_MBZ_02

>  <Index>  (2011) 
10795

$$$$
ACET-pdb4v1r-A-GLU-71:MBZ-pdb4v1r-A-PHE-80
     RDKit          3D

 22 21  0  0  0  0  0  0  0  0999 V2000
    4.3529    0.5825   -2.4714 C   0  0  0  0  0  0  0  0  0  0  0  0
    3.7625   -0.1527   -2.1738 H   0  0  0  0  0  0  0  0  0  0  0  0
    5.3066    0.3451   -2.3599 H   0  0  0  0  0  0  0  0  0  0  0  0
    4.1712    0.7463   -3.5336 H   0  0  0  0  0  0  0  0  0  0  0  0
    4.0725    1.7895   -1.5676 C   0  0  0  0  0  0  0  0  0  0  0  0
    3.3108    2.6865   -1.9671 O   0  0  0  0  0  1  0  0  0  0  0  0
    4.6485    1.8792   -0.4443 O   0  0  0  0  0  0  0  0  0  0  0  0
   -0.0069    2.8830    0.0335 C   0  0  0  0  0  0  0  0  0  0  0  0
    0.9166    3.1863    0.2133 H   0  0  0  0  0  0  0  0  0  0  0  0
   -0.6279    3.1795    0.7425 H   0  0  0  0  0  0  0  0  0  0  0  0
   -0.3315    3.3274   -0.9074 H   0  0  0  0  0  0  0  0  0  0  0  0
   -0.0086    1.3907    0.0102 C   0  0  0  0  0  0  0  0  0  0  0  0
   -1.1889    0.6869    0.0022 C   0  0  0  0  0  0  0  0  0  0  0  0
   -2.0637    1.1693   -0.0036 H   0  0  0  0  0  0  0  0  0  0  0  0
   -1.1903   -0.7041    0.0000 C   0  0  0  0  0  0  0  0  0  0  0  0
   -2.0670   -1.1957    0.0157 H   0  0  0  0  0  0  0  0  0  0  0  0
    0.0015   -1.3755   -0.0223 C   0  0  0  0  0  0  0  0  0  0  0  0
    0.0052   -2.3847   -0.0560 H   0  0  0  0  0  0  0  0  0  0  0  0
    1.1903   -0.6895    0.0000 C   0  0  0  0  0  0  0  0  0  0  0  0
    2.0759   -1.1921    0.0112 H   0  0  0  0  0  0  0  0  0  0  0  0
    1.1961    0.6916    0.0100 C   0  0  0  0  0  0  0  0  0  0  0  0
    2.0565    1.1911    0.0161 H   0  0  0  0  0  0  0  0  0  0  0  0
  1  5  1  0
  5  6  1  0
  5  7  2  0
  1  2  1  0
  1  3  1  0
  1  4  1  0
  8 12  1  0
 12 13  2  0
 13 15  1  0
 15 17  2  0
 17 19  1  0
 19 21  2  0
 21 12  1  0
  8  9  1  0
  8 10  1  0
  8 11  1  0
 13 14  1  0
 15 16  1  0
 17 18  1  0
 19 20  1  0
 21 22  1  0
M  CHG  1   6  -1
M  END
>  <PDB_ID>  (2012) 
pdb4v1r

>  <RESIDUE_NAME>  (2012) 
GLU   PHE

>  <FRAG_NAME>  (2012) 
ACET   MBZ

>  <FRAG_ATOM_NUM>  (2012) 
fragi: 7  fragj: 15

>  <atom.prop.CHAIN_ID>  (2012) 
A A A A A A A Z Z Z Z Z Z Z Z Z Z Z Z Z Z Z

>  <atom.prop.IS_HEAVY_ATOM>  (2012) 
1 0 0 0 1 1 1 1 0 0 0 1 1 0 1 0 1 0 1 0 1 0

>  <DIFUSE_FUNC_ATOM>  (2012) 
atom 6   atom 7   

>  <FINAL_SINGLE_POINT_ENERGY>  (2012) 
0

>  <NONCOV_INTER_ENERGY_QM>  (2012) 
0

>  <FF_Energy>  (2012) 
-2.12

>  <QM_Energy>  (2012) 
-7.15

>  <source>  (2012) 
ACET_MBZ_02

>  <Index>  (2012) 
10907

$$$$
ACET-pdb3v4d-A-ASP-47:MBZ-pdb3v4d-A-PHE-44
     RDKit          3D

 22 21  0  0  0  0  0  0  0  0999 V2000
   -1.2368    5.7786    3.2286 C   0  0  0  0  0  0  0  0  0  0  0  0
   -1.8943    6.1324    3.8899 H   0  0  0  0  0  0  0  0  0  0  0  0
   -1.6708    5.6842    2.3364 H   0  0  0  0  0  0  0  0  0  0  0  0
   -0.4561    6.5321    3.1234 H   0  0  0  0  0  0  0  0  0  0  0  0
   -0.7210    4.4664    3.6817 C   0  0  0  0  0  0  0  0  0  0  0  0
   -0.7210    3.5287    2.8537 O   0  0  0  0  0  1  0  0  0  0  0  0
   -0.2539    4.3582    4.8234 O   0  0  0  0  0  0  0  0  0  0  0  0
    0.0099    2.9151    0.0027 C   0  0  0  0  0  0  0  0  0  0  0  0
    0.9551    3.2085   -0.0077 H   0  0  0  0  0  0  0  0  0  0  0  0
   -0.4490    3.2153    0.8263 H   0  0  0  0  0  0  0  0  0  0  0  0
   -0.4934    3.3748   -0.8478 H   0  0  0  0  0  0  0  0  0  0  0  0
   -0.0032    1.4008   -0.0071 C   0  0  0  0  0  0  0  0  0  0  0  0
   -1.1885    0.7019    0.0101 C   0  0  0  0  0  0  0  0  0  0  0  0
   -2.0601    1.1925    0.0290 H   0  0  0  0  0  0  0  0  0  0  0  0
   -1.2053   -0.6890    0.0000 C   0  0  0  0  0  0  0  0  0  0  0  0
   -2.0847   -1.1750   -0.0053 H   0  0  0  0  0  0  0  0  0  0  0  0
   -0.0097   -1.3894   -0.0001 C   0  0  0  0  0  0  0  0  0  0  0  0
   -0.0168   -2.3903   -0.0010 H   0  0  0  0  0  0  0  0  0  0  0  0
    1.2053   -0.7040   -0.0000 C   0  0  0  0  0  0  0  0  0  0  0  0
    2.0765   -1.2111    0.0035 H   0  0  0  0  0  0  0  0  0  0  0  0
    1.2015    0.6796   -0.0028 C   0  0  0  0  0  0  0  0  0  0  0  0
    2.0671    1.1821   -0.0030 H   0  0  0  0  0  0  0  0  0  0  0  0
  1  5  1  0
  5  6  1  0
  5  7  2  0
  1  2  1  0
  1  3  1  0
  1  4  1  0
  8 12  1  0
 12 13  2  0
 13 15  1  0
 15 17  2  0
 17 19  1  0
 19 21  2  0
 21 12  1  0
  8  9  1  0
  8 10  1  0
  8 11  1  0
 13 14  1  0
 15 16  1  0
 17 18  1  0
 19 20  1  0
 21 22  1  0
M  CHG  1   6  -1
M  END
>  <PDB_ID>  (2013) 
pdb3v4d

>  <RESIDUE_NAME>  (2013) 
ASP   PHE

>  <FRAG_NAME>  (2013) 
ACET   MBZ

>  <FRAG_ATOM_NUM>  (2013) 
fragi: 7  fragj: 15

>  <atom.prop.CHAIN_ID>  (2013) 
A A A A A A A Z Z Z Z Z Z Z Z Z Z Z Z Z Z Z

>  <atom.prop.IS_HEAVY_ATOM>  (2013) 
1 0 0 0 1 1 1 1 0 0 0 1 1 0 1 0 1 0 1 0 1 0

>  <DIFUSE_FUNC_ATOM>  (2013) 
atom 6   atom 7   

>  <FINAL_SINGLE_POINT_ENERGY>  (2013) 
0

>  <NONCOV_INTER_ENERGY_QM>  (2013) 
0

>  <FF_Energy>  (2013) 
4.81

>  <QM_Energy>  (2013) 
-4.4

>  <source>  (2013) 
ACET_MBZ_02

>  <Index>  (2013) 
10918

$$$$
ACET-pdb3v4c-B-GLU-100:MBZ-pdb3v4c-B-PHE-158
     RDKit          3D

 22 21  0  0  0  0  0  0  0  0999 V2000
    4.8608    2.1416    1.9738 C   0  0  0  0  0  0  0  0  0  0  0  0
    5.3585    2.9777    1.8583 H   0  0  0  0  0  0  0  0  0  0  0  0
    4.8607    1.5858    1.1670 H   0  0  0  0  0  0  0  0  0  0  0  0
    5.3373    1.5749    2.7738 H   0  0  0  0  0  0  0  0  0  0  0  0
    3.4105    2.5048    2.2860 C   0  0  0  0  0  0  0  0  0  0  0  0
    2.8354    1.8409    3.1615 O   0  0  0  0  0  1  0  0  0  0  0  0
    2.8980    3.4362    1.6177 O   0  0  0  0  0  0  0  0  0  0  0  0
    0.0195    2.8761    0.0778 C   0  0  0  0  0  0  0  0  0  0  0  0
   -0.6544    3.2372   -0.5394 H   0  0  0  0  0  0  0  0  0  0  0  0
    0.9242    3.2014   -0.1242 H   0  0  0  0  0  0  0  0  0  0  0  0
   -0.2346    3.2325    1.0761 H   0  0  0  0  0  0  0  0  0  0  0  0
    0.0074    1.4014   -0.0032 C   0  0  0  0  0  0  0  0  0  0  0  0
   -1.2074    0.7060   -0.0134 C   0  0  0  0  0  0  0  0  0  0  0  0
   -2.0638    1.1991   -0.0314 H   0  0  0  0  0  0  0  0  0  0  0  0
   -1.2182   -0.6967    0.0000 C   0  0  0  0  0  0  0  0  0  0  0  0
   -2.0949   -1.1824   -0.0015 H   0  0  0  0  0  0  0  0  0  0  0  0
   -0.0142   -1.3978    0.0169 C   0  0  0  0  0  0  0  0  0  0  0  0
   -0.0152   -2.3951    0.0405 H   0  0  0  0  0  0  0  0  0  0  0  0
    1.2182   -0.7038    0.0000 C   0  0  0  0  0  0  0  0  0  0  0  0
    2.0824   -1.2110   -0.0106 H   0  0  0  0  0  0  0  0  0  0  0  0
    1.2142    0.6909   -0.0003 C   0  0  0  0  0  0  0  0  0  0  0  0
    2.0771    1.1889    0.0011 H   0  0  0  0  0  0  0  0  0  0  0  0
  1  5  1  0
  5  6  1  0
  5  7  2  0
  1  2  1  0
  1  3  1  0
  1  4  1  0
  8 12  1  0
 12 13  2  0
 13 15  1  0
 15 17  2  0
 17 19  1  0
 19 21  2  0
 21 12  1  0
  8  9  1  0
  8 10  1  0
  8 11  1  0
 13 14  1  0
 15 16  1  0
 17 18  1  0
 19 20  1  0
 21 22  1  0
M  CHG  1   6  -1
M  END
>  <PDB_ID>  (2014) 
pdb3v4c

>  <RESIDUE_NAME>  (2014) 
GLU   PHE

>  <FRAG_NAME>  (2014) 
ACET   MBZ

>  <FRAG_ATOM_NUM>  (2014) 
fragi: 7  fragj: 15

>  <atom.prop.CHAIN_ID>  (2014) 
A A A A A A A Z Z Z Z Z Z Z Z Z Z Z Z Z Z Z

>  <atom.prop.IS_HEAVY_ATOM>  (2014) 
1 0 0 0 1 1 1 1 0 0 0 1 1 0 1 0 1 0 1 0 1 0

>  <DIFUSE_FUNC_ATOM>  (2014) 
atom 6   atom 7   

>  <FINAL_SINGLE_POINT_ENERGY>  (2014) 
0

>  <NONCOV_INTER_ENERGY_QM>  (2014) 
0

>  <FF_Energy>  (2014) 
1.74

>  <QM_Energy>  (2014) 
-5.93

>  <source>  (2014) 
ACET_MBZ_02

>  <Index>  (2014) 
10931

$$$$
ACET-pdb3v4y-E-ASP-10:MBZ-pdb3v4y-D-PHE-169
     RDKit          3D

 22 21  0  0  0  0  0  0  0  0999 V2000
   -4.0131    0.3735   -2.2068 C   0  0  0  0  0  0  0  0  0  0  0  0
   -3.1731    0.8582   -2.1785 H   0  0  0  0  0  0  0  0  0  0  0  0
   -4.7304    0.9690   -2.4728 H   0  0  0  0  0  0  0  0  0  0  0  0
   -3.9323   -0.4334   -2.9351 H   0  0  0  0  0  0  0  0  0  0  0  0
   -4.3159   -0.1355   -0.7901 C   0  0  0  0  0  0  0  0  0  0  0  0
   -4.2986   -1.3694   -0.5683 O   0  0  0  0  0  1  0  0  0  0  0  0
   -4.5778    0.7016    0.1052 O   0  0  0  0  0  0  0  0  0  0  0  0
    0.0071    2.9022    0.0184 C   0  0  0  0  0  0  0  0  0  0  0  0
   -0.7934    3.2156   -0.4295 H   0  0  0  0  0  0  0  0  0  0  0  0
    0.7960    3.2086   -0.4568 H   0  0  0  0  0  0  0  0  0  0  0  0
    0.0262    3.3023    1.0321 H   0  0  0  0  0  0  0  0  0  0  0  0
   -0.0000    1.3985   -0.0123 C   0  0  0  0  0  0  0  0  0  0  0  0
   -1.1972    0.6925    0.0050 C   0  0  0  0  0  0  0  0  0  0  0  0
   -2.0042    1.1546    0.0053 H   0  0  0  0  0  0  0  0  0  0  0  0
   -1.2026   -0.6904    0.0000 C   0  0  0  0  0  0  0  0  0  0  0  0
   -2.0094   -1.1537    0.0037 H   0  0  0  0  0  0  0  0  0  0  0  0
    0.0016   -1.3901    0.0075 C   0  0  0  0  0  0  0  0  0  0  0  0
    0.0007   -2.3198   -0.0007 H   0  0  0  0  0  0  0  0  0  0  0  0
    1.2026   -0.6984   -0.0000 C   0  0  0  0  0  0  0  0  0  0  0  0
    2.0087   -1.1620   -0.0016 H   0  0  0  0  0  0  0  0  0  0  0  0
    1.1956    0.6878   -0.0002 C   0  0  0  0  0  0  0  0  0  0  0  0
    2.0031    1.1497   -0.0005 H   0  0  0  0  0  0  0  0  0  0  0  0
  1  5  1  0
  5  6  1  0
  5  7  2  0
  1  2  1  0
  1  3  1  0
  1  4  1  0
  8 12  1  0
 12 13  2  0
 13 15  1  0
 15 17  2  0
 17 19  1  0
 19 21  2  0
 21 12  1  0
  8  9  1  0
  8 10  1  0
  8 11  1  0
 13 14  1  0
 15 16  1  0
 17 18  1  0
 19 20  1  0
 21 22  1  0
M  CHG  1   6  -1
M  END
>  <PDB_ID>  (2015) 
pdb3v4y

>  <RESIDUE_NAME>  (2015) 
ASP   PHE

>  <FRAG_NAME>  (2015) 
ACET   MBZ

>  <FRAG_ATOM_NUM>  (2015) 
fragi: 7  fragj: 15

>  <atom.prop.CHAIN_ID>  (2015) 
A A A A A A A Z Z Z Z Z Z Z Z Z Z Z Z Z Z Z

>  <atom.prop.IS_HEAVY_ATOM>  (2015) 
1 0 0 0 1 1 1 1 0 0 0 1 1 0 1 0 1 0 1 0 1 0

>  <DIFUSE_FUNC_ATOM>  (2015) 
atom 6   atom 7   

>  <FINAL_SINGLE_POINT_ENERGY>  (2015) 
0

>  <NONCOV_INTER_ENERGY_QM>  (2015) 
0

>  <FF_Energy>  (2015) 
-1.39

>  <QM_Energy>  (2015) 
-7.31

>  <source>  (2015) 
ACET_MBZ_02

>  <Index>  (2015) 
10998

$$$$
ACET-pdb4v1z-A-ASP-257:MBZ-pdb4v1z-A-PHE-350
     RDKit          3D

 22 21  0  0  0  0  0  0  0  0999 V2000
   -4.5851    4.0683    1.9905 C   0  0  0  0  0  0  0  0  0  0  0  0
   -3.8232    4.2693    2.6053 H   0  0  0  0  0  0  0  0  0  0  0  0
   -4.9068    3.1362    2.1498 H   0  0  0  0  0  0  0  0  0  0  0  0
   -5.3991    4.7572    2.2161 H   0  0  0  0  0  0  0  0  0  0  0  0
   -4.0900    4.1674    0.5653 C   0  0  0  0  0  0  0  0  0  0  0  0
   -4.3430    5.1694   -0.1537 O   0  0  0  0  0  1  0  0  0  0  0  0
   -3.4249    3.2062    0.1344 O   0  0  0  0  0  0  0  0  0  0  0  0
   -0.0593    2.8810   -0.0458 C   0  0  0  0  0  0  0  0  0  0  0  0
   -0.7288    3.1536   -0.7176 H   0  0  0  0  0  0  0  0  0  0  0  0
    0.8402    3.2205   -0.2689 H   0  0  0  0  0  0  0  0  0  0  0  0
   -0.3497    3.3355    0.9014 H   0  0  0  0  0  0  0  0  0  0  0  0
   -0.0072    1.3853   -0.0041 C   0  0  0  0  0  0  0  0  0  0  0  0
   -1.1917    0.6359   -0.0082 C   0  0  0  0  0  0  0  0  0  0  0  0
   -2.0697    1.1235   -0.0189 H   0  0  0  0  0  0  0  0  0  0  0  0
   -1.1837   -0.7421   -0.0000 C   0  0  0  0  0  0  0  0  0  0  0  0
   -2.0380   -1.2540   -0.0184 H   0  0  0  0  0  0  0  0  0  0  0  0
    0.0340   -1.3739    0.0360 C   0  0  0  0  0  0  0  0  0  0  0  0
    0.0643   -2.3829    0.0892 H   0  0  0  0  0  0  0  0  0  0  0  0
    1.1837   -0.6523   -0.0000 C   0  0  0  0  0  0  0  0  0  0  0  0
    2.0963   -1.1207   -0.0094 H   0  0  0  0  0  0  0  0  0  0  0  0
    1.1649    0.7470   -0.0236 C   0  0  0  0  0  0  0  0  0  0  0  0
    2.0351    1.2353   -0.0555 H   0  0  0  0  0  0  0  0  0  0  0  0
  1  5  1  0
  5  6  1  0
  5  7  2  0
  1  2  1  0
  1  3  1  0
  1  4  1  0
  8 12  1  0
 12 13  2  0
 13 15  1  0
 15 17  2  0
 17 19  1  0
 19 21  2  0
 21 12  1  0
  8  9  1  0
  8 10  1  0
  8 11  1  0
 13 14  1  0
 15 16  1  0
 17 18  1  0
 19 20  1  0
 21 22  1  0
M  CHG  1   6  -1
M  END
>  <PDB_ID>  (2016) 
pdb4v1z

>  <RESIDUE_NAME>  (2016) 
ASP   PHE

>  <FRAG_NAME>  (2016) 
ACET   MBZ

>  <FRAG_ATOM_NUM>  (2016) 
fragi: 7  fragj: 15

>  <atom.prop.CHAIN_ID>  (2016) 
A A A A A A A Z Z Z Z Z Z Z Z Z Z Z Z Z Z Z

>  <atom.prop.IS_HEAVY_ATOM>  (2016) 
1 0 0 0 1 1 1 1 0 0 0 1 1 0 1 0 1 0 1 0 1 0

>  <DIFUSE_FUNC_ATOM>  (2016) 
atom 6   atom 7   

>  <FINAL_SINGLE_POINT_ENERGY>  (2016) 
0

>  <NONCOV_INTER_ENERGY_QM>  (2016) 
0

>  <FF_Energy>  (2016) 
-2.12

>  <QM_Energy>  (2016) 
-7.35

>  <source>  (2016) 
ACET_MBZ_02

>  <Index>  (2016) 
11004

$$$$
ACET-pdb3v7p-A-GLU-102:MBZ-pdb3v7p-A-PHE-411
     RDKit          3D

 22 21  0  0  0  0  0  0  0  0999 V2000
   -0.4752   -4.4055   -1.7982 C   0  0  0  0  0  0  0  0  0  0  0  0
    0.2132   -4.5396   -2.4799 H   0  0  0  0  0  0  0  0  0  0  0  0
   -0.8399   -3.4978   -1.7930 H   0  0  0  0  0  0  0  0  0  0  0  0
   -1.2865   -5.1124   -1.9718 H   0  0  0  0  0  0  0  0  0  0  0  0
    0.1747   -4.6399   -0.4464 C   0  0  0  0  0  0  0  0  0  0  0  0
    1.2367   -4.0374   -0.1753 O   0  0  0  0  0  1  0  0  0  0  0  0
   -0.3865   -5.4355    0.3405 O   0  0  0  0  0  0  0  0  0  0  0  0
    0.0010    2.8997   -0.0289 C   0  0  0  0  0  0  0  0  0  0  0  0
    0.8875    3.2142    0.2659 H   0  0  0  0  0  0  0  0  0  0  0  0
   -0.7174    3.2211    0.5652 H   0  0  0  0  0  0  0  0  0  0  0  0
   -0.1827    3.3120   -1.0210 H   0  0  0  0  0  0  0  0  0  0  0  0
    0.0000    1.4002    0.0003 C   0  0  0  0  0  0  0  0  0  0  0  0
   -1.1960    0.6979   -0.0052 C   0  0  0  0  0  0  0  0  0  0  0  0
   -2.0617    1.1888   -0.0141 H   0  0  0  0  0  0  0  0  0  0  0  0
   -1.2034   -0.6939    0.0000 C   0  0  0  0  0  0  0  0  0  0  0  0
   -2.0807   -1.1863   -0.0003 H   0  0  0  0  0  0  0  0  0  0  0  0
   -0.0012   -1.3966    0.0079 C   0  0  0  0  0  0  0  0  0  0  0  0
   -0.0072   -2.3923    0.0189 H   0  0  0  0  0  0  0  0  0  0  0  0
    1.2034   -0.6978   -0.0000 C   0  0  0  0  0  0  0  0  0  0  0  0
    2.0831   -1.1974   -0.0018 H   0  0  0  0  0  0  0  0  0  0  0  0
    1.1972    0.6902   -0.0030 C   0  0  0  0  0  0  0  0  0  0  0  0
    2.0652    1.1890   -0.0087 H   0  0  0  0  0  0  0  0  0  0  0  0
  1  5  1  0
  5  6  1  0
  5  7  2  0
  1  2  1  0
  1  3  1  0
  1  4  1  0
  8 12  1  0
 12 13  2  0
 13 15  1  0
 15 17  2  0
 17 19  1  0
 19 21  2  0
 21 12  1  0
  8  9  1  0
  8 10  1  0
  8 11  1  0
 13 14  1  0
 15 16  1  0
 17 18  1  0
 19 20  1  0
 21 22  1  0
M  CHG  1   6  -1
M  END
>  <PDB_ID>  (2017) 
pdb3v7p

>  <RESIDUE_NAME>  (2017) 
GLU   PHE

>  <FRAG_NAME>  (2017) 
ACET   MBZ

>  <FRAG_ATOM_NUM>  (2017) 
fragi: 7  fragj: 15

>  <atom.prop.CHAIN_ID>  (2017) 
A A A A A A A Z Z Z Z Z Z Z Z Z Z Z Z Z Z Z

>  <atom.prop.IS_HEAVY_ATOM>  (2017) 
1 0 0 0 1 1 1 1 0 0 0 1 1 0 1 0 1 0 1 0 1 0

>  <DIFUSE_FUNC_ATOM>  (2017) 
atom 6   atom 7   

>  <FINAL_SINGLE_POINT_ENERGY>  (2017) 
0

>  <NONCOV_INTER_ENERGY_QM>  (2017) 
0

>  <FF_Energy>  (2017) 
6.21

>  <QM_Energy>  (2017) 
-4.0

>  <source>  (2017) 
ACET_MBZ_02

>  <Index>  (2017) 
11069

$$$$
ACET-pdb4w66-B-ASP-160:MBZ-pdb4w66-B-PHE-151
     RDKit          3D

 22 21  0  0  0  0  0  0  0  0999 V2000
    5.0526    3.6693    0.0843 C   0  0  0  0  0  0  0  0  0  0  0  0
    5.3277    4.5191    0.5142 H   0  0  0  0  0  0  0  0  0  0  0  0
    5.7220    3.3807   -0.5870 H   0  0  0  0  0  0  0  0  0  0  0  0
    4.9871    2.9013    0.8550 H   0  0  0  0  0  0  0  0  0  0  0  0
    3.7282    3.8794   -0.6074 C   0  0  0  0  0  0  0  0  0  0  0  0
    3.3027    2.9441   -1.3127 O   0  0  0  0  0  1  0  0  0  0  0  0
    3.0905    4.9461   -0.4176 O   0  0  0  0  0  0  0  0  0  0  0  0
   -0.0056    2.8787    0.0065 C   0  0  0  0  0  0  0  0  0  0  0  0
    0.9015    3.1928    0.2441 H   0  0  0  0  0  0  0  0  0  0  0  0
   -0.6759    3.1869    0.6650 H   0  0  0  0  0  0  0  0  0  0  0  0
   -0.2648    3.3128   -0.9592 H   0  0  0  0  0  0  0  0  0  0  0  0
   -0.0010    1.3896    0.0054 C   0  0  0  0  0  0  0  0  0  0  0  0
   -1.1876    0.6934    0.0049 C   0  0  0  0  0  0  0  0  0  0  0  0
   -2.0571    1.1864    0.0065 H   0  0  0  0  0  0  0  0  0  0  0  0
   -1.1951   -0.6859    0.0000 C   0  0  0  0  0  0  0  0  0  0  0  0
   -2.0758   -1.1808   -0.0036 H   0  0  0  0  0  0  0  0  0  0  0  0
   -0.0029   -1.3855    0.0022 C   0  0  0  0  0  0  0  0  0  0  0  0
   -0.0111   -2.3852    0.0046 H   0  0  0  0  0  0  0  0  0  0  0  0
    1.1951   -0.6966    0.0000 C   0  0  0  0  0  0  0  0  0  0  0  0
    2.0763   -1.1979    0.0089 H   0  0  0  0  0  0  0  0  0  0  0  0
    1.1914    0.6850   -0.0125 C   0  0  0  0  0  0  0  0  0  0  0  0
    2.0595    1.1838   -0.0353 H   0  0  0  0  0  0  0  0  0  0  0  0
  1  5  1  0
  5  6  1  0
  5  7  2  0
  1  2  1  0
  1  3  1  0
  1  4  1  0
  8 12  1  0
 12 13  2  0
 13 15  1  0
 15 17  2  0
 17 19  1  0
 19 21  2  0
 21 12  1  0
  8  9  1  0
  8 10  1  0
  8 11  1  0
 13 14  1  0
 15 16  1  0
 17 18  1  0
 19 20  1  0
 21 22  1  0
M  CHG  1   6  -1
M  END
>  <PDB_ID>  (2018) 
pdb4w66

>  <RESIDUE_NAME>  (2018) 
ASP   PHE

>  <FRAG_NAME>  (2018) 
ACET   MBZ

>  <FRAG_ATOM_NUM>  (2018) 
fragi: 7  fragj: 15

>  <atom.prop.CHAIN_ID>  (2018) 
A A A A A A A Z Z Z Z Z Z Z Z Z Z Z Z Z Z Z

>  <atom.prop.IS_HEAVY_ATOM>  (2018) 
1 0 0 0 1 1 1 1 0 0 0 1 1 0 1 0 1 0 1 0 1 0

>  <DIFUSE_FUNC_ATOM>  (2018) 
atom 6   atom 7   

>  <FINAL_SINGLE_POINT_ENERGY>  (2018) 
0

>  <NONCOV_INTER_ENERGY_QM>  (2018) 
0

>  <FF_Energy>  (2018) 
-2.22

>  <QM_Energy>  (2018) 
-7.8

>  <source>  (2018) 
ACET_MBZ_02

>  <Index>  (2018) 
11077

$$$$
ACET-pdb4w7i-B-ASP-185:MBZ-pdb4w7i-B-PHE-182
     RDKit          3D

 22 21  0  0  0  0  0  0  0  0999 V2000
   -4.4887    3.8438    1.3242 C   0  0  0  0  0  0  0  0  0  0  0  0
   -3.5056    3.8862    1.1934 H   0  0  0  0  0  0  0  0  0  0  0  0
   -4.7088    3.7234    2.2846 H   0  0  0  0  0  0  0  0  0  0  0  0
   -4.9165    4.7902    0.9935 H   0  0  0  0  0  0  0  0  0  0  0  0
   -5.0290    2.6439    0.5478 C   0  0  0  0  0  0  0  0  0  0  0  0
   -6.2323    2.6300    0.2742 O   0  0  0  0  0  1  0  0  0  0  0  0
   -4.2571    1.7124    0.2375 O   0  0  0  0  0  0  0  0  0  0  0  0
   -0.0196    2.8834   -0.0005 C   0  0  0  0  0  0  0  0  0  0  0  0
    0.9134    3.2042   -0.0264 H   0  0  0  0  0  0  0  0  0  0  0  0
   -0.4863    3.1878    0.8142 H   0  0  0  0  0  0  0  0  0  0  0  0
   -0.5420    3.3004   -0.8615 H   0  0  0  0  0  0  0  0  0  0  0  0
    0.0002    1.3909    0.0034 C   0  0  0  0  0  0  0  0  0  0  0  0
   -1.1937    0.6799    0.0018 C   0  0  0  0  0  0  0  0  0  0  0  0
   -2.0609    1.1756    0.0005 H   0  0  0  0  0  0  0  0  0  0  0  0
   -1.1938   -0.6939   -0.0000 C   0  0  0  0  0  0  0  0  0  0  0  0
   -2.0702   -1.1967   -0.0026 H   0  0  0  0  0  0  0  0  0  0  0  0
    0.0047   -1.3851    0.0034 C   0  0  0  0  0  0  0  0  0  0  0  0
    0.0015   -2.3858    0.0077 H   0  0  0  0  0  0  0  0  0  0  0  0
    1.1938   -0.6889    0.0000 C   0  0  0  0  0  0  0  0  0  0  0  0
    2.0815   -1.1843    0.0054 H   0  0  0  0  0  0  0  0  0  0  0  0
    1.1889    0.6971   -0.0086 C   0  0  0  0  0  0  0  0  0  0  0  0
    2.0583    1.1927   -0.0240 H   0  0  0  0  0  0  0  0  0  0  0  0
  1  5  1  0
  5  6  1  0
  5  7  2  0
  1  2  1  0
  1  3  1  0
  1  4  1  0
  8 12  1  0
 12 13  2  0
 13 15  1  0
 15 17  2  0
 17 19  1  0
 19 21  2  0
 21 12  1  0
  8  9  1  0
  8 10  1  0
  8 11  1  0
 13 14  1  0
 15 16  1  0
 17 18  1  0
 19 20  1  0
 21 22  1  0
M  CHG  1   6  -1
M  END
>  <PDB_ID>  (2019) 
pdb4w7i

>  <RESIDUE_NAME>  (2019) 
ASP   PHE

>  <FRAG_NAME>  (2019) 
ACET   MBZ

>  <FRAG_ATOM_NUM>  (2019) 
fragi: 7  fragj: 15

>  <atom.prop.CHAIN_ID>  (2019) 
A A A A A A A Z Z Z Z Z Z Z Z Z Z Z Z Z Z Z

>  <atom.prop.IS_HEAVY_ATOM>  (2019) 
1 0 0 0 1 1 1 1 0 0 0 1 1 0 1 0 1 0 1 0 1 0

>  <DIFUSE_FUNC_ATOM>  (2019) 
atom 6   atom 7   

>  <FINAL_SINGLE_POINT_ENERGY>  (2019) 
0

>  <NONCOV_INTER_ENERGY_QM>  (2019) 
0

>  <FF_Energy>  (2019) 
-1.58

>  <QM_Energy>  (2019) 
-6.74

>  <source>  (2019) 
ACET_MBZ_02

>  <Index>  (2019) 
11110

$$$$
ACET-pdb3v8h-A-GLU-58:MBZ-pdb3v8h-A-PHE-224
     RDKit          3D

 22 21  0  0  0  0  0  0  0  0999 V2000
    5.0665   -3.1484    0.5906 C   0  0  0  0  0  0  0  0  0  0  0  0
    5.8855   -2.9153    1.0907 H   0  0  0  0  0  0  0  0  0  0  0  0
    5.1906   -3.9699    0.0560 H   0  0  0  0  0  0  0  0  0  0  0  0
    4.2731   -3.3343    1.3145 H   0  0  0  0  0  0  0  0  0  0  0  0
    4.7769   -2.0126   -0.3733 C   0  0  0  0  0  0  0  0  0  0  0  0
    4.1656   -1.0059    0.0189 O   0  0  0  0  0  1  0  0  0  0  0  0
    5.1472   -2.1423   -1.5372 O   0  0  0  0  0  0  0  0  0  0  0  0
   -0.0317    2.8367   -0.0462 C   0  0  0  0  0  0  0  0  0  0  0  0
   -0.7476    3.1213   -0.6822 H   0  0  0  0  0  0  0  0  0  0  0  0
    0.8551    3.1637   -0.3701 H   0  0  0  0  0  0  0  0  0  0  0  0
   -0.2300    3.3356    0.9023 H   0  0  0  0  0  0  0  0  0  0  0  0
   -0.0049    1.3771    0.0141 C   0  0  0  0  0  0  0  0  0  0  0  0
   -1.1834    0.6756   -0.0108 C   0  0  0  0  0  0  0  0  0  0  0  0
   -2.0559    1.1705   -0.0385 H   0  0  0  0  0  0  0  0  0  0  0  0
   -1.1901   -0.6929    0.0000 C   0  0  0  0  0  0  0  0  0  0  0  0
   -2.0732   -1.1881    0.0039 H   0  0  0  0  0  0  0  0  0  0  0  0
   -0.0112   -1.3693    0.0076 C   0  0  0  0  0  0  0  0  0  0  0  0
   -0.0065   -2.3790    0.0180 H   0  0  0  0  0  0  0  0  0  0  0  0
    1.1901   -0.6868    0.0000 C   0  0  0  0  0  0  0  0  0  0  0  0
    2.0695   -1.1946    0.0040 H   0  0  0  0  0  0  0  0  0  0  0  0
    1.1995    0.6964   -0.0110 C   0  0  0  0  0  0  0  0  0  0  0  0
    2.0560    1.1929   -0.0374 H   0  0  0  0  0  0  0  0  0  0  0  0
  1  5  1  0
  5  6  1  0
  5  7  2  0
  1  2  1  0
  1  3  1  0
  1  4  1  0
  8 12  1  0
 12 13  2  0
 13 15  1  0
 15 17  2  0
 17 19  1  0
 19 21  2  0
 21 12  1  0
  8  9  1  0
  8 10  1  0
  8 11  1  0
 13 14  1  0
 15 16  1  0
 17 18  1  0
 19 20  1  0
 21 22  1  0
M  CHG  1   6  -1
M  END
>  <PDB_ID>  (2020) 
pdb3v8h

>  <RESIDUE_NAME>  (2020) 
GLU   PHE

>  <FRAG_NAME>  (2020) 
ACET   MBZ

>  <FRAG_ATOM_NUM>  (2020) 
fragi: 7  fragj: 15

>  <atom.prop.CHAIN_ID>  (2020) 
A A A A A A A Z Z Z Z Z Z Z Z Z Z Z Z Z Z Z

>  <atom.prop.IS_HEAVY_ATOM>  (2020) 
1 0 0 0 1 1 1 1 0 0 0 1 1 0 1 0 1 0 1 0 1 0

>  <DIFUSE_FUNC_ATOM>  (2020) 
atom 6   atom 7   

>  <FINAL_SINGLE_POINT_ENERGY>  (2020) 
0

>  <NONCOV_INTER_ENERGY_QM>  (2020) 
0

>  <FF_Energy>  (2020) 
1.38

>  <QM_Energy>  (2020) 
-6.0

>  <source>  (2020) 
ACET_MBZ_02

>  <Index>  (2020) 
11114

$$$$
ACET-pdb4w7i-A-ASP-185:MBZ-pdb4w7i-A-PHE-182
     RDKit          3D

 22 21  0  0  0  0  0  0  0  0999 V2000
   -4.4773    3.8705    1.2155 C   0  0  0  0  0  0  0  0  0  0  0  0
   -3.4920    3.9158    1.1055 H   0  0  0  0  0  0  0  0  0  0  0  0
   -4.7166    3.7315    2.1688 H   0  0  0  0  0  0  0  0  0  0  0  0
   -4.8977    4.8241    0.8959 H   0  0  0  0  0  0  0  0  0  0  0  0
   -5.0012    2.6819    0.4050 C   0  0  0  0  0  0  0  0  0  0  0  0
   -6.1964    2.6838    0.1012 O   0  0  0  0  0  1  0  0  0  0  0  0
   -4.2294    1.7429    0.1192 O   0  0  0  0  0  0  0  0  0  0  0  0
   -0.0217    2.8708   -0.0012 C   0  0  0  0  0  0  0  0  0  0  0  0
    0.9117    3.1952    0.0043 H   0  0  0  0  0  0  0  0  0  0  0  0
   -0.5170    3.1788    0.7965 H   0  0  0  0  0  0  0  0  0  0  0  0
   -0.5143    3.2841   -0.8813 H   0  0  0  0  0  0  0  0  0  0  0  0
   -0.0010    1.3851    0.0057 C   0  0  0  0  0  0  0  0  0  0  0  0
   -1.1848    0.6818    0.0034 C   0  0  0  0  0  0  0  0  0  0  0  0
   -2.0557    1.1771    0.0033 H   0  0  0  0  0  0  0  0  0  0  0  0
   -1.1878   -0.6872   -0.0000 C   0  0  0  0  0  0  0  0  0  0  0  0
   -2.0700   -1.1873   -0.0028 H   0  0  0  0  0  0  0  0  0  0  0  0
   -0.0009   -1.3808    0.0021 C   0  0  0  0  0  0  0  0  0  0  0  0
   -0.0059   -2.3822    0.0045 H   0  0  0  0  0  0  0  0  0  0  0  0
    1.1878   -0.6895    0.0000 C   0  0  0  0  0  0  0  0  0  0  0  0
    2.0735   -1.1893    0.0083 H   0  0  0  0  0  0  0  0  0  0  0  0
    1.1867    0.6906   -0.0112 C   0  0  0  0  0  0  0  0  0  0  0  0
    2.0557    1.1873   -0.0333 H   0  0  0  0  0  0  0  0  0  0  0  0
  1  5  1  0
  5  6  1  0
  5  7  2  0
  1  2  1  0
  1  3  1  0
  1  4  1  0
  8 12  1  0
 12 13  2  0
 13 15  1  0
 15 17  2  0
 17 19  1  0
 19 21  2  0
 21 12  1  0
  8  9  1  0
  8 10  1  0
  8 11  1  0
 13 14  1  0
 15 16  1  0
 17 18  1  0
 19 20  1  0
 21 22  1  0
M  CHG  1   6  -1
M  END
>  <PDB_ID>  (2021) 
pdb4w7i

>  <RESIDUE_NAME>  (2021) 
ASP   PHE

>  <FRAG_NAME>  (2021) 
ACET   MBZ

>  <FRAG_ATOM_NUM>  (2021) 
fragi: 7  fragj: 15

>  <atom.prop.CHAIN_ID>  (2021) 
A A A A A A A Z Z Z Z Z Z Z Z Z Z Z Z Z Z Z

>  <atom.prop.IS_HEAVY_ATOM>  (2021) 
1 0 0 0 1 1 1 1 0 0 0 1 1 0 1 0 1 0 1 0 1 0

>  <DIFUSE_FUNC_ATOM>  (2021) 
atom 6   atom 7   

>  <FINAL_SINGLE_POINT_ENERGY>  (2021) 
0

>  <NONCOV_INTER_ENERGY_QM>  (2021) 
0

>  <FF_Energy>  (2021) 
-1.42

>  <QM_Energy>  (2021) 
-6.8

>  <source>  (2021) 
ACET_MBZ_02

>  <Index>  (2021) 
11116

$$$$
ACET-pdb4w7i-D-ASP-185:MBZ-pdb4w7i-D-PHE-182
     RDKit          3D

 22 21  0  0  0  0  0  0  0  0999 V2000
   -4.5577    3.9322    1.1088 C   0  0  0  0  0  0  0  0  0  0  0  0
   -3.5688    3.9971    1.0800 H   0  0  0  0  0  0  0  0  0  0  0  0
   -4.8746    3.7794    2.0346 H   0  0  0  0  0  0  0  0  0  0  0  0
   -4.9656    4.8838    0.7681 H   0  0  0  0  0  0  0  0  0  0  0  0
   -4.9953    2.7512    0.2393 C   0  0  0  0  0  0  0  0  0  0  0  0
   -6.1309    2.7993   -0.2245 O   0  0  0  0  0  1  0  0  0  0  0  0
   -4.2311    1.7787    0.0459 O   0  0  0  0  0  0  0  0  0  0  0  0
   -0.0245    2.8700    0.0014 C   0  0  0  0  0  0  0  0  0  0  0  0
    0.9071    3.1985    0.0142 H   0  0  0  0  0  0  0  0  0  0  0  0
   -0.5289    3.1784    0.7925 H   0  0  0  0  0  0  0  0  0  0  0  0
   -0.5109    3.2782   -0.8845 H   0  0  0  0  0  0  0  0  0  0  0  0
    0.0011    1.3880    0.0087 C   0  0  0  0  0  0  0  0  0  0  0  0
   -1.1892    0.6808   -0.0029 C   0  0  0  0  0  0  0  0  0  0  0  0
   -2.0575    1.1767   -0.0149 H   0  0  0  0  0  0  0  0  0  0  0  0
   -1.1926   -0.6929    0.0000 C   0  0  0  0  0  0  0  0  0  0  0  0
   -2.0720   -1.1917    0.0026 H   0  0  0  0  0  0  0  0  0  0  0  0
   -0.0011   -1.3830    0.0016 C   0  0  0  0  0  0  0  0  0  0  0  0
   -0.0009   -2.3842    0.0035 H   0  0  0  0  0  0  0  0  0  0  0  0
    1.1926   -0.6864    0.0000 C   0  0  0  0  0  0  0  0  0  0  0  0
    2.0768   -1.1876    0.0053 H   0  0  0  0  0  0  0  0  0  0  0  0
    1.1892    0.6936   -0.0074 C   0  0  0  0  0  0  0  0  0  0  0  0
    2.0579    1.1915   -0.0250 H   0  0  0  0  0  0  0  0  0  0  0  0
  1  5  1  0
  5  6  1  0
  5  7  2  0
  1  2  1  0
  1  3  1  0
  1  4  1  0
  8 12  1  0
 12 13  2  0
 13 15  1  0
 15 17  2  0
 17 19  1  0
 19 21  2  0
 21 12  1  0
  8  9  1  0
  8 10  1  0
  8 11  1  0
 13 14  1  0
 15 16  1  0
 17 18  1  0
 19 20  1  0
 21 22  1  0
M  CHG  1   6  -1
M  END
>  <PDB_ID>  (2022) 
pdb4w7i

>  <RESIDUE_NAME>  (2022) 
ASP   PHE

>  <FRAG_NAME>  (2022) 
ACET   MBZ

>  <FRAG_ATOM_NUM>  (2022) 
fragi: 7  fragj: 15

>  <atom.prop.CHAIN_ID>  (2022) 
A A A A A A A Z Z Z Z Z Z Z Z Z Z Z Z Z Z Z

>  <atom.prop.IS_HEAVY_ATOM>  (2022) 
1 0 0 0 1 1 1 1 0 0 0 1 1 0 1 0 1 0 1 0 1 0

>  <DIFUSE_FUNC_ATOM>  (2022) 
atom 6   atom 7   

>  <FINAL_SINGLE_POINT_ENERGY>  (2022) 
0

>  <NONCOV_INTER_ENERGY_QM>  (2022) 
0

>  <FF_Energy>  (2022) 
-1.46

>  <QM_Energy>  (2022) 
-6.84

>  <source>  (2022) 
ACET_MBZ_02

>  <Index>  (2022) 
11124

$$$$
ACET-pdb3v6n-B-ASP-49:MBZ-pdb3v6n-B-PHE-46
     RDKit          3D

 22 21  0  0  0  0  0  0  0  0999 V2000
    3.3939    5.3708    0.5689 C   0  0  0  0  0  0  0  0  0  0  0  0
    2.7843    5.1787   -0.1920 H   0  0  0  0  0  0  0  0  0  0  0  0
    4.2985    5.6117    0.2379 H   0  0  0  0  0  0  0  0  0  0  0  0
    2.9949    6.2296    1.1087 H   0  0  0  0  0  0  0  0  0  0  0  0
    3.5007    4.1333    1.4350 C   0  0  0  0  0  0  0  0  0  0  0  0
    3.5697    4.2739    2.6705 O   0  0  0  0  0  1  0  0  0  0  0  0
    3.5151    3.0108    0.8887 O   0  0  0  0  0  0  0  0  0  0  0  0
   -0.0054    2.8985   -0.0027 C   0  0  0  0  0  0  0  0  0  0  0  0
    0.9176    3.2093    0.1617 H   0  0  0  0  0  0  0  0  0  0  0  0
   -0.6235    3.2057    0.7036 H   0  0  0  0  0  0  0  0  0  0  0  0
   -0.3388    3.3265   -0.9481 H   0  0  0  0  0  0  0  0  0  0  0  0
   -0.0008    1.4003    0.0015 C   0  0  0  0  0  0  0  0  0  0  0  0
   -1.1991    0.6868   -0.0020 C   0  0  0  0  0  0  0  0  0  0  0  0
   -2.0658    1.1801   -0.0072 H   0  0  0  0  0  0  0  0  0  0  0  0
   -1.2029   -0.6986   -0.0000 C   0  0  0  0  0  0  0  0  0  0  0  0
   -2.0783   -1.1959    0.0058 H   0  0  0  0  0  0  0  0  0  0  0  0
   -0.0011   -1.3909   -0.0048 C   0  0  0  0  0  0  0  0  0  0  0  0
   -0.0019   -2.3910   -0.0121 H   0  0  0  0  0  0  0  0  0  0  0  0
    1.2029   -0.6941    0.0000 C   0  0  0  0  0  0  0  0  0  0  0  0
    2.0830   -1.1945    0.0012 H   0  0  0  0  0  0  0  0  0  0  0  0
    1.2010    0.6966    0.0052 C   0  0  0  0  0  0  0  0  0  0  0  0
    2.0653    1.1937    0.0107 H   0  0  0  0  0  0  0  0  0  0  0  0
  1  5  1  0
  5  6  1  0
  5  7  2  0
  1  2  1  0
  1  3  1  0
  1  4  1  0
  8 12  1  0
 12 13  2  0
 13 15  1  0
 15 17  2  0
 17 19  1  0
 19 21  2  0
 21 12  1  0
  8  9  1  0
  8 10  1  0
  8 11  1  0
 13 14  1  0
 15 16  1  0
 17 18  1  0
 19 20  1  0
 21 22  1  0
M  CHG  1   6  -1
M  END
>  <PDB_ID>  (2023) 
pdb3v6n

>  <RESIDUE_NAME>  (2023) 
ASP   PHE

>  <FRAG_NAME>  (2023) 
ACET   MBZ

>  <FRAG_ATOM_NUM>  (2023) 
fragi: 7  fragj: 15

>  <atom.prop.CHAIN_ID>  (2023) 
A A A A A A A Z Z Z Z Z Z Z Z Z Z Z Z Z Z Z

>  <atom.prop.IS_HEAVY_ATOM>  (2023) 
1 0 0 0 1 1 1 1 0 0 0 1 1 0 1 0 1 0 1 0 1 0

>  <DIFUSE_FUNC_ATOM>  (2023) 
atom 6   atom 7   

>  <FINAL_SINGLE_POINT_ENERGY>  (2023) 
0

>  <NONCOV_INTER_ENERGY_QM>  (2023) 
0

>  <FF_Energy>  (2023) 
-2.13

>  <QM_Energy>  (2023) 
-7.39

>  <source>  (2023) 
ACET_MBZ_02

>  <Index>  (2023) 
11136

$$$$
ACET-pdb3v9g-C-ASP-161:MBZ-pdb3v9g-C-PHE-212
     RDKit          3D

 22 21  0  0  0  0  0  0  0  0999 V2000
    4.5516    0.9248    1.3092 C   0  0  0  0  0  0  0  0  0  0  0  0
    3.8922    0.2326    1.0311 H   0  0  0  0  0  0  0  0  0  0  0  0
    4.9527    0.6847    2.1872 H   0  0  0  0  0  0  0  0  0  0  0  0
    5.3503    0.9471    0.5678 H   0  0  0  0  0  0  0  0  0  0  0  0
    3.8315    2.2528    1.4500 C   0  0  0  0  0  0  0  0  0  0  0  0
    3.7676    3.0071    0.4556 O   0  0  0  0  0  1  0  0  0  0  0  0
    3.3200    2.5372    2.5587 O   0  0  0  0  0  0  0  0  0  0  0  0
    0.0006    2.9095    0.0046 C   0  0  0  0  0  0  0  0  0  0  0  0
   -0.8061    3.2160   -0.4757 H   0  0  0  0  0  0  0  0  0  0  0  0
    0.8268    3.2162   -0.4401 H   0  0  0  0  0  0  0  0  0  0  0  0
   -0.0205    3.3437    1.0041 H   0  0  0  0  0  0  0  0  0  0  0  0
    0.0003    1.4012   -0.0008 C   0  0  0  0  0  0  0  0  0  0  0  0
   -1.2004    0.6913    0.0003 C   0  0  0  0  0  0  0  0  0  0  0  0
   -2.0649    1.1873    0.0005 H   0  0  0  0  0  0  0  0  0  0  0  0
   -1.2075   -0.6931   -0.0000 C   0  0  0  0  0  0  0  0  0  0  0  0
   -2.0809   -1.1913    0.0007 H   0  0  0  0  0  0  0  0  0  0  0  0
    0.0002   -1.3937    0.0004 C   0  0  0  0  0  0  0  0  0  0  0  0
   -0.0059   -2.3903    0.0006 H   0  0  0  0  0  0  0  0  0  0  0  0
    1.2075   -0.6972    0.0000 C   0  0  0  0  0  0  0  0  0  0  0  0
    2.0849   -1.1970    0.0010 H   0  0  0  0  0  0  0  0  0  0  0  0
    1.1999    0.6916    0.0002 C   0  0  0  0  0  0  0  0  0  0  0  0
    2.0670    1.1917    0.0003 H   0  0  0  0  0  0  0  0  0  0  0  0
  1  5  1  0
  5  6  1  0
  5  7  2  0
  1  2  1  0
  1  3  1  0
  1  4  1  0
  8 12  1  0
 12 13  2  0
 13 15  1  0
 15 17  2  0
 17 19  1  0
 19 21  2  0
 21 12  1  0
  8  9  1  0
  8 10  1  0
  8 11  1  0
 13 14  1  0
 15 16  1  0
 17 18  1  0
 19 20  1  0
 21 22  1  0
M  CHG  1   6  -1
M  END
>  <PDB_ID>  (2024) 
pdb3v9g

>  <RESIDUE_NAME>  (2024) 
ASP   PHE

>  <FRAG_NAME>  (2024) 
ACET   MBZ

>  <FRAG_ATOM_NUM>  (2024) 
fragi: 7  fragj: 15

>  <atom.prop.CHAIN_ID>  (2024) 
A A A A A A A Z Z Z Z Z Z Z Z Z Z Z Z Z Z Z

>  <atom.prop.IS_HEAVY_ATOM>  (2024) 
1 0 0 0 1 1 1 1 0 0 0 1 1 0 1 0 1 0 1 0 1 0

>  <DIFUSE_FUNC_ATOM>  (2024) 
atom 6   atom 7   

>  <FINAL_SINGLE_POINT_ENERGY>  (2024) 
0

>  <NONCOV_INTER_ENERGY_QM>  (2024) 
0

>  <FF_Energy>  (2024) 
-0.78

>  <QM_Energy>  (2024) 
-6.71

>  <source>  (2024) 
ACET_MBZ_02

>  <Index>  (2024) 
11198

$$$$
ACET-pdb3v9g-A-ASP-161:MBZ-pdb3v9g-A-PHE-212
     RDKit          3D

 22 21  0  0  0  0  0  0  0  0999 V2000
    4.5636    0.9888    1.4085 C   0  0  0  0  0  0  0  0  0  0  0  0
    3.9306    0.2597    1.1602 H   0  0  0  0  0  0  0  0  0  0  0  0
    4.9725    0.7975    2.2965 H   0  0  0  0  0  0  0  0  0  0  0  0
    5.3622    1.0064    0.6669 H   0  0  0  0  0  0  0  0  0  0  0  0
    3.8010    2.2893    1.4922 C   0  0  0  0  0  0  0  0  0  0  0  0
    3.7396    3.0230    0.4846 O   0  0  0  0  0  1  0  0  0  0  0  0
    3.2332    2.5608    2.5694 O   0  0  0  0  0  0  0  0  0  0  0  0
    0.0012    2.9036   -0.0009 C   0  0  0  0  0  0  0  0  0  0  0  0
   -0.7943    3.2124   -0.4997 H   0  0  0  0  0  0  0  0  0  0  0  0
    0.8371    3.2113   -0.4295 H   0  0  0  0  0  0  0  0  0  0  0  0
   -0.0418    3.3488    0.9932 H   0  0  0  0  0  0  0  0  0  0  0  0
    0.0005    1.4008    0.0014 C   0  0  0  0  0  0  0  0  0  0  0  0
   -1.1947    0.6914   -0.0043 C   0  0  0  0  0  0  0  0  0  0  0  0
   -2.0620    1.1824   -0.0127 H   0  0  0  0  0  0  0  0  0  0  0  0
   -1.2009   -0.6976   -0.0000 C   0  0  0  0  0  0  0  0  0  0  0  0
   -2.0763   -1.1918    0.0013 H   0  0  0  0  0  0  0  0  0  0  0  0
    0.0013   -1.3924    0.0044 C   0  0  0  0  0  0  0  0  0  0  0  0
   -0.0019   -2.3911    0.0103 H   0  0  0  0  0  0  0  0  0  0  0  0
    1.2009   -0.6953    0.0000 C   0  0  0  0  0  0  0  0  0  0  0  0
    2.0824   -1.1917   -0.0001 H   0  0  0  0  0  0  0  0  0  0  0  0
    1.1930    0.6931   -0.0015 C   0  0  0  0  0  0  0  0  0  0  0  0
    2.0637    1.1909   -0.0055 H   0  0  0  0  0  0  0  0  0  0  0  0
  1  5  1  0
  5  6  1  0
  5  7  2  0
  1  2  1  0
  1  3  1  0
  1  4  1  0
  8 12  1  0
 12 13  2  0
 13 15  1  0
 15 17  2  0
 17 19  1  0
 19 21  2  0
 21 12  1  0
  8  9  1  0
  8 10  1  0
  8 11  1  0
 13 14  1  0
 15 16  1  0
 17 18  1  0
 19 20  1  0
 21 22  1  0
M  CHG  1   6  -1
M  END
>  <PDB_ID>  (2025) 
pdb3v9g

>  <RESIDUE_NAME>  (2025) 
ASP   PHE

>  <FRAG_NAME>  (2025) 
ACET   MBZ

>  <FRAG_ATOM_NUM>  (2025) 
fragi: 7  fragj: 15

>  <atom.prop.CHAIN_ID>  (2025) 
A A A A A A A Z Z Z Z Z Z Z Z Z Z Z Z Z Z Z

>  <atom.prop.IS_HEAVY_ATOM>  (2025) 
1 0 0 0 1 1 1 1 0 0 0 1 1 0 1 0 1 0 1 0 1 0

>  <DIFUSE_FUNC_ATOM>  (2025) 
atom 6   atom 7   

>  <FINAL_SINGLE_POINT_ENERGY>  (2025) 
0

>  <NONCOV_INTER_ENERGY_QM>  (2025) 
0

>  <FF_Energy>  (2025) 
-1.08

>  <QM_Energy>  (2025) 
-6.92

>  <source>  (2025) 
ACET_MBZ_02

>  <Index>  (2025) 
11236

$$$$
ACET-pdb3v9g-B-ASP-161:MBZ-pdb3v9g-B-PHE-212
     RDKit          3D

 22 21  0  0  0  0  0  0  0  0999 V2000
    4.5073    0.9621    1.3914 C   0  0  0  0  0  0  0  0  0  0  0  0
    3.8612    0.2669    1.0936 H   0  0  0  0  0  0  0  0  0  0  0  0
    4.8906    0.7217    2.2768 H   0  0  0  0  0  0  0  0  0  0  0  0
    5.3232    0.9911    0.6692 H   0  0  0  0  0  0  0  0  0  0  0  0
    3.7728    2.2882    1.5199 C   0  0  0  0  0  0  0  0  0  0  0  0
    3.7590    3.0839    0.5538 O   0  0  0  0  0  1  0  0  0  0  0  0
    3.1911    2.5297    2.6062 O   0  0  0  0  0  0  0  0  0  0  0  0
    0.0071    2.8925    0.0111 C   0  0  0  0  0  0  0  0  0  0  0  0
   -0.7930    3.2109   -0.4756 H   0  0  0  0  0  0  0  0  0  0  0  0
    0.8399    3.2042   -0.4221 H   0  0  0  0  0  0  0  0  0  0  0  0
   -0.0236    3.3242    1.0114 H   0  0  0  0  0  0  0  0  0  0  0  0
    0.0011    1.3980   -0.0008 C   0  0  0  0  0  0  0  0  0  0  0  0
   -1.1942    0.6918   -0.0012 C   0  0  0  0  0  0  0  0  0  0  0  0
   -2.0606    1.1839   -0.0036 H   0  0  0  0  0  0  0  0  0  0  0  0
   -1.1996   -0.6954    0.0000 C   0  0  0  0  0  0  0  0  0  0  0  0
   -2.0775   -1.1895    0.0039 H   0  0  0  0  0  0  0  0  0  0  0  0
   -0.0018   -1.3897   -0.0021 C   0  0  0  0  0  0  0  0  0  0  0  0
   -0.0052   -2.3902   -0.0052 H   0  0  0  0  0  0  0  0  0  0  0  0
    1.1996   -0.6959    0.0000 C   0  0  0  0  0  0  0  0  0  0  0  0
    2.0796   -1.1955   -0.0003 H   0  0  0  0  0  0  0  0  0  0  0  0
    1.1949    0.6912    0.0041 C   0  0  0  0  0  0  0  0  0  0  0  0
    2.0638    1.1886    0.0099 H   0  0  0  0  0  0  0  0  0  0  0  0
  1  5  1  0
  5  6  1  0
  5  7  2  0
  1  2  1  0
  1  3  1  0
  1  4  1  0
  8 12  1  0
 12 13  2  0
 13 15  1  0
 15 17  2  0
 17 19  1  0
 19 21  2  0
 21 12  1  0
  8  9  1  0
  8 10  1  0
  8 11  1  0
 13 14  1  0
 15 16  1  0
 17 18  1  0
 19 20  1  0
 21 22  1  0
M  CHG  1   6  -1
M  END
>  <PDB_ID>  (2026) 
pdb3v9g

>  <RESIDUE_NAME>  (2026) 
ASP   PHE

>  <FRAG_NAME>  (2026) 
ACET   MBZ

>  <FRAG_ATOM_NUM>  (2026) 
fragi: 7  fragj: 15

>  <atom.prop.CHAIN_ID>  (2026) 
A A A A A A A Z Z Z Z Z Z Z Z Z Z Z Z Z Z Z

>  <atom.prop.IS_HEAVY_ATOM>  (2026) 
1 0 0 0 1 1 1 1 0 0 0 1 1 0 1 0 1 0 1 0 1 0

>  <DIFUSE_FUNC_ATOM>  (2026) 
atom 6   atom 7   

>  <FINAL_SINGLE_POINT_ENERGY>  (2026) 
0

>  <NONCOV_INTER_ENERGY_QM>  (2026) 
0

>  <FF_Energy>  (2026) 
5.36

>  <QM_Energy>  (2026) 
-6.62

>  <source>  (2026) 
ACET_MBZ_02

>  <Index>  (2026) 
11239

$$$$
ACET-pdb3vav-A-ASP-34:MBZ-pdb3vav-A-PHE-37
     RDKit          3D

 22 21  0  0  0  0  0  0  0  0999 V2000
    5.2677    4.2845    0.4350 C   0  0  0  0  0  0  0  0  0  0  0  0
    5.9015    4.2989   -0.3291 H   0  0  0  0  0  0  0  0  0  0  0  0
    5.7448    4.0827    1.2813 H   0  0  0  0  0  0  0  0  0  0  0  0
    4.8477    5.2860    0.5283 H   0  0  0  0  0  0  0  0  0  0  0  0
    4.2163    3.2331    0.1914 C   0  0  0  0  0  0  0  0  0  0  0  0
    3.6543    3.1936   -0.9196 O   0  0  0  0  0  1  0  0  0  0  0  0
    3.9918    2.3894    1.0834 O   0  0  0  0  0  0  0  0  0  0  0  0
   -0.0029    2.8748   -0.0415 C   0  0  0  0  0  0  0  0  0  0  0  0
    0.8683    3.2054    0.2817 H   0  0  0  0  0  0  0  0  0  0  0  0
   -0.7488    3.2045    0.5138 H   0  0  0  0  0  0  0  0  0  0  0  0
   -0.1481    3.2542   -1.0529 H   0  0  0  0  0  0  0  0  0  0  0  0
    0.0056    1.3916    0.0141 C   0  0  0  0  0  0  0  0  0  0  0  0
   -1.1966    0.6831    0.0231 C   0  0  0  0  0  0  0  0  0  0  0  0
   -2.0581    1.1803    0.0448 H   0  0  0  0  0  0  0  0  0  0  0  0
   -1.1953   -0.6912   -0.0000 C   0  0  0  0  0  0  0  0  0  0  0  0
   -2.0717   -1.1944    0.0014 H   0  0  0  0  0  0  0  0  0  0  0  0
    0.0016   -1.3812   -0.0231 C   0  0  0  0  0  0  0  0  0  0  0  0
   -0.0033   -2.3837   -0.0577 H   0  0  0  0  0  0  0  0  0  0  0  0
    1.1953   -0.6914    0.0000 C   0  0  0  0  0  0  0  0  0  0  0  0
    2.0775   -1.1903    0.0288 H   0  0  0  0  0  0  0  0  0  0  0  0
    1.1894    0.6890   -0.0141 C   0  0  0  0  0  0  0  0  0  0  0  0
    2.0623    1.1863   -0.0463 H   0  0  0  0  0  0  0  0  0  0  0  0
  1  5  1  0
  5  6  1  0
  5  7  2  0
  1  2  1  0
  1  3  1  0
  1  4  1  0
  8 12  1  0
 12 13  2  0
 13 15  1  0
 15 17  2  0
 17 19  1  0
 19 21  2  0
 21 12  1  0
  8  9  1  0
  8 10  1  0
  8 11  1  0
 13 14  1  0
 15 16  1  0
 17 18  1  0
 19 20  1  0
 21 22  1  0
M  CHG  1   6  -1
M  END
>  <PDB_ID>  (2027) 
pdb3vav

>  <RESIDUE_NAME>  (2027) 
ASP   PHE

>  <FRAG_NAME>  (2027) 
ACET   MBZ

>  <FRAG_ATOM_NUM>  (2027) 
fragi: 7  fragj: 15

>  <atom.prop.CHAIN_ID>  (2027) 
A A A A A A A Z Z Z Z Z Z Z Z Z Z Z Z Z Z Z

>  <atom.prop.IS_HEAVY_ATOM>  (2027) 
1 0 0 0 1 1 1 1 0 0 0 1 1 0 1 0 1 0 1 0 1 0

>  <DIFUSE_FUNC_ATOM>  (2027) 
atom 6   atom 7   

>  <FINAL_SINGLE_POINT_ENERGY>  (2027) 
0

>  <NONCOV_INTER_ENERGY_QM>  (2027) 
0

>  <FF_Energy>  (2027) 
-2.79

>  <QM_Energy>  (2027) 
-8.76

>  <source>  (2027) 
ACET_MBZ_02

>  <Index>  (2027) 
11290

$$$$
ACET-pdb3vav-E-ASP-34:MBZ-pdb3vav-E-PHE-37
     RDKit          3D

 22 21  0  0  0  0  0  0  0  0999 V2000
    5.4353    4.1557    0.2217 C   0  0  0  0  0  0  0  0  0  0  0  0
    6.0063    4.1397   -0.5943 H   0  0  0  0  0  0  0  0  0  0  0  0
    5.9803    3.9331    1.0247 H   0  0  0  0  0  0  0  0  0  0  0  0
    5.0710    5.1756    0.3451 H   0  0  0  0  0  0  0  0  0  0  0  0
    4.3332    3.1619    0.0773 C   0  0  0  0  0  0  0  0  0  0  0  0
    3.6260    3.2136   -0.9628 O   0  0  0  0  0  1  0  0  0  0  0  0
    4.1360    2.3324    1.0278 O   0  0  0  0  0  0  0  0  0  0  0  0
    0.0058    2.9157   -0.0614 C   0  0  0  0  0  0  0  0  0  0  0  0
    0.8813    3.2243    0.2659 H   0  0  0  0  0  0  0  0  0  0  0  0
   -0.7340    3.2357    0.5042 H   0  0  0  0  0  0  0  0  0  0  0  0
   -0.1396    3.3127   -1.0661 H   0  0  0  0  0  0  0  0  0  0  0  0
    0.0036    1.3946   -0.0073 C   0  0  0  0  0  0  0  0  0  0  0  0
   -1.1773    0.6970   -0.0090 C   0  0  0  0  0  0  0  0  0  0  0  0
   -2.0509    1.1870   -0.0175 H   0  0  0  0  0  0  0  0  0  0  0  0
   -1.1901   -0.6890   -0.0000 C   0  0  0  0  0  0  0  0  0  0  0  0
   -2.0814   -1.1706   -0.0110 H   0  0  0  0  0  0  0  0  0  0  0  0
   -0.0188   -1.3840    0.0250 C   0  0  0  0  0  0  0  0  0  0  0  0
   -0.0212   -2.3866    0.0610 H   0  0  0  0  0  0  0  0  0  0  0  0
    1.1901   -0.7020   -0.0000 C   0  0  0  0  0  0  0  0  0  0  0  0
    2.0646   -1.2083   -0.0100 H   0  0  0  0  0  0  0  0  0  0  0  0
    1.1925    0.6833   -0.0087 C   0  0  0  0  0  0  0  0  0  0  0  0
    2.0648    1.1767   -0.0168 H   0  0  0  0  0  0  0  0  0  0  0  0
  1  5  1  0
  5  6  1  0
  5  7  2  0
  1  2  1  0
  1  3  1  0
  1  4  1  0
  8 12  1  0
 12 13  2  0
 13 15  1  0
 15 17  2  0
 17 19  1  0
 19 21  2  0
 21 12  1  0
  8  9  1  0
  8 10  1  0
  8 11  1  0
 13 14  1  0
 15 16  1  0
 17 18  1  0
 19 20  1  0
 21 22  1  0
M  CHG  1   6  -1
M  END
>  <PDB_ID>  (2028) 
pdb3vav

>  <RESIDUE_NAME>  (2028) 
ASP   PHE

>  <FRAG_NAME>  (2028) 
ACET   MBZ

>  <FRAG_ATOM_NUM>  (2028) 
fragi: 7  fragj: 15

>  <atom.prop.CHAIN_ID>  (2028) 
A A A A A A A Z Z Z Z Z Z Z Z Z Z Z Z Z Z Z

>  <atom.prop.IS_HEAVY_ATOM>  (2028) 
1 0 0 0 1 1 1 1 0 0 0 1 1 0 1 0 1 0 1 0 1 0

>  <DIFUSE_FUNC_ATOM>  (2028) 
atom 6   atom 7   

>  <FINAL_SINGLE_POINT_ENERGY>  (2028) 
0

>  <NONCOV_INTER_ENERGY_QM>  (2028) 
0

>  <FF_Energy>  (2028) 
-2.78

>  <QM_Energy>  (2028) 
-8.64

>  <source>  (2028) 
ACET_MBZ_02

>  <Index>  (2028) 
11309

$$$$
ACET-pdb3vav-I-ASP-34:MBZ-pdb3vav-I-PHE-37
     RDKit          3D

 22 21  0  0  0  0  0  0  0  0999 V2000
    5.4175    4.1247    0.4007 C   0  0  0  0  0  0  0  0  0  0  0  0
    6.0157    4.1366   -0.3930 H   0  0  0  0  0  0  0  0  0  0  0  0
    5.9311    3.8955    1.2191 H   0  0  0  0  0  0  0  0  0  0  0  0
    5.0192    5.1311    0.5298 H   0  0  0  0  0  0  0  0  0  0  0  0
    4.3365    3.0908    0.1890 C   0  0  0  0  0  0  0  0  0  0  0  0
    3.6940    3.1122   -0.9003 O   0  0  0  0  0  1  0  0  0  0  0  0
    4.1282    2.2539    1.0969 O   0  0  0  0  0  0  0  0  0  0  0  0
    0.0111    2.8846   -0.0334 C   0  0  0  0  0  0  0  0  0  0  0  0
    0.8778    3.2170    0.2942 H   0  0  0  0  0  0  0  0  0  0  0  0
   -0.7421    3.2207    0.5028 H   0  0  0  0  0  0  0  0  0  0  0  0
   -0.1177    3.2776   -1.0418 H   0  0  0  0  0  0  0  0  0  0  0  0
    0.0130    1.4008    0.0105 C   0  0  0  0  0  0  0  0  0  0  0  0
   -1.1964    0.6874    0.0099 C   0  0  0  0  0  0  0  0  0  0  0  0
   -2.0558    1.1850    0.0155 H   0  0  0  0  0  0  0  0  0  0  0  0
   -1.1973   -0.6945   -0.0000 C   0  0  0  0  0  0  0  0  0  0  0  0
   -2.0798   -1.1908    0.0117 H   0  0  0  0  0  0  0  0  0  0  0  0
   -0.0067   -1.3949   -0.0238 C   0  0  0  0  0  0  0  0  0  0  0  0
   -0.0065   -2.3890   -0.0583 H   0  0  0  0  0  0  0  0  0  0  0  0
    1.1973   -0.6920    0.0000 C   0  0  0  0  0  0  0  0  0  0  0  0
    2.0773   -1.1926    0.0159 H   0  0  0  0  0  0  0  0  0  0  0  0
    1.1901    0.6931    0.0034 C   0  0  0  0  0  0  0  0  0  0  0  0
    2.0686    1.1863   -0.0001 H   0  0  0  0  0  0  0  0  0  0  0  0
  1  5  1  0
  5  6  1  0
  5  7  2  0
  1  2  1  0
  1  3  1  0
  1  4  1  0
  8 12  1  0
 12 13  2  0
 13 15  1  0
 15 17  2  0
 17 19  1  0
 19 21  2  0
 21 12  1  0
  8  9  1  0
  8 10  1  0
  8 11  1  0
 13 14  1  0
 15 16  1  0
 17 18  1  0
 19 20  1  0
 21 22  1  0
M  CHG  1   6  -1
M  END
>  <PDB_ID>  (2029) 
pdb3vav

>  <RESIDUE_NAME>  (2029) 
ASP   PHE

>  <FRAG_NAME>  (2029) 
ACET   MBZ

>  <FRAG_ATOM_NUM>  (2029) 
fragi: 7  fragj: 15

>  <atom.prop.CHAIN_ID>  (2029) 
A A A A A A A Z Z Z Z Z Z Z Z Z Z Z Z Z Z Z

>  <atom.prop.IS_HEAVY_ATOM>  (2029) 
1 0 0 0 1 1 1 1 0 0 0 1 1 0 1 0 1 0 1 0 1 0

>  <DIFUSE_FUNC_ATOM>  (2029) 
atom 6   atom 7   

>  <FINAL_SINGLE_POINT_ENERGY>  (2029) 
0

>  <NONCOV_INTER_ENERGY_QM>  (2029) 
0

>  <FF_Energy>  (2029) 
-2.82

>  <QM_Energy>  (2029) 
-8.68

>  <source>  (2029) 
ACET_MBZ_02

>  <Index>  (2029) 
11327

$$$$
ACET-pdb4wcj-A-ASP-117:MBZ-pdb4wcj-A-PHE-151
     RDKit          3D

 22 21  0  0  0  0  0  0  0  0999 V2000
    2.8966    3.8363   -4.5286 C   0  0  0  0  0  0  0  0  0  0  0  0
    2.0595    3.4750   -4.9204 H   0  0  0  0  0  0  0  0  0  0  0  0
    3.6733    3.6305   -5.1102 H   0  0  0  0  0  0  0  0  0  0  0  0
    2.7997    4.9198   -4.4604 H   0  0  0  0  0  0  0  0  0  0  0  0
    3.1172    3.1946   -3.1749 C   0  0  0  0  0  0  0  0  0  0  0  0
    2.1301    3.0507   -2.4185 O   0  0  0  0  0  1  0  0  0  0  0  0
    4.2666    2.8324   -2.8534 O   0  0  0  0  0  0  0  0  0  0  0  0
   -0.0107    2.8919   -0.0081 C   0  0  0  0  0  0  0  0  0  0  0  0
   -0.7169    3.1895   -0.6376 H   0  0  0  0  0  0  0  0  0  0  0  0
    0.8828    3.2024   -0.3085 H   0  0  0  0  0  0  0  0  0  0  0  0
   -0.2136    3.3518    0.9591 H   0  0  0  0  0  0  0  0  0  0  0  0
   -0.0026    1.3992    0.0104 C   0  0  0  0  0  0  0  0  0  0  0  0
   -1.1948    0.6850   -0.0049 C   0  0  0  0  0  0  0  0  0  0  0  0
   -2.0649    1.1734   -0.0204 H   0  0  0  0  0  0  0  0  0  0  0  0
   -1.1984   -0.7052   -0.0000 C   0  0  0  0  0  0  0  0  0  0  0  0
   -2.0733   -1.1988    0.0104 H   0  0  0  0  0  0  0  0  0  0  0  0
    0.0021   -1.3900   -0.0069 C   0  0  0  0  0  0  0  0  0  0  0  0
    0.0060   -2.3915   -0.0176 H   0  0  0  0  0  0  0  0  0  0  0  0
    1.1984   -0.6896   -0.0000 C   0  0  0  0  0  0  0  0  0  0  0  0
    2.0827   -1.1865    0.0061 H   0  0  0  0  0  0  0  0  0  0  0  0
    1.1953    0.7006    0.0014 C   0  0  0  0  0  0  0  0  0  0  0  0
    2.0607    1.1969   -0.0051 H   0  0  0  0  0  0  0  0  0  0  0  0
  1  5  1  0
  5  6  1  0
  5  7  2  0
  1  2  1  0
  1  3  1  0
  1  4  1  0
  8 12  1  0
 12 13  2  0
 13 15  1  0
 15 17  2  0
 17 19  1  0
 19 21  2  0
 21 12  1  0
  8  9  1  0
  8 10  1  0
  8 11  1  0
 13 14  1  0
 15 16  1  0
 17 18  1  0
 19 20  1  0
 21 22  1  0
M  CHG  1   6  -1
M  END
>  <PDB_ID>  (2030) 
pdb4wcj

>  <RESIDUE_NAME>  (2030) 
ASP   PHE

>  <FRAG_NAME>  (2030) 
ACET   MBZ

>  <FRAG_ATOM_NUM>  (2030) 
fragi: 7  fragj: 15

>  <atom.prop.CHAIN_ID>  (2030) 
A A A A A A A Z Z Z Z Z Z Z Z Z Z Z Z Z Z Z

>  <atom.prop.IS_HEAVY_ATOM>  (2030) 
1 0 0 0 1 1 1 1 0 0 0 1 1 0 1 0 1 0 1 0 1 0

>  <DIFUSE_FUNC_ATOM>  (2030) 
atom 6   atom 7   

>  <FINAL_SINGLE_POINT_ENERGY>  (2030) 
0

>  <NONCOV_INTER_ENERGY_QM>  (2030) 
0

>  <FF_Energy>  (2030) 
-0.18

>  <QM_Energy>  (2030) 
-6.1

>  <source>  (2030) 
ACET_MBZ_02

>  <Index>  (2030) 
11427

$$$$
ACET-pdb4wec-D-GLU-222:MBZ-pdb4wec-B-PHE-237
     RDKit          3D

 22 21  0  0  0  0  0  0  0  0999 V2000
   -1.4736    4.6028   -3.9201 C   0  0  0  0  0  0  0  0  0  0  0  0
   -1.8080    5.4783   -3.6240 H   0  0  0  0  0  0  0  0  0  0  0  0
   -1.7216    4.4052   -4.8509 H   0  0  0  0  0  0  0  0  0  0  0  0
   -0.3857    4.6171   -3.8549 H   0  0  0  0  0  0  0  0  0  0  0  0
   -2.1133    3.5430   -3.0385 C   0  0  0  0  0  0  0  0  0  0  0  0
   -1.9519    2.3421   -3.3345 O   0  0  0  0  0  1  0  0  0  0  0  0
   -2.7809    3.9058   -2.0457 O   0  0  0  0  0  0  0  0  0  0  0  0
   -0.0055    2.8990   -0.0133 C   0  0  0  0  0  0  0  0  0  0  0  0
   -0.5372    3.1996   -0.7905 H   0  0  0  0  0  0  0  0  0  0  0  0
    0.9309    3.2089   -0.0761 H   0  0  0  0  0  0  0  0  0  0  0  0
   -0.4427    3.3450    0.8799 H   0  0  0  0  0  0  0  0  0  0  0  0
   -0.0010    1.3973   -0.0035 C   0  0  0  0  0  0  0  0  0  0  0  0
   -1.1920    0.6907    0.0011 C   0  0  0  0  0  0  0  0  0  0  0  0
   -2.0605    1.1811    0.0042 H   0  0  0  0  0  0  0  0  0  0  0  0
   -1.1973   -0.6964   -0.0000 C   0  0  0  0  0  0  0  0  0  0  0  0
   -2.0743   -1.1904   -0.0067 H   0  0  0  0  0  0  0  0  0  0  0  0
    0.0008   -1.3890    0.0091 C   0  0  0  0  0  0  0  0  0  0  0  0
   -0.0015   -2.3886    0.0221 H   0  0  0  0  0  0  0  0  0  0  0  0
    1.1973   -0.6929    0.0000 C   0  0  0  0  0  0  0  0  0  0  0  0
    2.0801   -1.1925   -0.0001 H   0  0  0  0  0  0  0  0  0  0  0  0
    1.1922    0.6904   -0.0068 C   0  0  0  0  0  0  0  0  0  0  0  0
    2.0610    1.1897   -0.0146 H   0  0  0  0  0  0  0  0  0  0  0  0
  1  5  1  0
  5  6  1  0
  5  7  2  0
  1  2  1  0
  1  3  1  0
  1  4  1  0
  8 12  1  0
 12 13  2  0
 13 15  1  0
 15 17  2  0
 17 19  1  0
 19 21  2  0
 21 12  1  0
  8  9  1  0
  8 10  1  0
  8 11  1  0
 13 14  1  0
 15 16  1  0
 17 18  1  0
 19 20  1  0
 21 22  1  0
M  CHG  1   6  -1
M  END
>  <PDB_ID>  (2031) 
pdb4wec

>  <RESIDUE_NAME>  (2031) 
GLU   PHE

>  <FRAG_NAME>  (2031) 
ACET   MBZ

>  <FRAG_ATOM_NUM>  (2031) 
fragi: 7  fragj: 15

>  <atom.prop.CHAIN_ID>  (2031) 
A A A A A A A Z Z Z Z Z Z Z Z Z Z Z Z Z Z Z

>  <atom.prop.IS_HEAVY_ATOM>  (2031) 
1 0 0 0 1 1 1 1 0 0 0 1 1 0 1 0 1 0 1 0 1 0

>  <DIFUSE_FUNC_ATOM>  (2031) 
atom 6   atom 7   

>  <FINAL_SINGLE_POINT_ENERGY>  (2031) 
0

>  <NONCOV_INTER_ENERGY_QM>  (2031) 
0

>  <FF_Energy>  (2031) 
-0.36

>  <QM_Energy>  (2031) 
-5.5

>  <source>  (2031) 
ACET_MBZ_02

>  <Index>  (2031) 
11534

$$$$
ACET-pdb3vgd-A-ASP-328:MBZ-pdb3vgd-A-PHE-352
     RDKit          3D

 22 21  0  0  0  0  0  0  0  0999 V2000
    1.7525    5.4729   -3.4041 C   0  0  0  0  0  0  0  0  0  0  0  0
    1.7623    4.5397   -3.7497 H   0  0  0  0  0  0  0  0  0  0  0  0
    2.5976    5.9378   -3.6457 H   0  0  0  0  0  0  0  0  0  0  0  0
    0.9308    5.9991   -3.8900 H   0  0  0  0  0  0  0  0  0  0  0  0
    1.6295    5.4342   -1.8925 C   0  0  0  0  0  0  0  0  0  0  0  0
    0.6325    5.9168   -1.3173 O   0  0  0  0  0  1  0  0  0  0  0  0
    2.5649    4.9138   -1.2636 O   0  0  0  0  0  0  0  0  0  0  0  0
    0.0066    2.9558    0.0049 C   0  0  0  0  0  0  0  0  0  0  0  0
   -0.5365    3.2537   -0.7584 H   0  0  0  0  0  0  0  0  0  0  0  0
    0.9409    3.2525   -0.0618 H   0  0  0  0  0  0  0  0  0  0  0  0
   -0.4188    3.3908    0.9092 H   0  0  0  0  0  0  0  0  0  0  0  0
    0.0092    1.4162   -0.0040 C   0  0  0  0  0  0  0  0  0  0  0  0
   -1.2006    0.6919   -0.0085 C   0  0  0  0  0  0  0  0  0  0  0  0
   -2.0653    1.1820   -0.0191 H   0  0  0  0  0  0  0  0  0  0  0  0
   -1.2140   -0.7170   -0.0000 C   0  0  0  0  0  0  0  0  0  0  0  0
   -2.0917   -1.1973    0.0026 H   0  0  0  0  0  0  0  0  0  0  0  0
   -0.0137   -1.4110    0.0068 C   0  0  0  0  0  0  0  0  0  0  0  0
    0.0016   -2.4036    0.0161 H   0  0  0  0  0  0  0  0  0  0  0  0
    1.2140   -0.6929   -0.0000 C   0  0  0  0  0  0  0  0  0  0  0  0
    2.0860   -1.1912   -0.0076 H   0  0  0  0  0  0  0  0  0  0  0  0
    1.2050    0.7128    0.0057 C   0  0  0  0  0  0  0  0  0  0  0  0
    2.0745    1.2036    0.0159 H   0  0  0  0  0  0  0  0  0  0  0  0
  1  5  1  0
  5  6  1  0
  5  7  2  0
  1  2  1  0
  1  3  1  0
  1  4  1  0
  8 12  1  0
 12 13  2  0
 13 15  1  0
 15 17  2  0
 17 19  1  0
 19 21  2  0
 21 12  1  0
  8  9  1  0
  8 10  1  0
  8 11  1  0
 13 14  1  0
 15 16  1  0
 17 18  1  0
 19 20  1  0
 21 22  1  0
M  CHG  1   6  -1
M  END
>  <PDB_ID>  (2032) 
pdb3vgd

>  <RESIDUE_NAME>  (2032) 
ASP   PHE

>  <FRAG_NAME>  (2032) 
ACET   MBZ

>  <FRAG_ATOM_NUM>  (2032) 
fragi: 7  fragj: 15

>  <atom.prop.CHAIN_ID>  (2032) 
A A A A A A A Z Z Z Z Z Z Z Z Z Z Z Z Z Z Z

>  <atom.prop.IS_HEAVY_ATOM>  (2032) 
1 0 0 0 1 1 1 1 0 0 0 1 1 0 1 0 1 0 1 0 1 0

>  <DIFUSE_FUNC_ATOM>  (2032) 
atom 6   atom 7   

>  <FINAL_SINGLE_POINT_ENERGY>  (2032) 
0

>  <NONCOV_INTER_ENERGY_QM>  (2032) 
0

>  <FF_Energy>  (2032) 
-1.57

>  <QM_Energy>  (2032) 
-6.65

>  <source>  (2032) 
ACET_MBZ_02

>  <Index>  (2032) 
11618

$$$$
ACET-pdb3vgd-A-GLU-196:MBZ-pdb3vgd-A-PHE-431
     RDKit          3D

 22 21  0  0  0  0  0  0  0  0999 V2000
   -5.2363    2.5436    1.6717 C   0  0  0  0  0  0  0  0  0  0  0  0
   -6.0366    2.4302    1.1065 H   0  0  0  0  0  0  0  0  0  0  0  0
   -5.4739    2.8315    2.5850 H   0  0  0  0  0  0  0  0  0  0  0  0
   -4.7441    1.5739    1.7465 H   0  0  0  0  0  0  0  0  0  0  0  0
   -4.3804    3.6392    1.0496 C   0  0  0  0  0  0  0  0  0  0  0  0
   -3.1318    3.5304    1.0702 O   0  0  0  0  0  1  0  0  0  0  0  0
   -4.9620    4.6260    0.5367 O   0  0  0  0  0  0  0  0  0  0  0  0
    0.0049    2.8994    0.0233 C   0  0  0  0  0  0  0  0  0  0  0  0
    0.9445    3.2067    0.0700 H   0  0  0  0  0  0  0  0  0  0  0  0
   -0.5070    3.1958    0.8173 H   0  0  0  0  0  0  0  0  0  0  0  0
   -0.4501    3.3604   -0.8533 H   0  0  0  0  0  0  0  0  0  0  0  0
    0.0016    1.4058   -0.0057 C   0  0  0  0  0  0  0  0  0  0  0  0
   -1.1984    0.6941   -0.0009 C   0  0  0  0  0  0  0  0  0  0  0  0
   -2.0644    1.1884    0.0004 H   0  0  0  0  0  0  0  0  0  0  0  0
   -1.2090   -0.6964   -0.0000 C   0  0  0  0  0  0  0  0  0  0  0  0
   -2.0838   -1.1898    0.0028 H   0  0  0  0  0  0  0  0  0  0  0  0
   -0.0025   -1.4013   -0.0015 C   0  0  0  0  0  0  0  0  0  0  0  0
   -0.0097   -2.3966   -0.0039 H   0  0  0  0  0  0  0  0  0  0  0  0
    1.2090   -0.7036    0.0000 C   0  0  0  0  0  0  0  0  0  0  0  0
    2.0857   -1.1955   -0.0028 H   0  0  0  0  0  0  0  0  0  0  0  0
    1.1994    0.7014    0.0081 C   0  0  0  0  0  0  0  0  0  0  0  0
    2.0678    1.1932    0.0233 H   0  0  0  0  0  0  0  0  0  0  0  0
  1  5  1  0
  5  6  1  0
  5  7  2  0
  1  2  1  0
  1  3  1  0
  1  4  1  0
  8 12  1  0
 12 13  2  0
 13 15  1  0
 15 17  2  0
 17 19  1  0
 19 21  2  0
 21 12  1  0
  8  9  1  0
  8 10  1  0
  8 11  1  0
 13 14  1  0
 15 16  1  0
 17 18  1  0
 19 20  1  0
 21 22  1  0
M  CHG  1   6  -1
M  END
>  <PDB_ID>  (2033) 
pdb3vgd

>  <RESIDUE_NAME>  (2033) 
GLU   PHE

>  <FRAG_NAME>  (2033) 
ACET   MBZ

>  <FRAG_ATOM_NUM>  (2033) 
fragi: 7  fragj: 15

>  <atom.prop.CHAIN_ID>  (2033) 
A A A A A A A Z Z Z Z Z Z Z Z Z Z Z Z Z Z Z

>  <atom.prop.IS_HEAVY_ATOM>  (2033) 
1 0 0 0 1 1 1 1 0 0 0 1 1 0 1 0 1 0 1 0 1 0

>  <DIFUSE_FUNC_ATOM>  (2033) 
atom 6   atom 7   

>  <FINAL_SINGLE_POINT_ENERGY>  (2033) 
0

>  <NONCOV_INTER_ENERGY_QM>  (2033) 
0

>  <FF_Energy>  (2033) 
-1.93

>  <QM_Energy>  (2033) 
-6.97

>  <source>  (2033) 
ACET_MBZ_02

>  <Index>  (2033) 
11627

$$$$
ACET-pdb3vb0-B-ASP-172:MBZ-pdb3vb0-B-PHE-183
     RDKit          3D

 22 21  0  0  0  0  0  0  0  0999 V2000
    3.8261    3.4728    3.7329 C   0  0  0  0  0  0  0  0  0  0  0  0
    4.4049    2.6656    3.7622 H   0  0  0  0  0  0  0  0  0  0  0  0
    4.0131    4.0634    4.5085 H   0  0  0  0  0  0  0  0  0  0  0  0
    4.0703    4.0258    2.8259 H   0  0  0  0  0  0  0  0  0  0  0  0
    2.3766    3.0399    3.7823 C   0  0  0  0  0  0  0  0  0  0  0  0
    1.9144    2.4144    2.8173 O   0  0  0  0  0  1  0  0  0  0  0  0
    1.7077    3.3318    4.7921 O   0  0  0  0  0  0  0  0  0  0  0  0
   -0.0130    2.9145   -0.0097 C   0  0  0  0  0  0  0  0  0  0  0  0
    0.7107    3.2259    0.5854 H   0  0  0  0  0  0  0  0  0  0  0  0
   -0.8989    3.2139    0.3091 H   0  0  0  0  0  0  0  0  0  0  0  0
    0.1530    3.3476   -0.9960 H   0  0  0  0  0  0  0  0  0  0  0  0
   -0.0034    1.4019    0.0021 C   0  0  0  0  0  0  0  0  0  0  0  0
   -1.1963    0.6872   -0.0050 C   0  0  0  0  0  0  0  0  0  0  0  0
   -2.0661    1.1797   -0.0152 H   0  0  0  0  0  0  0  0  0  0  0  0
   -1.2039   -0.6991    0.0000 C   0  0  0  0  0  0  0  0  0  0  0  0
   -2.0770   -1.1953   -0.0018 H   0  0  0  0  0  0  0  0  0  0  0  0
    0.0029   -1.3956    0.0093 C   0  0  0  0  0  0  0  0  0  0  0  0
    0.0039   -2.3902    0.0221 H   0  0  0  0  0  0  0  0  0  0  0  0
    1.2039   -0.6873   -0.0000 C   0  0  0  0  0  0  0  0  0  0  0  0
    2.0862   -1.1885   -0.0006 H   0  0  0  0  0  0  0  0  0  0  0  0
    1.1968    0.6930   -0.0063 C   0  0  0  0  0  0  0  0  0  0  0  0
    2.0621    1.1969   -0.0179 H   0  0  0  0  0  0  0  0  0  0  0  0
  1  5  1  0
  5  6  1  0
  5  7  2  0
  1  2  1  0
  1  3  1  0
  1  4  1  0
  8 12  1  0
 12 13  2  0
 13 15  1  0
 15 17  2  0
 17 19  1  0
 19 21  2  0
 21 12  1  0
  8  9  1  0
  8 10  1  0
  8 11  1  0
 13 14  1  0
 15 16  1  0
 17 18  1  0
 19 20  1  0
 21 22  1  0
M  CHG  1   6  -1
M  END
>  <PDB_ID>  (2034) 
pdb3vb0

>  <RESIDUE_NAME>  (2034) 
ASP   PHE

>  <FRAG_NAME>  (2034) 
ACET   MBZ

>  <FRAG_ATOM_NUM>  (2034) 
fragi: 7  fragj: 15

>  <atom.prop.CHAIN_ID>  (2034) 
A A A A A A A Z Z Z Z Z Z Z Z Z Z Z Z Z Z Z

>  <atom.prop.IS_HEAVY_ATOM>  (2034) 
1 0 0 0 1 1 1 1 0 0 0 1 1 0 1 0 1 0 1 0 1 0

>  <DIFUSE_FUNC_ATOM>  (2034) 
atom 6   atom 7   

>  <FINAL_SINGLE_POINT_ENERGY>  (2034) 
0

>  <NONCOV_INTER_ENERGY_QM>  (2034) 
0

>  <FF_Energy>  (2034) 
1.05

>  <QM_Energy>  (2034) 
-4.09

>  <source>  (2034) 
ACET_MBZ_02

>  <Index>  (2034) 
11652

$$$$
ACET-pdb3vh5-A-GLU-63:MBZ-pdb3vh5-D-PHE-21
     RDKit          3D

 22 21  0  0  0  0  0  0  0  0999 V2000
   -2.5394    1.9643    4.1635 C   0  0  0  0  0  0  0  0  0  0  0  0
   -3.0824    2.3318    4.8851 H   0  0  0  0  0  0  0  0  0  0  0  0
   -1.6830    1.6056    4.4609 H   0  0  0  0  0  0  0  0  0  0  0  0
   -3.1017    1.1612    3.6872 H   0  0  0  0  0  0  0  0  0  0  0  0
   -2.2425    3.1085    3.1827 C   0  0  0  0  0  0  0  0  0  0  0  0
   -3.1944    3.6031    2.5427 O   0  0  0  0  0  1  0  0  0  0  0  0
   -1.0624    3.5028    3.0312 O   0  0  0  0  0  0  0  0  0  0  0  0
   -0.0065    2.8981   -0.0055 C   0  0  0  0  0  0  0  0  0  0  0  0
    0.7750    3.2036   -0.5248 H   0  0  0  0  0  0  0  0  0  0  0  0
    0.0339    3.2093    0.9297 H   0  0  0  0  0  0  0  0  0  0  0  0
   -0.8982    3.3283   -0.4614 H   0  0  0  0  0  0  0  0  0  0  0  0
   -0.0019    1.3917    0.0028 C   0  0  0  0  0  0  0  0  0  0  0  0
   -1.1968    0.6853    0.0014 C   0  0  0  0  0  0  0  0  0  0  0  0
   -2.0617    1.1816    0.0007 H   0  0  0  0  0  0  0  0  0  0  0  0
   -1.1962   -0.6872   -0.0000 C   0  0  0  0  0  0  0  0  0  0  0  0
   -2.0714   -1.1919    0.0042 H   0  0  0  0  0  0  0  0  0  0  0  0
    0.0054   -1.3818   -0.0046 C   0  0  0  0  0  0  0  0  0  0  0  0
   -0.0033   -2.3834   -0.0116 H   0  0  0  0  0  0  0  0  0  0  0  0
    1.1962   -0.6923   -0.0000 C   0  0  0  0  0  0  0  0  0  0  0  0
    2.0807   -1.1937    0.0048 H   0  0  0  0  0  0  0  0  0  0  0  0
    1.1933    0.6843    0.0003 C   0  0  0  0  0  0  0  0  0  0  0  0
    2.0607    1.1869   -0.0023 H   0  0  0  0  0  0  0  0  0  0  0  0
  1  5  1  0
  5  6  1  0
  5  7  2  0
  1  2  1  0
  1  3  1  0
  1  4  1  0
  8 12  1  0
 12 13  2  0
 13 15  1  0
 15 17  2  0
 17 19  1  0
 19 21  2  0
 21 12  1  0
  8  9  1  0
  8 10  1  0
  8 11  1  0
 13 14  1  0
 15 16  1  0
 17 18  1  0
 19 20  1  0
 21 22  1  0
M  CHG  1   6  -1
M  END
>  <PDB_ID>  (2035) 
pdb3vh5

>  <RESIDUE_NAME>  (2035) 
GLU   PHE

>  <FRAG_NAME>  (2035) 
ACET   MBZ

>  <FRAG_ATOM_NUM>  (2035) 
fragi: 7  fragj: 15

>  <atom.prop.CHAIN_ID>  (2035) 
A A A A A A A Z Z Z Z Z Z Z Z Z Z Z Z Z Z Z

>  <atom.prop.IS_HEAVY_ATOM>  (2035) 
1 0 0 0 1 1 1 1 0 0 0 1 1 0 1 0 1 0 1 0 1 0

>  <DIFUSE_FUNC_ATOM>  (2035) 
atom 6   atom 7   

>  <FINAL_SINGLE_POINT_ENERGY>  (2035) 
0

>  <NONCOV_INTER_ENERGY_QM>  (2035) 
0

>  <FF_Energy>  (2035) 
-0.56

>  <QM_Energy>  (2035) 
-6.15

>  <source>  (2035) 
ACET_MBZ_02

>  <Index>  (2035) 
11660

$$$$
ACET-pdb4whn-D-GLU-133:MBZ-pdb4whn-D-PHE-148
     RDKit          3D

 22 21  0  0  0  0  0  0  0  0999 V2000
   -0.7340    0.4045    3.7573 C   0  0  0  0  0  0  0  0  0  0  0  0
   -1.4457    0.2606    3.0851 H   0  0  0  0  0  0  0  0  0  0  0  0
   -1.1001    0.3744    4.6762 H   0  0  0  0  0  0  0  0  0  0  0  0
   -0.0008   -0.3953    3.6540 H   0  0  0  0  0  0  0  0  0  0  0  0
   -0.1824    1.8128    3.5372 C   0  0  0  0  0  0  0  0  0  0  0  0
    1.0454    1.9648    3.5946 O   0  0  0  0  0  1  0  0  0  0  0  0
   -0.9846    2.7614    3.3383 O   0  0  0  0  0  0  0  0  0  0  0  0
   -0.0167    2.9096    0.0397 C   0  0  0  0  0  0  0  0  0  0  0  0
    0.9132    3.2262   -0.0814 H   0  0  0  0  0  0  0  0  0  0  0  0
   -0.3785    3.1886    0.9175 H   0  0  0  0  0  0  0  0  0  0  0  0
   -0.6302    3.3682   -0.7357 H   0  0  0  0  0  0  0  0  0  0  0  0
   -0.0025    1.4048    0.0017 C   0  0  0  0  0  0  0  0  0  0  0  0
   -1.1923    0.6791   -0.0026 C   0  0  0  0  0  0  0  0  0  0  0  0
   -2.0642    1.1682   -0.0093 H   0  0  0  0  0  0  0  0  0  0  0  0
   -1.1876   -0.7007    0.0000 C   0  0  0  0  0  0  0  0  0  0  0  0
   -2.0685   -1.2007    0.0009 H   0  0  0  0  0  0  0  0  0  0  0  0
    0.0045   -1.3925    0.0023 C   0  0  0  0  0  0  0  0  0  0  0  0
    0.0024   -2.3913    0.0056 H   0  0  0  0  0  0  0  0  0  0  0  0
    1.1876   -0.6931    0.0000 C   0  0  0  0  0  0  0  0  0  0  0  0
    2.0797   -1.1848    0.0012 H   0  0  0  0  0  0  0  0  0  0  0  0
    1.1903    0.7024   -0.0014 C   0  0  0  0  0  0  0  0  0  0  0  0
    2.0592    1.1922   -0.0053 H   0  0  0  0  0  0  0  0  0  0  0  0
  1  5  1  0
  5  6  1  0
  5  7  2  0
  1  2  1  0
  1  3  1  0
  1  4  1  0
  8 12  1  0
 12 13  2  0
 13 15  1  0
 15 17  2  0
 17 19  1  0
 19 21  2  0
 21 12  1  0
  8  9  1  0
  8 10  1  0
  8 11  1  0
 13 14  1  0
 15 16  1  0
 17 18  1  0
 19 20  1  0
 21 22  1  0
M  CHG  1   6  -1
M  END
>  <PDB_ID>  (2036) 
pdb4whn

>  <RESIDUE_NAME>  (2036) 
GLU   PHE

>  <FRAG_NAME>  (2036) 
ACET   MBZ

>  <FRAG_ATOM_NUM>  (2036) 
fragi: 7  fragj: 15

>  <atom.prop.CHAIN_ID>  (2036) 
A A A A A A A Z Z Z Z Z Z Z Z Z Z Z Z Z Z Z

>  <atom.prop.IS_HEAVY_ATOM>  (2036) 
1 0 0 0 1 1 1 1 0 0 0 1 1 0 1 0 1 0 1 0 1 0

>  <DIFUSE_FUNC_ATOM>  (2036) 
atom 6   atom 7   

>  <FINAL_SINGLE_POINT_ENERGY>  (2036) 
0

>  <NONCOV_INTER_ENERGY_QM>  (2036) 
0

>  <FF_Energy>  (2036) 
0.07

>  <QM_Energy>  (2036) 
-5.9

>  <source>  (2036) 
ACET_MBZ_02

>  <Index>  (2036) 
11732

$$$$
ACET-pdb4wid-B-GLU-117:MBZ-pdb4wid-B-PHE-65
     RDKit          3D

 22 21  0  0  0  0  0  0  0  0999 V2000
   -1.9209    0.6331   -3.9664 C   0  0  0  0  0  0  0  0  0  0  0  0
   -1.4926   -0.0711   -3.4294 H   0  0  0  0  0  0  0  0  0  0  0  0
   -2.1525    0.3208   -4.8704 H   0  0  0  0  0  0  0  0  0  0  0  0
   -2.8390    0.9357   -3.4628 H   0  0  0  0  0  0  0  0  0  0  0  0
   -0.9069    1.7681   -4.1227 C   0  0  0  0  0  0  0  0  0  0  0  0
   -0.4396    1.9997   -5.2604 O   0  0  0  0  0  1  0  0  0  0  0  0
   -0.5669    2.4212   -3.1104 O   0  0  0  0  0  0  0  0  0  0  0  0
    0.0064    2.9024   -0.0134 C   0  0  0  0  0  0  0  0  0  0  0  0
   -0.6544    3.2014   -0.6867 H   0  0  0  0  0  0  0  0  0  0  0  0
    0.9201    3.2008   -0.2516 H   0  0  0  0  0  0  0  0  0  0  0  0
   -0.2569    3.3600    0.9402 H   0  0  0  0  0  0  0  0  0  0  0  0
    0.0011    1.3965    0.0038 C   0  0  0  0  0  0  0  0  0  0  0  0
   -1.1892    0.6931   -0.0036 C   0  0  0  0  0  0  0  0  0  0  0  0
   -2.0578    1.1848   -0.0130 H   0  0  0  0  0  0  0  0  0  0  0  0
   -1.1935   -0.6899    0.0000 C   0  0  0  0  0  0  0  0  0  0  0  0
   -2.0761   -1.1833    0.0018 H   0  0  0  0  0  0  0  0  0  0  0  0
   -0.0043   -1.3862    0.0026 C   0  0  0  0  0  0  0  0  0  0  0  0
   -0.0114   -2.3883    0.0058 H   0  0  0  0  0  0  0  0  0  0  0  0
    1.1935   -0.6990    0.0000 C   0  0  0  0  0  0  0  0  0  0  0  0
    2.0746   -1.2002    0.0011 H   0  0  0  0  0  0  0  0  0  0  0  0
    1.1924    0.6854   -0.0027 C   0  0  0  0  0  0  0  0  0  0  0  0
    2.0628    1.1813   -0.0109 H   0  0  0  0  0  0  0  0  0  0  0  0
  1  5  1  0
  5  6  1  0
  5  7  2  0
  1  2  1  0
  1  3  1  0
  1  4  1  0
  8 12  1  0
 12 13  2  0
 13 15  1  0
 15 17  2  0
 17 19  1  0
 19 21  2  0
 21 12  1  0
  8  9  1  0
  8 10  1  0
  8 11  1  0
 13 14  1  0
 15 16  1  0
 17 18  1  0
 19 20  1  0
 21 22  1  0
M  CHG  1   6  -1
M  END
>  <PDB_ID>  (2037) 
pdb4wid

>  <RESIDUE_NAME>  (2037) 
GLU   PHE

>  <FRAG_NAME>  (2037) 
ACET   MBZ

>  <FRAG_ATOM_NUM>  (2037) 
fragi: 7  fragj: 15

>  <atom.prop.CHAIN_ID>  (2037) 
A A A A A A A Z Z Z Z Z Z Z Z Z Z Z Z Z Z Z

>  <atom.prop.IS_HEAVY_ATOM>  (2037) 
1 0 0 0 1 1 1 1 0 0 0 1 1 0 1 0 1 0 1 0 1 0

>  <DIFUSE_FUNC_ATOM>  (2037) 
atom 6   atom 7   

>  <FINAL_SINGLE_POINT_ENERGY>  (2037) 
0

>  <NONCOV_INTER_ENERGY_QM>  (2037) 
0

>  <FF_Energy>  (2037) 
1.5

>  <QM_Energy>  (2037) 
-4.05

>  <source>  (2037) 
ACET_MBZ_02

>  <Index>  (2037) 
11785

$$$$
ACET-pdb3vis-A-ASP-236:MBZ-pdb3vis-A-PHE-300
     RDKit          3D

 22 21  0  0  0  0  0  0  0  0999 V2000
   -3.8327    2.2141    2.4483 C   0  0  0  0  0  0  0  0  0  0  0  0
   -3.7680    2.5951    3.3487 H   0  0  0  0  0  0  0  0  0  0  0  0
   -3.2888    1.4078    2.3362 H   0  0  0  0  0  0  0  0  0  0  0  0
   -4.8746    1.9832    2.2265 H   0  0  0  0  0  0  0  0  0  0  0  0
   -3.3065    3.2798    1.4473 C   0  0  0  0  0  0  0  0  0  0  0  0
   -3.4948    3.1349    0.1777 O   0  0  0  0  0  1  0  0  0  0  0  0
   -2.6869    4.1978    1.9163 O   0  0  0  0  0  0  0  0  0  0  0  0
    0.0113    2.9002    0.0336 C   0  0  0  0  0  0  0  0  0  0  0  0
    0.9316    3.2283    0.0305 H   0  0  0  0  0  0  0  0  0  0  0  0
   -0.5122    3.2218    0.7941 H   0  0  0  0  0  0  0  0  0  0  0  0
   -0.4611    3.3168   -0.8560 H   0  0  0  0  0  0  0  0  0  0  0  0
    0.0146    1.4073    0.0260 C   0  0  0  0  0  0  0  0  0  0  0  0
   -1.2078    0.7161   -0.0322 C   0  0  0  0  0  0  0  0  0  0  0  0
   -2.0588    1.2163   -0.0977 H   0  0  0  0  0  0  0  0  0  0  0  0
   -1.2416   -0.6971   -0.0000 C   0  0  0  0  0  0  0  0  0  0  0  0
   -2.1144   -1.1709    0.0426 H   0  0  0  0  0  0  0  0  0  0  0  0
   -0.0276   -1.4217   -0.0266 C   0  0  0  0  0  0  0  0  0  0  0  0
   -0.0335   -2.4093   -0.0638 H   0  0  0  0  0  0  0  0  0  0  0  0
    1.2416   -0.7240    0.0000 C   0  0  0  0  0  0  0  0  0  0  0  0
    2.0899   -1.2129   -0.0021 H   0  0  0  0  0  0  0  0  0  0  0  0
    1.2208    0.7194    0.0328 C   0  0  0  0  0  0  0  0  0  0  0  0
    2.0860    1.1998    0.0593 H   0  0  0  0  0  0  0  0  0  0  0  0
  1  5  1  0
  5  6  1  0
  5  7  2  0
  1  2  1  0
  1  3  1  0
  1  4  1  0
  8 12  1  0
 12 13  2  0
 13 15  1  0
 15 17  2  0
 17 19  1  0
 19 21  2  0
 21 12  1  0
  8  9  1  0
  8 10  1  0
  8 11  1  0
 13 14  1  0
 15 16  1  0
 17 18  1  0
 19 20  1  0
 21 22  1  0
M  CHG  1   6  -1
M  END
>  <PDB_ID>  (2038) 
pdb3vis

>  <RESIDUE_NAME>  (2038) 
ASP   PHE

>  <FRAG_NAME>  (2038) 
ACET   MBZ

>  <FRAG_ATOM_NUM>  (2038) 
fragi: 7  fragj: 15

>  <atom.prop.CHAIN_ID>  (2038) 
A A A A A A A Z Z Z Z Z Z Z Z Z Z Z Z Z Z Z

>  <atom.prop.IS_HEAVY_ATOM>  (2038) 
1 0 0 0 1 1 1 1 0 0 0 1 1 0 1 0 1 0 1 0 1 0

>  <DIFUSE_FUNC_ATOM>  (2038) 
atom 6   atom 7   

>  <FINAL_SINGLE_POINT_ENERGY>  (2038) 
0

>  <NONCOV_INTER_ENERGY_QM>  (2038) 
0

>  <FF_Energy>  (2038) 
-2.56

>  <QM_Energy>  (2038) 
-9.44

>  <source>  (2038) 
ACET_MBZ_02

>  <Index>  (2038) 
11791

$$$$
ACET-pdb3vnp-A-ASP-59:MBZ-pdb3vnp-A-PHE-38
     RDKit          3D

 22 21  0  0  0  0  0  0  0  0999 V2000
    3.9468    5.5933   -0.4675 C   0  0  0  0  0  0  0  0  0  0  0  0
    4.6912    6.1466   -0.1178 H   0  0  0  0  0  0  0  0  0  0  0  0
    3.1511    5.6604    0.1188 H   0  0  0  0  0  0  0  0  0  0  0  0
    3.6771    5.9683   -1.4548 H   0  0  0  0  0  0  0  0  0  0  0  0
    4.3987    4.1422   -0.5106 C   0  0  0  0  0  0  0  0  0  0  0  0
    3.5415    3.2248   -0.4666 O   0  0  0  0  0  1  0  0  0  0  0  0
    5.6220    3.9217   -0.6114 O   0  0  0  0  0  0  0  0  0  0  0  0
    0.0019    2.9033   -0.1277 C   0  0  0  0  0  0  0  0  0  0  0  0
    0.9069    3.2282    0.0890 H   0  0  0  0  0  0  0  0  0  0  0  0
   -0.6759    3.2644    0.4897 H   0  0  0  0  0  0  0  0  0  0  0  0
   -0.2442    3.2527   -1.1304 H   0  0  0  0  0  0  0  0  0  0  0  0
   -0.0008    1.4029   -0.0015 C   0  0  0  0  0  0  0  0  0  0  0  0
   -1.1965    0.6948    0.0025 C   0  0  0  0  0  0  0  0  0  0  0  0
   -2.0643    1.1837    0.0064 H   0  0  0  0  0  0  0  0  0  0  0  0
   -1.2033   -0.6990    0.0000 C   0  0  0  0  0  0  0  0  0  0  0  0
   -2.0786   -1.1914    0.0033 H   0  0  0  0  0  0  0  0  0  0  0  0
    0.0002   -1.3947   -0.0053 C   0  0  0  0  0  0  0  0  0  0  0  0
   -0.0015   -2.3917   -0.0136 H   0  0  0  0  0  0  0  0  0  0  0  0
    1.2033   -0.6947    0.0000 C   0  0  0  0  0  0  0  0  0  0  0  0
    2.0837   -1.1948    0.0028 H   0  0  0  0  0  0  0  0  0  0  0  0
    1.1971    0.6908    0.0043 C   0  0  0  0  0  0  0  0  0  0  0  0
    2.0651    1.1913    0.0104 H   0  0  0  0  0  0  0  0  0  0  0  0
  1  5  1  0
  5  6  1  0
  5  7  2  0
  1  2  1  0
  1  3  1  0
  1  4  1  0
  8 12  1  0
 12 13  2  0
 13 15  1  0
 15 17  2  0
 17 19  1  0
 19 21  2  0
 21 12  1  0
  8  9  1  0
  8 10  1  0
  8 11  1  0
 13 14  1  0
 15 16  1  0
 17 18  1  0
 19 20  1  0
 21 22  1  0
M  CHG  1   6  -1
M  END
>  <PDB_ID>  (2039) 
pdb3vnp

>  <RESIDUE_NAME>  (2039) 
ASP   PHE

>  <FRAG_NAME>  (2039) 
ACET   MBZ

>  <FRAG_ATOM_NUM>  (2039) 
fragi: 7  fragj: 15

>  <atom.prop.CHAIN_ID>  (2039) 
A A A A A A A Z Z Z Z Z Z Z Z Z Z Z Z Z Z Z

>  <atom.prop.IS_HEAVY_ATOM>  (2039) 
1 0 0 0 1 1 1 1 0 0 0 1 1 0 1 0 1 0 1 0 1 0

>  <DIFUSE_FUNC_ATOM>  (2039) 
atom 6   atom 7   

>  <FINAL_SINGLE_POINT_ENERGY>  (2039) 
0

>  <NONCOV_INTER_ENERGY_QM>  (2039) 
0

>  <FF_Energy>  (2039) 
-2.33

>  <QM_Energy>  (2039) 
-7.52

>  <source>  (2039) 
ACET_MBZ_02

>  <Index>  (2039) 
12075

$$$$
ACET-pdb3vnx-A-ASP-196:MBZ-pdb3vnx-A-PHE-75
     RDKit          3D

 22 21  0  0  0  0  0  0  0  0999 V2000
    4.5623   -0.0409   -0.6236 C   0  0  0  0  0  0  0  0  0  0  0  0
    3.9006   -0.2315    0.0878 H   0  0  0  0  0  0  0  0  0  0  0  0
    5.4195   -0.5006   -0.4459 H   0  0  0  0  0  0  0  0  0  0  0  0
    4.1644   -0.4080   -1.5696 H   0  0  0  0  0  0  0  0  0  0  0  0
    4.8181    1.4667   -0.6539 C   0  0  0  0  0  0  0  0  0  0  0  0
    3.8489    2.2344   -0.4780 O   0  0  0  0  0  1  0  0  0  0  0  0
    5.9752    1.8907   -0.8713 O   0  0  0  0  0  0  0  0  0  0  0  0
   -0.0060    2.9129   -0.0003 C   0  0  0  0  0  0  0  0  0  0  0  0
    0.7078    3.2184    0.6083 H   0  0  0  0  0  0  0  0  0  0  0  0
   -0.8966    3.2120    0.3033 H   0  0  0  0  0  0  0  0  0  0  0  0
    0.1780    3.3583   -0.9780 H   0  0  0  0  0  0  0  0  0  0  0  0
   -0.0003    1.3943    0.0008 C   0  0  0  0  0  0  0  0  0  0  0  0
   -1.1941    0.6810    0.0023 C   0  0  0  0  0  0  0  0  0  0  0  0
   -2.0610    1.1786    0.0039 H   0  0  0  0  0  0  0  0  0  0  0  0
   -1.1971   -0.6906   -0.0000 C   0  0  0  0  0  0  0  0  0  0  0  0
   -2.0706   -1.1949    0.0051 H   0  0  0  0  0  0  0  0  0  0  0  0
    0.0046   -1.3805   -0.0071 C   0  0  0  0  0  0  0  0  0  0  0  0
   -0.0014   -2.3831   -0.0180 H   0  0  0  0  0  0  0  0  0  0  0  0
    1.1971   -0.6902   -0.0000 C   0  0  0  0  0  0  0  0  0  0  0  0
    2.0808   -1.1908    0.0040 H   0  0  0  0  0  0  0  0  0  0  0  0
    1.1898    0.6862    0.0040 C   0  0  0  0  0  0  0  0  0  0  0  0
    2.0605    1.1885    0.0090 H   0  0  0  0  0  0  0  0  0  0  0  0
  1  5  1  0
  5  6  1  0
  5  7  2  0
  1  2  1  0
  1  3  1  0
  1  4  1  0
  8 12  1  0
 12 13  2  0
 13 15  1  0
 15 17  2  0
 17 19  1  0
 19 21  2  0
 21 12  1  0
  8  9  1  0
  8 10  1  0
  8 11  1  0
 13 14  1  0
 15 16  1  0
 17 18  1  0
 19 20  1  0
 21 22  1  0
M  CHG  1   6  -1
M  END
>  <PDB_ID>  (2040) 
pdb3vnx

>  <RESIDUE_NAME>  (2040) 
ASP   PHE

>  <FRAG_NAME>  (2040) 
ACET   MBZ

>  <FRAG_ATOM_NUM>  (2040) 
fragi: 7  fragj: 15

>  <atom.prop.CHAIN_ID>  (2040) 
A A A A A A A Z Z Z Z Z Z Z Z Z Z Z Z Z Z Z

>  <atom.prop.IS_HEAVY_ATOM>  (2040) 
1 0 0 0 1 1 1 1 0 0 0 1 1 0 1 0 1 0 1 0 1 0

>  <DIFUSE_FUNC_ATOM>  (2040) 
atom 6   atom 7   

>  <FINAL_SINGLE_POINT_ENERGY>  (2040) 
0

>  <NONCOV_INTER_ENERGY_QM>  (2040) 
0

>  <FF_Energy>  (2040) 
1.75

>  <QM_Energy>  (2040) 
-6.4

>  <source>  (2040) 
ACET_MBZ_02

>  <Index>  (2040) 
12085

$$$$
ACET-pdb4wq4-A-GLU-45:MBZ-pdb4wq4-C-PHE-68
     RDKit          3D

 22 21  0  0  0  0  0  0  0  0999 V2000
    3.9670    0.4037    3.1556 C   0  0  0  0  0  0  0  0  0  0  0  0
    3.8219   -0.3769    2.5719 H   0  0  0  0  0  0  0  0  0  0  0  0
    3.7752    0.1962    4.0995 H   0  0  0  0  0  0  0  0  0  0  0  0
    5.0165    0.6882    3.0798 H   0  0  0  0  0  0  0  0  0  0  0  0
    3.0162    1.4931    2.7184 C   0  0  0  0  0  0  0  0  0  0  0  0
    3.3806    2.3235    1.8756 O   0  0  0  0  0  1  0  0  0  0  0  0
    1.8843    1.5378    3.2115 O   0  0  0  0  0  0  0  0  0  0  0  0
    0.0399    2.9185    0.0246 C   0  0  0  0  0  0  0  0  0  0  0  0
    0.7185    3.2181   -0.6314 H   0  0  0  0  0  0  0  0  0  0  0  0
    0.2899    3.1917    0.9436 H   0  0  0  0  0  0  0  0  0  0  0  0
   -0.9088    3.3935   -0.2252 H   0  0  0  0  0  0  0  0  0  0  0  0
    0.0087    1.4049   -0.0095 C   0  0  0  0  0  0  0  0  0  0  0  0
   -1.2037    0.7021    0.0182 C   0  0  0  0  0  0  0  0  0  0  0  0
   -2.0592    1.2002    0.0495 H   0  0  0  0  0  0  0  0  0  0  0  0
   -1.2065   -0.6830   -0.0000 C   0  0  0  0  0  0  0  0  0  0  0  0
   -2.0852   -1.1815   -0.0127 H   0  0  0  0  0  0  0  0  0  0  0  0
   -0.0020   -1.4041    0.0009 C   0  0  0  0  0  0  0  0  0  0  0  0
   -0.0211   -2.3957    0.0017 H   0  0  0  0  0  0  0  0  0  0  0  0
    1.2065   -0.7134    0.0000 C   0  0  0  0  0  0  0  0  0  0  0  0
    2.0836   -1.2036    0.0078 H   0  0  0  0  0  0  0  0  0  0  0  0
    1.1969    0.6935   -0.0096 C   0  0  0  0  0  0  0  0  0  0  0  0
    2.0719    1.1813   -0.0179 H   0  0  0  0  0  0  0  0  0  0  0  0
  1  5  1  0
  5  6  1  0
  5  7  2  0
  1  2  1  0
  1  3  1  0
  1  4  1  0
  8 12  1  0
 12 13  2  0
 13 15  1  0
 15 17  2  0
 17 19  1  0
 19 21  2  0
 21 12  1  0
  8  9  1  0
  8 10  1  0
  8 11  1  0
 13 14  1  0
 15 16  1  0
 17 18  1  0
 19 20  1  0
 21 22  1  0
M  CHG  1   6  -1
M  END
>  <PDB_ID>  (2041) 
pdb4wq4

>  <RESIDUE_NAME>  (2041) 
GLU   PHE

>  <FRAG_NAME>  (2041) 
ACET   MBZ

>  <FRAG_ATOM_NUM>  (2041) 
fragi: 7  fragj: 15

>  <atom.prop.CHAIN_ID>  (2041) 
A A A A A A A Z Z Z Z Z Z Z Z Z Z Z Z Z Z Z

>  <atom.prop.IS_HEAVY_ATOM>  (2041) 
1 0 0 0 1 1 1 1 0 0 0 1 1 0 1 0 1 0 1 0 1 0

>  <DIFUSE_FUNC_ATOM>  (2041) 
atom 6   atom 7   

>  <FINAL_SINGLE_POINT_ENERGY>  (2041) 
0

>  <NONCOV_INTER_ENERGY_QM>  (2041) 
0

>  <FF_Energy>  (2041) 
0.02

>  <QM_Energy>  (2041) 
-6.19

>  <source>  (2041) 
ACET_MBZ_02

>  <Index>  (2041) 
12168

$$$$
ACET-pdb4wq4-B-GLU-45:MBZ-pdb4wq4-D-PHE-68
     RDKit          3D

 22 21  0  0  0  0  0  0  0  0999 V2000
    4.0691    0.3558    3.0399 C   0  0  0  0  0  0  0  0  0  0  0  0
    3.9284   -0.3024    2.3185 H   0  0  0  0  0  0  0  0  0  0  0  0
    3.8154   -0.0097    3.9203 H   0  0  0  0  0  0  0  0  0  0  0  0
    5.1295    0.6063    3.0679 H   0  0  0  0  0  0  0  0  0  0  0  0
    3.1536    1.5443    2.7588 C   0  0  0  0  0  0  0  0  0  0  0  0
    3.5873    2.4916    2.0922 O   0  0  0  0  0  1  0  0  0  0  0  0
    1.9759    1.5397    3.1878 O   0  0  0  0  0  0  0  0  0  0  0  0
    0.0259    2.9173    0.0160 C   0  0  0  0  0  0  0  0  0  0  0  0
    0.6639    3.2186   -0.6807 H   0  0  0  0  0  0  0  0  0  0  0  0
    0.3249    3.2036    0.9165 H   0  0  0  0  0  0  0  0  0  0  0  0
   -0.9348    3.3922   -0.1834 H   0  0  0  0  0  0  0  0  0  0  0  0
   -0.0011    1.4083   -0.0037 C   0  0  0  0  0  0  0  0  0  0  0  0
   -1.2132    0.7008    0.0098 C   0  0  0  0  0  0  0  0  0  0  0  0
   -2.0710    1.1924    0.0247 H   0  0  0  0  0  0  0  0  0  0  0  0
   -1.2123   -0.6943   -0.0000 C   0  0  0  0  0  0  0  0  0  0  0  0
   -2.0824   -1.1939   -0.0011 H   0  0  0  0  0  0  0  0  0  0  0  0
    0.0035   -1.3922   -0.0069 C   0  0  0  0  0  0  0  0  0  0  0  0
   -0.0068   -2.3931   -0.0173 H   0  0  0  0  0  0  0  0  0  0  0  0
    1.2123   -0.7041    0.0000 C   0  0  0  0  0  0  0  0  0  0  0  0
    2.0879   -1.2083    0.0062 H   0  0  0  0  0  0  0  0  0  0  0  0
    1.2108    0.6816    0.0008 C   0  0  0  0  0  0  0  0  0  0  0  0
    2.0732    1.1849    0.0037 H   0  0  0  0  0  0  0  0  0  0  0  0
  1  5  1  0
  5  6  1  0
  5  7  2  0
  1  2  1  0
  1  3  1  0
  1  4  1  0
  8 12  1  0
 12 13  2  0
 13 15  1  0
 15 17  2  0
 17 19  1  0
 19 21  2  0
 21 12  1  0
  8  9  1  0
  8 10  1  0
  8 11  1  0
 13 14  1  0
 15 16  1  0
 17 18  1  0
 19 20  1  0
 21 22  1  0
M  CHG  1   6  -1
M  END
>  <PDB_ID>  (2042) 
pdb4wq4

>  <RESIDUE_NAME>  (2042) 
GLU   PHE

>  <FRAG_NAME>  (2042) 
ACET   MBZ

>  <FRAG_ATOM_NUM>  (2042) 
fragi: 7  fragj: 15

>  <atom.prop.CHAIN_ID>  (2042) 
A A A A A A A Z Z Z Z Z Z Z Z Z Z Z Z Z Z Z

>  <atom.prop.IS_HEAVY_ATOM>  (2042) 
1 0 0 0 1 1 1 1 0 0 0 1 1 0 1 0 1 0 1 0 1 0

>  <DIFUSE_FUNC_ATOM>  (2042) 
atom 6   atom 7   

>  <FINAL_SINGLE_POINT_ENERGY>  (2042) 
0

>  <NONCOV_INTER_ENERGY_QM>  (2042) 
0

>  <FF_Energy>  (2042) 
-0.12

>  <QM_Energy>  (2042) 
-5.37

>  <source>  (2042) 
ACET_MBZ_02

>  <Index>  (2042) 
12169

$$$$
ACET-pdb3vov-B-ASP-211:MBZ-pdb3vov-B-PHE-194
     RDKit          3D

 22 21  0  0  0  0  0  0  0  0999 V2000
   -2.2616   -5.4969    1.3120 C   0  0  0  0  0  0  0  0  0  0  0  0
   -3.0109   -5.3627    1.9526 H   0  0  0  0  0  0  0  0  0  0  0  0
   -1.3935   -5.5170    1.7974 H   0  0  0  0  0  0  0  0  0  0  0  0
   -2.3997   -6.4768    0.8551 H   0  0  0  0  0  0  0  0  0  0  0  0
   -2.2557   -4.4300    0.3091 C   0  0  0  0  0  0  0  0  0  0  0  0
   -3.3311   -3.8258    0.1392 O   0  0  0  0  0  1  0  0  0  0  0  0
   -1.2016   -4.2448   -0.3701 O   0  0  0  0  0  0  0  0  0  0  0  0
    0.0104    2.9360   -0.0641 C   0  0  0  0  0  0  0  0  0  0  0  0
    0.8085    3.2505    0.4169 H   0  0  0  0  0  0  0  0  0  0  0  0
   -0.8228    3.2588    0.3477 H   0  0  0  0  0  0  0  0  0  0  0  0
    0.0553    3.3193   -1.0835 H   0  0  0  0  0  0  0  0  0  0  0  0
    0.0002    1.4234   -0.0052 C   0  0  0  0  0  0  0  0  0  0  0  0
   -1.2016    0.7108   -0.0112 C   0  0  0  0  0  0  0  0  0  0  0  0
   -2.0667    1.1951   -0.0250 H   0  0  0  0  0  0  0  0  0  0  0  0
   -1.2034   -0.6932    0.0000 C   0  0  0  0  0  0  0  0  0  0  0  0
   -2.0829   -1.1834   -0.0049 H   0  0  0  0  0  0  0  0  0  0  0  0
    0.0015   -1.4053    0.0197 C   0  0  0  0  0  0  0  0  0  0  0  0
   -0.0268   -2.4073    0.0479 H   0  0  0  0  0  0  0  0  0  0  0  0
    1.2034   -0.7363   -0.0000 C   0  0  0  0  0  0  0  0  0  0  0  0
    2.0836   -1.2116   -0.0107 H   0  0  0  0  0  0  0  0  0  0  0  0
    1.1999    0.7006   -0.0033 C   0  0  0  0  0  0  0  0  0  0  0  0
    2.0726    1.1754   -0.0048 H   0  0  0  0  0  0  0  0  0  0  0  0
  1  5  1  0
  5  6  1  0
  5  7  2  0
  1  2  1  0
  1  3  1  0
  1  4  1  0
  8 12  1  0
 12 13  2  0
 13 15  1  0
 15 17  2  0
 17 19  1  0
 19 21  2  0
 21 12  1  0
  8  9  1  0
  8 10  1  0
  8 11  1  0
 13 14  1  0
 15 16  1  0
 17 18  1  0
 19 20  1  0
 21 22  1  0
M  CHG  1   6  -1
M  END
>  <PDB_ID>  (2043) 
pdb3vov

>  <RESIDUE_NAME>  (2043) 
ASP   PHE

>  <FRAG_NAME>  (2043) 
ACET   MBZ

>  <FRAG_ATOM_NUM>  (2043) 
fragi: 7  fragj: 15

>  <atom.prop.CHAIN_ID>  (2043) 
A A A A A A A Z Z Z Z Z Z Z Z Z Z Z Z Z Z Z

>  <atom.prop.IS_HEAVY_ATOM>  (2043) 
1 0 0 0 1 1 1 1 0 0 0 1 1 0 1 0 1 0 1 0 1 0

>  <DIFUSE_FUNC_ATOM>  (2043) 
atom 6   atom 7   

>  <FINAL_SINGLE_POINT_ENERGY>  (2043) 
0

>  <NONCOV_INTER_ENERGY_QM>  (2043) 
0

>  <FF_Energy>  (2043) 
-1.97

>  <QM_Energy>  (2043) 
-7.44

>  <source>  (2043) 
ACET_MBZ_02

>  <Index>  (2043) 
12201

$$$$
ACET-pdb4wx6-A-ASP-71:MBZ-pdb4wx6-A-PHE-75
     RDKit          3D

 22 21  0  0  0  0  0  0  0  0999 V2000
    3.5126    4.8807   -3.1228 C   0  0  0  0  0  0  0  0  0  0  0  0
    3.9019    5.3642   -2.3497 H   0  0  0  0  0  0  0  0  0  0  0  0
    2.5953    5.2024   -3.3154 H   0  0  0  0  0  0  0  0  0  0  0  0
    4.1356    5.0712   -3.9968 H   0  0  0  0  0  0  0  0  0  0  0  0
    3.4497    3.4045   -2.7893 C   0  0  0  0  0  0  0  0  0  0  0  0
    4.3895    2.6741   -3.1498 O   0  0  0  0  0  1  0  0  0  0  0  0
    2.4716    2.9771   -2.1596 O   0  0  0  0  0  0  0  0  0  0  0  0
   -0.0014    2.9081    0.0529 C   0  0  0  0  0  0  0  0  0  0  0  0
    0.8975    3.2284   -0.2020 H   0  0  0  0  0  0  0  0  0  0  0  0
   -0.2431    3.1958    0.9670 H   0  0  0  0  0  0  0  0  0  0  0  0
   -0.7156    3.3664   -0.6311 H   0  0  0  0  0  0  0  0  0  0  0  0
    0.0013    1.4096    0.0136 C   0  0  0  0  0  0  0  0  0  0  0  0
   -1.1995    0.6925    0.0268 C   0  0  0  0  0  0  0  0  0  0  0  0
   -2.0648    1.1913    0.0546 H   0  0  0  0  0  0  0  0  0  0  0  0
   -1.2125   -0.6902    0.0000 C   0  0  0  0  0  0  0  0  0  0  0  0
   -2.0863   -1.1852    0.0280 H   0  0  0  0  0  0  0  0  0  0  0  0
   -0.0114   -1.3838   -0.0631 C   0  0  0  0  0  0  0  0  0  0  0  0
   -0.0236   -2.3868   -0.1561 H   0  0  0  0  0  0  0  0  0  0  0  0
    1.2125   -0.7155   -0.0000 C   0  0  0  0  0  0  0  0  0  0  0  0
    2.0763   -1.2170    0.0299 H   0  0  0  0  0  0  0  0  0  0  0  0
    1.2095    0.6873    0.0228 C   0  0  0  0  0  0  0  0  0  0  0  0
    2.0748    1.1809    0.0447 H   0  0  0  0  0  0  0  0  0  0  0  0
  1  5  1  0
  5  6  1  0
  5  7  2  0
  1  2  1  0
  1  3  1  0
  1  4  1  0
  8 12  1  0
 12 13  2  0
 13 15  1  0
 15 17  2  0
 17 19  1  0
 19 21  2  0
 21 12  1  0
  8  9  1  0
  8 10  1  0
  8 11  1  0
 13 14  1  0
 15 16  1  0
 17 18  1  0
 19 20  1  0
 21 22  1  0
M  CHG  1   6  -1
M  END
>  <PDB_ID>  (2044) 
pdb4wx6

>  <RESIDUE_NAME>  (2044) 
ASP   PHE

>  <FRAG_NAME>  (2044) 
ACET   MBZ

>  <FRAG_ATOM_NUM>  (2044) 
fragi: 7  fragj: 15

>  <atom.prop.CHAIN_ID>  (2044) 
A A A A A A A Z Z Z Z Z Z Z Z Z Z Z Z Z Z Z

>  <atom.prop.IS_HEAVY_ATOM>  (2044) 
1 0 0 0 1 1 1 1 0 0 0 1 1 0 1 0 1 0 1 0 1 0

>  <DIFUSE_FUNC_ATOM>  (2044) 
atom 6   atom 7   

>  <FINAL_SINGLE_POINT_ENERGY>  (2044) 
0

>  <NONCOV_INTER_ENERGY_QM>  (2044) 
0

>  <FF_Energy>  (2044) 
-0.29

>  <QM_Energy>  (2044) 
-5.55

>  <source>  (2044) 
ACET_MBZ_02

>  <Index>  (2044) 
12476

$$$$
ACET-pdb4woq-C-GLU-164:MBZ-pdb4woq-C-PHE-126
     RDKit          3D

 22 21  0  0  0  0  0  0  0  0999 V2000
    2.9578   -4.1295   -1.5898 C   0  0  0  0  0  0  0  0  0  0  0  0
    3.6850   -4.7785   -1.4717 H   0  0  0  0  0  0  0  0  0  0  0  0
    2.6103   -4.1202   -2.5085 H   0  0  0  0  0  0  0  0  0  0  0  0
    2.1442   -4.3996   -0.9166 H   0  0  0  0  0  0  0  0  0  0  0  0
    3.5216   -2.7516   -1.2998 C   0  0  0  0  0  0  0  0  0  0  0  0
    3.9053   -2.4987   -0.1352 O   0  0  0  0  0  1  0  0  0  0  0  0
    3.5851   -1.9252   -2.2357 O   0  0  0  0  0  0  0  0  0  0  0  0
   -0.0012    2.9022    0.0628 C   0  0  0  0  0  0  0  0  0  0  0  0
   -0.5385    3.2388   -0.6916 H   0  0  0  0  0  0  0  0  0  0  0  0
    0.9328    3.2124    0.0142 H   0  0  0  0  0  0  0  0  0  0  0  0
   -0.4352    3.2934    0.9829 H   0  0  0  0  0  0  0  0  0  0  0  0
    0.0010    1.4001    0.0007 C   0  0  0  0  0  0  0  0  0  0  0  0
   -1.1968    0.6916   -0.0015 C   0  0  0  0  0  0  0  0  0  0  0  0
   -2.0627    1.1833   -0.0048 H   0  0  0  0  0  0  0  0  0  0  0  0
   -1.2002   -0.6960   -0.0000 C   0  0  0  0  0  0  0  0  0  0  0  0
   -2.0778   -1.1912    0.0012 H   0  0  0  0  0  0  0  0  0  0  0  0
   -0.0007   -1.3909    0.0014 C   0  0  0  0  0  0  0  0  0  0  0  0
   -0.0049   -2.3908    0.0026 H   0  0  0  0  0  0  0  0  0  0  0  0
    1.2002   -0.6981    0.0000 C   0  0  0  0  0  0  0  0  0  0  0  0
    2.0813   -1.1959    0.0007 H   0  0  0  0  0  0  0  0  0  0  0  0
    1.1965    0.6932   -0.0007 C   0  0  0  0  0  0  0  0  0  0  0  0
    2.0650    1.1889   -0.0029 H   0  0  0  0  0  0  0  0  0  0  0  0
  1  5  1  0
  5  6  1  0
  5  7  2  0
  1  2  1  0
  1  3  1  0
  1  4  1  0
  8 12  1  0
 12 13  2  0
 13 15  1  0
 15 17  2  0
 17 19  1  0
 19 21  2  0
 21 12  1  0
  8  9  1  0
  8 10  1  0
  8 11  1  0
 13 14  1  0
 15 16  1  0
 17 18  1  0
 19 20  1  0
 21 22  1  0
M  CHG  1   6  -1
M  END
>  <PDB_ID>  (2045) 
pdb4woq

>  <RESIDUE_NAME>  (2045) 
GLU   PHE

>  <FRAG_NAME>  (2045) 
ACET   MBZ

>  <FRAG_ATOM_NUM>  (2045) 
fragi: 7  fragj: 15

>  <atom.prop.CHAIN_ID>  (2045) 
A A A A A A A Z Z Z Z Z Z Z Z Z Z Z Z Z Z Z

>  <atom.prop.IS_HEAVY_ATOM>  (2045) 
1 0 0 0 1 1 1 1 0 0 0 1 1 0 1 0 1 0 1 0 1 0

>  <DIFUSE_FUNC_ATOM>  (2045) 
atom 6   atom 7   

>  <FINAL_SINGLE_POINT_ENERGY>  (2045) 
0

>  <NONCOV_INTER_ENERGY_QM>  (2045) 
0

>  <FF_Energy>  (2045) 
-0.13

>  <QM_Energy>  (2045) 
-5.98

>  <source>  (2045) 
ACET_MBZ_02

>  <Index>  (2045) 
12591

$$$$
ACET-pdb3vvx-B-GLU-41:MBZ-pdb3vvx-B-PHE-45
     RDKit          3D

 22 21  0  0  0  0  0  0  0  0999 V2000
    4.6136   -0.8036   -1.7759 C   0  0  0  0  0  0  0  0  0  0  0  0
    3.8900   -0.2787   -1.3721 H   0  0  0  0  0  0  0  0  0  0  0  0
    4.4227   -1.0592   -2.7036 H   0  0  0  0  0  0  0  0  0  0  0  0
    5.5111   -0.1851   -1.7778 H   0  0  0  0  0  0  0  0  0  0  0  0
    4.7880   -2.0612   -0.9697 C   0  0  0  0  0  0  0  0  0  0  0  0
    5.9672   -2.5324   -0.8578 O   0  0  0  0  0  1  0  0  0  0  0  0
    3.7440   -2.5462   -0.4444 O   0  0  0  0  0  0  0  0  0  0  0  0
    0.0104    2.8947    0.0070 C   0  0  0  0  0  0  0  0  0  0  0  0
    0.9361    3.2038    0.1759 H   0  0  0  0  0  0  0  0  0  0  0  0
   -0.6049    3.2104    0.7164 H   0  0  0  0  0  0  0  0  0  0  0  0
   -0.3179    3.3395   -0.9324 H   0  0  0  0  0  0  0  0  0  0  0  0
    0.0024    1.4107    0.0013 C   0  0  0  0  0  0  0  0  0  0  0  0
   -1.2202    0.7084   -0.0093 C   0  0  0  0  0  0  0  0  0  0  0  0
   -2.0733    1.1994   -0.0241 H   0  0  0  0  0  0  0  0  0  0  0  0
   -1.2271   -0.7003   -0.0000 C   0  0  0  0  0  0  0  0  0  0  0  0
   -2.0951   -1.1919    0.0031 H   0  0  0  0  0  0  0  0  0  0  0  0
   -0.0036   -1.4078    0.0069 C   0  0  0  0  0  0  0  0  0  0  0  0
   -0.0106   -2.4015    0.0165 H   0  0  0  0  0  0  0  0  0  0  0  0
    1.2271   -0.7088    0.0000 C   0  0  0  0  0  0  0  0  0  0  0  0
    2.0942   -1.2087   -0.0042 H   0  0  0  0  0  0  0  0  0  0  0  0
    1.2214    0.6976    0.0010 C   0  0  0  0  0  0  0  0  0  0  0  0
    2.0796    1.1954    0.0006 H   0  0  0  0  0  0  0  0  0  0  0  0
  1  5  1  0
  5  6  1  0
  5  7  2  0
  1  2  1  0
  1  3  1  0
  1  4  1  0
  8 12  1  0
 12 13  2  0
 13 15  1  0
 15 17  2  0
 17 19  1  0
 19 21  2  0
 21 12  1  0
  8  9  1  0
  8 10  1  0
  8 11  1  0
 13 14  1  0
 15 16  1  0
 17 18  1  0
 19 20  1  0
 21 22  1  0
M  CHG  1   6  -1
M  END
>  <PDB_ID>  (2046) 
pdb3vvx

>  <RESIDUE_NAME>  (2046) 
GLU   PHE

>  <FRAG_NAME>  (2046) 
ACET   MBZ

>  <FRAG_ATOM_NUM>  (2046) 
fragi: 7  fragj: 15

>  <atom.prop.CHAIN_ID>  (2046) 
A A A A A A A Z Z Z Z Z Z Z Z Z Z Z Z Z Z Z

>  <atom.prop.IS_HEAVY_ATOM>  (2046) 
1 0 0 0 1 1 1 1 0 0 0 1 1 0 1 0 1 0 1 0 1 0

>  <DIFUSE_FUNC_ATOM>  (2046) 
atom 6   atom 7   

>  <FINAL_SINGLE_POINT_ENERGY>  (2046) 
0

>  <NONCOV_INTER_ENERGY_QM>  (2046) 
0

>  <FF_Energy>  (2046) 
-0.64

>  <QM_Energy>  (2046) 
-6.09

>  <source>  (2046) 
ACET_MBZ_02

>  <Index>  (2046) 
12673

$$$$
ACET-pdb4wyr-A-GLU-198:MBZ-pdb4wyr-A-PHE-195
     RDKit          3D

 22 21  0  0  0  0  0  0  0  0999 V2000
   -3.5849    3.5575    1.8889 C   0  0  0  0  0  0  0  0  0  0  0  0
   -2.9200    3.9411    1.2763 H   0  0  0  0  0  0  0  0  0  0  0  0
   -3.2438    3.4765    2.8076 H   0  0  0  0  0  0  0  0  0  0  0  0
   -4.4625    4.2038    1.8985 H   0  0  0  0  0  0  0  0  0  0  0  0
   -3.9043    2.1619    1.3980 C   0  0  0  0  0  0  0  0  0  0  0  0
   -4.3209    2.0143    0.2459 O   0  0  0  0  0  1  0  0  0  0  0  0
   -3.7347    1.2158    2.1695 O   0  0  0  0  0  0  0  0  0  0  0  0
    0.0303    2.8660    0.0236 C   0  0  0  0  0  0  0  0  0  0  0  0
    0.9730    3.1585   -0.1111 H   0  0  0  0  0  0  0  0  0  0  0  0
   -0.2991    3.1680    0.9140 H   0  0  0  0  0  0  0  0  0  0  0  0
   -0.5792    3.3533   -0.7374 H   0  0  0  0  0  0  0  0  0  0  0  0
   -0.0026    1.3788   -0.0025 C   0  0  0  0  0  0  0  0  0  0  0  0
   -1.1794    0.6906    0.0058 C   0  0  0  0  0  0  0  0  0  0  0  0
   -2.0509    1.1825    0.0149 H   0  0  0  0  0  0  0  0  0  0  0  0
   -1.1823   -0.6783   -0.0000 C   0  0  0  0  0  0  0  0  0  0  0  0
   -2.0642   -1.1782   -0.0010 H   0  0  0  0  0  0  0  0  0  0  0  0
    0.0061   -1.3738   -0.0024 C   0  0  0  0  0  0  0  0  0  0  0  0
   -0.0085   -2.3785   -0.0067 H   0  0  0  0  0  0  0  0  0  0  0  0
    1.1823   -0.6931    0.0000 C   0  0  0  0  0  0  0  0  0  0  0  0
    2.0719   -1.1909    0.0038 H   0  0  0  0  0  0  0  0  0  0  0  0
    1.1759    0.6758   -0.0010 C   0  0  0  0  0  0  0  0  0  0  0  0
    2.0514    1.1771   -0.0010 H   0  0  0  0  0  0  0  0  0  0  0  0
  1  5  1  0
  5  6  1  0
  5  7  2  0
  1  2  1  0
  1  3  1  0
  1  4  1  0
  8 12  1  0
 12 13  2  0
 13 15  1  0
 15 17  2  0
 17 19  1  0
 19 21  2  0
 21 12  1  0
  8  9  1  0
  8 10  1  0
  8 11  1  0
 13 14  1  0
 15 16  1  0
 17 18  1  0
 19 20  1  0
 21 22  1  0
M  CHG  1   6  -1
M  END
>  <PDB_ID>  (2047) 
pdb4wyr

>  <RESIDUE_NAME>  (2047) 
GLU   PHE

>  <FRAG_NAME>  (2047) 
ACET   MBZ

>  <FRAG_ATOM_NUM>  (2047) 
fragi: 7  fragj: 15

>  <atom.prop.CHAIN_ID>  (2047) 
A A A A A A A Z Z Z Z Z Z Z Z Z Z Z Z Z Z Z

>  <atom.prop.IS_HEAVY_ATOM>  (2047) 
1 0 0 0 1 1 1 1 0 0 0 1 1 0 1 0 1 0 1 0 1 0

>  <DIFUSE_FUNC_ATOM>  (2047) 
atom 6   atom 7   

>  <FINAL_SINGLE_POINT_ENERGY>  (2047) 
0

>  <NONCOV_INTER_ENERGY_QM>  (2047) 
0

>  <FF_Energy>  (2047) 
-1.18

>  <QM_Energy>  (2047) 
-6.66

>  <source>  (2047) 
ACET_MBZ_02

>  <Index>  (2047) 
12685

$$$$
ACET-pdb4wz0-A-ASP-71:MBZ-pdb4wz0-A-PHE-54
     RDKit          3D

 22 21  0  0  0  0  0  0  0  0999 V2000
    5.9815    1.1618    0.4665 C   0  0  0  0  0  0  0  0  0  0  0  0
    6.1053    1.5584   -0.4363 H   0  0  0  0  0  0  0  0  0  0  0  0
    6.1257    0.1797    0.4384 H   0  0  0  0  0  0  0  0  0  0  0  0
    6.7320    1.5932    1.1290 H   0  0  0  0  0  0  0  0  0  0  0  0
    4.5661    1.4360    0.9313 C   0  0  0  0  0  0  0  0  0  0  0  0
    4.0174    2.5004    0.5756 O   0  0  0  0  0  1  0  0  0  0  0  0
    4.0014    0.5878    1.6525 O   0  0  0  0  0  0  0  0  0  0  0  0
    0.0002    2.8960    0.0000 C   0  0  0  0  0  0  0  0  0  0  0  0
    0.7979    3.2026   -0.4961 H   0  0  0  0  0  0  0  0  0  0  0  0
    0.0189    3.2033    0.9395 H   0  0  0  0  0  0  0  0  0  0  0  0
   -0.8769    3.3344   -0.4761 H   0  0  0  0  0  0  0  0  0  0  0  0
   -0.0002    1.3942    0.0011 C   0  0  0  0  0  0  0  0  0  0  0  0
   -1.1916    0.6887   -0.0004 C   0  0  0  0  0  0  0  0  0  0  0  0
   -2.0599    1.1806   -0.0025 H   0  0  0  0  0  0  0  0  0  0  0  0
   -1.1949   -0.6935   -0.0000 C   0  0  0  0  0  0  0  0  0  0  0  0
   -2.0734   -1.1895    0.0019 H   0  0  0  0  0  0  0  0  0  0  0  0
    0.0001   -1.3849   -0.0001 C   0  0  0  0  0  0  0  0  0  0  0  0
   -0.0036   -2.3864   -0.0007 H   0  0  0  0  0  0  0  0  0  0  0  0
    1.1949   -0.6933   -0.0000 C   0  0  0  0  0  0  0  0  0  0  0  0
    2.0778   -1.1930    0.0018 H   0  0  0  0  0  0  0  0  0  0  0  0
    1.1917    0.6888   -0.0007 C   0  0  0  0  0  0  0  0  0  0  0  0
    2.0605    1.1869   -0.0034 H   0  0  0  0  0  0  0  0  0  0  0  0
  1  5  1  0
  5  6  1  0
  5  7  2  0
  1  2  1  0
  1  3  1  0
  1  4  1  0
  8 12  1  0
 12 13  2  0
 13 15  1  0
 15 17  2  0
 17 19  1  0
 19 21  2  0
 21 12  1  0
  8  9  1  0
  8 10  1  0
  8 11  1  0
 13 14  1  0
 15 16  1  0
 17 18  1  0
 19 20  1  0
 21 22  1  0
M  CHG  1   6  -1
M  END
>  <PDB_ID>  (2048) 
pdb4wz0

>  <RESIDUE_NAME>  (2048) 
ASP   PHE

>  <FRAG_NAME>  (2048) 
ACET   MBZ

>  <FRAG_ATOM_NUM>  (2048) 
fragi: 7  fragj: 15

>  <atom.prop.CHAIN_ID>  (2048) 
A A A A A A A Z Z Z Z Z Z Z Z Z Z Z Z Z Z Z

>  <atom.prop.IS_HEAVY_ATOM>  (2048) 
1 0 0 0 1 1 1 1 0 0 0 1 1 0 1 0 1 0 1 0 1 0

>  <DIFUSE_FUNC_ATOM>  (2048) 
atom 6   atom 7   

>  <FINAL_SINGLE_POINT_ENERGY>  (2048) 
0

>  <NONCOV_INTER_ENERGY_QM>  (2048) 
0

>  <FF_Energy>  (2048) 
-1.68

>  <QM_Energy>  (2048) 
-7.74

>  <source>  (2048) 
ACET_MBZ_02

>  <Index>  (2048) 
12728

$$$$
ACET-pdb4x53-A-GLU-93:MBZ-pdb4x53-A-PHE-193
     RDKit          3D

 22 21  0  0  0  0  0  0  0  0999 V2000
   -4.6681    1.7450    0.1587 C   0  0  0  0  0  0  0  0  0  0  0  0
   -4.2752    1.0835   -0.4542 H   0  0  0  0  0  0  0  0  0  0  0  0
   -5.6365    1.8464    0.0255 H   0  0  0  0  0  0  0  0  0  0  0  0
   -4.4994    1.4019    1.1795 H   0  0  0  0  0  0  0  0  0  0  0  0
   -4.0214    3.0777   -0.1218 C   0  0  0  0  0  0  0  0  0  0  0  0
   -3.3354    3.6942    0.7582 O   0  0  0  0  0  1  0  0  0  0  0  0
   -4.2121    3.4877   -1.2713 O   0  0  0  0  0  0  0  0  0  0  0  0
   -0.0264    2.8924    0.0272 C   0  0  0  0  0  0  0  0  0  0  0  0
    0.8673    3.2085    0.3008 H   0  0  0  0  0  0  0  0  0  0  0  0
   -0.7264    3.1847    0.6585 H   0  0  0  0  0  0  0  0  0  0  0  0
   -0.2504    3.3407   -0.9407 H   0  0  0  0  0  0  0  0  0  0  0  0
   -0.0106    1.3975   -0.0005 C   0  0  0  0  0  0  0  0  0  0  0  0
   -1.1944    0.6904   -0.0104 C   0  0  0  0  0  0  0  0  0  0  0  0
   -2.0667    1.1779   -0.0267 H   0  0  0  0  0  0  0  0  0  0  0  0
   -1.1988   -0.6953    0.0000 C   0  0  0  0  0  0  0  0  0  0  0  0
   -2.0659   -1.1983    0.0191 H   0  0  0  0  0  0  0  0  0  0  0  0
    0.0212   -1.3998   -0.0137 C   0  0  0  0  0  0  0  0  0  0  0  0
    0.0092   -2.3917   -0.0340 H   0  0  0  0  0  0  0  0  0  0  0  0
    1.1988   -0.6930   -0.0000 C   0  0  0  0  0  0  0  0  0  0  0  0
    2.0937   -1.1756   -0.0060 H   0  0  0  0  0  0  0  0  0  0  0  0
    1.1838    0.7002    0.0247 C   0  0  0  0  0  0  0  0  0  0  0  0
    2.0514    1.1985    0.0605 H   0  0  0  0  0  0  0  0  0  0  0  0
  1  5  1  0
  5  6  1  0
  5  7  2  0
  1  2  1  0
  1  3  1  0
  1  4  1  0
  8 12  1  0
 12 13  2  0
 13 15  1  0
 15 17  2  0
 17 19  1  0
 19 21  2  0
 21 12  1  0
  8  9  1  0
  8 10  1  0
  8 11  1  0
 13 14  1  0
 15 16  1  0
 17 18  1  0
 19 20  1  0
 21 22  1  0
M  CHG  1   6  -1
M  END
>  <PDB_ID>  (2049) 
pdb4x53

>  <RESIDUE_NAME>  (2049) 
GLU   PHE

>  <FRAG_NAME>  (2049) 
ACET   MBZ

>  <FRAG_ATOM_NUM>  (2049) 
fragi: 7  fragj: 15

>  <atom.prop.CHAIN_ID>  (2049) 
A A A A A A A Z Z Z Z Z Z Z Z Z Z Z Z Z Z Z

>  <atom.prop.IS_HEAVY_ATOM>  (2049) 
1 0 0 0 1 1 1 1 0 0 0 1 1 0 1 0 1 0 1 0 1 0

>  <DIFUSE_FUNC_ATOM>  (2049) 
atom 6   atom 7   

>  <FINAL_SINGLE_POINT_ENERGY>  (2049) 
0

>  <NONCOV_INTER_ENERGY_QM>  (2049) 
0

>  <FF_Energy>  (2049) 
-1.8

>  <QM_Energy>  (2049) 
-7.02

>  <source>  (2049) 
ACET_MBZ_02

>  <Index>  (2049) 
12921

$$$$
ACET-pdb3w5f-B-ASP-553:MBZ-pdb3w5f-B-PHE-138
     RDKit          3D

 22 21  0  0  0  0  0  0  0  0999 V2000
    2.8086    0.6273   -3.0224 C   0  0  0  0  0  0  0  0  0  0  0  0
    2.2385   -0.1816   -3.0931 H   0  0  0  0  0  0  0  0  0  0  0  0
    3.2633    0.6619   -2.1423 H   0  0  0  0  0  0  0  0  0  0  0  0
    3.5736    0.5705   -3.7968 H   0  0  0  0  0  0  0  0  0  0  0  0
    1.9390    1.8541   -3.1738 C   0  0  0  0  0  0  0  0  0  0  0  0
    2.3629    2.9517   -2.7521 O   0  0  0  0  0  1  0  0  0  0  0  0
    0.8496    1.7208   -3.7550 O   0  0  0  0  0  0  0  0  0  0  0  0
    0.0522    2.9117   -0.0424 C   0  0  0  0  0  0  0  0  0  0  0  0
    0.3908    3.1798   -0.9368 H   0  0  0  0  0  0  0  0  0  0  0  0
    0.6738    3.2150    0.6707 H   0  0  0  0  0  0  0  0  0  0  0  0
   -0.9030    3.4127    0.1151 H   0  0  0  0  0  0  0  0  0  0  0  0
    0.0034    1.4033   -0.0009 C   0  0  0  0  0  0  0  0  0  0  0  0
   -1.2024    0.6942   -0.0037 C   0  0  0  0  0  0  0  0  0  0  0  0
   -2.0638    1.1870   -0.0095 H   0  0  0  0  0  0  0  0  0  0  0  0
   -1.2029   -0.6942   -0.0000 C   0  0  0  0  0  0  0  0  0  0  0  0
   -2.0781   -1.1920   -0.0044 H   0  0  0  0  0  0  0  0  0  0  0  0
    0.0011   -1.3910    0.0112 C   0  0  0  0  0  0  0  0  0  0  0  0
   -0.0061   -2.3904    0.0265 H   0  0  0  0  0  0  0  0  0  0  0  0
    1.2029   -0.6987    0.0000 C   0  0  0  0  0  0  0  0  0  0  0  0
    2.0821   -1.1990   -0.0016 H   0  0  0  0  0  0  0  0  0  0  0  0
    1.1979    0.6865   -0.0065 C   0  0  0  0  0  0  0  0  0  0  0  0
    2.0676    1.1853   -0.0162 H   0  0  0  0  0  0  0  0  0  0  0  0
  1  5  1  0
  5  6  1  0
  5  7  2  0
  1  2  1  0
  1  3  1  0
  1  4  1  0
  8 12  1  0
 12 13  2  0
 13 15  1  0
 15 17  2  0
 17 19  1  0
 19 21  2  0
 21 12  1  0
  8  9  1  0
  8 10  1  0
  8 11  1  0
 13 14  1  0
 15 16  1  0
 17 18  1  0
 19 20  1  0
 21 22  1  0
M  CHG  1   6  -1
M  END
>  <PDB_ID>  (2050) 
pdb3w5f

>  <RESIDUE_NAME>  (2050) 
ASP   PHE

>  <FRAG_NAME>  (2050) 
ACET   MBZ

>  <FRAG_ATOM_NUM>  (2050) 
fragi: 7  fragj: 15

>  <atom.prop.CHAIN_ID>  (2050) 
A A A A A A A Z Z Z Z Z Z Z Z Z Z Z Z Z Z Z

>  <atom.prop.IS_HEAVY_ATOM>  (2050) 
1 0 0 0 1 1 1 1 0 0 0 1 1 0 1 0 1 0 1 0 1 0

>  <DIFUSE_FUNC_ATOM>  (2050) 
atom 6   atom 7   

>  <FINAL_SINGLE_POINT_ENERGY>  (2050) 
0

>  <NONCOV_INTER_ENERGY_QM>  (2050) 
0

>  <FF_Energy>  (2050) 
0.0

>  <QM_Energy>  (2050) 
-5.67

>  <source>  (2050) 
ACET_MBZ_02

>  <Index>  (2050) 
13254

$$$$
ACET-pdb3w08-B-ASP-86:MBZ-pdb3w08-B-PHE-90
     RDKit          3D

 22 21  0  0  0  0  0  0  0  0999 V2000
    3.2983    6.1774    2.5255 C   0  0  0  0  0  0  0  0  0  0  0  0
    3.9663    5.9783    3.2371 H   0  0  0  0  0  0  0  0  0  0  0  0
    2.5983    6.7922    2.8770 H   0  0  0  0  0  0  0  0  0  0  0  0
    3.8198    6.6989    1.7229 H   0  0  0  0  0  0  0  0  0  0  0  0
    2.6391    4.8771    2.0916 C   0  0  0  0  0  0  0  0  0  0  0  0
    3.2175    4.2007    1.2237 O   0  0  0  0  0  1  0  0  0  0  0  0
    1.5452    4.5271    2.6634 O   0  0  0  0  0  0  0  0  0  0  0  0
   -0.0112    2.9210    0.0263 C   0  0  0  0  0  0  0  0  0  0  0  0
    0.5532    3.2151    0.7850 H   0  0  0  0  0  0  0  0  0  0  0  0
   -0.9487    3.2198    0.1432 H   0  0  0  0  0  0  0  0  0  0  0  0
    0.3760    3.3924   -0.8771 H   0  0  0  0  0  0  0  0  0  0  0  0
   -0.0048    1.4096    0.0020 C   0  0  0  0  0  0  0  0  0  0  0  0
   -1.1912    0.7022    0.0070 C   0  0  0  0  0  0  0  0  0  0  0  0
   -2.0646    1.1806    0.0142 H   0  0  0  0  0  0  0  0  0  0  0  0
   -1.1929   -0.7024   -0.0000 C   0  0  0  0  0  0  0  0  0  0  0  0
   -2.0706   -1.1903    0.0112 H   0  0  0  0  0  0  0  0  0  0  0  0
    0.0067   -1.3948   -0.0207 C   0  0  0  0  0  0  0  0  0  0  0  0
   -0.0022   -2.3969   -0.0514 H   0  0  0  0  0  0  0  0  0  0  0  0
    1.1929   -0.7070    0.0000 C   0  0  0  0  0  0  0  0  0  0  0  0
    2.0814   -1.1955    0.0087 H   0  0  0  0  0  0  0  0  0  0  0  0
    1.1894    0.6924    0.0117 C   0  0  0  0  0  0  0  0  0  0  0  0
    2.0613    1.1833    0.0269 H   0  0  0  0  0  0  0  0  0  0  0  0
  1  5  1  0
  5  6  1  0
  5  7  2  0
  1  2  1  0
  1  3  1  0
  1  4  1  0
  8 12  1  0
 12 13  2  0
 13 15  1  0
 15 17  2  0
 17 19  1  0
 19 21  2  0
 21 12  1  0
  8  9  1  0
  8 10  1  0
  8 11  1  0
 13 14  1  0
 15 16  1  0
 17 18  1  0
 19 20  1  0
 21 22  1  0
M  CHG  1   6  -1
M  END
>  <PDB_ID>  (2051) 
pdb3w08

>  <RESIDUE_NAME>  (2051) 
ASP   PHE

>  <FRAG_NAME>  (2051) 
ACET   MBZ

>  <FRAG_ATOM_NUM>  (2051) 
fragi: 7  fragj: 15

>  <atom.prop.CHAIN_ID>  (2051) 
A A A A A A A Z Z Z Z Z Z Z Z Z Z Z Z Z Z Z

>  <atom.prop.IS_HEAVY_ATOM>  (2051) 
1 0 0 0 1 1 1 1 0 0 0 1 1 0 1 0 1 0 1 0 1 0

>  <DIFUSE_FUNC_ATOM>  (2051) 
atom 6   atom 7   

>  <FINAL_SINGLE_POINT_ENERGY>  (2051) 
0

>  <NONCOV_INTER_ENERGY_QM>  (2051) 
0

>  <FF_Energy>  (2051) 
-1.43

>  <QM_Energy>  (2051) 
-7.28

>  <source>  (2051) 
ACET_MBZ_02

>  <Index>  (2051) 
13281

$$$$
ACET-pdb3wa0-F-GLU-204:MBZ-pdb3wa0-F-PHE-119
     RDKit          3D

 22 21  0  0  0  0  0  0  0  0999 V2000
    0.1520    0.3260   -3.5744 C   0  0  0  0  0  0  0  0  0  0  0  0
   -0.1037   -0.3070   -2.8601 H   0  0  0  0  0  0  0  0  0  0  0  0
    0.1684   -0.1150   -4.4582 H   0  0  0  0  0  0  0  0  0  0  0  0
   -0.5842    1.1294   -3.6024 H   0  0  0  0  0  0  0  0  0  0  0  0
    1.5616    0.7989   -3.2781 C   0  0  0  0  0  0  0  0  0  0  0  0
    1.8159    2.0249   -3.2626 O   0  0  0  0  0  1  0  0  0  0  0  0
    2.4243   -0.0713   -3.0339 O   0  0  0  0  0  0  0  0  0  0  0  0
   -0.0013    2.8813    0.0025 C   0  0  0  0  0  0  0  0  0  0  0  0
   -0.6859    3.1892   -0.6424 H   0  0  0  0  0  0  0  0  0  0  0  0
    0.9021    3.1902   -0.2617 H   0  0  0  0  0  0  0  0  0  0  0  0
   -0.2336    3.3260    0.9701 H   0  0  0  0  0  0  0  0  0  0  0  0
   -0.0013    1.3854    0.0059 C   0  0  0  0  0  0  0  0  0  0  0  0
   -1.1953    0.6841    0.0004 C   0  0  0  0  0  0  0  0  0  0  0  0
   -2.0604    1.1834   -0.0048 H   0  0  0  0  0  0  0  0  0  0  0  0
   -1.2017   -0.6873   -0.0000 C   0  0  0  0  0  0  0  0  0  0  0  0
   -2.0744   -1.1911    0.0018 H   0  0  0  0  0  0  0  0  0  0  0  0
    0.0025   -1.3797   -0.0010 C   0  0  0  0  0  0  0  0  0  0  0  0
   -0.0012   -2.3807   -0.0031 H   0  0  0  0  0  0  0  0  0  0  0  0
    1.2017   -0.6858    0.0000 C   0  0  0  0  0  0  0  0  0  0  0  0
    2.0808   -1.1924    0.0064 H   0  0  0  0  0  0  0  0  0  0  0  0
    1.1941    0.6833   -0.0053 C   0  0  0  0  0  0  0  0  0  0  0  0
    2.0598    1.1916   -0.0181 H   0  0  0  0  0  0  0  0  0  0  0  0
  1  5  1  0
  5  6  1  0
  5  7  2  0
  1  2  1  0
  1  3  1  0
  1  4  1  0
  8 12  1  0
 12 13  2  0
 13 15  1  0
 15 17  2  0
 17 19  1  0
 19 21  2  0
 21 12  1  0
  8  9  1  0
  8 10  1  0
  8 11  1  0
 13 14  1  0
 15 16  1  0
 17 18  1  0
 19 20  1  0
 21 22  1  0
M  CHG  1   6  -1
M  END
>  <PDB_ID>  (2052) 
pdb3wa0

>  <RESIDUE_NAME>  (2052) 
GLU   PHE

>  <FRAG_NAME>  (2052) 
ACET   MBZ

>  <FRAG_ATOM_NUM>  (2052) 
fragi: 7  fragj: 15

>  <atom.prop.CHAIN_ID>  (2052) 
A A A A A A A Z Z Z Z Z Z Z Z Z Z Z Z Z Z Z

>  <atom.prop.IS_HEAVY_ATOM>  (2052) 
1 0 0 0 1 1 1 1 0 0 0 1 1 0 1 0 1 0 1 0 1 0

>  <DIFUSE_FUNC_ATOM>  (2052) 
atom 6   atom 7   

>  <FINAL_SINGLE_POINT_ENERGY>  (2052) 
0

>  <NONCOV_INTER_ENERGY_QM>  (2052) 
0

>  <FF_Energy>  (2052) 
0.1

>  <QM_Energy>  (2052) 
-4.96

>  <source>  (2052) 
ACET_MBZ_02

>  <Index>  (2052) 
13540

$$$$
ACET-pdb3was-A-GLU-138:MBZ-pdb3was-A-PHE-199
     RDKit          3D

 22 21  0  0  0  0  0  0  0  0999 V2000
    2.9499    0.6982   -3.2698 C   0  0  0  0  0  0  0  0  0  0  0  0
    2.1465    1.0498   -3.7028 H   0  0  0  0  0  0  0  0  0  0  0  0
    2.7916   -0.1365   -2.7854 H   0  0  0  0  0  0  0  0  0  0  0  0
    3.7023    0.5153   -4.0369 H   0  0  0  0  0  0  0  0  0  0  0  0
    3.4241    1.7277   -2.2722 C   0  0  0  0  0  0  0  0  0  0  0  0
    4.4061    1.4315   -1.5724 O   0  0  0  0  0  1  0  0  0  0  0  0
    2.8512    2.8359   -2.1999 O   0  0  0  0  0  0  0  0  0  0  0  0
    0.0122    2.9127    0.0228 C   0  0  0  0  0  0  0  0  0  0  0  0
    0.9574    3.2088    0.0261 H   0  0  0  0  0  0  0  0  0  0  0  0
   -0.4543    3.2030    0.8466 H   0  0  0  0  0  0  0  0  0  0  0  0
   -0.4831    3.3853   -0.8254 H   0  0  0  0  0  0  0  0  0  0  0  0
    0.0010    1.4025   -0.0070 C   0  0  0  0  0  0  0  0  0  0  0  0
   -1.1924    0.6961    0.0030 C   0  0  0  0  0  0  0  0  0  0  0  0
   -2.0610    1.1833    0.0117 H   0  0  0  0  0  0  0  0  0  0  0  0
   -1.1991   -0.6995   -0.0000 C   0  0  0  0  0  0  0  0  0  0  0  0
   -2.0791   -1.1884    0.0008 H   0  0  0  0  0  0  0  0  0  0  0  0
   -0.0032   -1.3972   -0.0027 C   0  0  0  0  0  0  0  0  0  0  0  0
   -0.0030   -2.3928   -0.0070 H   0  0  0  0  0  0  0  0  0  0  0  0
    1.1991   -0.6943   -0.0000 C   0  0  0  0  0  0  0  0  0  0  0  0
    2.0808   -1.1944   -0.0012 H   0  0  0  0  0  0  0  0  0  0  0  0
    1.1947    0.6925    0.0067 C   0  0  0  0  0  0  0  0  0  0  0  0
    2.0643    1.1901    0.0206 H   0  0  0  0  0  0  0  0  0  0  0  0
  1  5  1  0
  5  6  1  0
  5  7  2  0
  1  2  1  0
  1  3  1  0
  1  4  1  0
  8 12  1  0
 12 13  2  0
 13 15  1  0
 15 17  2  0
 17 19  1  0
 19 21  2  0
 21 12  1  0
  8  9  1  0
  8 10  1  0
  8 11  1  0
 13 14  1  0
 15 16  1  0
 17 18  1  0
 19 20  1  0
 21 22  1  0
M  CHG  1   6  -1
M  END
>  <PDB_ID>  (2053) 
pdb3was

>  <RESIDUE_NAME>  (2053) 
GLU   PHE

>  <FRAG_NAME>  (2053) 
ACET   MBZ

>  <FRAG_ATOM_NUM>  (2053) 
fragi: 7  fragj: 15

>  <atom.prop.CHAIN_ID>  (2053) 
A A A A A A A Z Z Z Z Z Z Z Z Z Z Z Z Z Z Z

>  <atom.prop.IS_HEAVY_ATOM>  (2053) 
1 0 0 0 1 1 1 1 0 0 0 1 1 0 1 0 1 0 1 0 1 0

>  <DIFUSE_FUNC_ATOM>  (2053) 
atom 6   atom 7   

>  <FINAL_SINGLE_POINT_ENERGY>  (2053) 
0

>  <NONCOV_INTER_ENERGY_QM>  (2053) 
0

>  <FF_Energy>  (2053) 
-2.14

>  <QM_Energy>  (2053) 
-7.2

>  <source>  (2053) 
ACET_MBZ_02

>  <Index>  (2053) 
13624

$$$$
ACET-pdb3wc3-A-ASP-190:MBZ-pdb3wc3-A-PHE-193
     RDKit          3D

 22 21  0  0  0  0  0  0  0  0999 V2000
    3.0394    4.4571   -2.1640 C   0  0  0  0  0  0  0  0  0  0  0  0
    3.5037    4.2549   -3.0195 H   0  0  0  0  0  0  0  0  0  0  0  0
    3.1560    3.7087   -1.5210 H   0  0  0  0  0  0  0  0  0  0  0  0
    3.4965    5.3480   -1.7332 H   0  0  0  0  0  0  0  0  0  0  0  0
    1.5410    4.6192   -2.4535 C   0  0  0  0  0  0  0  0  0  0  0  0
    0.8803    5.5663   -1.9573 O   0  0  0  0  0  1  0  0  0  0  0  0
    1.0188    3.7494   -3.1835 O   0  0  0  0  0  0  0  0  0  0  0  0
    0.0230    2.9116   -0.0690 C   0  0  0  0  0  0  0  0  0  0  0  0
   -0.4446    3.1718   -0.9086 H   0  0  0  0  0  0  0  0  0  0  0  0
    0.9753    3.2009   -0.1024 H   0  0  0  0  0  0  0  0  0  0  0  0
   -0.4563    3.4382    0.7563 H   0  0  0  0  0  0  0  0  0  0  0  0
    0.0032    1.4078    0.0202 C   0  0  0  0  0  0  0  0  0  0  0  0
   -1.2008    0.7131   -0.0096 C   0  0  0  0  0  0  0  0  0  0  0  0
   -2.0615    1.2023   -0.0386 H   0  0  0  0  0  0  0  0  0  0  0  0
   -1.2106   -0.6892    0.0000 C   0  0  0  0  0  0  0  0  0  0  0  0
   -2.0885   -1.1761    0.0030 H   0  0  0  0  0  0  0  0  0  0  0  0
   -0.0053   -1.4007    0.0076 C   0  0  0  0  0  0  0  0  0  0  0  0
   -0.0227   -2.3986    0.0178 H   0  0  0  0  0  0  0  0  0  0  0  0
    1.2106   -0.7174   -0.0000 C   0  0  0  0  0  0  0  0  0  0  0  0
    2.0823   -1.2126    0.0089 H   0  0  0  0  0  0  0  0  0  0  0  0
    1.2029    0.6863   -0.0182 C   0  0  0  0  0  0  0  0  0  0  0  0
    2.0716    1.1789   -0.0605 H   0  0  0  0  0  0  0  0  0  0  0  0
  1  5  1  0
  5  6  1  0
  5  7  2  0
  1  2  1  0
  1  3  1  0
  1  4  1  0
  8 12  1  0
 12 13  2  0
 13 15  1  0
 15 17  2  0
 17 19  1  0
 19 21  2  0
 21 12  1  0
  8  9  1  0
  8 10  1  0
  8 11  1  0
 13 14  1  0
 15 16  1  0
 17 18  1  0
 19 20  1  0
 21 22  1  0
M  CHG  1   6  -1
M  END
>  <PDB_ID>  (2054) 
pdb3wc3

>  <RESIDUE_NAME>  (2054) 
ASP   PHE

>  <FRAG_NAME>  (2054) 
ACET   MBZ

>  <FRAG_ATOM_NUM>  (2054) 
fragi: 7  fragj: 15

>  <atom.prop.CHAIN_ID>  (2054) 
A A A A A A A Z Z Z Z Z Z Z Z Z Z Z Z Z Z Z

>  <atom.prop.IS_HEAVY_ATOM>  (2054) 
1 0 0 0 1 1 1 1 0 0 0 1 1 0 1 0 1 0 1 0 1 0

>  <DIFUSE_FUNC_ATOM>  (2054) 
atom 6   atom 7   

>  <FINAL_SINGLE_POINT_ENERGY>  (2054) 
0

>  <NONCOV_INTER_ENERGY_QM>  (2054) 
0

>  <FF_Energy>  (2054) 
-0.44

>  <QM_Energy>  (2054) 
-5.47

>  <source>  (2054) 
ACET_MBZ_02

>  <Index>  (2054) 
13683

$$$$
ACET-pdb3wct-B-ASP-79:MBZ-pdb3wct-C-PHE-25
     RDKit          3D

 22 21  0  0  0  0  0  0  0  0999 V2000
   -5.9566   -0.7966   -0.0099 C   0  0  0  0  0  0  0  0  0  0  0  0
   -6.1759   -1.0493    0.9256 H   0  0  0  0  0  0  0  0  0  0  0  0
   -5.5412   -1.5605   -0.4884 H   0  0  0  0  0  0  0  0  0  0  0  0
   -6.8862   -0.5421   -0.5191 H   0  0  0  0  0  0  0  0  0  0  0  0
   -4.9640    0.3574    0.0187 C   0  0  0  0  0  0  0  0  0  0  0  0
   -4.0039    0.2889    0.8187 O   0  0  0  0  0  1  0  0  0  0  0  0
   -5.1255    1.3286   -0.7526 O   0  0  0  0  0  0  0  0  0  0  0  0
    0.0019    2.8975   -0.1189 C   0  0  0  0  0  0  0  0  0  0  0  0
    0.8493    3.2344    0.2550 H   0  0  0  0  0  0  0  0  0  0  0  0
   -0.7795    3.2460    0.3715 H   0  0  0  0  0  0  0  0  0  0  0  0
   -0.0694    3.2420   -1.1505 H   0  0  0  0  0  0  0  0  0  0  0  0
   -0.0002    1.4043   -0.0002 C   0  0  0  0  0  0  0  0  0  0  0  0
   -1.1995    0.6964    0.0027 C   0  0  0  0  0  0  0  0  0  0  0  0
   -2.0654    1.1855    0.0055 H   0  0  0  0  0  0  0  0  0  0  0  0
   -1.2034   -0.6986    0.0000 C   0  0  0  0  0  0  0  0  0  0  0  0
   -2.0793   -1.1918    0.0035 H   0  0  0  0  0  0  0  0  0  0  0  0
    0.0012   -1.3964   -0.0053 C   0  0  0  0  0  0  0  0  0  0  0  0
   -0.0044   -2.3944   -0.0133 H   0  0  0  0  0  0  0  0  0  0  0  0
    1.2034   -0.6996    0.0000 C   0  0  0  0  0  0  0  0  0  0  0  0
    2.0843   -1.1966    0.0032 H   0  0  0  0  0  0  0  0  0  0  0  0
    1.1984    0.6938    0.0028 C   0  0  0  0  0  0  0  0  0  0  0  0
    2.0659    1.1899    0.0060 H   0  0  0  0  0  0  0  0  0  0  0  0
  1  5  1  0
  5  6  1  0
  5  7  2  0
  1  2  1  0
  1  3  1  0
  1  4  1  0
  8 12  1  0
 12 13  2  0
 13 15  1  0
 15 17  2  0
 17 19  1  0
 19 21  2  0
 21 12  1  0
  8  9  1  0
  8 10  1  0
  8 11  1  0
 13 14  1  0
 15 16  1  0
 17 18  1  0
 19 20  1  0
 21 22  1  0
M  CHG  1   6  -1
M  END
>  <PDB_ID>  (2055) 
pdb3wct

>  <RESIDUE_NAME>  (2055) 
ASP   PHE

>  <FRAG_NAME>  (2055) 
ACET   MBZ

>  <FRAG_ATOM_NUM>  (2055) 
fragi: 7  fragj: 15

>  <atom.prop.CHAIN_ID>  (2055) 
A A A A A A A Z Z Z Z Z Z Z Z Z Z Z Z Z Z Z

>  <atom.prop.IS_HEAVY_ATOM>  (2055) 
1 0 0 0 1 1 1 1 0 0 0 1 1 0 1 0 1 0 1 0 1 0

>  <DIFUSE_FUNC_ATOM>  (2055) 
atom 6   atom 7   

>  <FINAL_SINGLE_POINT_ENERGY>  (2055) 
0

>  <NONCOV_INTER_ENERGY_QM>  (2055) 
0

>  <FF_Energy>  (2055) 
-0.7

>  <QM_Energy>  (2055) 
-6.95

>  <source>  (2055) 
ACET_MBZ_02

>  <Index>  (2055) 
13787

$$$$
ACET-pdb4xjx-A-GLU-281:MBZ-pdb4xjx-A-PHE-14
     RDKit          3D

 22 21  0  0  0  0  0  0  0  0999 V2000
   -2.7730    1.1261    3.2522 C   0  0  0  0  0  0  0  0  0  0  0  0
   -2.8081    1.0976    4.2392 H   0  0  0  0  0  0  0  0  0  0  0  0
   -2.0485    0.5524    2.9012 H   0  0  0  0  0  0  0  0  0  0  0  0
   -3.7216    0.7526    2.8666 H   0  0  0  0  0  0  0  0  0  0  0  0
   -2.4596    2.5548    2.8478 C   0  0  0  0  0  0  0  0  0  0  0  0
   -3.2913    3.1781    2.1503 O   0  0  0  0  0  1  0  0  0  0  0  0
   -1.3992    3.0690    3.2628 O   0  0  0  0  0  0  0  0  0  0  0  0
    0.0043    2.9258   -0.0135 C   0  0  0  0  0  0  0  0  0  0  0  0
    0.7778    3.2236   -0.5692 H   0  0  0  0  0  0  0  0  0  0  0  0
    0.1275    3.2304    0.9285 H   0  0  0  0  0  0  0  0  0  0  0  0
   -0.8893    3.4133   -0.4032 H   0  0  0  0  0  0  0  0  0  0  0  0
   -0.0011    1.4113   -0.0098 C   0  0  0  0  0  0  0  0  0  0  0  0
   -1.1950    0.6996    0.0142 C   0  0  0  0  0  0  0  0  0  0  0  0
   -2.0642    1.1798    0.0405 H   0  0  0  0  0  0  0  0  0  0  0  0
   -1.1947   -0.7046    0.0000 C   0  0  0  0  0  0  0  0  0  0  0  0
   -2.0747   -1.1926   -0.0055 H   0  0  0  0  0  0  0  0  0  0  0  0
    0.0023   -1.3979   -0.0046 C   0  0  0  0  0  0  0  0  0  0  0  0
   -0.0028   -2.3982   -0.0117 H   0  0  0  0  0  0  0  0  0  0  0  0
    1.1947   -0.7050   -0.0000 C   0  0  0  0  0  0  0  0  0  0  0  0
    2.0812   -1.1961    0.0047 H   0  0  0  0  0  0  0  0  0  0  0  0
    1.1938    0.6966    0.0001 C   0  0  0  0  0  0  0  0  0  0  0  0
    2.0651    1.1855    0.0066 H   0  0  0  0  0  0  0  0  0  0  0  0
  1  5  1  0
  5  6  1  0
  5  7  2  0
  1  2  1  0
  1  3  1  0
  1  4  1  0
  8 12  1  0
 12 13  2  0
 13 15  1  0
 15 17  2  0
 17 19  1  0
 19 21  2  0
 21 12  1  0
  8  9  1  0
  8 10  1  0
  8 11  1  0
 13 14  1  0
 15 16  1  0
 17 18  1  0
 19 20  1  0
 21 22  1  0
M  CHG  1   6  -1
M  END
>  <PDB_ID>  (2056) 
pdb4xjx

>  <RESIDUE_NAME>  (2056) 
GLU   PHE

>  <FRAG_NAME>  (2056) 
ACET   MBZ

>  <FRAG_ATOM_NUM>  (2056) 
fragi: 7  fragj: 15

>  <atom.prop.CHAIN_ID>  (2056) 
A A A A A A A Z Z Z Z Z Z Z Z Z Z Z Z Z Z Z

>  <atom.prop.IS_HEAVY_ATOM>  (2056) 
1 0 0 0 1 1 1 1 0 0 0 1 1 0 1 0 1 0 1 0 1 0

>  <DIFUSE_FUNC_ATOM>  (2056) 
atom 6   atom 7   

>  <FINAL_SINGLE_POINT_ENERGY>  (2056) 
0

>  <NONCOV_INTER_ENERGY_QM>  (2056) 
0

>  <FF_Energy>  (2056) 
-1.57

>  <QM_Energy>  (2056) 
-6.59

>  <source>  (2056) 
ACET_MBZ_02

>  <Index>  (2056) 
13882

$$$$
ACET-pdb4xjx-A-GLU-80:MBZ-pdb4xjx-A-PHE-113
     RDKit          3D

 22 21  0  0  0  0  0  0  0  0999 V2000
    3.6663    2.1394    3.2560 C   0  0  0  0  0  0  0  0  0  0  0  0
    2.8411    2.6379    3.4919 H   0  0  0  0  0  0  0  0  0  0  0  0
    4.4731    2.6485    3.5274 H   0  0  0  0  0  0  0  0  0  0  0  0
    3.6602    1.1908    3.7930 H   0  0  0  0  0  0  0  0  0  0  0  0
    3.7008    2.0126    1.7469 C   0  0  0  0  0  0  0  0  0  0  0  0
    4.1617    0.9603    1.2375 O   0  0  0  0  0  1  0  0  0  0  0  0
    3.2848    2.9826    1.0688 O   0  0  0  0  0  0  0  0  0  0  0  0
    0.0045    2.9163    0.0479 C   0  0  0  0  0  0  0  0  0  0  0  0
   -0.6889    3.2389   -0.5644 H   0  0  0  0  0  0  0  0  0  0  0  0
    0.9019    3.2257   -0.1957 H   0  0  0  0  0  0  0  0  0  0  0  0
   -0.2230    3.2986    1.0430 H   0  0  0  0  0  0  0  0  0  0  0  0
    0.0019    1.4028    0.0026 C   0  0  0  0  0  0  0  0  0  0  0  0
   -1.1905    0.6923   -0.0121 C   0  0  0  0  0  0  0  0  0  0  0  0
   -2.0592    1.1767   -0.0329 H   0  0  0  0  0  0  0  0  0  0  0  0
   -1.1875   -0.6999    0.0000 C   0  0  0  0  0  0  0  0  0  0  0  0
   -2.0710   -1.1900    0.0063 H   0  0  0  0  0  0  0  0  0  0  0  0
   -0.0021   -1.3834    0.0050 C   0  0  0  0  0  0  0  0  0  0  0  0
   -0.0056   -2.3907    0.0119 H   0  0  0  0  0  0  0  0  0  0  0  0
    1.1875   -0.7011   -0.0000 C   0  0  0  0  0  0  0  0  0  0  0  0
    2.0734   -1.1982   -0.0057 H   0  0  0  0  0  0  0  0  0  0  0  0
    1.1907    0.6894    0.0046 C   0  0  0  0  0  0  0  0  0  0  0  0
    2.0632    1.1794    0.0090 H   0  0  0  0  0  0  0  0  0  0  0  0
  1  5  1  0
  5  6  1  0
  5  7  2  0
  1  2  1  0
  1  3  1  0
  1  4  1  0
  8 12  1  0
 12 13  2  0
 13 15  1  0
 15 17  2  0
 17 19  1  0
 19 21  2  0
 21 12  1  0
  8  9  1  0
  8 10  1  0
  8 11  1  0
 13 14  1  0
 15 16  1  0
 17 18  1  0
 19 20  1  0
 21 22  1  0
M  CHG  1   6  -1
M  END
>  <PDB_ID>  (2057) 
pdb4xjx

>  <RESIDUE_NAME>  (2057) 
GLU   PHE

>  <FRAG_NAME>  (2057) 
ACET   MBZ

>  <FRAG_ATOM_NUM>  (2057) 
fragi: 7  fragj: 15

>  <atom.prop.CHAIN_ID>  (2057) 
A A A A A A A Z Z Z Z Z Z Z Z Z Z Z Z Z Z Z

>  <atom.prop.IS_HEAVY_ATOM>  (2057) 
1 0 0 0 1 1 1 1 0 0 0 1 1 0 1 0 1 0 1 0 1 0

>  <DIFUSE_FUNC_ATOM>  (2057) 
atom 6   atom 7   

>  <FINAL_SINGLE_POINT_ENERGY>  (2057) 
0

>  <NONCOV_INTER_ENERGY_QM>  (2057) 
0

>  <FF_Energy>  (2057) 
-1.44

>  <QM_Energy>  (2057) 
-9.09

>  <source>  (2057) 
ACET_MBZ_02

>  <Index>  (2057) 
13883

$$$$
ACET-pdb4xjx-B-GLU-281:MBZ-pdb4xjx-B-PHE-14
     RDKit          3D

 22 21  0  0  0  0  0  0  0  0999 V2000
   -2.7759    1.1447    3.2474 C   0  0  0  0  0  0  0  0  0  0  0  0
   -2.8132    1.1217    4.2329 H   0  0  0  0  0  0  0  0  0  0  0  0
   -2.0595    0.5641    2.8965 H   0  0  0  0  0  0  0  0  0  0  0  0
   -3.7282    0.7777    2.8648 H   0  0  0  0  0  0  0  0  0  0  0  0
   -2.4631    2.5633    2.8312 C   0  0  0  0  0  0  0  0  0  0  0  0
   -3.2940    3.1774    2.1229 O   0  0  0  0  0  1  0  0  0  0  0  0
   -1.3982    3.0758    3.2408 O   0  0  0  0  0  0  0  0  0  0  0  0
    0.0026    2.9212   -0.0258 C   0  0  0  0  0  0  0  0  0  0  0  0
    0.7780    3.2188   -0.5769 H   0  0  0  0  0  0  0  0  0  0  0  0
    0.1103    3.2359    0.9135 H   0  0  0  0  0  0  0  0  0  0  0  0
   -0.8880    3.4026   -0.4299 H   0  0  0  0  0  0  0  0  0  0  0  0
   -0.0014    1.4088   -0.0099 C   0  0  0  0  0  0  0  0  0  0  0  0
   -1.1910    0.6990    0.0139 C   0  0  0  0  0  0  0  0  0  0  0  0
   -2.0620    1.1804    0.0398 H   0  0  0  0  0  0  0  0  0  0  0  0
   -1.1913   -0.7013    0.0000 C   0  0  0  0  0  0  0  0  0  0  0  0
   -2.0721   -1.1898   -0.0056 H   0  0  0  0  0  0  0  0  0  0  0  0
    0.0026   -1.3943   -0.0039 C   0  0  0  0  0  0  0  0  0  0  0  0
   -0.0050   -2.3964   -0.0103 H   0  0  0  0  0  0  0  0  0  0  0  0
    1.1913   -0.7053   -0.0000 C   0  0  0  0  0  0  0  0  0  0  0  0
    2.0785   -1.1956    0.0047 H   0  0  0  0  0  0  0  0  0  0  0  0
    1.1899    0.6932    0.0000 C   0  0  0  0  0  0  0  0  0  0  0  0
    2.0623    1.1828    0.0065 H   0  0  0  0  0  0  0  0  0  0  0  0
  1  5  1  0
  5  6  1  0
  5  7  2  0
  1  2  1  0
  1  3  1  0
  1  4  1  0
  8 12  1  0
 12 13  2  0
 13 15  1  0
 15 17  2  0
 17 19  1  0
 19 21  2  0
 21 12  1  0
  8  9  1  0
  8 10  1  0
  8 11  1  0
 13 14  1  0
 15 16  1  0
 17 18  1  0
 19 20  1  0
 21 22  1  0
M  CHG  1   6  -1
M  END
>  <PDB_ID>  (2058) 
pdb4xjx

>  <RESIDUE_NAME>  (2058) 
GLU   PHE

>  <FRAG_NAME>  (2058) 
ACET   MBZ

>  <FRAG_ATOM_NUM>  (2058) 
fragi: 7  fragj: 15

>  <atom.prop.CHAIN_ID>  (2058) 
A A A A A A A Z Z Z Z Z Z Z Z Z Z Z Z Z Z Z

>  <atom.prop.IS_HEAVY_ATOM>  (2058) 
1 0 0 0 1 1 1 1 0 0 0 1 1 0 1 0 1 0 1 0 1 0

>  <DIFUSE_FUNC_ATOM>  (2058) 
atom 6   atom 7   

>  <FINAL_SINGLE_POINT_ENERGY>  (2058) 
0

>  <NONCOV_INTER_ENERGY_QM>  (2058) 
0

>  <FF_Energy>  (2058) 
-1.59

>  <QM_Energy>  (2058) 
-6.67

>  <source>  (2058) 
ACET_MBZ_02

>  <Index>  (2058) 
13907

$$$$
ACET-pdb4xb6-D-GLU-239:MBZ-pdb4xb6-D-PHE-264
     RDKit          3D

 22 21  0  0  0  0  0  0  0  0999 V2000
   -3.6513    1.4392   -3.7968 C   0  0  0  0  0  0  0  0  0  0  0  0
   -4.4132    1.6693   -4.3521 H   0  0  0  0  0  0  0  0  0  0  0  0
   -3.2497    0.6139   -4.1112 H   0  0  0  0  0  0  0  0  0  0  0  0
   -2.9138    2.2394   -3.8577 H   0  0  0  0  0  0  0  0  0  0  0  0
   -4.1512    1.2103   -2.3873 C   0  0  0  0  0  0  0  0  0  0  0  0
   -3.6390    1.8720   -1.4608 O   0  0  0  0  0  1  0  0  0  0  0  0
   -5.0619    0.3735   -2.2061 O   0  0  0  0  0  0  0  0  0  0  0  0
    0.0108    2.9037   -0.0055 C   0  0  0  0  0  0  0  0  0  0  0  0
   -0.7416    3.2024   -0.5395 H   0  0  0  0  0  0  0  0  0  0  0  0
    0.8413    3.1920   -0.4162 H   0  0  0  0  0  0  0  0  0  0  0  0
   -0.0635    3.3493    0.9864 H   0  0  0  0  0  0  0  0  0  0  0  0
    0.0007    1.3981    0.0030 C   0  0  0  0  0  0  0  0  0  0  0  0
   -1.1890    0.6940   -0.0040 C   0  0  0  0  0  0  0  0  0  0  0  0
   -1.9963    1.1567   -0.0030 H   0  0  0  0  0  0  0  0  0  0  0  0
   -1.1942   -0.6947   -0.0000 C   0  0  0  0  0  0  0  0  0  0  0  0
   -2.0020   -1.1569   -0.0006 H   0  0  0  0  0  0  0  0  0  0  0  0
   -0.0008   -1.3893    0.0025 C   0  0  0  0  0  0  0  0  0  0  0  0
   -0.0032   -2.3196    0.0025 H   0  0  0  0  0  0  0  0  0  0  0  0
    1.1942   -0.7008   -0.0000 C   0  0  0  0  0  0  0  0  0  0  0  0
    2.0008   -1.1655    0.0018 H   0  0  0  0  0  0  0  0  0  0  0  0
    1.1891    0.6926   -0.0015 C   0  0  0  0  0  0  0  0  0  0  0  0
    1.9973    1.1554    0.0004 H   0  0  0  0  0  0  0  0  0  0  0  0
  1  5  1  0
  5  6  1  0
  5  7  2  0
  1  2  1  0
  1  3  1  0
  1  4  1  0
  8 12  1  0
 12 13  2  0
 13 15  1  0
 15 17  2  0
 17 19  1  0
 19 21  2  0
 21 12  1  0
  8  9  1  0
  8 10  1  0
  8 11  1  0
 13 14  1  0
 15 16  1  0
 17 18  1  0
 19 20  1  0
 21 22  1  0
M  CHG  1   6  -1
M  END
>  <PDB_ID>  (2059) 
pdb4xb6

>  <RESIDUE_NAME>  (2059) 
GLU   PHE

>  <FRAG_NAME>  (2059) 
ACET   MBZ

>  <FRAG_ATOM_NUM>  (2059) 
fragi: 7  fragj: 15

>  <atom.prop.CHAIN_ID>  (2059) 
A A A A A A A Z Z Z Z Z Z Z Z Z Z Z Z Z Z Z

>  <atom.prop.IS_HEAVY_ATOM>  (2059) 
1 0 0 0 1 1 1 1 0 0 0 1 1 0 1 0 1 0 1 0 1 0

>  <DIFUSE_FUNC_ATOM>  (2059) 
atom 6   atom 7   

>  <FINAL_SINGLE_POINT_ENERGY>  (2059) 
0

>  <NONCOV_INTER_ENERGY_QM>  (2059) 
0

>  <FF_Energy>  (2059) 
-1.27

>  <QM_Energy>  (2059) 
-6.33

>  <source>  (2059) 
ACET_MBZ_02

>  <Index>  (2059) 
13931

$$$$
ACET-pdb4xl3-B-GLU-187:MBZ-pdb4xl3-B-PHE-221
     RDKit          3D

 22 21  0  0  0  0  0  0  0  0999 V2000
   -0.5656    0.6383    3.5594 C   0  0  0  0  0  0  0  0  0  0  0  0
   -0.1494    0.2816    4.3742 H   0  0  0  0  0  0  0  0  0  0  0  0
   -0.1947    0.2386    2.7434 H   0  0  0  0  0  0  0  0  0  0  0  0
   -1.6275    0.3950    3.5962 H   0  0  0  0  0  0  0  0  0  0  0  0
   -0.2889    2.1371    3.5110 C   0  0  0  0  0  0  0  0  0  0  0  0
   -1.2256    2.9829    3.3561 O   0  0  0  0  0  1  0  0  0  0  0  0
    0.9245    2.5154    3.5753 O   0  0  0  0  0  0  0  0  0  0  0  0
    0.0378    2.9098   -0.0679 C   0  0  0  0  0  0  0  0  0  0  0  0
    0.4672    3.1960   -0.9189 H   0  0  0  0  0  0  0  0  0  0  0  0
    0.5743    3.2210    0.7103 H   0  0  0  0  0  0  0  0  0  0  0  0
   -0.9284    3.4111   -0.0120 H   0  0  0  0  0  0  0  0  0  0  0  0
    0.0065    1.4006   -0.0422 C   0  0  0  0  0  0  0  0  0  0  0  0
   -1.1642    0.6710    0.0123 C   0  0  0  0  0  0  0  0  0  0  0  0
   -2.0452    1.1648    0.0614 H   0  0  0  0  0  0  0  0  0  0  0  0
   -1.1741   -0.6987    0.0000 C   0  0  0  0  0  0  0  0  0  0  0  0
   -2.0765   -1.1779   -0.0476 H   0  0  0  0  0  0  0  0  0  0  0  0
   -0.0314   -1.3846    0.0502 C   0  0  0  0  0  0  0  0  0  0  0  0
   -0.0106   -2.3801    0.1218 H   0  0  0  0  0  0  0  0  0  0  0  0
    1.1741   -0.6800   -0.0000 C   0  0  0  0  0  0  0  0  0  0  0  0
    2.0535   -1.1978   -0.0201 H   0  0  0  0  0  0  0  0  0  0  0  0
    1.1892    0.6917   -0.0203 C   0  0  0  0  0  0  0  0  0  0  0  0
    2.0621    1.1831   -0.0203 H   0  0  0  0  0  0  0  0  0  0  0  0
  1  5  1  0
  5  6  1  0
  5  7  2  0
  1  2  1  0
  1  3  1  0
  1  4  1  0
  8 12  1  0
 12 13  2  0
 13 15  1  0
 15 17  2  0
 17 19  1  0
 19 21  2  0
 21 12  1  0
  8  9  1  0
  8 10  1  0
  8 11  1  0
 13 14  1  0
 15 16  1  0
 17 18  1  0
 19 20  1  0
 21 22  1  0
M  CHG  1   6  -1
M  END
>  <PDB_ID>  (2060) 
pdb4xl3

>  <RESIDUE_NAME>  (2060) 
GLU   PHE

>  <FRAG_NAME>  (2060) 
ACET   MBZ

>  <FRAG_ATOM_NUM>  (2060) 
fragi: 7  fragj: 15

>  <atom.prop.CHAIN_ID>  (2060) 
A A A A A A A Z Z Z Z Z Z Z Z Z Z Z Z Z Z Z

>  <atom.prop.IS_HEAVY_ATOM>  (2060) 
1 0 0 0 1 1 1 1 0 0 0 1 1 0 1 0 1 0 1 0 1 0

>  <DIFUSE_FUNC_ATOM>  (2060) 
atom 6   atom 7   

>  <FINAL_SINGLE_POINT_ENERGY>  (2060) 
0

>  <NONCOV_INTER_ENERGY_QM>  (2060) 
0

>  <FF_Energy>  (2060) 
-0.65

>  <QM_Energy>  (2060) 
-5.86

>  <source>  (2060) 
ACET_MBZ_02

>  <Index>  (2060) 
13974

$$$$
ACET-pdb3wgo-B-ASP-124:MBZ-pdb3wgo-B-PHE-128
     RDKit          3D

 22 21  0  0  0  0  0  0  0  0999 V2000
    2.4884    2.4929   -2.9359 C   0  0  0  0  0  0  0  0  0  0  0  0
    1.8275    1.8744   -2.5417 H   0  0  0  0  0  0  0  0  0  0  0  0
    3.2325    2.0049   -3.3617 H   0  0  0  0  0  0  0  0  0  0  0  0
    1.9879    3.0891   -3.6989 H   0  0  0  0  0  0  0  0  0  0  0  0
    3.0683    3.3664   -1.8019 C   0  0  0  0  0  0  0  0  0  0  0  0
    3.0646    4.6106   -1.9451 O   0  0  0  0  0  1  0  0  0  0  0  0
    3.5236    2.8235   -0.7688 O   0  0  0  0  0  0  0  0  0  0  0  0
   -0.0020    2.9219    0.0082 C   0  0  0  0  0  0  0  0  0  0  0  0
    0.3536    3.2312   -0.8593 H   0  0  0  0  0  0  0  0  0  0  0  0
    0.5622    3.2220    0.7611 H   0  0  0  0  0  0  0  0  0  0  0  0
   -0.9892    3.3654    0.1380 H   0  0  0  0  0  0  0  0  0  0  0  0
   -0.0037    1.4099   -0.0003 C   0  0  0  0  0  0  0  0  0  0  0  0
   -1.1953    0.6985   -0.0012 C   0  0  0  0  0  0  0  0  0  0  0  0
   -2.0659    1.1832   -0.0038 H   0  0  0  0  0  0  0  0  0  0  0  0
   -1.2001   -0.7011    0.0000 C   0  0  0  0  0  0  0  0  0  0  0  0
   -2.0755   -1.1921    0.0002 H   0  0  0  0  0  0  0  0  0  0  0  0
    0.0063   -1.4034    0.0020 C   0  0  0  0  0  0  0  0  0  0  0  0
   -0.0025   -2.3995    0.0039 H   0  0  0  0  0  0  0  0  0  0  0  0
    1.2001   -0.7052   -0.0000 C   0  0  0  0  0  0  0  0  0  0  0  0
    2.0868   -1.1909    0.0008 H   0  0  0  0  0  0  0  0  0  0  0  0
    1.1927    0.7012   -0.0004 C   0  0  0  0  0  0  0  0  0  0  0  0
    2.0631    1.1911   -0.0015 H   0  0  0  0  0  0  0  0  0  0  0  0
  1  5  1  0
  5  6  1  0
  5  7  2  0
  1  2  1  0
  1  3  1  0
  1  4  1  0
  8 12  1  0
 12 13  2  0
 13 15  1  0
 15 17  2  0
 17 19  1  0
 19 21  2  0
 21 12  1  0
  8  9  1  0
  8 10  1  0
  8 11  1  0
 13 14  1  0
 15 16  1  0
 17 18  1  0
 19 20  1  0
 21 22  1  0
M  CHG  1   6  -1
M  END
>  <PDB_ID>  (2061) 
pdb3wgo

>  <RESIDUE_NAME>  (2061) 
ASP   PHE

>  <FRAG_NAME>  (2061) 
ACET   MBZ

>  <FRAG_ATOM_NUM>  (2061) 
fragi: 7  fragj: 15

>  <atom.prop.CHAIN_ID>  (2061) 
A A A A A A A Z Z Z Z Z Z Z Z Z Z Z Z Z Z Z

>  <atom.prop.IS_HEAVY_ATOM>  (2061) 
1 0 0 0 1 1 1 1 0 0 0 1 1 0 1 0 1 0 1 0 1 0

>  <DIFUSE_FUNC_ATOM>  (2061) 
atom 6   atom 7   

>  <FINAL_SINGLE_POINT_ENERGY>  (2061) 
0

>  <NONCOV_INTER_ENERGY_QM>  (2061) 
0

>  <FF_Energy>  (2061) 
-2.11

>  <QM_Energy>  (2061) 
-8.25

>  <source>  (2061) 
ACET_MBZ_02

>  <Index>  (2061) 
14062

$$$$
ACET-pdb3wid-B-ASP-292:MBZ-pdb3wid-D-PHE-277
     RDKit          3D

 22 21  0  0  0  0  0  0  0  0999 V2000
   -1.0731    4.0630   -3.4807 C   0  0  0  0  0  0  0  0  0  0  0  0
   -1.2906    4.3171   -2.5453 H   0  0  0  0  0  0  0  0  0  0  0  0
   -1.6422    4.5672   -4.1193 H   0  0  0  0  0  0  0  0  0  0  0  0
   -0.0376    4.3478   -3.6667 H   0  0  0  0  0  0  0  0  0  0  0  0
   -1.2805    2.6096   -3.6650 C   0  0  0  0  0  0  0  0  0  0  0  0
   -0.8733    1.8320   -2.7774 O   0  0  0  0  0  1  0  0  0  0  0  0
   -1.7828    2.2323   -4.7390 O   0  0  0  0  0  0  0  0  0  0  0  0
    0.0176    2.8790   -0.0674 C   0  0  0  0  0  0  0  0  0  0  0  0
   -0.7819    3.1685   -0.5835 H   0  0  0  0  0  0  0  0  0  0  0  0
    0.8502    3.1522   -0.5377 H   0  0  0  0  0  0  0  0  0  0  0  0
   -0.0044    3.3852    0.8977 H   0  0  0  0  0  0  0  0  0  0  0  0
    0.0010    1.3861    0.0082 C   0  0  0  0  0  0  0  0  0  0  0  0
   -1.1920    0.6896   -0.0042 C   0  0  0  0  0  0  0  0  0  0  0  0
   -2.0568    1.1832   -0.0176 H   0  0  0  0  0  0  0  0  0  0  0  0
   -1.1942   -0.6895    0.0000 C   0  0  0  0  0  0  0  0  0  0  0  0
   -2.0684   -1.1893   -0.0016 H   0  0  0  0  0  0  0  0  0  0  0  0
    0.0066   -1.3773    0.0079 C   0  0  0  0  0  0  0  0  0  0  0  0
   -0.0000   -2.3822    0.0192 H   0  0  0  0  0  0  0  0  0  0  0  0
    1.1942   -0.6900   -0.0000 C   0  0  0  0  0  0  0  0  0  0  0  0
    2.0790   -1.1898    0.0045 H   0  0  0  0  0  0  0  0  0  0  0  0
    1.1844    0.6811   -0.0119 C   0  0  0  0  0  0  0  0  0  0  0  0
    2.0578    1.1843   -0.0367 H   0  0  0  0  0  0  0  0  0  0  0  0
  1  5  1  0
  5  6  1  0
  5  7  2  0
  1  2  1  0
  1  3  1  0
  1  4  1  0
  8 12  1  0
 12 13  2  0
 13 15  1  0
 15 17  2  0
 17 19  1  0
 19 21  2  0
 21 12  1  0
  8  9  1  0
  8 10  1  0
  8 11  1  0
 13 14  1  0
 15 16  1  0
 17 18  1  0
 19 20  1  0
 21 22  1  0
M  CHG  1   6  -1
M  END
>  <PDB_ID>  (2062) 
pdb3wid

>  <RESIDUE_NAME>  (2062) 
ASP   PHE

>  <FRAG_NAME>  (2062) 
ACET   MBZ

>  <FRAG_ATOM_NUM>  (2062) 
fragi: 7  fragj: 15

>  <atom.prop.CHAIN_ID>  (2062) 
A A A A A A A Z Z Z Z Z Z Z Z Z Z Z Z Z Z Z

>  <atom.prop.IS_HEAVY_ATOM>  (2062) 
1 0 0 0 1 1 1 1 0 0 0 1 1 0 1 0 1 0 1 0 1 0

>  <DIFUSE_FUNC_ATOM>  (2062) 
atom 6   atom 7   

>  <FINAL_SINGLE_POINT_ENERGY>  (2062) 
0

>  <NONCOV_INTER_ENERGY_QM>  (2062) 
0

>  <FF_Energy>  (2062) 
4.86

>  <QM_Energy>  (2062) 
-2.23

>  <source>  (2062) 
ACET_MBZ_02

>  <Index>  (2062) 
14154

$$$$
ACET-pdb3wj2-C-ASP-37:MBZ-pdb3wj2-C-PHE-89
     RDKit          3D

 22 21  0  0  0  0  0  0  0  0999 V2000
   -4.7292    4.1872   -2.2573 C   0  0  0  0  0  0  0  0  0  0  0  0
   -4.3860    4.7187   -3.0217 H   0  0  0  0  0  0  0  0  0  0  0  0
   -5.6393    4.4874   -2.0007 H   0  0  0  0  0  0  0  0  0  0  0  0
   -4.8180    3.1565   -2.6004 H   0  0  0  0  0  0  0  0  0  0  0  0
   -3.7992    4.3341   -1.0837 C   0  0  0  0  0  0  0  0  0  0  0  0
   -3.5021    3.3232   -0.3825 O   0  0  0  0  0  1  0  0  0  0  0  0
   -3.3794    5.4784   -0.8101 O   0  0  0  0  0  0  0  0  0  0  0  0
   -0.0611    2.9099    0.0316 C   0  0  0  0  0  0  0  0  0  0  0  0
   -0.9781    3.1648   -0.2371 H   0  0  0  0  0  0  0  0  0  0  0  0
    0.6088    3.2408   -0.6167 H   0  0  0  0  0  0  0  0  0  0  0  0
    0.1468    3.3770    0.9942 H   0  0  0  0  0  0  0  0  0  0  0  0
    0.0146    1.3968    0.0441 C   0  0  0  0  0  0  0  0  0  0  0  0
   -1.1965    0.6799   -0.0039 C   0  0  0  0  0  0  0  0  0  0  0  0
   -2.0584    1.1626   -0.0423 H   0  0  0  0  0  0  0  0  0  0  0  0
   -1.2068   -0.7436   -0.0000 C   0  0  0  0  0  0  0  0  0  0  0  0
   -2.0868   -1.2103    0.0179 H   0  0  0  0  0  0  0  0  0  0  0  0
   -0.0268   -1.3813   -0.0190 C   0  0  0  0  0  0  0  0  0  0  0  0
    0.0170   -2.3970   -0.0482 H   0  0  0  0  0  0  0  0  0  0  0  0
    1.2068   -0.6796   -0.0000 C   0  0  0  0  0  0  0  0  0  0  0  0
    2.0728   -1.1838    0.0297 H   0  0  0  0  0  0  0  0  0  0  0  0
    1.2087    0.7279   -0.0213 C   0  0  0  0  0  0  0  0  0  0  0  0
    2.0690    1.2118   -0.0841 H   0  0  0  0  0  0  0  0  0  0  0  0
  1  5  1  0
  5  6  1  0
  5  7  2  0
  1  2  1  0
  1  3  1  0
  1  4  1  0
  8 12  1  0
 12 13  2  0
 13 15  1  0
 15 17  2  0
 17 19  1  0
 19 21  2  0
 21 12  1  0
  8  9  1  0
  8 10  1  0
  8 11  1  0
 13 14  1  0
 15 16  1  0
 17 18  1  0
 19 20  1  0
 21 22  1  0
M  CHG  1   6  -1
M  END
>  <PDB_ID>  (2063) 
pdb3wj2

>  <RESIDUE_NAME>  (2063) 
ASP   PHE

>  <FRAG_NAME>  (2063) 
ACET   MBZ

>  <FRAG_ATOM_NUM>  (2063) 
fragi: 7  fragj: 15

>  <atom.prop.CHAIN_ID>  (2063) 
A A A A A A A Z Z Z Z Z Z Z Z Z Z Z Z Z Z Z

>  <atom.prop.IS_HEAVY_ATOM>  (2063) 
1 0 0 0 1 1 1 1 0 0 0 1 1 0 1 0 1 0 1 0 1 0

>  <DIFUSE_FUNC_ATOM>  (2063) 
atom 6   atom 7   

>  <FINAL_SINGLE_POINT_ENERGY>  (2063) 
0

>  <NONCOV_INTER_ENERGY_QM>  (2063) 
0

>  <FF_Energy>  (2063) 
-2.5

>  <QM_Energy>  (2063) 
-8.16

>  <source>  (2063) 
ACET_MBZ_02

>  <Index>  (2063) 
14227

$$$$
ACET-pdb3wkw-A-GLU-436:MBZ-pdb3wkw-A-PHE-455
     RDKit          3D

 22 21  0  0  0  0  0  0  0  0999 V2000
   -4.4524    1.1299    2.0960 C   0  0  0  0  0  0  0  0  0  0  0  0
   -3.6837    1.0657    2.6996 H   0  0  0  0  0  0  0  0  0  0  0  0
   -4.4809    0.4053    1.4375 H   0  0  0  0  0  0  0  0  0  0  0  0
   -5.3652    1.0975    2.6909 H   0  0  0  0  0  0  0  0  0  0  0  0
   -4.3235    2.4356    1.3300 C   0  0  0  0  0  0  0  0  0  0  0  0
   -3.9673    2.4259    0.1434 O   0  0  0  0  0  1  0  0  0  0  0  0
   -4.6179    3.4775    1.9122 O   0  0  0  0  0  0  0  0  0  0  0  0
   -0.0306    2.8431   -0.0706 C   0  0  0  0  0  0  0  0  0  0  0  0
    0.7069    3.2119    0.4638 H   0  0  0  0  0  0  0  0  0  0  0  0
   -0.9085    3.1705    0.2261 H   0  0  0  0  0  0  0  0  0  0  0  0
    0.1119    3.1847   -1.0959 H   0  0  0  0  0  0  0  0  0  0  0  0
   -0.0062    1.3763    0.0187 C   0  0  0  0  0  0  0  0  0  0  0  0
   -1.1883    0.6722   -0.0025 C   0  0  0  0  0  0  0  0  0  0  0  0
   -2.0601    1.1728   -0.0212 H   0  0  0  0  0  0  0  0  0  0  0  0
   -1.1986   -0.6913    0.0000 C   0  0  0  0  0  0  0  0  0  0  0  0
   -2.0705   -1.1957   -0.0006 H   0  0  0  0  0  0  0  0  0  0  0  0
    0.0017   -1.3756    0.0053 C   0  0  0  0  0  0  0  0  0  0  0  0
    0.0008   -2.3805    0.0123 H   0  0  0  0  0  0  0  0  0  0  0  0
    1.1986   -0.6848   -0.0000 C   0  0  0  0  0  0  0  0  0  0  0  0
    2.0811   -1.1810    0.0130 H   0  0  0  0  0  0  0  0  0  0  0  0
    1.1928    0.7032   -0.0215 C   0  0  0  0  0  0  0  0  0  0  0  0
    2.0511    1.2013   -0.0668 H   0  0  0  0  0  0  0  0  0  0  0  0
  1  5  1  0
  5  6  1  0
  5  7  2  0
  1  2  1  0
  1  3  1  0
  1  4  1  0
  8 12  1  0
 12 13  2  0
 13 15  1  0
 15 17  2  0
 17 19  1  0
 19 21  2  0
 21 12  1  0
  8  9  1  0
  8 10  1  0
  8 11  1  0
 13 14  1  0
 15 16  1  0
 17 18  1  0
 19 20  1  0
 21 22  1  0
M  CHG  1   6  -1
M  END
>  <PDB_ID>  (2064) 
pdb3wkw

>  <RESIDUE_NAME>  (2064) 
GLU   PHE

>  <FRAG_NAME>  (2064) 
ACET   MBZ

>  <FRAG_ATOM_NUM>  (2064) 
fragi: 7  fragj: 15

>  <atom.prop.CHAIN_ID>  (2064) 
A A A A A A A Z Z Z Z Z Z Z Z Z Z Z Z Z Z Z

>  <atom.prop.IS_HEAVY_ATOM>  (2064) 
1 0 0 0 1 1 1 1 0 0 0 1 1 0 1 0 1 0 1 0 1 0

>  <DIFUSE_FUNC_ATOM>  (2064) 
atom 6   atom 7   

>  <FINAL_SINGLE_POINT_ENERGY>  (2064) 
0

>  <NONCOV_INTER_ENERGY_QM>  (2064) 
0

>  <FF_Energy>  (2064) 
-1.98

>  <QM_Energy>  (2064) 
-7.53

>  <source>  (2064) 
ACET_MBZ_02

>  <Index>  (2064) 
14268

$$$$
ACET-pdb4xrt-B-GLU-52:MBZ-pdb4xrt-B-PHE-74
     RDKit          3D

 22 21  0  0  0  0  0  0  0  0999 V2000
    5.7360   -0.8198   -1.3581 C   0  0  0  0  0  0  0  0  0  0  0  0
    6.5486   -1.1363   -0.9091 H   0  0  0  0  0  0  0  0  0  0  0  0
    5.9194   -0.1170   -2.0182 H   0  0  0  0  0  0  0  0  0  0  0  0
    5.2674   -1.6630   -1.8656 H   0  0  0  0  0  0  0  0  0  0  0  0
    4.8303   -0.2380   -0.3105 C   0  0  0  0  0  0  0  0  0  0  0  0
    4.6560   -0.8739    0.7529 O   0  0  0  0  0  1  0  0  0  0  0  0
    4.2696    0.8476   -0.5598 O   0  0  0  0  0  0  0  0  0  0  0  0
   -0.0003    2.9084   -0.0118 C   0  0  0  0  0  0  0  0  0  0  0  0
    0.9143    3.2134    0.1983 H   0  0  0  0  0  0  0  0  0  0  0  0
   -0.6506    3.2169    0.6644 H   0  0  0  0  0  0  0  0  0  0  0  0
   -0.2852    3.3418   -0.9705 H   0  0  0  0  0  0  0  0  0  0  0  0
   -0.0007    1.3983   -0.0020 C   0  0  0  0  0  0  0  0  0  0  0  0
   -1.1940    0.6937   -0.0003 C   0  0  0  0  0  0  0  0  0  0  0  0
   -2.0613    1.1848   -0.0009 H   0  0  0  0  0  0  0  0  0  0  0  0
   -1.1976   -0.6926   -0.0000 C   0  0  0  0  0  0  0  0  0  0  0  0
   -2.0743   -1.1884   -0.0015 H   0  0  0  0  0  0  0  0  0  0  0  0
    0.0035   -1.3905    0.0039 C   0  0  0  0  0  0  0  0  0  0  0  0
   -0.0062   -2.3910    0.0091 H   0  0  0  0  0  0  0  0  0  0  0  0
    1.1976   -0.6998    0.0000 C   0  0  0  0  0  0  0  0  0  0  0  0
    2.0809   -1.1945   -0.0003 H   0  0  0  0  0  0  0  0  0  0  0  0
    1.1913    0.6908   -0.0015 C   0  0  0  0  0  0  0  0  0  0  0  0
    2.0618    1.1859   -0.0034 H   0  0  0  0  0  0  0  0  0  0  0  0
  1  5  1  0
  5  6  1  0
  5  7  2  0
  1  2  1  0
  1  3  1  0
  1  4  1  0
  8 12  1  0
 12 13  2  0
 13 15  1  0
 15 17  2  0
 17 19  1  0
 19 21  2  0
 21 12  1  0
  8  9  1  0
  8 10  1  0
  8 11  1  0
 13 14  1  0
 15 16  1  0
 17 18  1  0
 19 20  1  0
 21 22  1  0
M  CHG  1   6  -1
M  END
>  <PDB_ID>  (2065) 
pdb4xrt

>  <RESIDUE_NAME>  (2065) 
GLU   PHE

>  <FRAG_NAME>  (2065) 
ACET   MBZ

>  <FRAG_ATOM_NUM>  (2065) 
fragi: 7  fragj: 15

>  <atom.prop.CHAIN_ID>  (2065) 
A A A A A A A Z Z Z Z Z Z Z Z Z Z Z Z Z Z Z

>  <atom.prop.IS_HEAVY_ATOM>  (2065) 
1 0 0 0 1 1 1 1 0 0 0 1 1 0 1 0 1 0 1 0 1 0

>  <DIFUSE_FUNC_ATOM>  (2065) 
atom 6   atom 7   

>  <FINAL_SINGLE_POINT_ENERGY>  (2065) 
0

>  <NONCOV_INTER_ENERGY_QM>  (2065) 
0

>  <FF_Energy>  (2065) 
-2.34

>  <QM_Energy>  (2065) 
-8.1

>  <source>  (2065) 
ACET_MBZ_02

>  <Index>  (2065) 
14324

$$$$
ACET-pdb4xnh-A-GLU-789:MBZ-pdb4xnh-A-PHE-795
     RDKit          3D

 22 21  0  0  0  0  0  0  0  0999 V2000
   -0.6638    1.4157   -3.0178 C   0  0  0  0  0  0  0  0  0  0  0  0
   -0.7482    0.6727   -2.3995 H   0  0  0  0  0  0  0  0  0  0  0  0
   -0.2855    2.1836   -2.5603 H   0  0  0  0  0  0  0  0  0  0  0  0
    0.0018    1.1259   -3.8308 H   0  0  0  0  0  0  0  0  0  0  0  0
   -2.0448    1.7883   -3.4839 C   0  0  0  0  0  0  0  0  0  0  0  0
   -2.6455    2.6960   -2.8799 O   0  0  0  0  0  1  0  0  0  0  0  0
   -2.5300    1.1702   -4.4479 O   0  0  0  0  0  0  0  0  0  0  0  0
    0.0066    2.8968    0.0092 C   0  0  0  0  0  0  0  0  0  0  0  0
   -0.7324    3.2103   -0.5366 H   0  0  0  0  0  0  0  0  0  0  0  0
    0.8478    3.2017   -0.3633 H   0  0  0  0  0  0  0  0  0  0  0  0
   -0.1019    3.2960    1.0176 H   0  0  0  0  0  0  0  0  0  0  0  0
    0.0003    1.4040   -0.0183 C   0  0  0  0  0  0  0  0  0  0  0  0
   -1.2012    0.6984    0.0049 C   0  0  0  0  0  0  0  0  0  0  0  0
   -2.0078    1.1617    0.0008 H   0  0  0  0  0  0  0  0  0  0  0  0
   -1.2066   -0.7022   -0.0000 C   0  0  0  0  0  0  0  0  0  0  0  0
   -2.0122   -1.1652    0.0053 H   0  0  0  0  0  0  0  0  0  0  0  0
    0.0017   -1.4003    0.0111 C   0  0  0  0  0  0  0  0  0  0  0  0
    0.0032   -2.3301    0.0054 H   0  0  0  0  0  0  0  0  0  0  0  0
    1.2066   -0.6972   -0.0000 C   0  0  0  0  0  0  0  0  0  0  0  0
    2.0141   -1.1589    0.0025 H   0  0  0  0  0  0  0  0  0  0  0  0
    1.1992    0.6973    0.0023 C   0  0  0  0  0  0  0  0  0  0  0  0
    2.0060    1.1607   -0.0018 H   0  0  0  0  0  0  0  0  0  0  0  0
  1  5  1  0
  5  6  1  0
  5  7  2  0
  1  2  1  0
  1  3  1  0
  1  4  1  0
  8 12  1  0
 12 13  2  0
 13 15  1  0
 15 17  2  0
 17 19  1  0
 19 21  2  0
 21 12  1  0
  8  9  1  0
  8 10  1  0
  8 11  1  0
 13 14  1  0
 15 16  1  0
 17 18  1  0
 19 20  1  0
 21 22  1  0
M  CHG  1   6  -1
M  END
>  <PDB_ID>  (2066) 
pdb4xnh

>  <RESIDUE_NAME>  (2066) 
GLU   PHE

>  <FRAG_NAME>  (2066) 
ACET   MBZ

>  <FRAG_ATOM_NUM>  (2066) 
fragi: 7  fragj: 15

>  <atom.prop.CHAIN_ID>  (2066) 
A A A A A A A Z Z Z Z Z Z Z Z Z Z Z Z Z Z Z

>  <atom.prop.IS_HEAVY_ATOM>  (2066) 
1 0 0 0 1 1 1 1 0 0 0 1 1 0 1 0 1 0 1 0 1 0

>  <DIFUSE_FUNC_ATOM>  (2066) 
atom 6   atom 7   

>  <FINAL_SINGLE_POINT_ENERGY>  (2066) 
0

>  <NONCOV_INTER_ENERGY_QM>  (2066) 
0

>  <FF_Energy>  (2066) 
3.11

>  <QM_Energy>  (2066) 
-2.17

>  <source>  (2066) 
ACET_MBZ_02

>  <Index>  (2066) 
14523

$$$$
ACET-pdb3wmg-A-GLU-664:MBZ-pdb3wmg-A-PHE-679
     RDKit          3D

 22 21  0  0  0  0  0  0  0  0999 V2000
   -3.5409    3.2693   -1.3888 C   0  0  0  0  0  0  0  0  0  0  0  0
   -2.6747    2.8569   -1.5966 H   0  0  0  0  0  0  0  0  0  0  0  0
   -3.6336    4.1644   -1.7802 H   0  0  0  0  0  0  0  0  0  0  0  0
   -4.3302    2.6335   -1.7898 H   0  0  0  0  0  0  0  0  0  0  0  0
   -3.6190    3.4256    0.1282 C   0  0  0  0  0  0  0  0  0  0  0  0
   -3.9364    2.4344    0.8263 O   0  0  0  0  0  1  0  0  0  0  0  0
   -3.3480    4.5399    0.6293 O   0  0  0  0  0  0  0  0  0  0  0  0
   -0.0053    2.9127   -0.0070 C   0  0  0  0  0  0  0  0  0  0  0  0
   -0.8600    3.2109   -0.4047 H   0  0  0  0  0  0  0  0  0  0  0  0
    0.7666    3.2153   -0.5465 H   0  0  0  0  0  0  0  0  0  0  0  0
    0.0797    3.3657    0.9807 H   0  0  0  0  0  0  0  0  0  0  0  0
   -0.0006    1.4034    0.0033 C   0  0  0  0  0  0  0  0  0  0  0  0
   -1.1994    0.6901   -0.0026 C   0  0  0  0  0  0  0  0  0  0  0  0
   -2.0656    1.1813   -0.0102 H   0  0  0  0  0  0  0  0  0  0  0  0
   -1.2024   -0.6984   -0.0000 C   0  0  0  0  0  0  0  0  0  0  0  0
   -2.0784   -1.1942    0.0046 H   0  0  0  0  0  0  0  0  0  0  0  0
   -0.0010   -1.3915   -0.0020 C   0  0  0  0  0  0  0  0  0  0  0  0
   -0.0036   -2.3914   -0.0052 H   0  0  0  0  0  0  0  0  0  0  0  0
    1.2024   -0.6967    0.0000 C   0  0  0  0  0  0  0  0  0  0  0  0
    2.0820   -1.1968    0.0023 H   0  0  0  0  0  0  0  0  0  0  0  0
    1.2011    0.6930    0.0013 C   0  0  0  0  0  0  0  0  0  0  0  0
    2.0666    1.1902   -0.0000 H   0  0  0  0  0  0  0  0  0  0  0  0
  1  5  1  0
  5  6  1  0
  5  7  2  0
  1  2  1  0
  1  3  1  0
  1  4  1  0
  8 12  1  0
 12 13  2  0
 13 15  1  0
 15 17  2  0
 17 19  1  0
 19 21  2  0
 21 12  1  0
  8  9  1  0
  8 10  1  0
  8 11  1  0
 13 14  1  0
 15 16  1  0
 17 18  1  0
 19 20  1  0
 21 22  1  0
M  CHG  1   6  -1
M  END
>  <PDB_ID>  (2067) 
pdb3wmg

>  <RESIDUE_NAME>  (2067) 
GLU   PHE

>  <FRAG_NAME>  (2067) 
ACET   MBZ

>  <FRAG_ATOM_NUM>  (2067) 
fragi: 7  fragj: 15

>  <atom.prop.CHAIN_ID>  (2067) 
A A A A A A A Z Z Z Z Z Z Z Z Z Z Z Z Z Z Z

>  <atom.prop.IS_HEAVY_ATOM>  (2067) 
1 0 0 0 1 1 1 1 0 0 0 1 1 0 1 0 1 0 1 0 1 0

>  <DIFUSE_FUNC_ATOM>  (2067) 
atom 6   atom 7   

>  <FINAL_SINGLE_POINT_ENERGY>  (2067) 
0

>  <NONCOV_INTER_ENERGY_QM>  (2067) 
0

>  <FF_Energy>  (2067) 
-1.9

>  <QM_Energy>  (2067) 
-7.08

>  <source>  (2067) 
ACET_MBZ_02

>  <Index>  (2067) 
14598

$$$$
ACET-pdb3wq4-A-ASP-98:MBZ-pdb3wq4-A-PHE-91
     RDKit          3D

 22 21  0  0  0  0  0  0  0  0999 V2000
   -5.0959   -0.1854    0.2200 C   0  0  0  0  0  0  0  0  0  0  0  0
   -4.3781   -0.3976    0.8672 H   0  0  0  0  0  0  0  0  0  0  0  0
   -4.8851   -0.5455   -0.6768 H   0  0  0  0  0  0  0  0  0  0  0  0
   -6.0159   -0.6553    0.5678 H   0  0  0  0  0  0  0  0  0  0  0  0
   -5.2215    1.3378    0.1154 C   0  0  0  0  0  0  0  0  0  0  0  0
   -6.3594    1.8521   -0.0280 O   0  0  0  0  0  1  0  0  0  0  0  0
   -4.1825    2.0254    0.1832 O   0  0  0  0  0  0  0  0  0  0  0  0
    0.0083    2.9181    0.0005 C   0  0  0  0  0  0  0  0  0  0  0  0
   -0.6174    3.2228   -0.7016 H   0  0  0  0  0  0  0  0  0  0  0  0
    0.9323    3.2153   -0.1863 H   0  0  0  0  0  0  0  0  0  0  0  0
   -0.3018    3.3750    0.9403 H   0  0  0  0  0  0  0  0  0  0  0  0
   -0.0016    1.4042    0.0088 C   0  0  0  0  0  0  0  0  0  0  0  0
   -1.1939    0.6933   -0.0072 C   0  0  0  0  0  0  0  0  0  0  0  0
   -2.0635    1.1781   -0.0247 H   0  0  0  0  0  0  0  0  0  0  0  0
   -1.1957   -0.7028    0.0000 C   0  0  0  0  0  0  0  0  0  0  0  0
   -2.0734   -1.1943    0.0046 H   0  0  0  0  0  0  0  0  0  0  0  0
    0.0041   -1.3940    0.0020 C   0  0  0  0  0  0  0  0  0  0  0  0
    0.0002   -2.3948    0.0050 H   0  0  0  0  0  0  0  0  0  0  0  0
    1.1957   -0.6992    0.0000 C   0  0  0  0  0  0  0  0  0  0  0  0
    2.0822   -1.1902    0.0030 H   0  0  0  0  0  0  0  0  0  0  0  0
    1.1914    0.6986   -0.0037 C   0  0  0  0  0  0  0  0  0  0  0  0
    2.0617    1.1898   -0.0162 H   0  0  0  0  0  0  0  0  0  0  0  0
  1  5  1  0
  5  6  1  0
  5  7  2  0
  1  2  1  0
  1  3  1  0
  1  4  1  0
  8 12  1  0
 12 13  2  0
 13 15  1  0
 15 17  2  0
 17 19  1  0
 19 21  2  0
 21 12  1  0
  8  9  1  0
  8 10  1  0
  8 11  1  0
 13 14  1  0
 15 16  1  0
 17 18  1  0
 19 20  1  0
 21 22  1  0
M  CHG  1   6  -1
M  END
>  <PDB_ID>  (2068) 
pdb3wq4

>  <RESIDUE_NAME>  (2068) 
ASP   PHE

>  <FRAG_NAME>  (2068) 
ACET   MBZ

>  <FRAG_ATOM_NUM>  (2068) 
fragi: 7  fragj: 15

>  <atom.prop.CHAIN_ID>  (2068) 
A A A A A A A Z Z Z Z Z Z Z Z Z Z Z Z Z Z Z

>  <atom.prop.IS_HEAVY_ATOM>  (2068) 
1 0 0 0 1 1 1 1 0 0 0 1 1 0 1 0 1 0 1 0 1 0

>  <DIFUSE_FUNC_ATOM>  (2068) 
atom 6   atom 7   

>  <FINAL_SINGLE_POINT_ENERGY>  (2068) 
0

>  <NONCOV_INTER_ENERGY_QM>  (2068) 
0

>  <FF_Energy>  (2068) 
-1.89

>  <QM_Energy>  (2068) 
-6.95

>  <source>  (2068) 
ACET_MBZ_02

>  <Index>  (2068) 
14606

$$$$
ACET-pdb3wrx-A-ASP-267:MBZ-pdb3wrx-A-PHE-289
     RDKit          3D

 22 21  0  0  0  0  0  0  0  0999 V2000
   -5.1884   -2.7541    0.9070 C   0  0  0  0  0  0  0  0  0  0  0  0
   -5.5347   -1.8929    1.2583 H   0  0  0  0  0  0  0  0  0  0  0  0
   -4.4573   -3.0994    1.4821 H   0  0  0  0  0  0  0  0  0  0  0  0
   -6.0025   -3.4787    0.9226 H   0  0  0  0  0  0  0  0  0  0  0  0
   -4.6411   -2.5233   -0.4927 C   0  0  0  0  0  0  0  0  0  0  0  0
   -4.1103   -1.4212   -0.7491 O   0  0  0  0  0  1  0  0  0  0  0  0
   -4.7303   -3.4444   -1.3325 O   0  0  0  0  0  0  0  0  0  0  0  0
    0.0020    2.8971   -0.0003 C   0  0  0  0  0  0  0  0  0  0  0  0
    0.9360    3.2055   -0.1064 H   0  0  0  0  0  0  0  0  0  0  0  0
   -0.3849    3.2072    0.8554 H   0  0  0  0  0  0  0  0  0  0  0  0
   -0.5854    3.3360   -0.8068 H   0  0  0  0  0  0  0  0  0  0  0  0
    0.0009    1.4009    0.0008 C   0  0  0  0  0  0  0  0  0  0  0  0
   -1.1966    0.6936    0.0003 C   0  0  0  0  0  0  0  0  0  0  0  0
   -2.0630    1.1821   -0.0009 H   0  0  0  0  0  0  0  0  0  0  0  0
   -1.1992   -0.6986    0.0000 C   0  0  0  0  0  0  0  0  0  0  0  0
   -2.0773   -1.1919    0.0013 H   0  0  0  0  0  0  0  0  0  0  0  0
   -0.0001   -1.3919   -0.0006 C   0  0  0  0  0  0  0  0  0  0  0  0
   -0.0031   -2.3920   -0.0018 H   0  0  0  0  0  0  0  0  0  0  0  0
    1.1992   -0.6967   -0.0000 C   0  0  0  0  0  0  0  0  0  0  0  0
    2.0806   -1.1951    0.0020 H   0  0  0  0  0  0  0  0  0  0  0  0
    1.1959    0.6927   -0.0005 C   0  0  0  0  0  0  0  0  0  0  0  0
    2.0649    1.1889   -0.0026 H   0  0  0  0  0  0  0  0  0  0  0  0
  1  5  1  0
  5  6  1  0
  5  7  2  0
  1  2  1  0
  1  3  1  0
  1  4  1  0
  8 12  1  0
 12 13  2  0
 13 15  1  0
 15 17  2  0
 17 19  1  0
 19 21  2  0
 21 12  1  0
  8  9  1  0
  8 10  1  0
  8 11  1  0
 13 14  1  0
 15 16  1  0
 17 18  1  0
 19 20  1  0
 21 22  1  0
M  CHG  1   6  -1
M  END
>  <PDB_ID>  (2069) 
pdb3wrx

>  <RESIDUE_NAME>  (2069) 
ASP   PHE

>  <FRAG_NAME>  (2069) 
ACET   MBZ

>  <FRAG_ATOM_NUM>  (2069) 
fragi: 7  fragj: 15

>  <atom.prop.CHAIN_ID>  (2069) 
A A A A A A A Z Z Z Z Z Z Z Z Z Z Z Z Z Z Z

>  <atom.prop.IS_HEAVY_ATOM>  (2069) 
1 0 0 0 1 1 1 1 0 0 0 1 1 0 1 0 1 0 1 0 1 0

>  <DIFUSE_FUNC_ATOM>  (2069) 
atom 6   atom 7   

>  <FINAL_SINGLE_POINT_ENERGY>  (2069) 
0

>  <NONCOV_INTER_ENERGY_QM>  (2069) 
0

>  <FF_Energy>  (2069) 
-0.3

>  <QM_Energy>  (2069) 
-5.61

>  <source>  (2069) 
ACET_MBZ_02

>  <Index>  (2069) 
14663

$$$$
ACET-pdb4xw3-B-GLU-136:MBZ-pdb4xw3-B-PHE-247
     RDKit          3D

 22 21  0  0  0  0  0  0  0  0999 V2000
   -3.3962    1.6255    3.0634 C   0  0  0  0  0  0  0  0  0  0  0  0
   -3.7622    1.9208    3.9342 H   0  0  0  0  0  0  0  0  0  0  0  0
   -2.6192    1.0255    3.1901 H   0  0  0  0  0  0  0  0  0  0  0  0
   -4.1733    1.0818    2.5262 H   0  0  0  0  0  0  0  0  0  0  0  0
   -2.8896    2.8680    2.3449 C   0  0  0  0  0  0  0  0  0  0  0  0
   -1.8867    3.4276    2.8302 O   0  0  0  0  0  1  0  0  0  0  0  0
   -3.4756    3.2979    1.3220 O   0  0  0  0  0  0  0  0  0  0  0  0
    0.0060    2.9010    0.0152 C   0  0  0  0  0  0  0  0  0  0  0  0
    0.9351    3.2104   -0.1406 H   0  0  0  0  0  0  0  0  0  0  0  0
   -0.3212    3.1965    0.9037 H   0  0  0  0  0  0  0  0  0  0  0  0
   -0.6281    3.3636   -0.7411 H   0  0  0  0  0  0  0  0  0  0  0  0
    0.0026    1.4045   -0.0084 C   0  0  0  0  0  0  0  0  0  0  0  0
   -1.1949    0.6950    0.0032 C   0  0  0  0  0  0  0  0  0  0  0  0
   -2.0618    1.1852    0.0126 H   0  0  0  0  0  0  0  0  0  0  0  0
   -1.2030   -0.6989   -0.0000 C   0  0  0  0  0  0  0  0  0  0  0  0
   -2.0831   -1.1870   -0.0002 H   0  0  0  0  0  0  0  0  0  0  0  0
   -0.0080   -1.3983   -0.0011 C   0  0  0  0  0  0  0  0  0  0  0  0
   -0.0099   -2.3954   -0.0031 H   0  0  0  0  0  0  0  0  0  0  0  0
    1.2030   -0.7008    0.0000 C   0  0  0  0  0  0  0  0  0  0  0  0
    2.0800   -1.1985   -0.0019 H   0  0  0  0  0  0  0  0  0  0  0  0
    1.2004    0.6985    0.0062 C   0  0  0  0  0  0  0  0  0  0  0  0
    2.0677    1.1904    0.0206 H   0  0  0  0  0  0  0  0  0  0  0  0
  1  5  1  0
  5  6  1  0
  5  7  2  0
  1  2  1  0
  1  3  1  0
  1  4  1  0
  8 12  1  0
 12 13  2  0
 13 15  1  0
 15 17  2  0
 17 19  1  0
 19 21  2  0
 21 12  1  0
  8  9  1  0
  8 10  1  0
  8 11  1  0
 13 14  1  0
 15 16  1  0
 17 18  1  0
 19 20  1  0
 21 22  1  0
M  CHG  1   6  -1
M  END
>  <PDB_ID>  (2070) 
pdb4xw3

>  <RESIDUE_NAME>  (2070) 
GLU   PHE

>  <FRAG_NAME>  (2070) 
ACET   MBZ

>  <FRAG_ATOM_NUM>  (2070) 
fragi: 7  fragj: 15

>  <atom.prop.CHAIN_ID>  (2070) 
A A A A A A A Z Z Z Z Z Z Z Z Z Z Z Z Z Z Z

>  <atom.prop.IS_HEAVY_ATOM>  (2070) 
1 0 0 0 1 1 1 1 0 0 0 1 1 0 1 0 1 0 1 0 1 0

>  <DIFUSE_FUNC_ATOM>  (2070) 
atom 6   atom 7   

>  <FINAL_SINGLE_POINT_ENERGY>  (2070) 
0

>  <NONCOV_INTER_ENERGY_QM>  (2070) 
0

>  <FF_Energy>  (2070) 
-2.03

>  <QM_Energy>  (2070) 
-8.27

>  <source>  (2070) 
ACET_MBZ_02

>  <Index>  (2070) 
14667

$$$$
ACET-pdb3wrx-B-ASP-267:MBZ-pdb3wrx-B-PHE-289
     RDKit          3D

 22 21  0  0  0  0  0  0  0  0999 V2000
   -5.2833   -2.5044    0.7421 C   0  0  0  0  0  0  0  0  0  0  0  0
   -5.6264   -1.6413    1.0933 H   0  0  0  0  0  0  0  0  0  0  0  0
   -4.5983   -2.8825    1.3523 H   0  0  0  0  0  0  0  0  0  0  0  0
   -6.1174   -3.2046    0.6975 H   0  0  0  0  0  0  0  0  0  0  0  0
   -4.6474   -2.2602   -0.6162 C   0  0  0  0  0  0  0  0  0  0  0  0
   -4.0608   -1.1710   -0.8047 O   0  0  0  0  0  1  0  0  0  0  0  0
   -4.7236   -3.1532   -1.4885 O   0  0  0  0  0  0  0  0  0  0  0  0
    0.0036    2.9034   -0.0208 C   0  0  0  0  0  0  0  0  0  0  0  0
    0.9430    3.2108   -0.0523 H   0  0  0  0  0  0  0  0  0  0  0  0
   -0.4535    3.2249    0.7944 H   0  0  0  0  0  0  0  0  0  0  0  0
   -0.5126    3.3341   -0.8787 H   0  0  0  0  0  0  0  0  0  0  0  0
    0.0006    1.4040   -0.0008 C   0  0  0  0  0  0  0  0  0  0  0  0
   -1.1984    0.6951    0.0004 C   0  0  0  0  0  0  0  0  0  0  0  0
   -2.0642    1.1868    0.0010 H   0  0  0  0  0  0  0  0  0  0  0  0
   -1.2060   -0.6977   -0.0000 C   0  0  0  0  0  0  0  0  0  0  0  0
   -2.0821   -1.1895    0.0016 H   0  0  0  0  0  0  0  0  0  0  0  0
   -0.0032   -1.3971   -0.0006 C   0  0  0  0  0  0  0  0  0  0  0  0
   -0.0063   -2.3939   -0.0019 H   0  0  0  0  0  0  0  0  0  0  0  0
    1.2060   -0.6996   -0.0000 C   0  0  0  0  0  0  0  0  0  0  0  0
    2.0831   -1.1981    0.0016 H   0  0  0  0  0  0  0  0  0  0  0  0
    1.2009    0.6953    0.0010 C   0  0  0  0  0  0  0  0  0  0  0  0
    2.0675    1.1909    0.0016 H   0  0  0  0  0  0  0  0  0  0  0  0
  1  5  1  0
  5  6  1  0
  5  7  2  0
  1  2  1  0
  1  3  1  0
  1  4  1  0
  8 12  1  0
 12 13  2  0
 13 15  1  0
 15 17  2  0
 17 19  1  0
 19 21  2  0
 21 12  1  0
  8  9  1  0
  8 10  1  0
  8 11  1  0
 13 14  1  0
 15 16  1  0
 17 18  1  0
 19 20  1  0
 21 22  1  0
M  CHG  1   6  -1
M  END
>  <PDB_ID>  (2071) 
pdb3wrx

>  <RESIDUE_NAME>  (2071) 
ASP   PHE

>  <FRAG_NAME>  (2071) 
ACET   MBZ

>  <FRAG_ATOM_NUM>  (2071) 
fragi: 7  fragj: 15

>  <atom.prop.CHAIN_ID>  (2071) 
A A A A A A A Z Z Z Z Z Z Z Z Z Z Z Z Z Z Z

>  <atom.prop.IS_HEAVY_ATOM>  (2071) 
1 0 0 0 1 1 1 1 0 0 0 1 1 0 1 0 1 0 1 0 1 0

>  <DIFUSE_FUNC_ATOM>  (2071) 
atom 6   atom 7   

>  <FINAL_SINGLE_POINT_ENERGY>  (2071) 
0

>  <NONCOV_INTER_ENERGY_QM>  (2071) 
0

>  <FF_Energy>  (2071) 
0.77

>  <QM_Energy>  (2071) 
-5.45

>  <source>  (2071) 
ACET_MBZ_02

>  <Index>  (2071) 
14670

$$$$
ACET-pdb4xz6-B-ASP-172:MBZ-pdb4xz6-B-PHE-220
     RDKit          3D

 22 21  0  0  0  0  0  0  0  0999 V2000
   -1.8312    4.9819   -3.9173 C   0  0  0  0  0  0  0  0  0  0  0  0
   -2.5837    5.6297   -3.9229 H   0  0  0  0  0  0  0  0  0  0  0  0
   -1.3719    4.9716   -4.7971 H   0  0  0  0  0  0  0  0  0  0  0  0
   -1.1130    5.3015   -3.1622 H   0  0  0  0  0  0  0  0  0  0  0  0
   -2.3920    3.5897   -3.6456 C   0  0  0  0  0  0  0  0  0  0  0  0
   -1.8400    2.8630   -2.7799 O   0  0  0  0  0  1  0  0  0  0  0  0
   -3.3905    3.2248   -4.3040 O   0  0  0  0  0  0  0  0  0  0  0  0
    0.0002    2.9045    0.0255 C   0  0  0  0  0  0  0  0  0  0  0  0
   -0.7533    3.2191   -0.5303 H   0  0  0  0  0  0  0  0  0  0  0  0
    0.8680    3.2137   -0.3315 H   0  0  0  0  0  0  0  0  0  0  0  0
   -0.1205    3.3264    1.0233 H   0  0  0  0  0  0  0  0  0  0  0  0
   -0.0017    1.3993    0.0022 C   0  0  0  0  0  0  0  0  0  0  0  0
   -1.1894    0.6978    0.0022 C   0  0  0  0  0  0  0  0  0  0  0  0
   -2.0594    1.1811    0.0027 H   0  0  0  0  0  0  0  0  0  0  0  0
   -1.1909   -0.6979    0.0000 C   0  0  0  0  0  0  0  0  0  0  0  0
   -2.0714   -1.1881    0.0055 H   0  0  0  0  0  0  0  0  0  0  0  0
    0.0033   -1.3902   -0.0084 C   0  0  0  0  0  0  0  0  0  0  0  0
   -0.0015   -2.3918   -0.0211 H   0  0  0  0  0  0  0  0  0  0  0  0
    1.1909   -0.6972   -0.0000 C   0  0  0  0  0  0  0  0  0  0  0  0
    2.0787   -1.1935    0.0048 H   0  0  0  0  0  0  0  0  0  0  0  0
    1.1878    0.6882    0.0040 C   0  0  0  0  0  0  0  0  0  0  0  0
    2.0600    1.1840    0.0076 H   0  0  0  0  0  0  0  0  0  0  0  0
  1  5  1  0
  5  6  1  0
  5  7  2  0
  1  2  1  0
  1  3  1  0
  1  4  1  0
  8 12  1  0
 12 13  2  0
 13 15  1  0
 15 17  2  0
 17 19  1  0
 19 21  2  0
 21 12  1  0
  8  9  1  0
  8 10  1  0
  8 11  1  0
 13 14  1  0
 15 16  1  0
 17 18  1  0
 19 20  1  0
 21 22  1  0
M  CHG  1   6  -1
M  END
>  <PDB_ID>  (2072) 
pdb4xz6

>  <RESIDUE_NAME>  (2072) 
ASP   PHE

>  <FRAG_NAME>  (2072) 
ACET   MBZ

>  <FRAG_ATOM_NUM>  (2072) 
fragi: 7  fragj: 15

>  <atom.prop.CHAIN_ID>  (2072) 
A A A A A A A Z Z Z Z Z Z Z Z Z Z Z Z Z Z Z

>  <atom.prop.IS_HEAVY_ATOM>  (2072) 
1 0 0 0 1 1 1 1 0 0 0 1 1 0 1 0 1 0 1 0 1 0

>  <DIFUSE_FUNC_ATOM>  (2072) 
atom 6   atom 7   

>  <FINAL_SINGLE_POINT_ENERGY>  (2072) 
0

>  <NONCOV_INTER_ENERGY_QM>  (2072) 
0

>  <FF_Energy>  (2072) 
0.52

>  <QM_Energy>  (2072) 
-4.58

>  <source>  (2072) 
ACET_MBZ_02

>  <Index>  (2072) 
14747

$$$$
ACET-pdb3wv4-A-ASP-416:MBZ-pdb3wv4-A-PHE-420
     RDKit          3D

 22 21  0  0  0  0  0  0  0  0999 V2000
    4.2826    5.2227    1.7037 C   0  0  0  0  0  0  0  0  0  0  0  0
    5.1399    4.8941    2.0853 H   0  0  0  0  0  0  0  0  0  0  0  0
    3.7917    5.7677    2.3733 H   0  0  0  0  0  0  0  0  0  0  0  0
    4.5076    5.8522    0.8428 H   0  0  0  0  0  0  0  0  0  0  0  0
    3.4095    3.9880    1.3624 C   0  0  0  0  0  0  0  0  0  0  0  0
    3.4748    3.4917    0.2214 O   0  0  0  0  0  1  0  0  0  0  0  0
    2.7062    3.5118    2.2760 O   0  0  0  0  0  0  0  0  0  0  0  0
    0.0201    2.8940   -0.0335 C   0  0  0  0  0  0  0  0  0  0  0  0
    0.8393    3.1862    0.4389 H   0  0  0  0  0  0  0  0  0  0  0  0
   -0.7938    3.1983    0.4422 H   0  0  0  0  0  0  0  0  0  0  0  0
    0.0214    3.3280   -1.0334 H   0  0  0  0  0  0  0  0  0  0  0  0
    0.0087    1.3875   -0.0308 C   0  0  0  0  0  0  0  0  0  0  0  0
   -1.1837    0.6974    0.0025 C   0  0  0  0  0  0  0  0  0  0  0  0
   -2.0484    1.1907    0.0271 H   0  0  0  0  0  0  0  0  0  0  0  0
   -1.1929   -0.6872    0.0000 C   0  0  0  0  0  0  0  0  0  0  0  0
   -2.0857   -1.1706   -0.0089 H   0  0  0  0  0  0  0  0  0  0  0  0
   -0.0209   -1.3921    0.0107 C   0  0  0  0  0  0  0  0  0  0  0  0
   -0.0200   -2.3871    0.0254 H   0  0  0  0  0  0  0  0  0  0  0  0
    1.1929   -0.6958   -0.0000 C   0  0  0  0  0  0  0  0  0  0  0  0
    2.0675   -1.2032   -0.0193 H   0  0  0  0  0  0  0  0  0  0  0  0
    1.1959    0.6901    0.0176 C   0  0  0  0  0  0  0  0  0  0  0  0
    2.0643    1.1815    0.0647 H   0  0  0  0  0  0  0  0  0  0  0  0
  1  5  1  0
  5  6  1  0
  5  7  2  0
  1  2  1  0
  1  3  1  0
  1  4  1  0
  8 12  1  0
 12 13  2  0
 13 15  1  0
 15 17  2  0
 17 19  1  0
 19 21  2  0
 21 12  1  0
  8  9  1  0
  8 10  1  0
  8 11  1  0
 13 14  1  0
 15 16  1  0
 17 18  1  0
 19 20  1  0
 21 22  1  0
M  CHG  1   6  -1
M  END
>  <PDB_ID>  (2073) 
pdb3wv4

>  <RESIDUE_NAME>  (2073) 
ASP   PHE

>  <FRAG_NAME>  (2073) 
ACET   MBZ

>  <FRAG_ATOM_NUM>  (2073) 
fragi: 7  fragj: 15

>  <atom.prop.CHAIN_ID>  (2073) 
A A A A A A A Z Z Z Z Z Z Z Z Z Z Z Z Z Z Z

>  <atom.prop.IS_HEAVY_ATOM>  (2073) 
1 0 0 0 1 1 1 1 0 0 0 1 1 0 1 0 1 0 1 0 1 0

>  <DIFUSE_FUNC_ATOM>  (2073) 
atom 6   atom 7   

>  <FINAL_SINGLE_POINT_ENERGY>  (2073) 
0

>  <NONCOV_INTER_ENERGY_QM>  (2073) 
0

>  <FF_Energy>  (2073) 
-2.18

>  <QM_Energy>  (2073) 
-8.87

>  <source>  (2073) 
ACET_MBZ_02

>  <Index>  (2073) 
14822

$$$$
ACET-pdb3wv7-A-GLU-67:MBZ-pdb3wv7-A-PHE-72
     RDKit          3D

 22 21  0  0  0  0  0  0  0  0999 V2000
   -2.9916    5.2004   -1.4868 C   0  0  0  0  0  0  0  0  0  0  0  0
   -2.1175    5.3998   -1.0814 H   0  0  0  0  0  0  0  0  0  0  0  0
   -3.7054    5.7760   -1.1286 H   0  0  0  0  0  0  0  0  0  0  0  0
   -2.9274    5.3331   -2.5668 H   0  0  0  0  0  0  0  0  0  0  0  0
   -3.3434    3.7675   -1.0954 C   0  0  0  0  0  0  0  0  0  0  0  0
   -3.4769    3.5661    0.1068 O   0  0  0  0  0  1  0  0  0  0  0  0
   -3.5145    2.8590   -1.9521 O   0  0  0  0  0  0  0  0  0  0  0  0
   -0.0265    2.8831    0.0608 C   0  0  0  0  0  0  0  0  0  0  0  0
   -0.7265    3.2079   -0.5472 H   0  0  0  0  0  0  0  0  0  0  0  0
    0.8630    3.2302   -0.1716 H   0  0  0  0  0  0  0  0  0  0  0  0
   -0.2679    3.2451    1.0601 H   0  0  0  0  0  0  0  0  0  0  0  0
    0.0073    1.4052    0.0072 C   0  0  0  0  0  0  0  0  0  0  0  0
   -1.1778    0.7042   -0.0026 C   0  0  0  0  0  0  0  0  0  0  0  0
   -2.0524    1.1823   -0.0131 H   0  0  0  0  0  0  0  0  0  0  0  0
   -1.1948   -0.7143    0.0000 C   0  0  0  0  0  0  0  0  0  0  0  0
   -2.0775   -1.1845    0.0026 H   0  0  0  0  0  0  0  0  0  0  0  0
   -0.0049   -1.4035    0.0002 C   0  0  0  0  0  0  0  0  0  0  0  0
    0.0035   -2.4014   -0.0000 H   0  0  0  0  0  0  0  0  0  0  0  0
    1.1948   -0.6967    0.0000 C   0  0  0  0  0  0  0  0  0  0  0  0
    2.0780   -1.1818    0.0042 H   0  0  0  0  0  0  0  0  0  0  0  0
    1.1753    0.7050   -0.0049 C   0  0  0  0  0  0  0  0  0  0  0  0
    2.0597    1.1924   -0.0190 H   0  0  0  0  0  0  0  0  0  0  0  0
  1  5  1  0
  5  6  1  0
  5  7  2  0
  1  2  1  0
  1  3  1  0
  1  4  1  0
  8 12  1  0
 12 13  2  0
 13 15  1  0
 15 17  2  0
 17 19  1  0
 19 21  2  0
 21 12  1  0
  8  9  1  0
  8 10  1  0
  8 11  1  0
 13 14  1  0
 15 16  1  0
 17 18  1  0
 19 20  1  0
 21 22  1  0
M  CHG  1   6  -1
M  END
>  <PDB_ID>  (2074) 
pdb3wv7

>  <RESIDUE_NAME>  (2074) 
GLU   PHE

>  <FRAG_NAME>  (2074) 
ACET   MBZ

>  <FRAG_ATOM_NUM>  (2074) 
fragi: 7  fragj: 15

>  <atom.prop.CHAIN_ID>  (2074) 
A A A A A A A Z Z Z Z Z Z Z Z Z Z Z Z Z Z Z

>  <atom.prop.IS_HEAVY_ATOM>  (2074) 
1 0 0 0 1 1 1 1 0 0 0 1 1 0 1 0 1 0 1 0 1 0

>  <DIFUSE_FUNC_ATOM>  (2074) 
atom 6   atom 7   

>  <FINAL_SINGLE_POINT_ENERGY>  (2074) 
0

>  <NONCOV_INTER_ENERGY_QM>  (2074) 
0

>  <FF_Energy>  (2074) 
-2.5

>  <QM_Energy>  (2074) 
-7.87

>  <source>  (2074) 
ACET_MBZ_02

>  <Index>  (2074) 
14835

$$$$
ACET-pdb3wv7-C-GLU-67:MBZ-pdb3wv7-C-PHE-72
     RDKit          3D

 22 21  0  0  0  0  0  0  0  0999 V2000
   -3.5319    5.2949   -1.3713 C   0  0  0  0  0  0  0  0  0  0  0  0
   -2.8345    5.6639   -0.7848 H   0  0  0  0  0  0  0  0  0  0  0  0
   -4.4095    5.7093   -1.2099 H   0  0  0  0  0  0  0  0  0  0  0  0
   -3.2457    5.4456   -2.4122 H   0  0  0  0  0  0  0  0  0  0  0  0
   -3.6736    3.8097   -1.0041 C   0  0  0  0  0  0  0  0  0  0  0  0
   -3.8090    2.8498   -1.8723 O   0  0  0  0  0  1  0  0  0  0  0  0
   -3.5822    3.5711    0.2170 O   0  0  0  0  0  0  0  0  0  0  0  0
   -0.0392    2.8886    0.0814 C   0  0  0  0  0  0  0  0  0  0  0  0
   -0.7315    3.2011   -0.5342 H   0  0  0  0  0  0  0  0  0  0  0  0
    0.8500    3.2374   -0.1293 H   0  0  0  0  0  0  0  0  0  0  0  0
   -0.3039    3.2152    1.0871 H   0  0  0  0  0  0  0  0  0  0  0  0
    0.0169    1.3871   -0.0021 C   0  0  0  0  0  0  0  0  0  0  0  0
   -1.2226    0.6912    0.0314 C   0  0  0  0  0  0  0  0  0  0  0  0
   -2.0595    1.2110    0.0754 H   0  0  0  0  0  0  0  0  0  0  0  0
   -1.2242   -0.6668   -0.0000 C   0  0  0  0  0  0  0  0  0  0  0  0
   -2.0929   -1.1817    0.0136 H   0  0  0  0  0  0  0  0  0  0  0  0
   -0.0141   -1.3621   -0.0505 C   0  0  0  0  0  0  0  0  0  0  0  0
   -0.0381   -2.3728   -0.1272 H   0  0  0  0  0  0  0  0  0  0  0  0
    1.2242   -0.7155    0.0000 C   0  0  0  0  0  0  0  0  0  0  0  0
    2.0739   -1.2318    0.0216 H   0  0  0  0  0  0  0  0  0  0  0  0
    1.2198    0.6662    0.0211 C   0  0  0  0  0  0  0  0  0  0  0  0
    2.0857    1.1693    0.0530 H   0  0  0  0  0  0  0  0  0  0  0  0
  1  5  1  0
  5  6  1  0
  5  7  2  0
  1  2  1  0
  1  3  1  0
  1  4  1  0
  8 12  1  0
 12 13  2  0
 13 15  1  0
 15 17  2  0
 17 19  1  0
 19 21  2  0
 21 12  1  0
  8  9  1  0
  8 10  1  0
  8 11  1  0
 13 14  1  0
 15 16  1  0
 17 18  1  0
 19 20  1  0
 21 22  1  0
M  CHG  1   6  -1
M  END
>  <PDB_ID>  (2075) 
pdb3wv7

>  <RESIDUE_NAME>  (2075) 
GLU   PHE

>  <FRAG_NAME>  (2075) 
ACET   MBZ

>  <FRAG_ATOM_NUM>  (2075) 
fragi: 7  fragj: 15

>  <atom.prop.CHAIN_ID>  (2075) 
A A A A A A A Z Z Z Z Z Z Z Z Z Z Z Z Z Z Z

>  <atom.prop.IS_HEAVY_ATOM>  (2075) 
1 0 0 0 1 1 1 1 0 0 0 1 1 0 1 0 1 0 1 0 1 0

>  <DIFUSE_FUNC_ATOM>  (2075) 
atom 6   atom 7   

>  <FINAL_SINGLE_POINT_ENERGY>  (2075) 
0

>  <NONCOV_INTER_ENERGY_QM>  (2075) 
0

>  <FF_Energy>  (2075) 
-2.63

>  <QM_Energy>  (2075) 
-7.83

>  <source>  (2075) 
ACET_MBZ_02

>  <Index>  (2075) 
14841

$$$$
ACET-pdb4y42-D-GLU-114:MBZ-pdb4y42-A-PHE-29
     RDKit          3D

 22 21  0  0  0  0  0  0  0  0999 V2000
    5.2617    3.8221   -1.0449 C   0  0  0  0  0  0  0  0  0  0  0  0
    5.5423    4.5630   -0.4773 H   0  0  0  0  0  0  0  0  0  0  0  0
    5.6306    3.8568   -1.9457 H   0  0  0  0  0  0  0  0  0  0  0  0
    5.6075    2.8994   -0.5790 H   0  0  0  0  0  0  0  0  0  0  0  0
    3.7484    3.8557   -1.1533 C   0  0  0  0  0  0  0  0  0  0  0  0
    3.1692    2.8387   -1.5999 O   0  0  0  0  0  1  0  0  0  0  0  0
    3.1426    4.8845   -0.7785 O   0  0  0  0  0  0  0  0  0  0  0  0
   -0.0025    2.9041   -0.0004 C   0  0  0  0  0  0  0  0  0  0  0  0
    0.9192    3.2066    0.1857 H   0  0  0  0  0  0  0  0  0  0  0  0
   -0.6316    3.2078    0.6975 H   0  0  0  0  0  0  0  0  0  0  0  0
   -0.3155    3.3426   -0.9480 H   0  0  0  0  0  0  0  0  0  0  0  0
   -0.0034    1.3959   -0.0008 C   0  0  0  0  0  0  0  0  0  0  0  0
   -1.1939    0.6909   -0.0028 C   0  0  0  0  0  0  0  0  0  0  0  0
   -2.0621    1.1795   -0.0074 H   0  0  0  0  0  0  0  0  0  0  0  0
   -1.1942   -0.6951   -0.0000 C   0  0  0  0  0  0  0  0  0  0  0  0
   -2.0705   -1.1924    0.0044 H   0  0  0  0  0  0  0  0  0  0  0  0
    0.0060   -1.3845   -0.0013 C   0  0  0  0  0  0  0  0  0  0  0  0
   -0.0014   -2.3883   -0.0039 H   0  0  0  0  0  0  0  0  0  0  0  0
    1.1942   -0.6963    0.0000 C   0  0  0  0  0  0  0  0  0  0  0  0
    2.0804   -1.1929   -0.0012 H   0  0  0  0  0  0  0  0  0  0  0  0
    1.1914    0.6891    0.0049 C   0  0  0  0  0  0  0  0  0  0  0  0
    2.0594    1.1866    0.0118 H   0  0  0  0  0  0  0  0  0  0  0  0
  1  5  1  0
  5  6  1  0
  5  7  2  0
  1  2  1  0
  1  3  1  0
  1  4  1  0
  8 12  1  0
 12 13  2  0
 13 15  1  0
 15 17  2  0
 17 19  1  0
 19 21  2  0
 21 12  1  0
  8  9  1  0
  8 10  1  0
  8 11  1  0
 13 14  1  0
 15 16  1  0
 17 18  1  0
 19 20  1  0
 21 22  1  0
M  CHG  1   6  -1
M  END
>  <PDB_ID>  (2076) 
pdb4y42

>  <RESIDUE_NAME>  (2076) 
GLU   PHE

>  <FRAG_NAME>  (2076) 
ACET   MBZ

>  <FRAG_ATOM_NUM>  (2076) 
fragi: 7  fragj: 15

>  <atom.prop.CHAIN_ID>  (2076) 
A A A A A A A Z Z Z Z Z Z Z Z Z Z Z Z Z Z Z

>  <atom.prop.IS_HEAVY_ATOM>  (2076) 
1 0 0 0 1 1 1 1 0 0 0 1 1 0 1 0 1 0 1 0 1 0

>  <DIFUSE_FUNC_ATOM>  (2076) 
atom 6   atom 7   

>  <FINAL_SINGLE_POINT_ENERGY>  (2076) 
0

>  <NONCOV_INTER_ENERGY_QM>  (2076) 
0

>  <FF_Energy>  (2076) 
-1.89

>  <QM_Energy>  (2076) 
-7.42

>  <source>  (2076) 
ACET_MBZ_02

>  <Index>  (2076) 
14907

$$$$
ACET-pdb4y42-H-GLU-114:MBZ-pdb4y42-C-PHE-29
     RDKit          3D

 22 21  0  0  0  0  0  0  0  0999 V2000
    5.2296    3.6834   -1.0324 C   0  0  0  0  0  0  0  0  0  0  0  0
    5.5103    4.4463   -0.4740 H   0  0  0  0  0  0  0  0  0  0  0  0
    5.6375    3.7173   -1.9301 H   0  0  0  0  0  0  0  0  0  0  0  0
    5.5490    2.7635   -0.5427 H   0  0  0  0  0  0  0  0  0  0  0  0
    3.7376    3.7683   -1.2058 C   0  0  0  0  0  0  0  0  0  0  0  0
    3.1351    2.7845   -1.6969 O   0  0  0  0  0  1  0  0  0  0  0  0
    3.1731    4.8258   -0.8574 O   0  0  0  0  0  0  0  0  0  0  0  0
   -0.0105    2.9167   -0.0077 C   0  0  0  0  0  0  0  0  0  0  0  0
    0.9020    3.2249    0.2038 H   0  0  0  0  0  0  0  0  0  0  0  0
   -0.6638    3.2161    0.6681 H   0  0  0  0  0  0  0  0  0  0  0  0
   -0.2979    3.3477   -0.9667 H   0  0  0  0  0  0  0  0  0  0  0  0
    0.0006    1.3995   -0.0003 C   0  0  0  0  0  0  0  0  0  0  0  0
   -1.1904    0.6882   -0.0022 C   0  0  0  0  0  0  0  0  0  0  0  0
   -2.0607    1.1784   -0.0068 H   0  0  0  0  0  0  0  0  0  0  0  0
   -1.1949   -0.6981    0.0000 C   0  0  0  0  0  0  0  0  0  0  0  0
   -2.0762   -1.1893    0.0017 H   0  0  0  0  0  0  0  0  0  0  0  0
   -0.0051   -1.3863    0.0010 C   0  0  0  0  0  0  0  0  0  0  0  0
   -0.0064   -2.3898    0.0021 H   0  0  0  0  0  0  0  0  0  0  0  0
    1.1949   -0.6981    0.0000 C   0  0  0  0  0  0  0  0  0  0  0  0
    2.0754   -1.1967   -0.0004 H   0  0  0  0  0  0  0  0  0  0  0  0
    1.1949    0.6949    0.0015 C   0  0  0  0  0  0  0  0  0  0  0  0
    2.0630    1.1871    0.0030 H   0  0  0  0  0  0  0  0  0  0  0  0
  1  5  1  0
  5  6  1  0
  5  7  2  0
  1  2  1  0
  1  3  1  0
  1  4  1  0
  8 12  1  0
 12 13  2  0
 13 15  1  0
 15 17  2  0
 17 19  1  0
 19 21  2  0
 21 12  1  0
  8  9  1  0
  8 10  1  0
  8 11  1  0
 13 14  1  0
 15 16  1  0
 17 18  1  0
 19 20  1  0
 21 22  1  0
M  CHG  1   6  -1
M  END
>  <PDB_ID>  (2077) 
pdb4y42

>  <RESIDUE_NAME>  (2077) 
GLU   PHE

>  <FRAG_NAME>  (2077) 
ACET   MBZ

>  <FRAG_ATOM_NUM>  (2077) 
fragi: 7  fragj: 15

>  <atom.prop.CHAIN_ID>  (2077) 
A A A A A A A Z Z Z Z Z Z Z Z Z Z Z Z Z Z Z

>  <atom.prop.IS_HEAVY_ATOM>  (2077) 
1 0 0 0 1 1 1 1 0 0 0 1 1 0 1 0 1 0 1 0 1 0

>  <DIFUSE_FUNC_ATOM>  (2077) 
atom 6   atom 7   

>  <FINAL_SINGLE_POINT_ENERGY>  (2077) 
0

>  <NONCOV_INTER_ENERGY_QM>  (2077) 
0

>  <FF_Energy>  (2077) 
-1.76

>  <QM_Energy>  (2077) 
-7.22

>  <source>  (2077) 
ACET_MBZ_02

>  <Index>  (2077) 
14909

$$$$
ACET-pdb4y42-B-GLU-114:MBZ-pdb4y42-F-PHE-29
     RDKit          3D

 22 21  0  0  0  0  0  0  0  0999 V2000
    5.0185    3.8331   -1.5981 C   0  0  0  0  0  0  0  0  0  0  0  0
    5.3025    4.6421   -1.1249 H   0  0  0  0  0  0  0  0  0  0  0  0
    5.2993    3.8220   -2.5365 H   0  0  0  0  0  0  0  0  0  0  0  0
    5.4632    2.9729   -1.0976 H   0  0  0  0  0  0  0  0  0  0  0  0
    3.4892    3.7988   -1.5758 C   0  0  0  0  0  0  0  0  0  0  0  0
    2.9048    2.7443   -1.9065 O   0  0  0  0  0  1  0  0  0  0  0  0
    2.8705    4.8255   -1.2232 O   0  0  0  0  0  0  0  0  0  0  0  0
   -0.0047    2.9162   -0.0189 C   0  0  0  0  0  0  0  0  0  0  0  0
    0.9262    3.2219    0.0732 H   0  0  0  0  0  0  0  0  0  0  0  0
   -0.5704    3.2232    0.7253 H   0  0  0  0  0  0  0  0  0  0  0  0
   -0.4072    3.3306   -0.9432 H   0  0  0  0  0  0  0  0  0  0  0  0
    0.0018    1.3995    0.0004 C   0  0  0  0  0  0  0  0  0  0  0  0
   -1.1928    0.6884    0.0003 C   0  0  0  0  0  0  0  0  0  0  0  0
   -2.0615    1.1782   -0.0012 H   0  0  0  0  0  0  0  0  0  0  0  0
   -1.1981   -0.7026   -0.0000 C   0  0  0  0  0  0  0  0  0  0  0  0
   -2.0762   -1.1937   -0.0022 H   0  0  0  0  0  0  0  0  0  0  0  0
   -0.0022   -1.3896    0.0043 C   0  0  0  0  0  0  0  0  0  0  0  0
    0.0008   -2.3907    0.0099 H   0  0  0  0  0  0  0  0  0  0  0  0
    1.1981   -0.6916    0.0000 C   0  0  0  0  0  0  0  0  0  0  0  0
    2.0803   -1.1903    0.0021 H   0  0  0  0  0  0  0  0  0  0  0  0
    1.1933    0.6959   -0.0049 C   0  0  0  0  0  0  0  0  0  0  0  0
    2.0629    1.1926   -0.0130 H   0  0  0  0  0  0  0  0  0  0  0  0
  1  5  1  0
  5  6  1  0
  5  7  2  0
  1  2  1  0
  1  3  1  0
  1  4  1  0
  8 12  1  0
 12 13  2  0
 13 15  1  0
 15 17  2  0
 17 19  1  0
 19 21  2  0
 21 12  1  0
  8  9  1  0
  8 10  1  0
  8 11  1  0
 13 14  1  0
 15 16  1  0
 17 18  1  0
 19 20  1  0
 21 22  1  0
M  CHG  1   6  -1
M  END
>  <PDB_ID>  (2078) 
pdb4y42

>  <RESIDUE_NAME>  (2078) 
GLU   PHE

>  <FRAG_NAME>  (2078) 
ACET   MBZ

>  <FRAG_ATOM_NUM>  (2078) 
fragi: 7  fragj: 15

>  <atom.prop.CHAIN_ID>  (2078) 
A A A A A A A Z Z Z Z Z Z Z Z Z Z Z Z Z Z Z

>  <atom.prop.IS_HEAVY_ATOM>  (2078) 
1 0 0 0 1 1 1 1 0 0 0 1 1 0 1 0 1 0 1 0 1 0

>  <DIFUSE_FUNC_ATOM>  (2078) 
atom 6   atom 7   

>  <FINAL_SINGLE_POINT_ENERGY>  (2078) 
0

>  <NONCOV_INTER_ENERGY_QM>  (2078) 
0

>  <FF_Energy>  (2078) 
1.34

>  <QM_Energy>  (2078) 
-7.26

>  <source>  (2078) 
ACET_MBZ_02

>  <Index>  (2078) 
14912

$$$$
ACET-pdb4y42-E-GLU-114:MBZ-pdb4y42-G-PHE-29
     RDKit          3D

 22 21  0  0  0  0  0  0  0  0999 V2000
    5.1152    3.8177   -1.5209 C   0  0  0  0  0  0  0  0  0  0  0  0
    5.4084    4.5557   -0.9488 H   0  0  0  0  0  0  0  0  0  0  0  0
    5.4484    3.8880   -2.4379 H   0  0  0  0  0  0  0  0  0  0  0  0
    5.4988    2.8910   -1.0942 H   0  0  0  0  0  0  0  0  0  0  0  0
    3.6046    3.8348   -1.5697 C   0  0  0  0  0  0  0  0  0  0  0  0
    3.0205    2.8323   -2.0401 O   0  0  0  0  0  1  0  0  0  0  0  0
    3.0053    4.8433   -1.1389 O   0  0  0  0  0  0  0  0  0  0  0  0
   -0.0021    2.9151    0.0053 C   0  0  0  0  0  0  0  0  0  0  0  0
    0.9342    3.2184    0.0808 H   0  0  0  0  0  0  0  0  0  0  0  0
   -0.5440    3.2136    0.7749 H   0  0  0  0  0  0  0  0  0  0  0  0
   -0.4273    3.3524   -0.8980 H   0  0  0  0  0  0  0  0  0  0  0  0
    0.0012    1.4034    0.0026 C   0  0  0  0  0  0  0  0  0  0  0  0
   -1.2028    0.6890   -0.0019 C   0  0  0  0  0  0  0  0  0  0  0  0
   -2.0662    1.1815   -0.0076 H   0  0  0  0  0  0  0  0  0  0  0  0
   -1.2082   -0.7037    0.0000 C   0  0  0  0  0  0  0  0  0  0  0  0
   -2.0798   -1.1986    0.0053 H   0  0  0  0  0  0  0  0  0  0  0  0
    0.0004   -1.3952   -0.0041 C   0  0  0  0  0  0  0  0  0  0  0  0
    0.0032   -2.3935   -0.0103 H   0  0  0  0  0  0  0  0  0  0  0  0
    1.2082   -0.6914   -0.0000 C   0  0  0  0  0  0  0  0  0  0  0  0
    2.0864   -1.1916    0.0018 H   0  0  0  0  0  0  0  0  0  0  0  0
    1.2012    0.6980    0.0034 C   0  0  0  0  0  0  0  0  0  0  0  0
    2.0667    1.1969    0.0056 H   0  0  0  0  0  0  0  0  0  0  0  0
  1  5  1  0
  5  6  1  0
  5  7  2  0
  1  2  1  0
  1  3  1  0
  1  4  1  0
  8 12  1  0
 12 13  2  0
 13 15  1  0
 15 17  2  0
 17 19  1  0
 19 21  2  0
 21 12  1  0
  8  9  1  0
  8 10  1  0
  8 11  1  0
 13 14  1  0
 15 16  1  0
 17 18  1  0
 19 20  1  0
 21 22  1  0
M  CHG  1   6  -1
M  END
>  <PDB_ID>  (2079) 
pdb4y42

>  <RESIDUE_NAME>  (2079) 
GLU   PHE

>  <FRAG_NAME>  (2079) 
ACET   MBZ

>  <FRAG_ATOM_NUM>  (2079) 
fragi: 7  fragj: 15

>  <atom.prop.CHAIN_ID>  (2079) 
A A A A A A A Z Z Z Z Z Z Z Z Z Z Z Z Z Z Z

>  <atom.prop.IS_HEAVY_ATOM>  (2079) 
1 0 0 0 1 1 1 1 0 0 0 1 1 0 1 0 1 0 1 0 1 0

>  <DIFUSE_FUNC_ATOM>  (2079) 
atom 6   atom 7   

>  <FINAL_SINGLE_POINT_ENERGY>  (2079) 
0

>  <NONCOV_INTER_ENERGY_QM>  (2079) 
0

>  <FF_Energy>  (2079) 
-1.63

>  <QM_Energy>  (2079) 
-6.73

>  <source>  (2079) 
ACET_MBZ_02

>  <Index>  (2079) 
14913

$$$$
ACET-pdb4y7m-D-ASP-942:MBZ-pdb4y7m-D-PHE-951
     RDKit          3D

 22 21  0  0  0  0  0  0  0  0999 V2000
    5.0998   -3.2214   -0.9293 C   0  0  0  0  0  0  0  0  0  0  0  0
    5.5794   -2.9264   -1.7583 H   0  0  0  0  0  0  0  0  0  0  0  0
    5.1653   -4.2172   -0.8479 H   0  0  0  0  0  0  0  0  0  0  0  0
    5.6019   -2.7762   -0.0703 H   0  0  0  0  0  0  0  0  0  0  0  0
    3.6345   -2.8458   -1.0639 C   0  0  0  0  0  0  0  0  0  0  0  0
    2.8339   -3.1303   -0.1480 O   0  0  0  0  0  1  0  0  0  0  0  0
    3.3042   -2.2481   -2.0977 O   0  0  0  0  0  0  0  0  0  0  0  0
    0.0027    2.9173    0.0222 C   0  0  0  0  0  0  0  0  0  0  0  0
    0.9475    3.2156    0.1527 H   0  0  0  0  0  0  0  0  0  0  0  0
   -0.5487    3.2018    0.8064 H   0  0  0  0  0  0  0  0  0  0  0  0
   -0.3863    3.4295   -0.8578 H   0  0  0  0  0  0  0  0  0  0  0  0
   -0.0003    1.4081   -0.0153 C   0  0  0  0  0  0  0  0  0  0  0  0
   -1.1919    0.6971    0.0134 C   0  0  0  0  0  0  0  0  0  0  0  0
   -2.0608    1.1785    0.0428 H   0  0  0  0  0  0  0  0  0  0  0  0
   -1.1906   -0.7026   -0.0000 C   0  0  0  0  0  0  0  0  0  0  0  0
   -2.0734   -1.1904   -0.0059 H   0  0  0  0  0  0  0  0  0  0  0  0
    0.0002   -1.3934   -0.0034 C   0  0  0  0  0  0  0  0  0  0  0  0
   -0.0037   -2.3960   -0.0087 H   0  0  0  0  0  0  0  0  0  0  0  0
    1.1906   -0.7032    0.0000 C   0  0  0  0  0  0  0  0  0  0  0  0
    2.0776   -1.1961   -0.0002 H   0  0  0  0  0  0  0  0  0  0  0  0
    1.1919    0.6940    0.0053 C   0  0  0  0  0  0  0  0  0  0  0  0
    2.0628    1.1832    0.0235 H   0  0  0  0  0  0  0  0  0  0  0  0
  1  5  1  0
  5  6  1  0
  5  7  2  0
  1  2  1  0
  1  3  1  0
  1  4  1  0
  8 12  1  0
 12 13  2  0
 13 15  1  0
 15 17  2  0
 17 19  1  0
 19 21  2  0
 21 12  1  0
  8  9  1  0
  8 10  1  0
  8 11  1  0
 13 14  1  0
 15 16  1  0
 17 18  1  0
 19 20  1  0
 21 22  1  0
M  CHG  1   6  -1
M  END
>  <PDB_ID>  (2080) 
pdb4y7m

>  <RESIDUE_NAME>  (2080) 
ASP   PHE

>  <FRAG_NAME>  (2080) 
ACET   MBZ

>  <FRAG_ATOM_NUM>  (2080) 
fragi: 7  fragj: 15

>  <atom.prop.CHAIN_ID>  (2080) 
A A A A A A A Z Z Z Z Z Z Z Z Z Z Z Z Z Z Z

>  <atom.prop.IS_HEAVY_ATOM>  (2080) 
1 0 0 0 1 1 1 1 0 0 0 1 1 0 1 0 1 0 1 0 1 0

>  <DIFUSE_FUNC_ATOM>  (2080) 
atom 6   atom 7   

>  <FINAL_SINGLE_POINT_ENERGY>  (2080) 
0

>  <NONCOV_INTER_ENERGY_QM>  (2080) 
0

>  <FF_Energy>  (2080) 
3.6

>  <QM_Energy>  (2080) 
-5.6

>  <source>  (2080) 
ACET_MBZ_02

>  <Index>  (2080) 
14965

$$$$
ACET-pdb3wwy-A-GLU-266:MBZ-pdb3wwy-A-PHE-270
     RDKit          3D

 22 21  0  0  0  0  0  0  0  0999 V2000
    1.5260    0.1302   -3.1265 C   0  0  0  0  0  0  0  0  0  0  0  0
    1.2918    0.4337   -2.2168 H   0  0  0  0  0  0  0  0  0  0  0  0
    1.1369   -0.7557   -3.3242 H   0  0  0  0  0  0  0  0  0  0  0  0
    1.1391    0.8521   -3.8456 H   0  0  0  0  0  0  0  0  0  0  0  0
    3.0096   -0.0004   -3.1957 C   0  0  0  0  0  0  0  0  0  0  0  0
    3.6881    0.7436   -2.5072 O   0  0  0  0  0  1  0  0  0  0  0  0
    3.5065   -0.8561   -3.9212 O   0  0  0  0  0  0  0  0  0  0  0  0
    0.0252    2.8747    0.0086 C   0  0  0  0  0  0  0  0  0  0  0  0
    0.1822    3.1838   -0.9217 H   0  0  0  0  0  0  0  0  0  0  0  0
    0.7645    3.1660    0.6036 H   0  0  0  0  0  0  0  0  0  0  0  0
   -0.8951    3.3375    0.3652 H   0  0  0  0  0  0  0  0  0  0  0  0
    0.0018    1.3782   -0.0002 C   0  0  0  0  0  0  0  0  0  0  0  0
   -1.1750    0.6813    0.0037 C   0  0  0  0  0  0  0  0  0  0  0  0
   -2.0474    1.1737    0.0081 H   0  0  0  0  0  0  0  0  0  0  0  0
   -1.1761   -0.6863    0.0000 C   0  0  0  0  0  0  0  0  0  0  0  0
   -2.0592   -1.1863    0.0095 H   0  0  0  0  0  0  0  0  0  0  0  0
    0.0068   -1.3713   -0.0150 C   0  0  0  0  0  0  0  0  0  0  0  0
    0.0035   -2.3755   -0.0373 H   0  0  0  0  0  0  0  0  0  0  0  0
    1.1761   -0.6801   -0.0000 C   0  0  0  0  0  0  0  0  0  0  0  0
    2.0704   -1.1788    0.0042 H   0  0  0  0  0  0  0  0  0  0  0  0
    1.1664    0.6782    0.0115 C   0  0  0  0  0  0  0  0  0  0  0  0
    2.0476    1.1810    0.0287 H   0  0  0  0  0  0  0  0  0  0  0  0
  1  5  1  0
  5  6  1  0
  5  7  2  0
  1  2  1  0
  1  3  1  0
  1  4  1  0
  8 12  1  0
 12 13  2  0
 13 15  1  0
 15 17  2  0
 17 19  1  0
 19 21  2  0
 21 12  1  0
  8  9  1  0
  8 10  1  0
  8 11  1  0
 13 14  1  0
 15 16  1  0
 17 18  1  0
 19 20  1  0
 21 22  1  0
M  CHG  1   6  -1
M  END
>  <PDB_ID>  (2081) 
pdb3wwy

>  <RESIDUE_NAME>  (2081) 
GLU   PHE

>  <FRAG_NAME>  (2081) 
ACET   MBZ

>  <FRAG_ATOM_NUM>  (2081) 
fragi: 7  fragj: 15

>  <atom.prop.CHAIN_ID>  (2081) 
A A A A A A A Z Z Z Z Z Z Z Z Z Z Z Z Z Z Z

>  <atom.prop.IS_HEAVY_ATOM>  (2081) 
1 0 0 0 1 1 1 1 0 0 0 1 1 0 1 0 1 0 1 0 1 0

>  <DIFUSE_FUNC_ATOM>  (2081) 
atom 6   atom 7   

>  <FINAL_SINGLE_POINT_ENERGY>  (2081) 
0

>  <NONCOV_INTER_ENERGY_QM>  (2081) 
0

>  <FF_Energy>  (2081) 
4.1

>  <QM_Energy>  (2081) 
-1.23

>  <source>  (2081) 
ACET_MBZ_02

>  <Index>  (2081) 
14984

$$$$
ACET-pdb3wxk-D-GLU-235:MBZ-pdb3wxk-D-PHE-51
     RDKit          3D

 22 21  0  0  0  0  0  0  0  0999 V2000
    2.8007   -2.7243    2.0845 C   0  0  0  0  0  0  0  0  0  0  0  0
    3.1259   -3.5265    1.6098 H   0  0  0  0  0  0  0  0  0  0  0  0
    2.4378   -2.0539    1.4573 H   0  0  0  0  0  0  0  0  0  0  0  0
    1.9948   -3.0330    2.7504 H   0  0  0  0  0  0  0  0  0  0  0  0
    4.0017   -2.0901    2.7897 C   0  0  0  0  0  0  0  0  0  0  0  0
    4.1739   -2.2342    4.0277 O   0  0  0  0  0  1  0  0  0  0  0  0
    4.7946   -1.4405    2.0751 O   0  0  0  0  0  0  0  0  0  0  0  0
   -0.0041    2.8970    0.0087 C   0  0  0  0  0  0  0  0  0  0  0  0
   -0.3676    3.2126   -0.8534 H   0  0  0  0  0  0  0  0  0  0  0  0
    0.9231    3.2086    0.1461 H   0  0  0  0  0  0  0  0  0  0  0  0
   -0.6168    3.3257    0.8017 H   0  0  0  0  0  0  0  0  0  0  0  0
   -0.0027    1.4059    0.0022 C   0  0  0  0  0  0  0  0  0  0  0  0
   -1.2030    0.6986    0.0011 C   0  0  0  0  0  0  0  0  0  0  0  0
   -2.0677    1.1855   -0.0002 H   0  0  0  0  0  0  0  0  0  0  0  0
   -1.2069   -0.7004   -0.0000 C   0  0  0  0  0  0  0  0  0  0  0  0
   -2.0813   -1.1929    0.0019 H   0  0  0  0  0  0  0  0  0  0  0  0
    0.0001   -1.3990   -0.0019 C   0  0  0  0  0  0  0  0  0  0  0  0
   -0.0020   -2.3951   -0.0058 H   0  0  0  0  0  0  0  0  0  0  0  0
    1.2069   -0.6974   -0.0000 C   0  0  0  0  0  0  0  0  0  0  0  0
    2.0860   -1.1999    0.0039 H   0  0  0  0  0  0  0  0  0  0  0  0
    1.2056    0.6924   -0.0014 C   0  0  0  0  0  0  0  0  0  0  0  0
    2.0679    1.1916   -0.0057 H   0  0  0  0  0  0  0  0  0  0  0  0
  1  5  1  0
  5  6  1  0
  5  7  2  0
  1  2  1  0
  1  3  1  0
  1  4  1  0
  8 12  1  0
 12 13  2  0
 13 15  1  0
 15 17  2  0
 17 19  1  0
 19 21  2  0
 21 12  1  0
  8  9  1  0
  8 10  1  0
  8 11  1  0
 13 14  1  0
 15 16  1  0
 17 18  1  0
 19 20  1  0
 21 22  1  0
M  CHG  1   6  -1
M  END
>  <PDB_ID>  (2082) 
pdb3wxk

>  <RESIDUE_NAME>  (2082) 
GLU   PHE

>  <FRAG_NAME>  (2082) 
ACET   MBZ

>  <FRAG_ATOM_NUM>  (2082) 
fragi: 7  fragj: 15

>  <atom.prop.CHAIN_ID>  (2082) 
A A A A A A A Z Z Z Z Z Z Z Z Z Z Z Z Z Z Z

>  <atom.prop.IS_HEAVY_ATOM>  (2082) 
1 0 0 0 1 1 1 1 0 0 0 1 1 0 1 0 1 0 1 0 1 0

>  <DIFUSE_FUNC_ATOM>  (2082) 
atom 6   atom 7   

>  <FINAL_SINGLE_POINT_ENERGY>  (2082) 
0

>  <NONCOV_INTER_ENERGY_QM>  (2082) 
0

>  <FF_Energy>  (2082) 
6.58

>  <QM_Energy>  (2082) 
0.46

>  <source>  (2082) 
ACET_MBZ_02

>  <Index>  (2082) 
15038

$$$$
ACET-pdb3wy7-A-ASP-179:MBZ-pdb3wy7-A-PHE-174
     RDKit          3D

 22 21  0  0  0  0  0  0  0  0999 V2000
   -4.9212    2.6674   -2.4751 C   0  0  0  0  0  0  0  0  0  0  0  0
   -5.4878    1.8583   -2.5779 H   0  0  0  0  0  0  0  0  0  0  0  0
   -5.1733    3.3567   -3.1430 H   0  0  0  0  0  0  0  0  0  0  0  0
   -5.1000    3.0793   -1.4819 H   0  0  0  0  0  0  0  0  0  0  0  0
   -3.4690    2.2780   -2.6988 C   0  0  0  0  0  0  0  0  0  0  0  0
   -2.5750    2.9304   -2.1208 O   0  0  0  0  0  1  0  0  0  0  0  0
   -3.2217    1.3200   -3.4589 O   0  0  0  0  0  0  0  0  0  0  0  0
    0.0016    2.8974    0.0094 C   0  0  0  0  0  0  0  0  0  0  0  0
   -0.8047    3.2082   -0.4667 H   0  0  0  0  0  0  0  0  0  0  0  0
    0.8278    3.2067   -0.4326 H   0  0  0  0  0  0  0  0  0  0  0  0
   -0.0194    3.3208    1.0136 H   0  0  0  0  0  0  0  0  0  0  0  0
    0.0012    1.3950   -0.0038 C   0  0  0  0  0  0  0  0  0  0  0  0
   -1.1909    0.6888    0.0023 C   0  0  0  0  0  0  0  0  0  0  0  0
   -2.0587    1.1815    0.0068 H   0  0  0  0  0  0  0  0  0  0  0  0
   -1.1950   -0.6929    0.0000 C   0  0  0  0  0  0  0  0  0  0  0  0
   -2.0747   -1.1879    0.0001 H   0  0  0  0  0  0  0  0  0  0  0  0
   -0.0018   -1.3855   -0.0002 C   0  0  0  0  0  0  0  0  0  0  0  0
   -0.0050   -2.3866   -0.0009 H   0  0  0  0  0  0  0  0  0  0  0  0
    1.1950   -0.6933   -0.0000 C   0  0  0  0  0  0  0  0  0  0  0  0
    2.0773   -1.1945    0.0007 H   0  0  0  0  0  0  0  0  0  0  0  0
    1.1916    0.6879    0.0017 C   0  0  0  0  0  0  0  0  0  0  0  0
    2.0618    1.1865    0.0062 H   0  0  0  0  0  0  0  0  0  0  0  0
  1  5  1  0
  5  6  1  0
  5  7  2  0
  1  2  1  0
  1  3  1  0
  1  4  1  0
  8 12  1  0
 12 13  2  0
 13 15  1  0
 15 17  2  0
 17 19  1  0
 19 21  2  0
 21 12  1  0
  8  9  1  0
  8 10  1  0
  8 11  1  0
 13 14  1  0
 15 16  1  0
 17 18  1  0
 19 20  1  0
 21 22  1  0
M  CHG  1   6  -1
M  END
>  <PDB_ID>  (2083) 
pdb3wy7

>  <RESIDUE_NAME>  (2083) 
ASP   PHE

>  <FRAG_NAME>  (2083) 
ACET   MBZ

>  <FRAG_ATOM_NUM>  (2083) 
fragi: 7  fragj: 15

>  <atom.prop.CHAIN_ID>  (2083) 
A A A A A A A Z Z Z Z Z Z Z Z Z Z Z Z Z Z Z

>  <atom.prop.IS_HEAVY_ATOM>  (2083) 
1 0 0 0 1 1 1 1 0 0 0 1 1 0 1 0 1 0 1 0 1 0

>  <DIFUSE_FUNC_ATOM>  (2083) 
atom 6   atom 7   

>  <FINAL_SINGLE_POINT_ENERGY>  (2083) 
0

>  <NONCOV_INTER_ENERGY_QM>  (2083) 
0

>  <FF_Energy>  (2083) 
-0.03

>  <QM_Energy>  (2083) 
-5.83

>  <source>  (2083) 
ACET_MBZ_02

>  <Index>  (2083) 
15097

$$$$
ACET-pdb3wy7-D-ASP-179:MBZ-pdb3wy7-D-PHE-174
     RDKit          3D

 22 21  0  0  0  0  0  0  0  0999 V2000
    4.7995    2.6497    2.4968 C   0  0  0  0  0  0  0  0  0  0  0  0
    5.3918    1.8556    2.5671 H   0  0  0  0  0  0  0  0  0  0  0  0
    5.0169    3.3100    3.2053 H   0  0  0  0  0  0  0  0  0  0  0  0
    4.9824    3.1203    1.5308 H   0  0  0  0  0  0  0  0  0  0  0  0
    3.3629    2.2051    2.6656 C   0  0  0  0  0  0  0  0  0  0  0  0
    2.4628    2.8644    2.1039 O   0  0  0  0  0  1  0  0  0  0  0  0
    3.1354    1.1907    3.3569 O   0  0  0  0  0  0  0  0  0  0  0  0
    0.0003    2.8980   -0.0109 C   0  0  0  0  0  0  0  0  0  0  0  0
    0.8075    3.2079    0.4646 H   0  0  0  0  0  0  0  0  0  0  0  0
   -0.8249    3.2072    0.4337 H   0  0  0  0  0  0  0  0  0  0  0  0
    0.0194    3.3203   -1.0155 H   0  0  0  0  0  0  0  0  0  0  0  0
   -0.0001    1.3946    0.0044 C   0  0  0  0  0  0  0  0  0  0  0  0
   -1.1920    0.6896   -0.0026 C   0  0  0  0  0  0  0  0  0  0  0  0
   -2.0599    1.1811   -0.0109 H   0  0  0  0  0  0  0  0  0  0  0  0
   -1.1954   -0.6924   -0.0000 C   0  0  0  0  0  0  0  0  0  0  0  0
   -2.0734   -1.1890    0.0032 H   0  0  0  0  0  0  0  0  0  0  0  0
    0.0010   -1.3857    0.0006 C   0  0  0  0  0  0  0  0  0  0  0  0
   -0.0043   -2.3877    0.0010 H   0  0  0  0  0  0  0  0  0  0  0  0
    1.1954   -0.6941    0.0000 C   0  0  0  0  0  0  0  0  0  0  0  0
    2.0787   -1.1938    0.0034 H   0  0  0  0  0  0  0  0  0  0  0  0
    1.1911    0.6881   -0.0024 C   0  0  0  0  0  0  0  0  0  0  0  0
    2.0613    1.1866   -0.0101 H   0  0  0  0  0  0  0  0  0  0  0  0
  1  5  1  0
  5  6  1  0
  5  7  2  0
  1  2  1  0
  1  3  1  0
  1  4  1  0
  8 12  1  0
 12 13  2  0
 13 15  1  0
 15 17  2  0
 17 19  1  0
 19 21  2  0
 21 12  1  0
  8  9  1  0
  8 10  1  0
  8 11  1  0
 13 14  1  0
 15 16  1  0
 17 18  1  0
 19 20  1  0
 21 22  1  0
M  CHG  1   6  -1
M  END
>  <PDB_ID>  (2084) 
pdb3wy7

>  <RESIDUE_NAME>  (2084) 
ASP   PHE

>  <FRAG_NAME>  (2084) 
ACET   MBZ

>  <FRAG_ATOM_NUM>  (2084) 
fragi: 7  fragj: 15

>  <atom.prop.CHAIN_ID>  (2084) 
A A A A A A A Z Z Z Z Z Z Z Z Z Z Z Z Z Z Z

>  <atom.prop.IS_HEAVY_ATOM>  (2084) 
1 0 0 0 1 1 1 1 0 0 0 1 1 0 1 0 1 0 1 0 1 0

>  <DIFUSE_FUNC_ATOM>  (2084) 
atom 6   atom 7   

>  <FINAL_SINGLE_POINT_ENERGY>  (2084) 
0

>  <NONCOV_INTER_ENERGY_QM>  (2084) 
0

>  <FF_Energy>  (2084) 
37.92

>  <QM_Energy>  (2084) 
-5.89

>  <source>  (2084) 
ACET_MBZ_02

>  <Index>  (2084) 
15109

$$$$
ACET-pdb3wyw-A-ASP-158:MBZ-pdb3wyw-A-PHE-148
     RDKit          3D

 22 21  0  0  0  0  0  0  0  0999 V2000
   -4.6942    2.5583    2.0635 C   0  0  0  0  0  0  0  0  0  0  0  0
   -4.5355    2.1625    2.9646 H   0  0  0  0  0  0  0  0  0  0  0  0
   -5.0193    1.8577    1.4358 H   0  0  0  0  0  0  0  0  0  0  0  0
   -5.4720    3.3160    2.1584 H   0  0  0  0  0  0  0  0  0  0  0  0
   -3.4082    3.1210    1.5444 C   0  0  0  0  0  0  0  0  0  0  0  0
   -3.3563    3.5112    0.3219 O   0  0  0  0  0  1  0  0  0  0  0  0
   -2.4734    3.2933    2.3646 O   0  0  0  0  0  0  0  0  0  0  0  0
   -0.0318    2.9007    0.0049 C   0  0  0  0  0  0  0  0  0  0  0  0
    0.8064    3.2055    0.4244 H   0  0  0  0  0  0  0  0  0  0  0  0
   -0.8240    3.1968    0.5108 H   0  0  0  0  0  0  0  0  0  0  0  0
   -0.0864    3.3387   -0.9918 H   0  0  0  0  0  0  0  0  0  0  0  0
   -0.0245    1.3898   -0.0033 C   0  0  0  0  0  0  0  0  0  0  0  0
   -1.2018    0.6461   -0.0205 C   0  0  0  0  0  0  0  0  0  0  0  0
   -2.0830    1.1366   -0.0505 H   0  0  0  0  0  0  0  0  0  0  0  0
   -1.2059   -0.7286   -0.0000 C   0  0  0  0  0  0  0  0  0  0  0  0
   -2.0511   -1.2435   -0.0039 H   0  0  0  0  0  0  0  0  0  0  0  0
    0.0333   -1.3752    0.0289 C   0  0  0  0  0  0  0  0  0  0  0  0
    0.0581   -2.3783    0.0709 H   0  0  0  0  0  0  0  0  0  0  0  0
    1.2059   -0.6478    0.0000 C   0  0  0  0  0  0  0  0  0  0  0  0
    2.1050   -1.1443   -0.0169 H   0  0  0  0  0  0  0  0  0  0  0  0
    1.1929    0.7157   -0.0050 C   0  0  0  0  0  0  0  0  0  0  0  0
    2.0416    1.2366   -0.0110 H   0  0  0  0  0  0  0  0  0  0  0  0
  1  5  1  0
  5  6  1  0
  5  7  2  0
  1  2  1  0
  1  3  1  0
  1  4  1  0
  8 12  1  0
 12 13  2  0
 13 15  1  0
 15 17  2  0
 17 19  1  0
 19 21  2  0
 21 12  1  0
  8  9  1  0
  8 10  1  0
  8 11  1  0
 13 14  1  0
 15 16  1  0
 17 18  1  0
 19 20  1  0
 21 22  1  0
M  CHG  1   6  -1
M  END
>  <PDB_ID>  (2085) 
pdb3wyw

>  <RESIDUE_NAME>  (2085) 
ASP   PHE

>  <FRAG_NAME>  (2085) 
ACET   MBZ

>  <FRAG_ATOM_NUM>  (2085) 
fragi: 7  fragj: 15

>  <atom.prop.CHAIN_ID>  (2085) 
A A A A A A A Z Z Z Z Z Z Z Z Z Z Z Z Z Z Z

>  <atom.prop.IS_HEAVY_ATOM>  (2085) 
1 0 0 0 1 1 1 1 0 0 0 1 1 0 1 0 1 0 1 0 1 0

>  <DIFUSE_FUNC_ATOM>  (2085) 
atom 6   atom 7   

>  <FINAL_SINGLE_POINT_ENERGY>  (2085) 
0

>  <NONCOV_INTER_ENERGY_QM>  (2085) 
0

>  <FF_Energy>  (2085) 
-1.44

>  <QM_Energy>  (2085) 
-8.5

>  <source>  (2085) 
ACET_MBZ_02

>  <Index>  (2085) 
15126

$$$$
ACET-pdb3wyf-F-GLU-140:MBZ-pdb3wyf-E-PHE-152
     RDKit          3D

 22 21  0  0  0  0  0  0  0  0999 V2000
    0.8539    0.3849    4.5525 C   0  0  0  0  0  0  0  0  0  0  0  0
    0.0250    0.9041    4.6492 H   0  0  0  0  0  0  0  0  0  0  0  0
    1.3499    0.3154    5.3981 H   0  0  0  0  0  0  0  0  0  0  0  0
    0.5959   -0.6195    4.2165 H   0  0  0  0  0  0  0  0  0  0  0  0
    1.7339    1.1086    3.5660 C   0  0  0  0  0  0  0  0  0  0  0  0
    2.8898    0.6618    3.3703 O   0  0  0  0  0  1  0  0  0  0  0  0
    1.2544    2.1231    3.0188 O   0  0  0  0  0  0  0  0  0  0  0  0
   -0.0117    2.9121   -0.0155 C   0  0  0  0  0  0  0  0  0  0  0  0
    0.9205    3.2248    0.0635 H   0  0  0  0  0  0  0  0  0  0  0  0
   -0.5656    3.2194    0.7402 H   0  0  0  0  0  0  0  0  0  0  0  0
   -0.4311    3.3265   -0.9323 H   0  0  0  0  0  0  0  0  0  0  0  0
    0.0012    1.4067    0.0012 C   0  0  0  0  0  0  0  0  0  0  0  0
   -1.1980    0.6915   -0.0033 C   0  0  0  0  0  0  0  0  0  0  0  0
   -2.0654    1.1781   -0.0100 H   0  0  0  0  0  0  0  0  0  0  0  0
   -1.2003   -0.7071    0.0000 C   0  0  0  0  0  0  0  0  0  0  0  0
   -2.0757   -1.1992    0.0001 H   0  0  0  0  0  0  0  0  0  0  0  0
    0.0033   -1.4003    0.0056 C   0  0  0  0  0  0  0  0  0  0  0  0
    0.0054   -2.3962    0.0126 H   0  0  0  0  0  0  0  0  0  0  0  0
    1.2003   -0.6930    0.0000 C   0  0  0  0  0  0  0  0  0  0  0  0
    2.0860   -1.1860   -0.0000 H   0  0  0  0  0  0  0  0  0  0  0  0
    1.1935    0.7022   -0.0034 C   0  0  0  0  0  0  0  0  0  0  0  0
    2.0640    1.1954   -0.0105 H   0  0  0  0  0  0  0  0  0  0  0  0
  1  5  1  0
  5  6  1  0
  5  7  2  0
  1  2  1  0
  1  3  1  0
  1  4  1  0
  8 12  1  0
 12 13  2  0
 13 15  1  0
 15 17  2  0
 17 19  1  0
 19 21  2  0
 21 12  1  0
  8  9  1  0
  8 10  1  0
  8 11  1  0
 13 14  1  0
 15 16  1  0
 17 18  1  0
 19 20  1  0
 21 22  1  0
M  CHG  1   6  -1
M  END
>  <PDB_ID>  (2086) 
pdb3wyf

>  <RESIDUE_NAME>  (2086) 
GLU   PHE

>  <FRAG_NAME>  (2086) 
ACET   MBZ

>  <FRAG_ATOM_NUM>  (2086) 
fragi: 7  fragj: 15

>  <atom.prop.CHAIN_ID>  (2086) 
A A A A A A A Z Z Z Z Z Z Z Z Z Z Z Z Z Z Z

>  <atom.prop.IS_HEAVY_ATOM>  (2086) 
1 0 0 0 1 1 1 1 0 0 0 1 1 0 1 0 1 0 1 0 1 0

>  <DIFUSE_FUNC_ATOM>  (2086) 
atom 6   atom 7   

>  <FINAL_SINGLE_POINT_ENERGY>  (2086) 
0

>  <NONCOV_INTER_ENERGY_QM>  (2086) 
0

>  <FF_Energy>  (2086) 
1.16

>  <QM_Energy>  (2086) 
-4.25

>  <source>  (2086) 
ACET_MBZ_02

>  <Index>  (2086) 
15131

$$$$
ACET-pdb3wyw-B-ASP-158:MBZ-pdb3wyw-B-PHE-148
     RDKit          3D

 22 21  0  0  0  0  0  0  0  0999 V2000
   -4.7368    2.6036    2.1675 C   0  0  0  0  0  0  0  0  0  0  0  0
   -4.5866    2.1335    3.0223 H   0  0  0  0  0  0  0  0  0  0  0  0
   -5.0990    1.9994    1.4781 H   0  0  0  0  0  0  0  0  0  0  0  0
   -5.4815    3.3790    2.3471 H   0  0  0  0  0  0  0  0  0  0  0  0
   -3.4473    3.1999    1.6885 C   0  0  0  0  0  0  0  0  0  0  0  0
   -3.3950    3.5146    0.4540 O   0  0  0  0  0  1  0  0  0  0  0  0
   -2.5476    3.4291    2.5329 O   0  0  0  0  0  0  0  0  0  0  0  0
   -0.0786    2.8977    0.0148 C   0  0  0  0  0  0  0  0  0  0  0  0
    0.7540    3.2420    0.4125 H   0  0  0  0  0  0  0  0  0  0  0  0
   -0.8729    3.1746    0.5265 H   0  0  0  0  0  0  0  0  0  0  0  0
   -0.1667    3.3218   -0.9854 H   0  0  0  0  0  0  0  0  0  0  0  0
   -0.0156    1.3890    0.0255 C   0  0  0  0  0  0  0  0  0  0  0  0
   -1.1943    0.6296   -0.0217 C   0  0  0  0  0  0  0  0  0  0  0  0
   -2.0770    1.1042   -0.0740 H   0  0  0  0  0  0  0  0  0  0  0  0
   -1.1856   -0.7682    0.0000 C   0  0  0  0  0  0  0  0  0  0  0  0
   -2.0324   -1.2723    0.0233 H   0  0  0  0  0  0  0  0  0  0  0  0
    0.0419   -1.3770   -0.0114 C   0  0  0  0  0  0  0  0  0  0  0  0
    0.0985   -2.3831   -0.0287 H   0  0  0  0  0  0  0  0  0  0  0  0
    1.1856   -0.6243   -0.0000 C   0  0  0  0  0  0  0  0  0  0  0  0
    2.1050   -1.1029    0.0042 H   0  0  0  0  0  0  0  0  0  0  0  0
    1.1680    0.7508    0.0076 C   0  0  0  0  0  0  0  0  0  0  0  0
    2.0300    1.2552   -0.0013 H   0  0  0  0  0  0  0  0  0  0  0  0
  1  5  1  0
  5  6  1  0
  5  7  2  0
  1  2  1  0
  1  3  1  0
  1  4  1  0
  8 12  1  0
 12 13  2  0
 13 15  1  0
 15 17  2  0
 17 19  1  0
 19 21  2  0
 21 12  1  0
  8  9  1  0
  8 10  1  0
  8 11  1  0
 13 14  1  0
 15 16  1  0
 17 18  1  0
 19 20  1  0
 21 22  1  0
M  CHG  1   6  -1
M  END
>  <PDB_ID>  (2087) 
pdb3wyw

>  <RESIDUE_NAME>  (2087) 
ASP   PHE

>  <FRAG_NAME>  (2087) 
ACET   MBZ

>  <FRAG_ATOM_NUM>  (2087) 
fragi: 7  fragj: 15

>  <atom.prop.CHAIN_ID>  (2087) 
A A A A A A A Z Z Z Z Z Z Z Z Z Z Z Z Z Z Z

>  <atom.prop.IS_HEAVY_ATOM>  (2087) 
1 0 0 0 1 1 1 1 0 0 0 1 1 0 1 0 1 0 1 0 1 0

>  <DIFUSE_FUNC_ATOM>  (2087) 
atom 6   atom 7   

>  <FINAL_SINGLE_POINT_ENERGY>  (2087) 
0

>  <NONCOV_INTER_ENERGY_QM>  (2087) 
0

>  <FF_Energy>  (2087) 
-1.74

>  <QM_Energy>  (2087) 
-8.01

>  <source>  (2087) 
ACET_MBZ_02

>  <Index>  (2087) 
15132

$$$$
ACET-pdb4yb5-A-ASP-49:MBZ-pdb4yb5-A-PHE-42
     RDKit          3D

 22 21  0  0  0  0  0  0  0  0999 V2000
   -4.2355    0.5114   -3.1216 C   0  0  0  0  0  0  0  0  0  0  0  0
   -5.0713    0.1617   -3.5205 H   0  0  0  0  0  0  0  0  0  0  0  0
   -3.4653   -0.0678   -3.3428 H   0  0  0  0  0  0  0  0  0  0  0  0
   -4.0483    1.5039   -3.5315 H   0  0  0  0  0  0  0  0  0  0  0  0
   -4.4058    0.5141   -1.5768 C   0  0  0  0  0  0  0  0  0  0  0  0
   -4.0247    1.5142   -0.9271 O   0  0  0  0  0  1  0  0  0  0  0  0
   -4.9145   -0.5011   -1.0212 O   0  0  0  0  0  0  0  0  0  0  0  0
   -0.0082    2.8911   -0.0414 C   0  0  0  0  0  0  0  0  0  0  0  0
    0.8488    3.2185    0.3159 H   0  0  0  0  0  0  0  0  0  0  0  0
   -0.7756    3.2141    0.4841 H   0  0  0  0  0  0  0  0  0  0  0  0
   -0.1146    3.2783   -1.0548 H   0  0  0  0  0  0  0  0  0  0  0  0
    0.0011    1.3963    0.0070 C   0  0  0  0  0  0  0  0  0  0  0  0
   -1.2004    0.6831   -0.0012 C   0  0  0  0  0  0  0  0  0  0  0  0
   -2.0650    1.1753   -0.0091 H   0  0  0  0  0  0  0  0  0  0  0  0
   -1.2032   -0.7060    0.0000 C   0  0  0  0  0  0  0  0  0  0  0  0
   -2.0749   -1.2032    0.0046 H   0  0  0  0  0  0  0  0  0  0  0  0
    0.0031   -1.3886   -0.0026 C   0  0  0  0  0  0  0  0  0  0  0  0
    0.0103   -2.3895   -0.0069 H   0  0  0  0  0  0  0  0  0  0  0  0
    1.2032   -0.6844   -0.0000 C   0  0  0  0  0  0  0  0  0  0  0  0
    2.0854   -1.1842    0.0051 H   0  0  0  0  0  0  0  0  0  0  0  0
    1.1962    0.6996   -0.0032 C   0  0  0  0  0  0  0  0  0  0  0  0
    2.0622    1.2000   -0.0137 H   0  0  0  0  0  0  0  0  0  0  0  0
  1  5  1  0
  5  6  1  0
  5  7  2  0
  1  2  1  0
  1  3  1  0
  1  4  1  0
  8 12  1  0
 12 13  2  0
 13 15  1  0
 15 17  2  0
 17 19  1  0
 19 21  2  0
 21 12  1  0
  8  9  1  0
  8 10  1  0
  8 11  1  0
 13 14  1  0
 15 16  1  0
 17 18  1  0
 19 20  1  0
 21 22  1  0
M  CHG  1   6  -1
M  END
>  <PDB_ID>  (2088) 
pdb4yb5

>  <RESIDUE_NAME>  (2088) 
ASP   PHE

>  <FRAG_NAME>  (2088) 
ACET   MBZ

>  <FRAG_ATOM_NUM>  (2088) 
fragi: 7  fragj: 15

>  <atom.prop.CHAIN_ID>  (2088) 
A A A A A A A Z Z Z Z Z Z Z Z Z Z Z Z Z Z Z

>  <atom.prop.IS_HEAVY_ATOM>  (2088) 
1 0 0 0 1 1 1 1 0 0 0 1 1 0 1 0 1 0 1 0 1 0

>  <DIFUSE_FUNC_ATOM>  (2088) 
atom 6   atom 7   

>  <FINAL_SINGLE_POINT_ENERGY>  (2088) 
0

>  <NONCOV_INTER_ENERGY_QM>  (2088) 
0

>  <FF_Energy>  (2088) 
-1.14

>  <QM_Energy>  (2088) 
-7.49

>  <source>  (2088) 
ACET_MBZ_02

>  <Index>  (2088) 
15170

$$$$
ACET-pdb4yb5-C-ASP-49:MBZ-pdb4yb5-C-PHE-42
     RDKit          3D

 22 21  0  0  0  0  0  0  0  0999 V2000
    4.0343    0.5289    3.4345 C   0  0  0  0  0  0  0  0  0  0  0  0
    4.8399    0.1849    3.8988 H   0  0  0  0  0  0  0  0  0  0  0  0
    3.2549   -0.0610    3.5983 H   0  0  0  0  0  0  0  0  0  0  0  0
    3.8068    1.5202    3.8265 H   0  0  0  0  0  0  0  0  0  0  0  0
    4.3185    0.5416    1.9268 C   0  0  0  0  0  0  0  0  0  0  0  0
    3.9781    1.5394    1.2423 O   0  0  0  0  0  1  0  0  0  0  0  0
    4.8768   -0.4594    1.4093 O   0  0  0  0  0  0  0  0  0  0  0  0
    0.0194    2.8784    0.0327 C   0  0  0  0  0  0  0  0  0  0  0  0
   -0.8029    3.2112   -0.3968 H   0  0  0  0  0  0  0  0  0  0  0  0
    0.8301    3.1933   -0.4311 H   0  0  0  0  0  0  0  0  0  0  0  0
    0.0452    3.2637    1.0520 H   0  0  0  0  0  0  0  0  0  0  0  0
    0.0017    1.3925   -0.0095 C   0  0  0  0  0  0  0  0  0  0  0  0
   -1.2019    0.6891    0.0094 C   0  0  0  0  0  0  0  0  0  0  0  0
   -2.0632    1.1848    0.0287 H   0  0  0  0  0  0  0  0  0  0  0  0
   -1.2088   -0.6976   -0.0000 C   0  0  0  0  0  0  0  0  0  0  0  0
   -2.0781   -1.1955   -0.0021 H   0  0  0  0  0  0  0  0  0  0  0  0
    0.0021   -1.3869   -0.0047 C   0  0  0  0  0  0  0  0  0  0  0  0
    0.0025   -2.3873   -0.0123 H   0  0  0  0  0  0  0  0  0  0  0  0
    1.2088   -0.6887    0.0000 C   0  0  0  0  0  0  0  0  0  0  0  0
    2.0857   -1.1911    0.0013 H   0  0  0  0  0  0  0  0  0  0  0  0
    1.1982    0.6917    0.0047 C   0  0  0  0  0  0  0  0  0  0  0  0
    2.0646    1.1960    0.0181 H   0  0  0  0  0  0  0  0  0  0  0  0
  1  5  1  0
  5  6  1  0
  5  7  2  0
  1  2  1  0
  1  3  1  0
  1  4  1  0
  8 12  1  0
 12 13  2  0
 13 15  1  0
 15 17  2  0
 17 19  1  0
 19 21  2  0
 21 12  1  0
  8  9  1  0
  8 10  1  0
  8 11  1  0
 13 14  1  0
 15 16  1  0
 17 18  1  0
 19 20  1  0
 21 22  1  0
M  CHG  1   6  -1
M  END
>  <PDB_ID>  (2089) 
pdb4yb5

>  <RESIDUE_NAME>  (2089) 
ASP   PHE

>  <FRAG_NAME>  (2089) 
ACET   MBZ

>  <FRAG_ATOM_NUM>  (2089) 
fragi: 7  fragj: 15

>  <atom.prop.CHAIN_ID>  (2089) 
A A A A A A A Z Z Z Z Z Z Z Z Z Z Z Z Z Z Z

>  <atom.prop.IS_HEAVY_ATOM>  (2089) 
1 0 0 0 1 1 1 1 0 0 0 1 1 0 1 0 1 0 1 0 1 0

>  <DIFUSE_FUNC_ATOM>  (2089) 
atom 6   atom 7   

>  <FINAL_SINGLE_POINT_ENERGY>  (2089) 
0

>  <NONCOV_INTER_ENERGY_QM>  (2089) 
0

>  <FF_Energy>  (2089) 
-2.13

>  <QM_Energy>  (2089) 
-7.29

>  <source>  (2089) 
ACET_MBZ_02

>  <Index>  (2089) 
15174

$$$$
ACET-pdb4yb5-F-ASP-49:MBZ-pdb4yb5-F-PHE-42
     RDKit          3D

 22 21  0  0  0  0  0  0  0  0999 V2000
   -4.2156    0.5346   -3.1264 C   0  0  0  0  0  0  0  0  0  0  0  0
   -5.0510    0.1795   -3.5311 H   0  0  0  0  0  0  0  0  0  0  0  0
   -3.4455   -0.0535   -3.3460 H   0  0  0  0  0  0  0  0  0  0  0  0
   -4.0239    1.5225   -3.5453 H   0  0  0  0  0  0  0  0  0  0  0  0
   -4.3908    0.5472   -1.6001 C   0  0  0  0  0  0  0  0  0  0  0  0
   -4.0045    1.5541   -0.9436 O   0  0  0  0  0  1  0  0  0  0  0  0
   -4.9204   -0.4584   -1.0536 O   0  0  0  0  0  0  0  0  0  0  0  0
    0.0046    2.8972   -0.0314 C   0  0  0  0  0  0  0  0  0  0  0  0
    0.8621    3.2100    0.3356 H   0  0  0  0  0  0  0  0  0  0  0  0
   -0.7623    3.2206    0.4923 H   0  0  0  0  0  0  0  0  0  0  0  0
   -0.0911    3.2887   -1.0441 H   0  0  0  0  0  0  0  0  0  0  0  0
   -0.0016    1.3950    0.0107 C   0  0  0  0  0  0  0  0  0  0  0  0
   -1.2013    0.6966   -0.0065 C   0  0  0  0  0  0  0  0  0  0  0  0
   -2.0641    1.1929   -0.0243 H   0  0  0  0  0  0  0  0  0  0  0  0
   -1.2089   -0.6867    0.0000 C   0  0  0  0  0  0  0  0  0  0  0  0
   -2.0798   -1.1859    0.0073 H   0  0  0  0  0  0  0  0  0  0  0  0
    0.0023   -1.3856   -0.0015 C   0  0  0  0  0  0  0  0  0  0  0  0
   -0.0100   -2.3872   -0.0044 H   0  0  0  0  0  0  0  0  0  0  0  0
    1.2089   -0.6996   -0.0000 C   0  0  0  0  0  0  0  0  0  0  0  0
    2.0841   -1.2029    0.0048 H   0  0  0  0  0  0  0  0  0  0  0  0
    1.2006    0.6803   -0.0027 C   0  0  0  0  0  0  0  0  0  0  0  0
    2.0657    1.1861   -0.0157 H   0  0  0  0  0  0  0  0  0  0  0  0
  1  5  1  0
  5  6  1  0
  5  7  2  0
  1  2  1  0
  1  3  1  0
  1  4  1  0
  8 12  1  0
 12 13  2  0
 13 15  1  0
 15 17  2  0
 17 19  1  0
 19 21  2  0
 21 12  1  0
  8  9  1  0
  8 10  1  0
  8 11  1  0
 13 14  1  0
 15 16  1  0
 17 18  1  0
 19 20  1  0
 21 22  1  0
M  CHG  1   6  -1
M  END
>  <PDB_ID>  (2090) 
pdb4yb5

>  <RESIDUE_NAME>  (2090) 
ASP   PHE

>  <FRAG_NAME>  (2090) 
ACET   MBZ

>  <FRAG_ATOM_NUM>  (2090) 
fragi: 7  fragj: 15

>  <atom.prop.CHAIN_ID>  (2090) 
A A A A A A A Z Z Z Z Z Z Z Z Z Z Z Z Z Z Z

>  <atom.prop.IS_HEAVY_ATOM>  (2090) 
1 0 0 0 1 1 1 1 0 0 0 1 1 0 1 0 1 0 1 0 1 0

>  <DIFUSE_FUNC_ATOM>  (2090) 
atom 6   atom 7   

>  <FINAL_SINGLE_POINT_ENERGY>  (2090) 
0

>  <NONCOV_INTER_ENERGY_QM>  (2090) 
0

>  <FF_Energy>  (2090) 
-0.94

>  <QM_Energy>  (2090) 
-7.56

>  <source>  (2090) 
ACET_MBZ_02

>  <Index>  (2090) 
15180

$$$$
ACET-pdb3x17-B-ASP-531:MBZ-pdb3x17-B-PHE-449
     RDKit          3D

 22 21  0  0  0  0  0  0  0  0999 V2000
   -2.7470    6.0252   -1.3540 C   0  0  0  0  0  0  0  0  0  0  0  0
   -2.4439    6.1637   -0.4211 H   0  0  0  0  0  0  0  0  0  0  0  0
   -3.5736    6.5374   -1.5382 H   0  0  0  0  0  0  0  0  0  0  0  0
   -1.9661    6.3920   -2.0200 H   0  0  0  0  0  0  0  0  0  0  0  0
   -3.0458    4.5312   -1.5513 C   0  0  0  0  0  0  0  0  0  0  0  0
   -3.1777    4.0881   -2.7174 O   0  0  0  0  0  1  0  0  0  0  0  0
   -3.1224    3.8042   -0.5340 O   0  0  0  0  0  0  0  0  0  0  0  0
   -0.0133    2.9099    0.0707 C   0  0  0  0  0  0  0  0  0  0  0  0
   -0.7447    3.2436   -0.5016 H   0  0  0  0  0  0  0  0  0  0  0  0
    0.8657    3.2400   -0.2342 H   0  0  0  0  0  0  0  0  0  0  0  0
   -0.1796    3.2886    1.0791 H   0  0  0  0  0  0  0  0  0  0  0  0
   -0.0027    1.4089   -0.0133 C   0  0  0  0  0  0  0  0  0  0  0  0
   -1.1995    0.6907    0.0058 C   0  0  0  0  0  0  0  0  0  0  0  0
   -2.0682    1.1779    0.0232 H   0  0  0  0  0  0  0  0  0  0  0  0
   -1.2047   -0.7063    0.0000 C   0  0  0  0  0  0  0  0  0  0  0  0
   -2.0713   -1.2034    0.0277 H   0  0  0  0  0  0  0  0  0  0  0  0
    0.0144   -1.4046   -0.0432 C   0  0  0  0  0  0  0  0  0  0  0  0
    0.0078   -2.3966   -0.1044 H   0  0  0  0  0  0  0  0  0  0  0  0
    1.2047   -0.6992   -0.0000 C   0  0  0  0  0  0  0  0  0  0  0  0
    2.0944   -1.1777   -0.0024 H   0  0  0  0  0  0  0  0  0  0  0  0
    1.1877    0.7105    0.0506 C   0  0  0  0  0  0  0  0  0  0  0  0
    2.0553    1.1989    0.1333 H   0  0  0  0  0  0  0  0  0  0  0  0
  1  5  1  0
  5  6  1  0
  5  7  2  0
  1  2  1  0
  1  3  1  0
  1  4  1  0
  8 12  1  0
 12 13  2  0
 13 15  1  0
 15 17  2  0
 17 19  1  0
 19 21  2  0
 21 12  1  0
  8  9  1  0
  8 10  1  0
  8 11  1  0
 13 14  1  0
 15 16  1  0
 17 18  1  0
 19 20  1  0
 21 22  1  0
M  CHG  1   6  -1
M  END
>  <PDB_ID>  (2091) 
pdb3x17

>  <RESIDUE_NAME>  (2091) 
ASP   PHE

>  <FRAG_NAME>  (2091) 
ACET   MBZ

>  <FRAG_ATOM_NUM>  (2091) 
fragi: 7  fragj: 15

>  <atom.prop.CHAIN_ID>  (2091) 
A A A A A A A Z Z Z Z Z Z Z Z Z Z Z Z Z Z Z

>  <atom.prop.IS_HEAVY_ATOM>  (2091) 
1 0 0 0 1 1 1 1 0 0 0 1 1 0 1 0 1 0 1 0 1 0

>  <DIFUSE_FUNC_ATOM>  (2091) 
atom 6   atom 7   

>  <FINAL_SINGLE_POINT_ENERGY>  (2091) 
0

>  <NONCOV_INTER_ENERGY_QM>  (2091) 
0

>  <FF_Energy>  (2091) 
-1.52

>  <QM_Energy>  (2091) 
-6.81

>  <source>  (2091) 
ACET_MBZ_02

>  <Index>  (2091) 
15287

$$$$
ACET-pdb4ye7-A-GLU-76:MBZ-pdb4ye7-A-PHE-98
     RDKit          3D

 22 21  0  0  0  0  0  0  0  0999 V2000
    0.0464    0.2826    3.4713 C   0  0  0  0  0  0  0  0  0  0  0  0
    0.5613   -0.0346    4.2514 H   0  0  0  0  0  0  0  0  0  0  0  0
    0.4539   -0.0149    2.6222 H   0  0  0  0  0  0  0  0  0  0  0  0
   -0.9543   -0.1452    3.5334 H   0  0  0  0  0  0  0  0  0  0  0  0
    0.0611    1.7876    3.4889 C   0  0  0  0  0  0  0  0  0  0  0  0
   -1.0375    2.4044    3.6394 O   0  0  0  0  0  1  0  0  0  0  0  0
    1.1603    2.3122    3.3140 O   0  0  0  0  0  0  0  0  0  0  0  0
   -0.0366    2.9028   -0.0670 C   0  0  0  0  0  0  0  0  0  0  0  0
    0.8577    3.2420    0.1395 H   0  0  0  0  0  0  0  0  0  0  0  0
   -0.7227    3.2273    0.5508 H   0  0  0  0  0  0  0  0  0  0  0  0
   -0.2990    3.2567   -1.0640 H   0  0  0  0  0  0  0  0  0  0  0  0
   -0.0042    1.3996    0.0049 C   0  0  0  0  0  0  0  0  0  0  0  0
   -1.1896    0.6733   -0.0287 C   0  0  0  0  0  0  0  0  0  0  0  0
   -2.0661    1.1610   -0.0762 H   0  0  0  0  0  0  0  0  0  0  0  0
   -1.2100   -0.7280   -0.0000 C   0  0  0  0  0  0  0  0  0  0  0  0
   -2.0785   -1.2114    0.0061 H   0  0  0  0  0  0  0  0  0  0  0  0
   -0.0019   -1.3993    0.0213 C   0  0  0  0  0  0  0  0  0  0  0  0
    0.0292   -2.3934    0.0511 H   0  0  0  0  0  0  0  0  0  0  0  0
    1.2100   -0.6660    0.0000 C   0  0  0  0  0  0  0  0  0  0  0  0
    2.0911   -1.1657   -0.0155 H   0  0  0  0  0  0  0  0  0  0  0  0
    1.1958    0.7203    0.0025 C   0  0  0  0  0  0  0  0  0  0  0  0
    2.0569    1.2239    0.0018 H   0  0  0  0  0  0  0  0  0  0  0  0
  1  5  1  0
  5  6  1  0
  5  7  2  0
  1  2  1  0
  1  3  1  0
  1  4  1  0
  8 12  1  0
 12 13  2  0
 13 15  1  0
 15 17  2  0
 17 19  1  0
 19 21  2  0
 21 12  1  0
  8  9  1  0
  8 10  1  0
  8 11  1  0
 13 14  1  0
 15 16  1  0
 17 18  1  0
 19 20  1  0
 21 22  1  0
M  CHG  1   6  -1
M  END
>  <PDB_ID>  (2092) 
pdb4ye7

>  <RESIDUE_NAME>  (2092) 
GLU   PHE

>  <FRAG_NAME>  (2092) 
ACET   MBZ

>  <FRAG_ATOM_NUM>  (2092) 
fragi: 7  fragj: 15

>  <atom.prop.CHAIN_ID>  (2092) 
A A A A A A A Z Z Z Z Z Z Z Z Z Z Z Z Z Z Z

>  <atom.prop.IS_HEAVY_ATOM>  (2092) 
1 0 0 0 1 1 1 1 0 0 0 1 1 0 1 0 1 0 1 0 1 0

>  <DIFUSE_FUNC_ATOM>  (2092) 
atom 6   atom 7   

>  <FINAL_SINGLE_POINT_ENERGY>  (2092) 
0

>  <NONCOV_INTER_ENERGY_QM>  (2092) 
0

>  <FF_Energy>  (2092) 
0.49

>  <QM_Energy>  (2092) 
-4.97

>  <source>  (2092) 
ACET_MBZ_02

>  <Index>  (2092) 
15307

$$$$
ACET-pdb3x43-G-GLU-202:MBZ-pdb3x43-G-PHE-176
     RDKit          3D

 22 21  0  0  0  0  0  0  0  0999 V2000
    2.1227   -3.5977    2.1878 C   0  0  0  0  0  0  0  0  0  0  0  0
    2.4090   -2.8111    1.6765 H   0  0  0  0  0  0  0  0  0  0  0  0
    2.8745   -4.0787    2.5947 H   0  0  0  0  0  0  0  0  0  0  0  0
    1.4525   -3.2677    2.9815 H   0  0  0  0  0  0  0  0  0  0  0  0
    1.4446   -4.5554    1.2107 C   0  0  0  0  0  0  0  0  0  0  0  0
    0.4209   -4.1742    0.5966 O   0  0  0  0  0  1  0  0  0  0  0  0
    1.9357   -5.6930    1.0568 O   0  0  0  0  0  0  0  0  0  0  0  0
   -0.0003    2.8988    0.0151 C   0  0  0  0  0  0  0  0  0  0  0  0
   -0.7200    3.2152   -0.5854 H   0  0  0  0  0  0  0  0  0  0  0  0
    0.8862    3.2134   -0.2904 H   0  0  0  0  0  0  0  0  0  0  0  0
   -0.1801    3.3329    0.9987 H   0  0  0  0  0  0  0  0  0  0  0  0
    0.0006    1.4019    0.0007 C   0  0  0  0  0  0  0  0  0  0  0  0
   -1.1974    0.6926   -0.0009 C   0  0  0  0  0  0  0  0  0  0  0  0
   -2.0639    1.1822   -0.0044 H   0  0  0  0  0  0  0  0  0  0  0  0
   -1.2029   -0.7006    0.0000 C   0  0  0  0  0  0  0  0  0  0  0  0
   -2.0790   -1.1925    0.0015 H   0  0  0  0  0  0  0  0  0  0  0  0
   -0.0012   -1.3945    0.0003 C   0  0  0  0  0  0  0  0  0  0  0  0
   -0.0016   -2.3933   -0.0002 H   0  0  0  0  0  0  0  0  0  0  0  0
    1.2029   -0.6955   -0.0000 C   0  0  0  0  0  0  0  0  0  0  0  0
    2.0834   -1.1937    0.0011 H   0  0  0  0  0  0  0  0  0  0  0  0
    1.1980    0.6961   -0.0002 C   0  0  0  0  0  0  0  0  0  0  0  0
    2.0652    1.1925   -0.0018 H   0  0  0  0  0  0  0  0  0  0  0  0
  1  5  1  0
  5  6  1  0
  5  7  2  0
  1  2  1  0
  1  3  1  0
  1  4  1  0
  8 12  1  0
 12 13  2  0
 13 15  1  0
 15 17  2  0
 17 19  1  0
 19 21  2  0
 21 12  1  0
  8  9  1  0
  8 10  1  0
  8 11  1  0
 13 14  1  0
 15 16  1  0
 17 18  1  0
 19 20  1  0
 21 22  1  0
M  CHG  1   6  -1
M  END
>  <PDB_ID>  (2093) 
pdb3x43

>  <RESIDUE_NAME>  (2093) 
GLU   PHE

>  <FRAG_NAME>  (2093) 
ACET   MBZ

>  <FRAG_ATOM_NUM>  (2093) 
fragi: 7  fragj: 15

>  <atom.prop.CHAIN_ID>  (2093) 
A A A A A A A Z Z Z Z Z Z Z Z Z Z Z Z Z Z Z

>  <atom.prop.IS_HEAVY_ATOM>  (2093) 
1 0 0 0 1 1 1 1 0 0 0 1 1 0 1 0 1 0 1 0 1 0

>  <DIFUSE_FUNC_ATOM>  (2093) 
atom 6   atom 7   

>  <FINAL_SINGLE_POINT_ENERGY>  (2093) 
0

>  <NONCOV_INTER_ENERGY_QM>  (2093) 
0

>  <FF_Energy>  (2093) 
10.31

>  <QM_Energy>  (2093) 
-4.48

>  <source>  (2093) 
ACET_MBZ_02

>  <Index>  (2093) 
15432

$$$$
ACET-pdb3zci-A-GLU-96:MBZ-pdb3zci-A-PHE-92
     RDKit          3D

 22 21  0  0  0  0  0  0  0  0999 V2000
   -0.8144   -2.8551    2.8728 C   0  0  0  0  0  0  0  0  0  0  0  0
    0.0056   -3.0280    2.3613 H   0  0  0  0  0  0  0  0  0  0  0  0
   -0.9035   -3.4455    3.6512 H   0  0  0  0  0  0  0  0  0  0  0  0
   -0.7892   -1.8233    3.2233 H   0  0  0  0  0  0  0  0  0  0  0  0
   -1.9926   -3.1244    1.9561 C   0  0  0  0  0  0  0  0  0  0  0  0
   -2.8810   -2.2557    1.8553 O   0  0  0  0  0  1  0  0  0  0  0  0
   -2.0342   -4.1974    1.3239 O   0  0  0  0  0  0  0  0  0  0  0  0
    0.0019    2.8791    0.0240 C   0  0  0  0  0  0  0  0  0  0  0  0
   -0.6551    3.2004   -0.6410 H   0  0  0  0  0  0  0  0  0  0  0  0
    0.9144    3.1928   -0.1894 H   0  0  0  0  0  0  0  0  0  0  0  0
   -0.2751    3.2916    0.9941 H   0  0  0  0  0  0  0  0  0  0  0  0
    0.0018    1.3907   -0.0013 C   0  0  0  0  0  0  0  0  0  0  0  0
   -1.1886    0.6900    0.0092 C   0  0  0  0  0  0  0  0  0  0  0  0
   -2.0568    1.1797    0.0224 H   0  0  0  0  0  0  0  0  0  0  0  0
   -1.1915   -0.6947    0.0000 C   0  0  0  0  0  0  0  0  0  0  0  0
   -2.0727   -1.1879    0.0099 H   0  0  0  0  0  0  0  0  0  0  0  0
   -0.0025   -1.3836   -0.0200 C   0  0  0  0  0  0  0  0  0  0  0  0
   -0.0022   -2.3850   -0.0496 H   0  0  0  0  0  0  0  0  0  0  0  0
    1.1915   -0.6887    0.0000 C   0  0  0  0  0  0  0  0  0  0  0  0
    2.0749   -1.1928    0.0074 H   0  0  0  0  0  0  0  0  0  0  0  0
    1.1893    0.6863    0.0121 C   0  0  0  0  0  0  0  0  0  0  0  0
    2.0597    1.1859    0.0299 H   0  0  0  0  0  0  0  0  0  0  0  0
  1  5  1  0
  5  6  1  0
  5  7  2  0
  1  2  1  0
  1  3  1  0
  1  4  1  0
  8 12  1  0
 12 13  2  0
 13 15  1  0
 15 17  2  0
 17 19  1  0
 19 21  2  0
 21 12  1  0
  8  9  1  0
  8 10  1  0
  8 11  1  0
 13 14  1  0
 15 16  1  0
 17 18  1  0
 19 20  1  0
 21 22  1  0
M  CHG  1   6  -1
M  END
>  <PDB_ID>  (2094) 
pdb3zci

>  <RESIDUE_NAME>  (2094) 
GLU   PHE

>  <FRAG_NAME>  (2094) 
ACET   MBZ

>  <FRAG_ATOM_NUM>  (2094) 
fragi: 7  fragj: 15

>  <atom.prop.CHAIN_ID>  (2094) 
A A A A A A A Z Z Z Z Z Z Z Z Z Z Z Z Z Z Z

>  <atom.prop.IS_HEAVY_ATOM>  (2094) 
1 0 0 0 1 1 1 1 0 0 0 1 1 0 1 0 1 0 1 0 1 0

>  <DIFUSE_FUNC_ATOM>  (2094) 
atom 6   atom 7   

>  <FINAL_SINGLE_POINT_ENERGY>  (2094) 
0

>  <NONCOV_INTER_ENERGY_QM>  (2094) 
0

>  <FF_Energy>  (2094) 
-0.06

>  <QM_Energy>  (2094) 
-5.18

>  <source>  (2094) 
ACET_MBZ_02

>  <Index>  (2094) 
15463

$$$$
ACET-pdb4yh8-A-GLU-114:MBZ-pdb4yh8-A-PHE-42
     RDKit          3D

 22 21  0  0  0  0  0  0  0  0999 V2000
    4.7345    3.4309    0.9344 C   0  0  0  0  0  0  0  0  0  0  0  0
    4.6984    3.3496   -0.0459 H   0  0  0  0  0  0  0  0  0  0  0  0
    5.6587    3.4114    1.2739 H   0  0  0  0  0  0  0  0  0  0  0  0
    4.2835    4.3823    1.2169 H   0  0  0  0  0  0  0  0  0  0  0  0
    4.0089    2.2296    1.5182 C   0  0  0  0  0  0  0  0  0  0  0  0
    3.1984    2.3961    2.4708 O   0  0  0  0  0  1  0  0  0  0  0  0
    4.2701    1.1172    1.0191 O   0  0  0  0  0  0  0  0  0  0  0  0
   -0.0028    2.8963   -0.0072 C   0  0  0  0  0  0  0  0  0  0  0  0
    0.8655    3.2050    0.3502 H   0  0  0  0  0  0  0  0  0  0  0  0
   -0.7539    3.2040    0.5578 H   0  0  0  0  0  0  0  0  0  0  0  0
   -0.1303    3.3315   -0.9984 H   0  0  0  0  0  0  0  0  0  0  0  0
   -0.0008    1.3960   -0.0023 C   0  0  0  0  0  0  0  0  0  0  0  0
   -1.1946    0.6863    0.0052 C   0  0  0  0  0  0  0  0  0  0  0  0
   -2.0617    1.1789    0.0133 H   0  0  0  0  0  0  0  0  0  0  0  0
   -1.1968   -0.6944    0.0000 C   0  0  0  0  0  0  0  0  0  0  0  0
   -2.0717   -1.1939   -0.0031 H   0  0  0  0  0  0  0  0  0  0  0  0
    0.0036   -1.3846    0.0006 C   0  0  0  0  0  0  0  0  0  0  0  0
   -0.0027   -2.3872    0.0009 H   0  0  0  0  0  0  0  0  0  0  0  0
    1.1968   -0.6953   -0.0000 C   0  0  0  0  0  0  0  0  0  0  0  0
    2.0813   -1.1914    0.0034 H   0  0  0  0  0  0  0  0  0  0  0  0
    1.1918    0.6919   -0.0036 C   0  0  0  0  0  0  0  0  0  0  0  0
    2.0607    1.1889   -0.0081 H   0  0  0  0  0  0  0  0  0  0  0  0
  1  5  1  0
  5  6  1  0
  5  7  2  0
  1  2  1  0
  1  3  1  0
  1  4  1  0
  8 12  1  0
 12 13  2  0
 13 15  1  0
 15 17  2  0
 17 19  1  0
 19 21  2  0
 21 12  1  0
  8  9  1  0
  8 10  1  0
  8 11  1  0
 13 14  1  0
 15 16  1  0
 17 18  1  0
 19 20  1  0
 21 22  1  0
M  CHG  1   6  -1
M  END
>  <PDB_ID>  (2095) 
pdb4yh8

>  <RESIDUE_NAME>  (2095) 
GLU   PHE

>  <FRAG_NAME>  (2095) 
ACET   MBZ

>  <FRAG_ATOM_NUM>  (2095) 
fragi: 7  fragj: 15

>  <atom.prop.CHAIN_ID>  (2095) 
A A A A A A A Z Z Z Z Z Z Z Z Z Z Z Z Z Z Z

>  <atom.prop.IS_HEAVY_ATOM>  (2095) 
1 0 0 0 1 1 1 1 0 0 0 1 1 0 1 0 1 0 1 0 1 0

>  <DIFUSE_FUNC_ATOM>  (2095) 
atom 6   atom 7   

>  <FINAL_SINGLE_POINT_ENERGY>  (2095) 
0

>  <NONCOV_INTER_ENERGY_QM>  (2095) 
0

>  <FF_Energy>  (2095) 
-1.36

>  <QM_Energy>  (2095) 
-6.54

>  <source>  (2095) 
ACET_MBZ_02

>  <Index>  (2095) 
15490

$$$$
ACET-pdb3zdm-C-ASP-134:MBZ-pdb3zdm-C-PHE-131
     RDKit          3D

 22 21  0  0  0  0  0  0  0  0999 V2000
   -3.3642    6.1146   -0.3326 C   0  0  0  0  0  0  0  0  0  0  0  0
   -2.9737    6.1013    0.5768 H   0  0  0  0  0  0  0  0  0  0  0  0
   -4.3253    6.3466   -0.3047 H   0  0  0  0  0  0  0  0  0  0  0  0
   -2.8468    6.8787   -0.9127 H   0  0  0  0  0  0  0  0  0  0  0  0
   -3.2299    4.6847   -0.9359 C   0  0  0  0  0  0  0  0  0  0  0  0
   -3.0819    4.5620   -2.1569 O   0  0  0  0  0  1  0  0  0  0  0  0
   -3.2794    3.6811   -0.1866 O   0  0  0  0  0  0  0  0  0  0  0  0
   -0.0060    2.9081    0.0271 C   0  0  0  0  0  0  0  0  0  0  0  0
   -0.7760    3.2222   -0.5002 H   0  0  0  0  0  0  0  0  0  0  0  0
    0.8494    3.2255   -0.3460 H   0  0  0  0  0  0  0  0  0  0  0  0
   -0.1025    3.3134    1.0343 H   0  0  0  0  0  0  0  0  0  0  0  0
    0.0005    1.4018   -0.0077 C   0  0  0  0  0  0  0  0  0  0  0  0
   -1.1990    0.6859    0.0032 C   0  0  0  0  0  0  0  0  0  0  0  0
   -2.0661    1.1716    0.0119 H   0  0  0  0  0  0  0  0  0  0  0  0
   -1.2014   -0.7134    0.0000 C   0  0  0  0  0  0  0  0  0  0  0  0
   -2.0718   -1.2060   -0.0012 H   0  0  0  0  0  0  0  0  0  0  0  0
    0.0062   -1.3915    0.0005 C   0  0  0  0  0  0  0  0  0  0  0  0
    0.0135   -2.3934    0.0005 H   0  0  0  0  0  0  0  0  0  0  0  0
    1.2014   -0.6870    0.0000 C   0  0  0  0  0  0  0  0  0  0  0  0
    2.0868   -1.1802   -0.0017 H   0  0  0  0  0  0  0  0  0  0  0  0
    1.1922    0.7042    0.0041 C   0  0  0  0  0  0  0  0  0  0  0  0
    2.0616    1.2002    0.0151 H   0  0  0  0  0  0  0  0  0  0  0  0
  1  5  1  0
  5  6  1  0
  5  7  2  0
  1  2  1  0
  1  3  1  0
  1  4  1  0
  8 12  1  0
 12 13  2  0
 13 15  1  0
 15 17  2  0
 17 19  1  0
 19 21  2  0
 21 12  1  0
  8  9  1  0
  8 10  1  0
  8 11  1  0
 13 14  1  0
 15 16  1  0
 17 18  1  0
 19 20  1  0
 21 22  1  0
M  CHG  1   6  -1
M  END
>  <PDB_ID>  (2096) 
pdb3zdm

>  <RESIDUE_NAME>  (2096) 
ASP   PHE

>  <FRAG_NAME>  (2096) 
ACET   MBZ

>  <FRAG_ATOM_NUM>  (2096) 
fragi: 7  fragj: 15

>  <atom.prop.CHAIN_ID>  (2096) 
A A A A A A A Z Z Z Z Z Z Z Z Z Z Z Z Z Z Z

>  <atom.prop.IS_HEAVY_ATOM>  (2096) 
1 0 0 0 1 1 1 1 0 0 0 1 1 0 1 0 1 0 1 0 1 0

>  <DIFUSE_FUNC_ATOM>  (2096) 
atom 6   atom 7   

>  <FINAL_SINGLE_POINT_ENERGY>  (2096) 
0

>  <NONCOV_INTER_ENERGY_QM>  (2096) 
0

>  <FF_Energy>  (2096) 
-2.01

>  <QM_Energy>  (2096) 
-7.5

>  <source>  (2096) 
ACET_MBZ_02

>  <Index>  (2096) 
15498

$$$$
ACET-pdb4yiw-A-GLU-328:MBZ-pdb4yiw-A-PHE-392
     RDKit          3D

 22 21  0  0  0  0  0  0  0  0999 V2000
   -0.0803    1.2807    4.8958 C   0  0  0  0  0  0  0  0  0  0  0  0
   -0.9127    1.4494    5.3983 H   0  0  0  0  0  0  0  0  0  0  0  0
    0.7145    1.3498    5.4763 H   0  0  0  0  0  0  0  0  0  0  0  0
   -0.1243    0.2672    4.4969 H   0  0  0  0  0  0  0  0  0  0  0  0
    0.0373    2.3510    3.8307 C   0  0  0  0  0  0  0  0  0  0  0  0
    1.1546    2.5626    3.3138 O   0  0  0  0  0  1  0  0  0  0  0  0
   -0.9839    3.0033    3.5329 O   0  0  0  0  0  0  0  0  0  0  0  0
    0.0438    2.9237   -0.0137 C   0  0  0  0  0  0  0  0  0  0  0  0
    0.2740    3.2070   -0.9366 H   0  0  0  0  0  0  0  0  0  0  0  0
    0.7413    3.2148    0.6282 H   0  0  0  0  0  0  0  0  0  0  0  0
   -0.8874    3.4186    0.2622 H   0  0  0  0  0  0  0  0  0  0  0  0
    0.0023    1.4057    0.0065 C   0  0  0  0  0  0  0  0  0  0  0  0
   -1.1936    0.6886   -0.0011 C   0  0  0  0  0  0  0  0  0  0  0  0
   -2.0617    1.1774   -0.0088 H   0  0  0  0  0  0  0  0  0  0  0  0
   -1.1943   -0.7007    0.0000 C   0  0  0  0  0  0  0  0  0  0  0  0
   -2.0734   -1.1941    0.0029 H   0  0  0  0  0  0  0  0  0  0  0  0
    0.0007   -1.3912   -0.0015 C   0  0  0  0  0  0  0  0  0  0  0  0
    0.0004   -2.3918   -0.0042 H   0  0  0  0  0  0  0  0  0  0  0  0
    1.1943   -0.6942   -0.0000 C   0  0  0  0  0  0  0  0  0  0  0  0
    2.0791   -1.1916    0.0060 H   0  0  0  0  0  0  0  0  0  0  0  0
    1.1906    0.6918   -0.0039 C   0  0  0  0  0  0  0  0  0  0  0  0
    2.0637    1.1871   -0.0151 H   0  0  0  0  0  0  0  0  0  0  0  0
  1  5  1  0
  5  6  1  0
  5  7  2  0
  1  2  1  0
  1  3  1  0
  1  4  1  0
  8 12  1  0
 12 13  2  0
 13 15  1  0
 15 17  2  0
 17 19  1  0
 19 21  2  0
 21 12  1  0
  8  9  1  0
  8 10  1  0
  8 11  1  0
 13 14  1  0
 15 16  1  0
 17 18  1  0
 19 20  1  0
 21 22  1  0
M  CHG  1   6  -1
M  END
>  <PDB_ID>  (2097) 
pdb4yiw

>  <RESIDUE_NAME>  (2097) 
GLU   PHE

>  <FRAG_NAME>  (2097) 
ACET   MBZ

>  <FRAG_ATOM_NUM>  (2097) 
fragi: 7  fragj: 15

>  <atom.prop.CHAIN_ID>  (2097) 
A A A A A A A Z Z Z Z Z Z Z Z Z Z Z Z Z Z Z

>  <atom.prop.IS_HEAVY_ATOM>  (2097) 
1 0 0 0 1 1 1 1 0 0 0 1 1 0 1 0 1 0 1 0 1 0

>  <DIFUSE_FUNC_ATOM>  (2097) 
atom 6   atom 7   

>  <FINAL_SINGLE_POINT_ENERGY>  (2097) 
0

>  <NONCOV_INTER_ENERGY_QM>  (2097) 
0

>  <FF_Energy>  (2097) 
0.49

>  <QM_Energy>  (2097) 
-4.76

>  <source>  (2097) 
ACET_MBZ_02

>  <Index>  (2097) 
15551

$$$$
ACET-pdb3zet-B-GLU-45:MBZ-pdb3zet-A-PHE-68
     RDKit          3D

 22 21  0  0  0  0  0  0  0  0999 V2000
    3.2404    0.9475    3.7292 C   0  0  0  0  0  0  0  0  0  0  0  0
    3.2804    0.1721    3.0912 H   0  0  0  0  0  0  0  0  0  0  0  0
    2.8046    0.6394    4.5813 H   0  0  0  0  0  0  0  0  0  0  0  0
    4.2658    1.2300    3.9674 H   0  0  0  0  0  0  0  0  0  0  0  0
    2.3226    1.9938    3.1081 C   0  0  0  0  0  0  0  0  0  0  0  0
    2.7895    2.7901    2.2608 O   0  0  0  0  0  1  0  0  0  0  0  0
    1.1225    2.0043    3.4658 O   0  0  0  0  0  0  0  0  0  0  0  0
    0.0011    2.9249    0.0086 C   0  0  0  0  0  0  0  0  0  0  0  0
    0.8381    3.2339   -0.4474 H   0  0  0  0  0  0  0  0  0  0  0  0
    0.0209    3.2168    0.9664 H   0  0  0  0  0  0  0  0  0  0  0  0
   -0.8360    3.4345   -0.4688 H   0  0  0  0  0  0  0  0  0  0  0  0
   -0.0000    1.4103   -0.0098 C   0  0  0  0  0  0  0  0  0  0  0  0
   -1.1946    0.6957    0.0102 C   0  0  0  0  0  0  0  0  0  0  0  0
   -2.0637    1.1784    0.0309 H   0  0  0  0  0  0  0  0  0  0  0  0
   -1.1975   -0.7067   -0.0000 C   0  0  0  0  0  0  0  0  0  0  0  0
   -2.0776   -1.1922   -0.0052 H   0  0  0  0  0  0  0  0  0  0  0  0
   -0.0036   -1.3948   -0.0011 C   0  0  0  0  0  0  0  0  0  0  0  0
   -0.0031   -2.3970   -0.0031 H   0  0  0  0  0  0  0  0  0  0  0  0
    1.1975   -0.7022    0.0000 C   0  0  0  0  0  0  0  0  0  0  0  0
    2.0793   -1.1973    0.0017 H   0  0  0  0  0  0  0  0  0  0  0  0
    1.1982    0.6977    0.0008 C   0  0  0  0  0  0  0  0  0  0  0  0
    2.0662    1.1882    0.0082 H   0  0  0  0  0  0  0  0  0  0  0  0
  1  5  1  0
  5  6  1  0
  5  7  2  0
  1  2  1  0
  1  3  1  0
  1  4  1  0
  8 12  1  0
 12 13  2  0
 13 15  1  0
 15 17  2  0
 17 19  1  0
 19 21  2  0
 21 12  1  0
  8  9  1  0
  8 10  1  0
  8 11  1  0
 13 14  1  0
 15 16  1  0
 17 18  1  0
 19 20  1  0
 21 22  1  0
M  CHG  1   6  -1
M  END
>  <PDB_ID>  (2098) 
pdb3zet

>  <RESIDUE_NAME>  (2098) 
GLU   PHE

>  <FRAG_NAME>  (2098) 
ACET   MBZ

>  <FRAG_ATOM_NUM>  (2098) 
fragi: 7  fragj: 15

>  <atom.prop.CHAIN_ID>  (2098) 
A A A A A A A Z Z Z Z Z Z Z Z Z Z Z Z Z Z Z

>  <atom.prop.IS_HEAVY_ATOM>  (2098) 
1 0 0 0 1 1 1 1 0 0 0 1 1 0 1 0 1 0 1 0 1 0

>  <DIFUSE_FUNC_ATOM>  (2098) 
atom 6   atom 7   

>  <FINAL_SINGLE_POINT_ENERGY>  (2098) 
0

>  <NONCOV_INTER_ENERGY_QM>  (2098) 
0

>  <FF_Energy>  (2098) 
-0.15

>  <QM_Energy>  (2098) 
-6.29

>  <source>  (2098) 
ACET_MBZ_02

>  <Index>  (2098) 
15579

$$$$
ACET-pdb3zeu-B-GLU-45:MBZ-pdb3zeu-A-PHE-68
     RDKit          3D

 22 21  0  0  0  0  0  0  0  0999 V2000
    3.8624    0.6859    3.2385 C   0  0  0  0  0  0  0  0  0  0  0  0
    3.7580   -0.0994    2.6519 H   0  0  0  0  0  0  0  0  0  0  0  0
    3.6146    0.4834    4.1703 H   0  0  0  0  0  0  0  0  0  0  0  0
    4.9120    0.9796    3.2235 H   0  0  0  0  0  0  0  0  0  0  0  0
    2.9127    1.7658    2.7351 C   0  0  0  0  0  0  0  0  0  0  0  0
    3.3372    2.6530    1.9643 O   0  0  0  0  0  1  0  0  0  0  0  0
    1.7163    1.7181    3.1035 O   0  0  0  0  0  0  0  0  0  0  0  0
    0.0455    2.9051   -0.0010 C   0  0  0  0  0  0  0  0  0  0  0  0
    0.7819    3.1934   -0.5997 H   0  0  0  0  0  0  0  0  0  0  0  0
    0.2119    3.2030    0.9309 H   0  0  0  0  0  0  0  0  0  0  0  0
   -0.8700    3.3867   -0.3447 H   0  0  0  0  0  0  0  0  0  0  0  0
    0.0056    1.4006   -0.0068 C   0  0  0  0  0  0  0  0  0  0  0  0
   -1.2012    0.6971    0.0033 C   0  0  0  0  0  0  0  0  0  0  0  0
   -2.0614    1.1890    0.0121 H   0  0  0  0  0  0  0  0  0  0  0  0
   -1.2028   -0.6941   -0.0000 C   0  0  0  0  0  0  0  0  0  0  0  0
   -2.0789   -1.1899   -0.0035 H   0  0  0  0  0  0  0  0  0  0  0  0
    0.0013   -1.3928    0.0028 C   0  0  0  0  0  0  0  0  0  0  0  0
   -0.0034   -2.3901    0.0062 H   0  0  0  0  0  0  0  0  0  0  0  0
    1.2028   -0.6943    0.0000 C   0  0  0  0  0  0  0  0  0  0  0  0
    2.0828   -1.1962   -0.0004 H   0  0  0  0  0  0  0  0  0  0  0  0
    1.1943    0.6834    0.0006 C   0  0  0  0  0  0  0  0  0  0  0  0
    2.0672    1.1858    0.0055 H   0  0  0  0  0  0  0  0  0  0  0  0
  1  5  1  0
  5  6  1  0
  5  7  2  0
  1  2  1  0
  1  3  1  0
  1  4  1  0
  8 12  1  0
 12 13  2  0
 13 15  1  0
 15 17  2  0
 17 19  1  0
 19 21  2  0
 21 12  1  0
  8  9  1  0
  8 10  1  0
  8 11  1  0
 13 14  1  0
 15 16  1  0
 17 18  1  0
 19 20  1  0
 21 22  1  0
M  CHG  1   6  -1
M  END
>  <PDB_ID>  (2099) 
pdb3zeu

>  <RESIDUE_NAME>  (2099) 
GLU   PHE

>  <FRAG_NAME>  (2099) 
ACET   MBZ

>  <FRAG_ATOM_NUM>  (2099) 
fragi: 7  fragj: 15

>  <atom.prop.CHAIN_ID>  (2099) 
A A A A A A A Z Z Z Z Z Z Z Z Z Z Z Z Z Z Z

>  <atom.prop.IS_HEAVY_ATOM>  (2099) 
1 0 0 0 1 1 1 1 0 0 0 1 1 0 1 0 1 0 1 0 1 0

>  <DIFUSE_FUNC_ATOM>  (2099) 
atom 6   atom 7   

>  <FINAL_SINGLE_POINT_ENERGY>  (2099) 
0

>  <NONCOV_INTER_ENERGY_QM>  (2099) 
0

>  <FF_Energy>  (2099) 
0.1

>  <QM_Energy>  (2099) 
-6.21

>  <source>  (2099) 
ACET_MBZ_02

>  <Index>  (2099) 
15591

$$$$
ACET-pdb3x43-A-ASP-304:MBZ-pdb3x43-A-PHE-301
     RDKit          3D

 22 21  0  0  0  0  0  0  0  0999 V2000
   -3.2253    4.1908    3.1868 C   0  0  0  0  0  0  0  0  0  0  0  0
   -2.8632    3.3681    3.6094 H   0  0  0  0  0  0  0  0  0  0  0  0
   -4.1511    4.3650    3.5010 H   0  0  0  0  0  0  0  0  0  0  0  0
   -2.6018    5.0290    3.4978 H   0  0  0  0  0  0  0  0  0  0  0  0
   -3.2455    3.9994    1.6825 C   0  0  0  0  0  0  0  0  0  0  0  0
   -2.5024    4.7178    0.9768 O   0  0  0  0  0  1  0  0  0  0  0  0
   -4.0074    3.1287    1.2076 O   0  0  0  0  0  0  0  0  0  0  0  0
   -0.0141    2.9066   -0.0435 C   0  0  0  0  0  0  0  0  0  0  0  0
   -0.9588    3.2063   -0.0856 H   0  0  0  0  0  0  0  0  0  0  0  0
    0.4846    3.1967   -0.8493 H   0  0  0  0  0  0  0  0  0  0  0  0
    0.4449    3.3937    0.8168 H   0  0  0  0  0  0  0  0  0  0  0  0
   -0.0005    1.4041   -0.0000 C   0  0  0  0  0  0  0  0  0  0  0  0
   -1.1978    0.6918    0.0007 C   0  0  0  0  0  0  0  0  0  0  0  0
   -2.0647    1.1817    0.0001 H   0  0  0  0  0  0  0  0  0  0  0  0
   -1.2032   -0.7011    0.0000 C   0  0  0  0  0  0  0  0  0  0  0  0
   -2.0788   -1.1943    0.0014 H   0  0  0  0  0  0  0  0  0  0  0  0
   -0.0001   -1.3974   -0.0013 C   0  0  0  0  0  0  0  0  0  0  0  0
   -0.0017   -2.3942   -0.0043 H   0  0  0  0  0  0  0  0  0  0  0  0
    1.2032   -0.6970   -0.0000 C   0  0  0  0  0  0  0  0  0  0  0  0
    2.0843   -1.1931    0.0024 H   0  0  0  0  0  0  0  0  0  0  0  0
    1.1985    0.6995    0.0007 C   0  0  0  0  0  0  0  0  0  0  0  0
    2.0646    1.1938    0.0008 H   0  0  0  0  0  0  0  0  0  0  0  0
  1  5  1  0
  5  6  1  0
  5  7  2  0
  1  2  1  0
  1  3  1  0
  1  4  1  0
  8 12  1  0
 12 13  2  0
 13 15  1  0
 15 17  2  0
 17 19  1  0
 19 21  2  0
 21 12  1  0
  8  9  1  0
  8 10  1  0
  8 11  1  0
 13 14  1  0
 15 16  1  0
 17 18  1  0
 19 20  1  0
 21 22  1  0
M  CHG  1   6  -1
M  END
>  <PDB_ID>  (2100) 
pdb3x43

>  <RESIDUE_NAME>  (2100) 
ASP   PHE

>  <FRAG_NAME>  (2100) 
ACET   MBZ

>  <FRAG_ATOM_NUM>  (2100) 
fragi: 7  fragj: 15

>  <atom.prop.CHAIN_ID>  (2100) 
A A A A A A A Z Z Z Z Z Z Z Z Z Z Z Z Z Z Z

>  <atom.prop.IS_HEAVY_ATOM>  (2100) 
1 0 0 0 1 1 1 1 0 0 0 1 1 0 1 0 1 0 1 0 1 0

>  <DIFUSE_FUNC_ATOM>  (2100) 
atom 6   atom 7   

>  <FINAL_SINGLE_POINT_ENERGY>  (2100) 
0

>  <NONCOV_INTER_ENERGY_QM>  (2100) 
0

>  <FF_Energy>  (2100) 
-2.23

>  <QM_Energy>  (2100) 
-7.42

>  <source>  (2100) 
ACET_MBZ_02

>  <Index>  (2100) 
15634

$$$$
ACET-pdb3zh9-B-ASP-4:MBZ-pdb3zh9-B-PHE-139
     RDKit          3D

 22 21  0  0  0  0  0  0  0  0999 V2000
   -1.4955   -5.7328    0.6798 C   0  0  0  0  0  0  0  0  0  0  0  0
   -2.0257   -6.4644    0.2609 H   0  0  0  0  0  0  0  0  0  0  0  0
   -2.1016   -5.0824    1.1255 H   0  0  0  0  0  0  0  0  0  0  0  0
   -0.8441   -6.1703    1.4363 H   0  0  0  0  0  0  0  0  0  0  0  0
   -0.7375   -4.9943   -0.4347 C   0  0  0  0  0  0  0  0  0  0  0  0
    0.2467   -5.5224   -1.0082 O   0  0  0  0  0  1  0  0  0  0  0  0
   -1.1683   -3.8664   -0.7585 O   0  0  0  0  0  0  0  0  0  0  0  0
    0.0290    2.9462    0.0007 C   0  0  0  0  0  0  0  0  0  0  0  0
    0.8499    3.2319   -0.4685 H   0  0  0  0  0  0  0  0  0  0  0  0
    0.0293    3.2428    0.9435 H   0  0  0  0  0  0  0  0  0  0  0  0
   -0.8196    3.4159   -0.4965 H   0  0  0  0  0  0  0  0  0  0  0  0
    0.0013    1.4207   -0.0033 C   0  0  0  0  0  0  0  0  0  0  0  0
   -1.1993    0.7117    0.0022 C   0  0  0  0  0  0  0  0  0  0  0  0
   -2.0655    1.1936    0.0065 H   0  0  0  0  0  0  0  0  0  0  0  0
   -1.2053   -0.6995   -0.0000 C   0  0  0  0  0  0  0  0  0  0  0  0
   -2.0834   -1.1849    0.0014 H   0  0  0  0  0  0  0  0  0  0  0  0
    0.0005   -1.4103   -0.0020 C   0  0  0  0  0  0  0  0  0  0  0  0
   -0.0128   -2.4051   -0.0056 H   0  0  0  0  0  0  0  0  0  0  0  0
    1.2053   -0.7160    0.0000 C   0  0  0  0  0  0  0  0  0  0  0  0
    2.0855   -1.2050    0.0009 H   0  0  0  0  0  0  0  0  0  0  0  0
    1.1975    0.6934    0.0031 C   0  0  0  0  0  0  0  0  0  0  0  0
    2.0709    1.1820    0.0090 H   0  0  0  0  0  0  0  0  0  0  0  0
  1  5  1  0
  5  6  1  0
  5  7  2  0
  1  2  1  0
  1  3  1  0
  1  4  1  0
  8 12  1  0
 12 13  2  0
 13 15  1  0
 15 17  2  0
 17 19  1  0
 19 21  2  0
 21 12  1  0
  8  9  1  0
  8 10  1  0
  8 11  1  0
 13 14  1  0
 15 16  1  0
 17 18  1  0
 19 20  1  0
 21 22  1  0
M  CHG  1   6  -1
M  END
>  <PDB_ID>  (2101) 
pdb3zh9

>  <RESIDUE_NAME>  (2101) 
ASP   PHE

>  <FRAG_NAME>  (2101) 
ACET   MBZ

>  <FRAG_ATOM_NUM>  (2101) 
fragi: 7  fragj: 15

>  <atom.prop.CHAIN_ID>  (2101) 
A A A A A A A Z Z Z Z Z Z Z Z Z Z Z Z Z Z Z

>  <atom.prop.IS_HEAVY_ATOM>  (2101) 
1 0 0 0 1 1 1 1 0 0 0 1 1 0 1 0 1 0 1 0 1 0

>  <DIFUSE_FUNC_ATOM>  (2101) 
atom 6   atom 7   

>  <FINAL_SINGLE_POINT_ENERGY>  (2101) 
0

>  <NONCOV_INTER_ENERGY_QM>  (2101) 
0

>  <FF_Energy>  (2101) 
5.93

>  <QM_Energy>  (2101) 
-4.6

>  <source>  (2101) 
ACET_MBZ_02

>  <Index>  (2101) 
15685

$$$$
ACET-pdb3zid-B-ASP-18:MBZ-pdb3zid-B-PHE-60
     RDKit          3D

 22 21  0  0  0  0  0  0  0  0999 V2000
    5.0287    3.6613    0.7992 C   0  0  0  0  0  0  0  0  0  0  0  0
    5.7664    4.2041    0.4167 H   0  0  0  0  0  0  0  0  0  0  0  0
    5.3796    2.8308    1.2109 H   0  0  0  0  0  0  0  0  0  0  0  0
    4.5435    4.2489    1.5786 H   0  0  0  0  0  0  0  0  0  0  0  0
    4.0736    3.2758   -0.3328 C   0  0  0  0  0  0  0  0  0  0  0  0
    3.1974    4.0959   -0.7036 O   0  0  0  0  0  1  0  0  0  0  0  0
    4.2121    2.1513   -0.8654 O   0  0  0  0  0  0  0  0  0  0  0  0
    0.0034    2.8831   -0.0131 C   0  0  0  0  0  0  0  0  0  0  0  0
    0.8320    3.1952    0.4262 H   0  0  0  0  0  0  0  0  0  0  0  0
   -0.8005    3.1978    0.4674 H   0  0  0  0  0  0  0  0  0  0  0  0
   -0.0215    3.2997   -1.0200 H   0  0  0  0  0  0  0  0  0  0  0  0
    0.0015    1.3899    0.0054 C   0  0  0  0  0  0  0  0  0  0  0  0
   -1.1935    0.6851   -0.0052 C   0  0  0  0  0  0  0  0  0  0  0  0
   -2.0588    1.1792   -0.0176 H   0  0  0  0  0  0  0  0  0  0  0  0
   -1.1967   -0.6951   -0.0000 C   0  0  0  0  0  0  0  0  0  0  0  0
   -2.0756   -1.1906    0.0031 H   0  0  0  0  0  0  0  0  0  0  0  0
   -0.0047   -1.3799    0.0027 C   0  0  0  0  0  0  0  0  0  0  0  0
   -0.0016   -2.3838    0.0060 H   0  0  0  0  0  0  0  0  0  0  0  0
    1.1967   -0.6864   -0.0000 C   0  0  0  0  0  0  0  0  0  0  0  0
    2.0757   -1.1954    0.0015 H   0  0  0  0  0  0  0  0  0  0  0  0
    1.1967    0.6864   -0.0029 C   0  0  0  0  0  0  0  0  0  0  0  0
    2.0627    1.1888   -0.0115 H   0  0  0  0  0  0  0  0  0  0  0  0
  1  5  1  0
  5  6  1  0
  5  7  2  0
  1  2  1  0
  1  3  1  0
  1  4  1  0
  8 12  1  0
 12 13  2  0
 13 15  1  0
 15 17  2  0
 17 19  1  0
 19 21  2  0
 21 12  1  0
  8  9  1  0
  8 10  1  0
  8 11  1  0
 13 14  1  0
 15 16  1  0
 17 18  1  0
 19 20  1  0
 21 22  1  0
M  CHG  1   6  -1
M  END
>  <PDB_ID>  (2102) 
pdb3zid

>  <RESIDUE_NAME>  (2102) 
ASP   PHE

>  <FRAG_NAME>  (2102) 
ACET   MBZ

>  <FRAG_ATOM_NUM>  (2102) 
fragi: 7  fragj: 15

>  <atom.prop.CHAIN_ID>  (2102) 
A A A A A A A Z Z Z Z Z Z Z Z Z Z Z Z Z Z Z

>  <atom.prop.IS_HEAVY_ATOM>  (2102) 
1 0 0 0 1 1 1 1 0 0 0 1 1 0 1 0 1 0 1 0 1 0

>  <DIFUSE_FUNC_ATOM>  (2102) 
atom 6   atom 7   

>  <FINAL_SINGLE_POINT_ENERGY>  (2102) 
0

>  <NONCOV_INTER_ENERGY_QM>  (2102) 
0

>  <FF_Energy>  (2102) 
-2.66

>  <QM_Energy>  (2102) 
-7.9

>  <source>  (2102) 
ACET_MBZ_02

>  <Index>  (2102) 
15745

$$$$
ACET-pdb4ynz-B-GLU-331:MBZ-pdb4ynz-B-PHE-313
     RDKit          3D

 22 21  0  0  0  0  0  0  0  0999 V2000
   -3.5942   -2.2208    1.8719 C   0  0  0  0  0  0  0  0  0  0  0  0
   -4.1833   -1.4572    2.0683 H   0  0  0  0  0  0  0  0  0  0  0  0
   -2.7566   -1.9390    1.4373 H   0  0  0  0  0  0  0  0  0  0  0  0
   -3.3463   -2.7143    2.8117 H   0  0  0  0  0  0  0  0  0  0  0  0
   -4.3336   -3.1240    0.8889 C   0  0  0  0  0  0  0  0  0  0  0  0
   -4.9129   -4.1478    1.3163 O   0  0  0  0  0  1  0  0  0  0  0  0
   -4.3379   -2.7955   -0.3171 O   0  0  0  0  0  0  0  0  0  0  0  0
    0.0110    2.9097    0.0120 C   0  0  0  0  0  0  0  0  0  0  0  0
    0.9548    3.2073    0.0031 H   0  0  0  0  0  0  0  0  0  0  0  0
   -0.4495    3.2080    0.8361 H   0  0  0  0  0  0  0  0  0  0  0  0
   -0.4923    3.3729   -0.8367 H   0  0  0  0  0  0  0  0  0  0  0  0
    0.0004    1.4008   -0.0048 C   0  0  0  0  0  0  0  0  0  0  0  0
   -1.1941    0.7007    0.0033 C   0  0  0  0  0  0  0  0  0  0  0  0
   -2.0607    1.1873    0.0106 H   0  0  0  0  0  0  0  0  0  0  0  0
   -1.1997   -0.6970   -0.0000 C   0  0  0  0  0  0  0  0  0  0  0  0
   -2.0782   -1.1866    0.0009 H   0  0  0  0  0  0  0  0  0  0  0  0
    0.0007   -1.3952   -0.0025 C   0  0  0  0  0  0  0  0  0  0  0  0
   -0.0042   -2.3937   -0.0066 H   0  0  0  0  0  0  0  0  0  0  0  0
    1.1997   -0.6991   -0.0000 C   0  0  0  0  0  0  0  0  0  0  0  0
    2.0817   -1.1961    0.0005 H   0  0  0  0  0  0  0  0  0  0  0  0
    1.1930    0.6899    0.0039 C   0  0  0  0  0  0  0  0  0  0  0  0
    2.0638    1.1867    0.0121 H   0  0  0  0  0  0  0  0  0  0  0  0
  1  5  1  0
  5  6  1  0
  5  7  2  0
  1  2  1  0
  1  3  1  0
  1  4  1  0
  8 12  1  0
 12 13  2  0
 13 15  1  0
 15 17  2  0
 17 19  1  0
 19 21  2  0
 21 12  1  0
  8  9  1  0
  8 10  1  0
  8 11  1  0
 13 14  1  0
 15 16  1  0
 17 18  1  0
 19 20  1  0
 21 22  1  0
M  CHG  1   6  -1
M  END
>  <PDB_ID>  (2103) 
pdb4ynz

>  <RESIDUE_NAME>  (2103) 
GLU   PHE

>  <FRAG_NAME>  (2103) 
ACET   MBZ

>  <FRAG_ATOM_NUM>  (2103) 
fragi: 7  fragj: 15

>  <atom.prop.CHAIN_ID>  (2103) 
A A A A A A A Z Z Z Z Z Z Z Z Z Z Z Z Z Z Z

>  <atom.prop.IS_HEAVY_ATOM>  (2103) 
1 0 0 0 1 1 1 1 0 0 0 1 1 0 1 0 1 0 1 0 1 0

>  <DIFUSE_FUNC_ATOM>  (2103) 
atom 6   atom 7   

>  <FINAL_SINGLE_POINT_ENERGY>  (2103) 
0

>  <NONCOV_INTER_ENERGY_QM>  (2103) 
0

>  <FF_Energy>  (2103) 
3.2

>  <QM_Energy>  (2103) 
-1.99

>  <source>  (2103) 
ACET_MBZ_02

>  <Index>  (2103) 
15854

$$$$
ACET-pdb3zjk-B-GLU-143:MBZ-pdb3zjk-B-PHE-139
     RDKit          3D

 22 21  0  0  0  0  0  0  0  0999 V2000
   -1.1913   -2.2789    4.4768 C   0  0  0  0  0  0  0  0  0  0  0  0
   -0.3121   -2.6417    4.2387 H   0  0  0  0  0  0  0  0  0  0  0  0
   -1.6594   -2.8235    5.1437 H   0  0  0  0  0  0  0  0  0  0  0  0
   -1.0854   -1.2562    4.8387 H   0  0  0  0  0  0  0  0  0  0  0  0
   -2.0134   -2.2637    3.2563 C   0  0  0  0  0  0  0  0  0  0  0  0
   -1.7124   -1.3814    2.4592 O   0  0  0  0  0  1  0  0  0  0  0  0
   -2.9463   -3.0667    3.1156 O   0  0  0  0  0  0  0  0  0  0  0  0
   -0.0255    2.9486   -0.0693 C   0  0  0  0  0  0  0  0  0  0  0  0
   -0.6628    3.2047   -0.7804 H   0  0  0  0  0  0  0  0  0  0  0  0
    0.8925    3.2480   -0.2830 H   0  0  0  0  0  0  0  0  0  0  0  0
   -0.3359    3.4236    0.8613 H   0  0  0  0  0  0  0  0  0  0  0  0
   -0.0019    1.4255   -0.0117 C   0  0  0  0  0  0  0  0  0  0  0  0
   -1.2152    0.6894    0.0061 C   0  0  0  0  0  0  0  0  0  0  0  0
   -2.0781    1.1824    0.0216 H   0  0  0  0  0  0  0  0  0  0  0  0
   -1.2196   -0.7090   -0.0000 C   0  0  0  0  0  0  0  0  0  0  0  0
   -2.0923   -1.2038   -0.0236 H   0  0  0  0  0  0  0  0  0  0  0  0
   -0.0062   -1.4167    0.0286 C   0  0  0  0  0  0  0  0  0  0  0  0
   -0.0078   -2.4068    0.0683 H   0  0  0  0  0  0  0  0  0  0  0  0
    1.2196   -0.7094    0.0000 C   0  0  0  0  0  0  0  0  0  0  0  0
    2.0930   -1.2010   -0.0031 H   0  0  0  0  0  0  0  0  0  0  0  0
    1.2234    0.7202   -0.0229 C   0  0  0  0  0  0  0  0  0  0  0  0
    2.0774    1.2034   -0.0471 H   0  0  0  0  0  0  0  0  0  0  0  0
  1  5  1  0
  5  6  1  0
  5  7  2  0
  1  2  1  0
  1  3  1  0
  1  4  1  0
  8 12  1  0
 12 13  2  0
 13 15  1  0
 15 17  2  0
 17 19  1  0
 19 21  2  0
 21 12  1  0
  8  9  1  0
  8 10  1  0
  8 11  1  0
 13 14  1  0
 15 16  1  0
 17 18  1  0
 19 20  1  0
 21 22  1  0
M  CHG  1   6  -1
M  END
>  <PDB_ID>  (2104) 
pdb3zjk

>  <RESIDUE_NAME>  (2104) 
GLU   PHE

>  <FRAG_NAME>  (2104) 
ACET   MBZ

>  <FRAG_ATOM_NUM>  (2104) 
fragi: 7  fragj: 15

>  <atom.prop.CHAIN_ID>  (2104) 
A A A A A A A Z Z Z Z Z Z Z Z Z Z Z Z Z Z Z

>  <atom.prop.IS_HEAVY_ATOM>  (2104) 
1 0 0 0 1 1 1 1 0 0 0 1 1 0 1 0 1 0 1 0 1 0

>  <DIFUSE_FUNC_ATOM>  (2104) 
atom 6   atom 7   

>  <FINAL_SINGLE_POINT_ENERGY>  (2104) 
0

>  <NONCOV_INTER_ENERGY_QM>  (2104) 
0

>  <FF_Energy>  (2104) 
5.5

>  <QM_Energy>  (2104) 
0.17

>  <source>  (2104) 
ACET_MBZ_02

>  <Index>  (2104) 
15862

$$$$
ACET-pdb3zlc-B-GLU-176:MBZ-pdb3zlc-B-PHE-280
     RDKit          3D

 22 21  0  0  0  0  0  0  0  0999 V2000
    4.6181    3.5098   -0.6100 C   0  0  0  0  0  0  0  0  0  0  0  0
    4.6359    2.9681    0.2005 H   0  0  0  0  0  0  0  0  0  0  0  0
    3.9423    4.2124   -0.5962 H   0  0  0  0  0  0  0  0  0  0  0  0
    5.5982    3.9665   -0.7471 H   0  0  0  0  0  0  0  0  0  0  0  0
    4.2834    2.5798   -1.7724 C   0  0  0  0  0  0  0  0  0  0  0  0
    4.8055    2.8015   -2.8842 O   0  0  0  0  0  1  0  0  0  0  0  0
    3.5126    1.6247   -1.5835 O   0  0  0  0  0  0  0  0  0  0  0  0
    0.0113    2.9073   -0.0049 C   0  0  0  0  0  0  0  0  0  0  0  0
   -0.7143    3.2139   -0.6019 H   0  0  0  0  0  0  0  0  0  0  0  0
    0.8956    3.2049   -0.3324 H   0  0  0  0  0  0  0  0  0  0  0  0
   -0.1502    3.3567    0.9749 H   0  0  0  0  0  0  0  0  0  0  0  0
    0.0011    1.4021    0.0036 C   0  0  0  0  0  0  0  0  0  0  0  0
   -1.1894    0.7008   -0.0011 C   0  0  0  0  0  0  0  0  0  0  0  0
   -2.0591    1.1857   -0.0066 H   0  0  0  0  0  0  0  0  0  0  0  0
   -1.1972   -0.6979   -0.0000 C   0  0  0  0  0  0  0  0  0  0  0  0
   -2.0791   -1.1831    0.0028 H   0  0  0  0  0  0  0  0  0  0  0  0
   -0.0045   -1.3944   -0.0014 C   0  0  0  0  0  0  0  0  0  0  0  0
   -0.0082   -2.3936   -0.0039 H   0  0  0  0  0  0  0  0  0  0  0  0
    1.1972   -0.7015    0.0000 C   0  0  0  0  0  0  0  0  0  0  0  0
    2.0771   -1.1986    0.0035 H   0  0  0  0  0  0  0  0  0  0  0  0
    1.1928    0.6908   -0.0012 C   0  0  0  0  0  0  0  0  0  0  0  0
    2.0641    1.1848   -0.0068 H   0  0  0  0  0  0  0  0  0  0  0  0
  1  5  1  0
  5  6  1  0
  5  7  2  0
  1  2  1  0
  1  3  1  0
  1  4  1  0
  8 12  1  0
 12 13  2  0
 13 15  1  0
 15 17  2  0
 17 19  1  0
 19 21  2  0
 21 12  1  0
  8  9  1  0
  8 10  1  0
  8 11  1  0
 13 14  1  0
 15 16  1  0
 17 18  1  0
 19 20  1  0
 21 22  1  0
M  CHG  1   6  -1
M  END
>  <PDB_ID>  (2105) 
pdb3zlc

>  <RESIDUE_NAME>  (2105) 
GLU   PHE

>  <FRAG_NAME>  (2105) 
ACET   MBZ

>  <FRAG_ATOM_NUM>  (2105) 
fragi: 7  fragj: 15

>  <atom.prop.CHAIN_ID>  (2105) 
A A A A A A A Z Z Z Z Z Z Z Z Z Z Z Z Z Z Z

>  <atom.prop.IS_HEAVY_ATOM>  (2105) 
1 0 0 0 1 1 1 1 0 0 0 1 1 0 1 0 1 0 1 0 1 0

>  <DIFUSE_FUNC_ATOM>  (2105) 
atom 6   atom 7   

>  <FINAL_SINGLE_POINT_ENERGY>  (2105) 
0

>  <NONCOV_INTER_ENERGY_QM>  (2105) 
0

>  <FF_Energy>  (2105) 
0.94

>  <QM_Energy>  (2105) 
-5.3

>  <source>  (2105) 
ACET_MBZ_02

>  <Index>  (2105) 
15914

$$$$
ACET-pdb4ypj-A-ASP-620:MBZ-pdb4ypj-A-PHE-624
     RDKit          3D

 22 21  0  0  0  0  0  0  0  0999 V2000
    3.0375    5.1349   -3.4543 C   0  0  0  0  0  0  0  0  0  0  0  0
    3.8832    4.8681   -3.9037 H   0  0  0  0  0  0  0  0  0  0  0  0
    3.2135    5.8359   -2.7722 H   0  0  0  0  0  0  0  0  0  0  0  0
    2.3719    5.5553   -4.2081 H   0  0  0  0  0  0  0  0  0  0  0  0
    2.4606    3.8979   -2.7374 C   0  0  0  0  0  0  0  0  0  0  0  0
    1.4304    3.2500   -3.1682 O   0  0  0  0  0  1  0  0  0  0  0  0
    3.1015    3.5775   -1.6971 O   0  0  0  0  0  0  0  0  0  0  0  0
   -0.0044    2.8804   -0.0320 C   0  0  0  0  0  0  0  0  0  0  0  0
    0.8202    3.1808   -0.4832 H   0  0  0  0  0  0  0  0  0  0  0  0
   -0.0511    3.2103    0.8976 H   0  0  0  0  0  0  0  0  0  0  0  0
   -0.8551    3.2881   -0.5781 H   0  0  0  0  0  0  0  0  0  0  0  0
    0.0035    1.3866    0.0058 C   0  0  0  0  0  0  0  0  0  0  0  0
   -1.1793    0.6815    0.0168 C   0  0  0  0  0  0  0  0  0  0  0  0
   -2.0518    1.1660    0.0356 H   0  0  0  0  0  0  0  0  0  0  0  0
   -1.1757   -0.7017    0.0000 C   0  0  0  0  0  0  0  0  0  0  0  0
   -2.0640   -1.1926    0.0112 H   0  0  0  0  0  0  0  0  0  0  0  0
   -0.0029   -1.3782   -0.0288 C   0  0  0  0  0  0  0  0  0  0  0  0
    0.0072   -2.3807   -0.0710 H   0  0  0  0  0  0  0  0  0  0  0  0
    1.1757   -0.6786   -0.0000 C   0  0  0  0  0  0  0  0  0  0  0  0
    2.0672   -1.1822    0.0186 H   0  0  0  0  0  0  0  0  0  0  0  0
    1.1787    0.6903    0.0062 C   0  0  0  0  0  0  0  0  0  0  0  0
    2.0537    1.1855    0.0108 H   0  0  0  0  0  0  0  0  0  0  0  0
  1  5  1  0
  5  6  1  0
  5  7  2  0
  1  2  1  0
  1  3  1  0
  1  4  1  0
  8 12  1  0
 12 13  2  0
 13 15  1  0
 15 17  2  0
 17 19  1  0
 19 21  2  0
 21 12  1  0
  8  9  1  0
  8 10  1  0
  8 11  1  0
 13 14  1  0
 15 16  1  0
 17 18  1  0
 19 20  1  0
 21 22  1  0
M  CHG  1   6  -1
M  END
>  <PDB_ID>  (2106) 
pdb4ypj

>  <RESIDUE_NAME>  (2106) 
ASP   PHE

>  <FRAG_NAME>  (2106) 
ACET   MBZ

>  <FRAG_ATOM_NUM>  (2106) 
fragi: 7  fragj: 15

>  <atom.prop.CHAIN_ID>  (2106) 
A A A A A A A Z Z Z Z Z Z Z Z Z Z Z Z Z Z Z

>  <atom.prop.IS_HEAVY_ATOM>  (2106) 
1 0 0 0 1 1 1 1 0 0 0 1 1 0 1 0 1 0 1 0 1 0

>  <DIFUSE_FUNC_ATOM>  (2106) 
atom 6   atom 7   

>  <FINAL_SINGLE_POINT_ENERGY>  (2106) 
0

>  <NONCOV_INTER_ENERGY_QM>  (2106) 
0

>  <FF_Energy>  (2106) 
-0.73

>  <QM_Energy>  (2106) 
-6.86

>  <source>  (2106) 
ACET_MBZ_02

>  <Index>  (2106) 
15943

$$$$
ACET-pdb4ypj-B-ASP-620:MBZ-pdb4ypj-B-PHE-624
     RDKit          3D

 22 21  0  0  0  0  0  0  0  0999 V2000
    3.0744    5.2376   -3.3644 C   0  0  0  0  0  0  0  0  0  0  0  0
    3.9082    4.9601   -3.8334 H   0  0  0  0  0  0  0  0  0  0  0  0
    3.2833    5.9272   -2.6767 H   0  0  0  0  0  0  0  0  0  0  0  0
    2.4122    5.6915   -4.1017 H   0  0  0  0  0  0  0  0  0  0  0  0
    2.4884    4.0014   -2.6488 C   0  0  0  0  0  0  0  0  0  0  0  0
    1.4434    3.3569   -3.0760 O   0  0  0  0  0  1  0  0  0  0  0  0
    3.1420    3.6552   -1.6288 O   0  0  0  0  0  0  0  0  0  0  0  0
    0.0105    2.9023    0.0276 C   0  0  0  0  0  0  0  0  0  0  0  0
    0.8284    3.2053   -0.4378 H   0  0  0  0  0  0  0  0  0  0  0  0
    0.0101    3.1852    0.9756 H   0  0  0  0  0  0  0  0  0  0  0  0
   -0.8509    3.3532   -0.4652 H   0  0  0  0  0  0  0  0  0  0  0  0
    0.0003    1.3949    0.0002 C   0  0  0  0  0  0  0  0  0  0  0  0
   -1.1818    0.6896   -0.0112 C   0  0  0  0  0  0  0  0  0  0  0  0
   -2.0551    1.1794   -0.0297 H   0  0  0  0  0  0  0  0  0  0  0  0
   -1.1878   -0.6918   -0.0000 C   0  0  0  0  0  0  0  0  0  0  0  0
   -2.0745   -1.1816    0.0100 H   0  0  0  0  0  0  0  0  0  0  0  0
   -0.0071   -1.3873   -0.0006 C   0  0  0  0  0  0  0  0  0  0  0  0
   -0.0101   -2.3881   -0.0021 H   0  0  0  0  0  0  0  0  0  0  0  0
    1.1878   -0.6964   -0.0000 C   0  0  0  0  0  0  0  0  0  0  0  0
    2.0716   -1.1958   -0.0063 H   0  0  0  0  0  0  0  0  0  0  0  0
    1.1885    0.6909    0.0116 C   0  0  0  0  0  0  0  0  0  0  0  0
    2.0597    1.1830    0.0274 H   0  0  0  0  0  0  0  0  0  0  0  0
  1  5  1  0
  5  6  1  0
  5  7  2  0
  1  2  1  0
  1  3  1  0
  1  4  1  0
  8 12  1  0
 12 13  2  0
 13 15  1  0
 15 17  2  0
 17 19  1  0
 19 21  2  0
 21 12  1  0
  8  9  1  0
  8 10  1  0
  8 11  1  0
 13 14  1  0
 15 16  1  0
 17 18  1  0
 19 20  1  0
 21 22  1  0
M  CHG  1   6  -1
M  END
>  <PDB_ID>  (2107) 
pdb4ypj

>  <RESIDUE_NAME>  (2107) 
ASP   PHE

>  <FRAG_NAME>  (2107) 
ACET   MBZ

>  <FRAG_ATOM_NUM>  (2107) 
fragi: 7  fragj: 15

>  <atom.prop.CHAIN_ID>  (2107) 
A A A A A A A Z Z Z Z Z Z Z Z Z Z Z Z Z Z Z

>  <atom.prop.IS_HEAVY_ATOM>  (2107) 
1 0 0 0 1 1 1 1 0 0 0 1 1 0 1 0 1 0 1 0 1 0

>  <DIFUSE_FUNC_ATOM>  (2107) 
atom 6   atom 7   

>  <FINAL_SINGLE_POINT_ENERGY>  (2107) 
0

>  <NONCOV_INTER_ENERGY_QM>  (2107) 
0

>  <FF_Energy>  (2107) 
-0.74

>  <QM_Energy>  (2107) 
-6.83

>  <source>  (2107) 
ACET_MBZ_02

>  <Index>  (2107) 
15948

$$$$
ACET-pdb4ypj-B-ASP-744:MBZ-pdb4ypj-B-PHE-757
     RDKit          3D

 22 21  0  0  0  0  0  0  0  0999 V2000
   -2.4769    5.6137   -2.1483 C   0  0  0  0  0  0  0  0  0  0  0  0
   -2.6612    5.5945   -3.1287 H   0  0  0  0  0  0  0  0  0  0  0  0
   -1.4950    5.6649   -1.9883 H   0  0  0  0  0  0  0  0  0  0  0  0
   -2.9303    6.5173   -1.7408 H   0  0  0  0  0  0  0  0  0  0  0  0
   -3.0029    4.3158   -1.5307 C   0  0  0  0  0  0  0  0  0  0  0  0
   -3.4571    4.2696   -0.3592 O   0  0  0  0  0  1  0  0  0  0  0  0
   -2.9409    3.3116   -2.2665 O   0  0  0  0  0  0  0  0  0  0  0  0
    0.0312    2.9011    0.0598 C   0  0  0  0  0  0  0  0  0  0  0  0
   -0.6484    3.2448   -0.5613 H   0  0  0  0  0  0  0  0  0  0  0  0
    0.9372    3.1997   -0.1751 H   0  0  0  0  0  0  0  0  0  0  0  0
   -0.1978    3.3009    1.0475 H   0  0  0  0  0  0  0  0  0  0  0  0
    0.0011    1.3895    0.0049 C   0  0  0  0  0  0  0  0  0  0  0  0
   -1.1977    0.7047    0.0037 C   0  0  0  0  0  0  0  0  0  0  0  0
   -2.0559    1.2090    0.0043 H   0  0  0  0  0  0  0  0  0  0  0  0
   -1.1989   -0.6541   -0.0000 C   0  0  0  0  0  0  0  0  0  0  0  0
   -2.0790   -1.1652    0.0036 H   0  0  0  0  0  0  0  0  0  0  0  0
    0.0019   -1.3816   -0.0070 C   0  0  0  0  0  0  0  0  0  0  0  0
   -0.0406   -2.3818   -0.0180 H   0  0  0  0  0  0  0  0  0  0  0  0
    1.1989   -0.7234    0.0000 C   0  0  0  0  0  0  0  0  0  0  0  0
    2.0746   -1.2205    0.0081 H   0  0  0  0  0  0  0  0  0  0  0  0
    1.1946    0.6649   -0.0016 C   0  0  0  0  0  0  0  0  0  0  0  0
    2.0669    1.1614   -0.0086 H   0  0  0  0  0  0  0  0  0  0  0  0
  1  5  1  0
  5  6  1  0
  5  7  2  0
  1  2  1  0
  1  3  1  0
  1  4  1  0
  8 12  1  0
 12 13  2  0
 13 15  1  0
 15 17  2  0
 17 19  1  0
 19 21  2  0
 21 12  1  0
  8  9  1  0
  8 10  1  0
  8 11  1  0
 13 14  1  0
 15 16  1  0
 17 18  1  0
 19 20  1  0
 21 22  1  0
M  CHG  1   6  -1
M  END
>  <PDB_ID>  (2108) 
pdb4ypj

>  <RESIDUE_NAME>  (2108) 
ASP   PHE

>  <FRAG_NAME>  (2108) 
ACET   MBZ

>  <FRAG_ATOM_NUM>  (2108) 
fragi: 7  fragj: 15

>  <atom.prop.CHAIN_ID>  (2108) 
A A A A A A A Z Z Z Z Z Z Z Z Z Z Z Z Z Z Z

>  <atom.prop.IS_HEAVY_ATOM>  (2108) 
1 0 0 0 1 1 1 1 0 0 0 1 1 0 1 0 1 0 1 0 1 0

>  <DIFUSE_FUNC_ATOM>  (2108) 
atom 6   atom 7   

>  <FINAL_SINGLE_POINT_ENERGY>  (2108) 
0

>  <NONCOV_INTER_ENERGY_QM>  (2108) 
0

>  <FF_Energy>  (2108) 
-1.82

>  <QM_Energy>  (2108) 
-6.87

>  <source>  (2108) 
ACET_MBZ_02

>  <Index>  (2108) 
15949

$$$$
ACET-pdb3zmk-B-GLU-103:MBZ-pdb3zmk-B-PHE-108
     RDKit          3D

 22 21  0  0  0  0  0  0  0  0999 V2000
   -2.1688    5.8476   -3.1456 C   0  0  0  0  0  0  0  0  0  0  0  0
   -2.3522    6.0762   -2.2082 H   0  0  0  0  0  0  0  0  0  0  0  0
   -2.9826    5.8394   -3.6952 H   0  0  0  0  0  0  0  0  0  0  0  0
   -1.5035    6.6114   -3.5481 H   0  0  0  0  0  0  0  0  0  0  0  0
   -1.5781    4.4309   -3.1711 C   0  0  0  0  0  0  0  0  0  0  0  0
   -0.6038    4.1913   -3.9267 O   0  0  0  0  0  1  0  0  0  0  0  0
   -2.0984    3.5516   -2.4343 O   0  0  0  0  0  0  0  0  0  0  0  0
    0.0030    2.9112    0.0039 C   0  0  0  0  0  0  0  0  0  0  0  0
   -0.6809    3.2187   -0.6386 H   0  0  0  0  0  0  0  0  0  0  0  0
    0.9062    3.2164   -0.2551 H   0  0  0  0  0  0  0  0  0  0  0  0
   -0.2315    3.3454    0.9758 H   0  0  0  0  0  0  0  0  0  0  0  0
    0.0023    1.4052   -0.0026 C   0  0  0  0  0  0  0  0  0  0  0  0
   -1.1927    0.6997    0.0019 C   0  0  0  0  0  0  0  0  0  0  0  0
   -2.0613    1.1819    0.0056 H   0  0  0  0  0  0  0  0  0  0  0  0
   -1.1999   -0.7074    0.0000 C   0  0  0  0  0  0  0  0  0  0  0  0
   -2.0815   -1.1887   -0.0020 H   0  0  0  0  0  0  0  0  0  0  0  0
   -0.0061   -1.4003    0.0027 C   0  0  0  0  0  0  0  0  0  0  0  0
   -0.0001   -2.3971    0.0065 H   0  0  0  0  0  0  0  0  0  0  0  0
    1.1999   -0.6948   -0.0000 C   0  0  0  0  0  0  0  0  0  0  0  0
    2.0803   -1.1938    0.0009 H   0  0  0  0  0  0  0  0  0  0  0  0
    1.1966    0.6977   -0.0021 C   0  0  0  0  0  0  0  0  0  0  0  0
    2.0656    1.1922   -0.0041 H   0  0  0  0  0  0  0  0  0  0  0  0
  1  5  1  0
  5  6  1  0
  5  7  2  0
  1  2  1  0
  1  3  1  0
  1  4  1  0
  8 12  1  0
 12 13  2  0
 13 15  1  0
 15 17  2  0
 17 19  1  0
 19 21  2  0
 21 12  1  0
  8  9  1  0
  8 10  1  0
  8 11  1  0
 13 14  1  0
 15 16  1  0
 17 18  1  0
 19 20  1  0
 21 22  1  0
M  CHG  1   6  -1
M  END
>  <PDB_ID>  (2109) 
pdb3zmk

>  <RESIDUE_NAME>  (2109) 
GLU   PHE

>  <FRAG_NAME>  (2109) 
ACET   MBZ

>  <FRAG_ATOM_NUM>  (2109) 
fragi: 7  fragj: 15

>  <atom.prop.CHAIN_ID>  (2109) 
A A A A A A A Z Z Z Z Z Z Z Z Z Z Z Z Z Z Z

>  <atom.prop.IS_HEAVY_ATOM>  (2109) 
1 0 0 0 1 1 1 1 0 0 0 1 1 0 1 0 1 0 1 0 1 0

>  <DIFUSE_FUNC_ATOM>  (2109) 
atom 6   atom 7   

>  <FINAL_SINGLE_POINT_ENERGY>  (2109) 
0

>  <NONCOV_INTER_ENERGY_QM>  (2109) 
0

>  <FF_Energy>  (2109) 
0.49

>  <QM_Energy>  (2109) 
-5.5

>  <source>  (2109) 
ACET_MBZ_02

>  <Index>  (2109) 
15973

$$$$
ACET-pdb3zmk-B-GLU-116:MBZ-pdb3zmk-B-PHE-120
     RDKit          3D

 22 21  0  0  0  0  0  0  0  0999 V2000
    4.3225    1.5753    0.5128 C   0  0  0  0  0  0  0  0  0  0  0  0
    3.8499    2.3153    0.9580 H   0  0  0  0  0  0  0  0  0  0  0  0
    3.7011    0.9563    0.0667 H   0  0  0  0  0  0  0  0  0  0  0  0
    4.9850    1.9989   -0.2419 H   0  0  0  0  0  0  0  0  0  0  0  0
    5.0581    0.7896    1.5866 C   0  0  0  0  0  0  0  0  0  0  0  0
    6.2480    0.4647    1.3919 O   0  0  0  0  0  1  0  0  0  0  0  0
    4.4419    0.4914    2.6298 O   0  0  0  0  0  0  0  0  0  0  0  0
    0.0077    2.9094    0.0066 C   0  0  0  0  0  0  0  0  0  0  0  0
    0.9474    3.2102   -0.0258 H   0  0  0  0  0  0  0  0  0  0  0  0
   -0.4423    3.2112    0.8315 H   0  0  0  0  0  0  0  0  0  0  0  0
   -0.5140    3.3558   -0.8399 H   0  0  0  0  0  0  0  0  0  0  0  0
    0.0024    1.3980    0.0003 C   0  0  0  0  0  0  0  0  0  0  0  0
   -1.1932    0.6925   -0.0020 C   0  0  0  0  0  0  0  0  0  0  0  0
   -2.0595    1.1836   -0.0065 H   0  0  0  0  0  0  0  0  0  0  0  0
   -1.1972   -0.6959   -0.0000 C   0  0  0  0  0  0  0  0  0  0  0  0
   -2.0741   -1.1896    0.0030 H   0  0  0  0  0  0  0  0  0  0  0  0
    0.0009   -1.3881   -0.0007 C   0  0  0  0  0  0  0  0  0  0  0  0
   -0.0020   -2.3880   -0.0023 H   0  0  0  0  0  0  0  0  0  0  0  0
    1.1972   -0.6931    0.0000 C   0  0  0  0  0  0  0  0  0  0  0  0
    2.0794   -1.1929    0.0001 H   0  0  0  0  0  0  0  0  0  0  0  0
    1.1900    0.6866    0.0025 C   0  0  0  0  0  0  0  0  0  0  0  0
    2.0628    1.1858    0.0049 H   0  0  0  0  0  0  0  0  0  0  0  0
  1  5  1  0
  5  6  1  0
  5  7  2  0
  1  2  1  0
  1  3  1  0
  1  4  1  0
  8 12  1  0
 12 13  2  0
 13 15  1  0
 15 17  2  0
 17 19  1  0
 19 21  2  0
 21 12  1  0
  8  9  1  0
  8 10  1  0
  8 11  1  0
 13 14  1  0
 15 16  1  0
 17 18  1  0
 19 20  1  0
 21 22  1  0
M  CHG  1   6  -1
M  END
>  <PDB_ID>  (2110) 
pdb3zmk

>  <RESIDUE_NAME>  (2110) 
GLU   PHE

>  <FRAG_NAME>  (2110) 
ACET   MBZ

>  <FRAG_ATOM_NUM>  (2110) 
fragi: 7  fragj: 15

>  <atom.prop.CHAIN_ID>  (2110) 
A A A A A A A Z Z Z Z Z Z Z Z Z Z Z Z Z Z Z

>  <atom.prop.IS_HEAVY_ATOM>  (2110) 
1 0 0 0 1 1 1 1 0 0 0 1 1 0 1 0 1 0 1 0 1 0

>  <DIFUSE_FUNC_ATOM>  (2110) 
atom 6   atom 7   

>  <FINAL_SINGLE_POINT_ENERGY>  (2110) 
0

>  <NONCOV_INTER_ENERGY_QM>  (2110) 
0

>  <FF_Energy>  (2110) 
11.27

>  <QM_Energy>  (2110) 
0.61

>  <source>  (2110) 
ACET_MBZ_02

>  <Index>  (2110) 
15974

$$$$
ACET-pdb3zmk-C-ASP-159:MBZ-pdb3zmk-C-PHE-149
     RDKit          3D

 22 21  0  0  0  0  0  0  0  0999 V2000
   -4.2628    3.0186    2.6098 C   0  0  0  0  0  0  0  0  0  0  0  0
   -4.0476    2.5817    3.4755 H   0  0  0  0  0  0  0  0  0  0  0  0
   -4.7518    2.3930    2.0144 H   0  0  0  0  0  0  0  0  0  0  0  0
   -4.9173    3.8653    2.8165 H   0  0  0  0  0  0  0  0  0  0  0  0
   -2.9839    3.4393    1.9393 C   0  0  0  0  0  0  0  0  0  0  0  0
   -3.0302    3.7362    0.7252 O   0  0  0  0  0  1  0  0  0  0  0  0
   -1.9479    3.5023    2.6283 O   0  0  0  0  0  0  0  0  0  0  0  0
    0.0008    2.9194   -0.0038 C   0  0  0  0  0  0  0  0  0  0  0  0
    0.8939    3.2208    0.2882 H   0  0  0  0  0  0  0  0  0  0  0  0
   -0.7070    3.2246    0.6116 H   0  0  0  0  0  0  0  0  0  0  0  0
   -0.1964    3.3537   -0.9839 H   0  0  0  0  0  0  0  0  0  0  0  0
   -0.0020    1.4063    0.0015 C   0  0  0  0  0  0  0  0  0  0  0  0
   -1.1938    0.7011    0.0020 C   0  0  0  0  0  0  0  0  0  0  0  0
   -2.0629    1.1863    0.0025 H   0  0  0  0  0  0  0  0  0  0  0  0
   -1.1952   -0.6940    0.0000 C   0  0  0  0  0  0  0  0  0  0  0  0
   -2.0749   -1.1857   -0.0019 H   0  0  0  0  0  0  0  0  0  0  0  0
    0.0029   -1.3968    0.0024 C   0  0  0  0  0  0  0  0  0  0  0  0
   -0.0096   -2.3950    0.0053 H   0  0  0  0  0  0  0  0  0  0  0  0
    1.1952   -0.7069   -0.0000 C   0  0  0  0  0  0  0  0  0  0  0  0
    2.0803   -1.1993    0.0042 H   0  0  0  0  0  0  0  0  0  0  0  0
    1.1928    0.6903   -0.0059 C   0  0  0  0  0  0  0  0  0  0  0  0
    2.0635    1.1819   -0.0161 H   0  0  0  0  0  0  0  0  0  0  0  0
  1  5  1  0
  5  6  1  0
  5  7  2  0
  1  2  1  0
  1  3  1  0
  1  4  1  0
  8 12  1  0
 12 13  2  0
 13 15  1  0
 15 17  2  0
 17 19  1  0
 19 21  2  0
 21 12  1  0
  8  9  1  0
  8 10  1  0
  8 11  1  0
 13 14  1  0
 15 16  1  0
 17 18  1  0
 19 20  1  0
 21 22  1  0
M  CHG  1   6  -1
M  END
>  <PDB_ID>  (2111) 
pdb3zmk

>  <RESIDUE_NAME>  (2111) 
ASP   PHE

>  <FRAG_NAME>  (2111) 
ACET   MBZ

>  <FRAG_ATOM_NUM>  (2111) 
fragi: 7  fragj: 15

>  <atom.prop.CHAIN_ID>  (2111) 
A A A A A A A Z Z Z Z Z Z Z Z Z Z Z Z Z Z Z

>  <atom.prop.IS_HEAVY_ATOM>  (2111) 
1 0 0 0 1 1 1 1 0 0 0 1 1 0 1 0 1 0 1 0 1 0

>  <DIFUSE_FUNC_ATOM>  (2111) 
atom 6   atom 7   

>  <FINAL_SINGLE_POINT_ENERGY>  (2111) 
0

>  <NONCOV_INTER_ENERGY_QM>  (2111) 
0

>  <FF_Energy>  (2111) 
-0.34

>  <QM_Energy>  (2111) 
-8.29

>  <source>  (2111) 
ACET_MBZ_02

>  <Index>  (2111) 
15989

$$$$
ACET-pdb4yqz-A-GLU-205:MBZ-pdb4yqz-D-PHE-220
     RDKit          3D

 22 21  0  0  0  0  0  0  0  0999 V2000
    0.5053    5.9396   -3.3822 C   0  0  0  0  0  0  0  0  0  0  0  0
    0.2172    6.7787   -2.9577 H   0  0  0  0  0  0  0  0  0  0  0  0
    0.5332    6.0094   -4.3625 H   0  0  0  0  0  0  0  0  0  0  0  0
    1.5155    5.7227   -3.0351 H   0  0  0  0  0  0  0  0  0  0  0  0
   -0.5076    4.8630   -3.0218 C   0  0  0  0  0  0  0  0  0  0  0  0
   -0.1367    3.6790   -3.0062 O   0  0  0  0  0  1  0  0  0  0  0  0
   -1.6791    5.2060   -2.7641 O   0  0  0  0  0  0  0  0  0  0  0  0
   -0.0230    2.8982    0.0017 C   0  0  0  0  0  0  0  0  0  0  0  0
   -0.4421    3.2011   -0.8349 H   0  0  0  0  0  0  0  0  0  0  0  0
    0.9042    3.2167    0.0898 H   0  0  0  0  0  0  0  0  0  0  0  0
   -0.5977    3.3092    0.8317 H   0  0  0  0  0  0  0  0  0  0  0  0
   -0.0020    1.3929   -0.0046 C   0  0  0  0  0  0  0  0  0  0  0  0
   -1.1933    0.6820    0.0020 C   0  0  0  0  0  0  0  0  0  0  0  0
   -2.0621    1.1762    0.0072 H   0  0  0  0  0  0  0  0  0  0  0  0
   -1.1963   -0.6948   -0.0000 C   0  0  0  0  0  0  0  0  0  0  0  0
   -2.0688   -1.1963   -0.0037 H   0  0  0  0  0  0  0  0  0  0  0  0
    0.0079   -1.3845    0.0048 C   0  0  0  0  0  0  0  0  0  0  0  0
    0.0024   -2.3863    0.0114 H   0  0  0  0  0  0  0  0  0  0  0  0
    1.1963   -0.6917   -0.0000 C   0  0  0  0  0  0  0  0  0  0  0  0
    2.0832   -1.1844   -0.0008 H   0  0  0  0  0  0  0  0  0  0  0  0
    1.1874    0.6961   -0.0022 C   0  0  0  0  0  0  0  0  0  0  0  0
    2.0571    1.1924   -0.0027 H   0  0  0  0  0  0  0  0  0  0  0  0
  1  5  1  0
  5  6  1  0
  5  7  2  0
  1  2  1  0
  1  3  1  0
  1  4  1  0
  8 12  1  0
 12 13  2  0
 13 15  1  0
 15 17  2  0
 17 19  1  0
 19 21  2  0
 21 12  1  0
  8  9  1  0
  8 10  1  0
  8 11  1  0
 13 14  1  0
 15 16  1  0
 17 18  1  0
 19 20  1  0
 21 22  1  0
M  CHG  1   6  -1
M  END
>  <PDB_ID>  (2112) 
pdb4yqz

>  <RESIDUE_NAME>  (2112) 
GLU   PHE

>  <FRAG_NAME>  (2112) 
ACET   MBZ

>  <FRAG_ATOM_NUM>  (2112) 
fragi: 7  fragj: 15

>  <atom.prop.CHAIN_ID>  (2112) 
A A A A A A A Z Z Z Z Z Z Z Z Z Z Z Z Z Z Z

>  <atom.prop.IS_HEAVY_ATOM>  (2112) 
1 0 0 0 1 1 1 1 0 0 0 1 1 0 1 0 1 0 1 0 1 0

>  <DIFUSE_FUNC_ATOM>  (2112) 
atom 6   atom 7   

>  <FINAL_SINGLE_POINT_ENERGY>  (2112) 
0

>  <NONCOV_INTER_ENERGY_QM>  (2112) 
0

>  <FF_Energy>  (2112) 
1.51

>  <QM_Energy>  (2112) 
-5.18

>  <source>  (2112) 
ACET_MBZ_02

>  <Index>  (2112) 
15991

$$$$
ACET-pdb4yqz-B-GLU-205:MBZ-pdb4yqz-C-PHE-220
     RDKit          3D

 22 21  0  0  0  0  0  0  0  0999 V2000
    0.1665    5.5722   -3.6578 C   0  0  0  0  0  0  0  0  0  0  0  0
   -0.0844    6.4152   -3.2121 H   0  0  0  0  0  0  0  0  0  0  0  0
    0.1075    5.6470   -4.6395 H   0  0  0  0  0  0  0  0  0  0  0  0
    1.2054    5.3620   -3.4036 H   0  0  0  0  0  0  0  0  0  0  0  0
   -0.8168    4.4997   -3.2135 C   0  0  0  0  0  0  0  0  0  0  0  0
   -0.5162    3.2957   -3.3638 O   0  0  0  0  0  1  0  0  0  0  0  0
   -1.9128    4.8664   -2.7353 O   0  0  0  0  0  0  0  0  0  0  0  0
   -0.0205    2.9339   -0.0307 C   0  0  0  0  0  0  0  0  0  0  0  0
   -0.4662    3.2029   -0.8692 H   0  0  0  0  0  0  0  0  0  0  0  0
    0.9171    3.2407   -0.0017 H   0  0  0  0  0  0  0  0  0  0  0  0
   -0.5550    3.3889    0.8030 H   0  0  0  0  0  0  0  0  0  0  0  0
   -0.0016    1.4080    0.0059 C   0  0  0  0  0  0  0  0  0  0  0  0
   -1.1894    0.6897   -0.0063 C   0  0  0  0  0  0  0  0  0  0  0  0
   -2.0629    1.1755   -0.0208 H   0  0  0  0  0  0  0  0  0  0  0  0
   -1.1926   -0.7035    0.0000 C   0  0  0  0  0  0  0  0  0  0  0  0
   -2.0720   -1.1938    0.0045 H   0  0  0  0  0  0  0  0  0  0  0  0
    0.0023   -1.3946    0.0019 C   0  0  0  0  0  0  0  0  0  0  0  0
   -0.0028   -2.3970    0.0048 H   0  0  0  0  0  0  0  0  0  0  0  0
    1.1926   -0.7040   -0.0000 C   0  0  0  0  0  0  0  0  0  0  0  0
    2.0798   -1.1892    0.0013 H   0  0  0  0  0  0  0  0  0  0  0  0
    1.1887    0.7045   -0.0016 C   0  0  0  0  0  0  0  0  0  0  0  0
    2.0609    1.1899   -0.0087 H   0  0  0  0  0  0  0  0  0  0  0  0
  1  5  1  0
  5  6  1  0
  5  7  2  0
  1  2  1  0
  1  3  1  0
  1  4  1  0
  8 12  1  0
 12 13  2  0
 13 15  1  0
 15 17  2  0
 17 19  1  0
 19 21  2  0
 21 12  1  0
  8  9  1  0
  8 10  1  0
  8 11  1  0
 13 14  1  0
 15 16  1  0
 17 18  1  0
 19 20  1  0
 21 22  1  0
M  CHG  1   6  -1
M  END
>  <PDB_ID>  (2113) 
pdb4yqz

>  <RESIDUE_NAME>  (2113) 
GLU   PHE

>  <FRAG_NAME>  (2113) 
ACET   MBZ

>  <FRAG_ATOM_NUM>  (2113) 
fragi: 7  fragj: 15

>  <atom.prop.CHAIN_ID>  (2113) 
A A A A A A A Z Z Z Z Z Z Z Z Z Z Z Z Z Z Z

>  <atom.prop.IS_HEAVY_ATOM>  (2113) 
1 0 0 0 1 1 1 1 0 0 0 1 1 0 1 0 1 0 1 0 1 0

>  <DIFUSE_FUNC_ATOM>  (2113) 
atom 6   atom 7   

>  <FINAL_SINGLE_POINT_ENERGY>  (2113) 
0

>  <NONCOV_INTER_ENERGY_QM>  (2113) 
0

>  <FF_Energy>  (2113) 
0.27

>  <QM_Energy>  (2113) 
-5.19

>  <source>  (2113) 
ACET_MBZ_02

>  <Index>  (2113) 
15993

$$$$
ACET-pdb4yqz-D-GLU-205:MBZ-pdb4yqz-A-PHE-220
     RDKit          3D

 22 21  0  0  0  0  0  0  0  0999 V2000
    0.4855    5.5388   -3.6532 C   0  0  0  0  0  0  0  0  0  0  0  0
    0.2334    6.3941   -3.2257 H   0  0  0  0  0  0  0  0  0  0  0  0
    0.4262    5.5999   -4.6390 H   0  0  0  0  0  0  0  0  0  0  0  0
    1.5212    5.3242   -3.3896 H   0  0  0  0  0  0  0  0  0  0  0  0
   -0.5193    4.4864   -3.1997 C   0  0  0  0  0  0  0  0  0  0  0  0
   -0.2386    3.2735   -3.3001 O   0  0  0  0  0  1  0  0  0  0  0  0
   -1.6084    4.8924   -2.7486 O   0  0  0  0  0  0  0  0  0  0  0  0
    0.0007    2.9280   -0.0304 C   0  0  0  0  0  0  0  0  0  0  0  0
   -0.4318    3.2098   -0.8735 H   0  0  0  0  0  0  0  0  0  0  0  0
    0.9426    3.2250    0.0094 H   0  0  0  0  0  0  0  0  0  0  0  0
   -0.5366    3.3909    0.7973 H   0  0  0  0  0  0  0  0  0  0  0  0
   -0.0018    1.4088    0.0009 C   0  0  0  0  0  0  0  0  0  0  0  0
   -1.1955    0.7019   -0.0094 C   0  0  0  0  0  0  0  0  0  0  0  0
   -2.0646    1.1847   -0.0250 H   0  0  0  0  0  0  0  0  0  0  0  0
   -1.1986   -0.7002   -0.0000 C   0  0  0  0  0  0  0  0  0  0  0  0
   -2.0755   -1.1899    0.0004 H   0  0  0  0  0  0  0  0  0  0  0  0
    0.0055   -1.4014    0.0109 C   0  0  0  0  0  0  0  0  0  0  0  0
   -0.0028   -2.3975    0.0259 H   0  0  0  0  0  0  0  0  0  0  0  0
    1.1986   -0.7040    0.0000 C   0  0  0  0  0  0  0  0  0  0  0  0
    2.0853   -1.1941   -0.0047 H   0  0  0  0  0  0  0  0  0  0  0  0
    1.1918    0.6948   -0.0024 C   0  0  0  0  0  0  0  0  0  0  0  0
    2.0632    1.1875   -0.0068 H   0  0  0  0  0  0  0  0  0  0  0  0
  1  5  1  0
  5  6  1  0
  5  7  2  0
  1  2  1  0
  1  3  1  0
  1  4  1  0
  8 12  1  0
 12 13  2  0
 13 15  1  0
 15 17  2  0
 17 19  1  0
 19 21  2  0
 21 12  1  0
  8  9  1  0
  8 10  1  0
  8 11  1  0
 13 14  1  0
 15 16  1  0
 17 18  1  0
 19 20  1  0
 21 22  1  0
M  CHG  1   6  -1
M  END
>  <PDB_ID>  (2114) 
pdb4yqz

>  <RESIDUE_NAME>  (2114) 
GLU   PHE

>  <FRAG_NAME>  (2114) 
ACET   MBZ

>  <FRAG_ATOM_NUM>  (2114) 
fragi: 7  fragj: 15

>  <atom.prop.CHAIN_ID>  (2114) 
A A A A A A A Z Z Z Z Z Z Z Z Z Z Z Z Z Z Z

>  <atom.prop.IS_HEAVY_ATOM>  (2114) 
1 0 0 0 1 1 1 1 0 0 0 1 1 0 1 0 1 0 1 0 1 0

>  <DIFUSE_FUNC_ATOM>  (2114) 
atom 6   atom 7   

>  <FINAL_SINGLE_POINT_ENERGY>  (2114) 
0

>  <NONCOV_INTER_ENERGY_QM>  (2114) 
0

>  <FF_Energy>  (2114) 
0.64

>  <QM_Energy>  (2114) 
-5.37

>  <source>  (2114) 
ACET_MBZ_02

>  <Index>  (2114) 
16001

$$$$
ACET-pdb4yt3-A-GLU-18:MBZ-pdb4yt3-A-PHE-13
     RDKit          3D

 22 21  0  0  0  0  0  0  0  0999 V2000
   -0.4368    0.3102    3.8153 C   0  0  0  0  0  0  0  0  0  0  0  0
    0.0150   -0.3621    3.2452 H   0  0  0  0  0  0  0  0  0  0  0  0
   -0.5669   -0.0332    4.7344 H   0  0  0  0  0  0  0  0  0  0  0  0
    0.2084    1.1868    3.8732 H   0  0  0  0  0  0  0  0  0  0  0  0
   -1.7908    0.5803    3.2276 C   0  0  0  0  0  0  0  0  0  0  0  0
   -2.5714   -0.3962    3.0927 O   0  0  0  0  0  1  0  0  0  0  0  0
   -2.0414    1.7590    2.8886 O   0  0  0  0  0  0  0  0  0  0  0  0
    0.0618    2.9164    0.0182 C   0  0  0  0  0  0  0  0  0  0  0  0
    0.9201    3.1864   -0.3967 H   0  0  0  0  0  0  0  0  0  0  0  0
    0.0185    3.2052    0.9647 H   0  0  0  0  0  0  0  0  0  0  0  0
   -0.7468    3.4068   -0.5239 H   0  0  0  0  0  0  0  0  0  0  0  0
    0.0037    1.3992    0.0015 C   0  0  0  0  0  0  0  0  0  0  0  0
   -1.2097    0.6994   -0.0070 C   0  0  0  0  0  0  0  0  0  0  0  0
   -2.0672    1.1836   -0.0191 H   0  0  0  0  0  0  0  0  0  0  0  0
   -1.2082   -0.7094    0.0000 C   0  0  0  0  0  0  0  0  0  0  0  0
   -2.0711   -1.2056    0.0077 H   0  0  0  0  0  0  0  0  0  0  0  0
    0.0171   -1.3928   -0.0019 C   0  0  0  0  0  0  0  0  0  0  0  0
    0.0180   -2.3921   -0.0047 H   0  0  0  0  0  0  0  0  0  0  0  0
    1.2082   -0.6854   -0.0000 C   0  0  0  0  0  0  0  0  0  0  0  0
    2.0946   -1.1804   -0.0025 H   0  0  0  0  0  0  0  0  0  0  0  0
    1.1888    0.6891    0.0074 C   0  0  0  0  0  0  0  0  0  0  0  0
    2.0632    1.1962    0.0170 H   0  0  0  0  0  0  0  0  0  0  0  0
  1  5  1  0
  5  6  1  0
  5  7  2  0
  1  2  1  0
  1  3  1  0
  1  4  1  0
  8 12  1  0
 12 13  2  0
 13 15  1  0
 15 17  2  0
 17 19  1  0
 19 21  2  0
 21 12  1  0
  8  9  1  0
  8 10  1  0
  8 11  1  0
 13 14  1  0
 15 16  1  0
 17 18  1  0
 19 20  1  0
 21 22  1  0
M  CHG  1   6  -1
M  END
>  <PDB_ID>  (2115) 
pdb4yt3

>  <RESIDUE_NAME>  (2115) 
GLU   PHE

>  <FRAG_NAME>  (2115) 
ACET   MBZ

>  <FRAG_ATOM_NUM>  (2115) 
fragi: 7  fragj: 15

>  <atom.prop.CHAIN_ID>  (2115) 
A A A A A A A Z Z Z Z Z Z Z Z Z Z Z Z Z Z Z

>  <atom.prop.IS_HEAVY_ATOM>  (2115) 
1 0 0 0 1 1 1 1 0 0 0 1 1 0 1 0 1 0 1 0 1 0

>  <DIFUSE_FUNC_ATOM>  (2115) 
atom 6   atom 7   

>  <FINAL_SINGLE_POINT_ENERGY>  (2115) 
0

>  <NONCOV_INTER_ENERGY_QM>  (2115) 
0

>  <FF_Energy>  (2115) 
0.28

>  <QM_Energy>  (2115) 
-5.23

>  <source>  (2115) 
ACET_MBZ_02

>  <Index>  (2115) 
16064

$$$$
ACET-pdb3zok-E-GLU-215:MBZ-pdb3zok-E-PHE-211
     RDKit          3D

 22 21  0  0  0  0  0  0  0  0999 V2000
   -3.1295   -0.9106   -2.9274 C   0  0  0  0  0  0  0  0  0  0  0  0
   -2.8345   -1.8329   -3.1106 H   0  0  0  0  0  0  0  0  0  0  0  0
   -2.3668   -0.2979   -2.8082 H   0  0  0  0  0  0  0  0  0  0  0  0
   -3.7195   -0.5648   -3.7762 H   0  0  0  0  0  0  0  0  0  0  0  0
   -3.9126   -0.9234   -1.6502 C   0  0  0  0  0  0  0  0  0  0  0  0
   -4.4603    0.1109   -1.2603 O   0  0  0  0  0  1  0  0  0  0  0  0
   -3.9411   -1.9878   -1.0119 O   0  0  0  0  0  0  0  0  0  0  0  0
    0.0046    2.9006   -0.0329 C   0  0  0  0  0  0  0  0  0  0  0  0
    0.8678    3.2127    0.3323 H   0  0  0  0  0  0  0  0  0  0  0  0
   -0.7555    3.2184    0.5122 H   0  0  0  0  0  0  0  0  0  0  0  0
   -0.1049    3.3140   -1.0355 H   0  0  0  0  0  0  0  0  0  0  0  0
    0.0020    1.3997   -0.0018 C   0  0  0  0  0  0  0  0  0  0  0  0
   -1.1896    0.6943   -0.0025 C   0  0  0  0  0  0  0  0  0  0  0  0
   -2.0578    1.1835   -0.0063 H   0  0  0  0  0  0  0  0  0  0  0  0
   -1.1938   -0.6939   -0.0000 C   0  0  0  0  0  0  0  0  0  0  0  0
   -2.0790   -1.1833   -0.0102 H   0  0  0  0  0  0  0  0  0  0  0  0
   -0.0077   -1.3926    0.0181 C   0  0  0  0  0  0  0  0  0  0  0  0
   -0.0093   -2.3902    0.0434 H   0  0  0  0  0  0  0  0  0  0  0  0
    1.1938   -0.6965   -0.0000 C   0  0  0  0  0  0  0  0  0  0  0  0
    2.0751   -1.1998   -0.0015 H   0  0  0  0  0  0  0  0  0  0  0  0
    1.1954    0.6890   -0.0137 C   0  0  0  0  0  0  0  0  0  0  0  0
    2.0644    1.1835   -0.0333 H   0  0  0  0  0  0  0  0  0  0  0  0
  1  5  1  0
  5  6  1  0
  5  7  2  0
  1  2  1  0
  1  3  1  0
  1  4  1  0
  8 12  1  0
 12 13  2  0
 13 15  1  0
 15 17  2  0
 17 19  1  0
 19 21  2  0
 21 12  1  0
  8  9  1  0
  8 10  1  0
  8 11  1  0
 13 14  1  0
 15 16  1  0
 17 18  1  0
 19 20  1  0
 21 22  1  0
M  CHG  1   6  -1
M  END
>  <PDB_ID>  (2116) 
pdb3zok

>  <RESIDUE_NAME>  (2116) 
GLU   PHE

>  <FRAG_NAME>  (2116) 
ACET   MBZ

>  <FRAG_ATOM_NUM>  (2116) 
fragi: 7  fragj: 15

>  <atom.prop.CHAIN_ID>  (2116) 
A A A A A A A Z Z Z Z Z Z Z Z Z Z Z Z Z Z Z

>  <atom.prop.IS_HEAVY_ATOM>  (2116) 
1 0 0 0 1 1 1 1 0 0 0 1 1 0 1 0 1 0 1 0 1 0

>  <DIFUSE_FUNC_ATOM>  (2116) 
atom 6   atom 7   

>  <FINAL_SINGLE_POINT_ENERGY>  (2116) 
0

>  <NONCOV_INTER_ENERGY_QM>  (2116) 
0

>  <FF_Energy>  (2116) 
-0.8

>  <QM_Energy>  (2116) 
-7.1

>  <source>  (2116) 
ACET_MBZ_02

>  <Index>  (2116) 
16092

$$$$
ACET-pdb3zok-A-ASP-207:MBZ-pdb3zok-A-PHE-210
     RDKit          3D

 22 21  0  0  0  0  0  0  0  0999 V2000
    3.1543    4.4113   -0.3721 C   0  0  0  0  0  0  0  0  0  0  0  0
    4.0410    4.0125   -0.5727 H   0  0  0  0  0  0  0  0  0  0  0  0
    2.7262    3.9465    0.3929 H   0  0  0  0  0  0  0  0  0  0  0  0
    3.3109    5.4522   -0.0890 H   0  0  0  0  0  0  0  0  0  0  0  0
    2.2655    4.2671   -1.5919 C   0  0  0  0  0  0  0  0  0  0  0  0
    1.4413    5.1720   -1.8390 O   0  0  0  0  0  1  0  0  0  0  0  0
    2.3889    3.2509   -2.3063 O   0  0  0  0  0  0  0  0  0  0  0  0
    0.0502    2.9195   -0.0280 C   0  0  0  0  0  0  0  0  0  0  0  0
    0.3260    3.1876   -0.9433 H   0  0  0  0  0  0  0  0  0  0  0  0
    0.7218    3.2163    0.6403 H   0  0  0  0  0  0  0  0  0  0  0  0
   -0.8920    3.4183    0.1989 H   0  0  0  0  0  0  0  0  0  0  0  0
    0.0014    1.4068    0.0116 C   0  0  0  0  0  0  0  0  0  0  0  0
   -1.2092    0.6955   -0.0074 C   0  0  0  0  0  0  0  0  0  0  0  0
   -2.0680    1.1930   -0.0277 H   0  0  0  0  0  0  0  0  0  0  0  0
   -1.2086   -0.6861    0.0000 C   0  0  0  0  0  0  0  0  0  0  0  0
   -2.0819   -1.1892    0.0106 H   0  0  0  0  0  0  0  0  0  0  0  0
    0.0006   -1.3904   -0.0058 C   0  0  0  0  0  0  0  0  0  0  0  0
   -0.0156   -2.3909   -0.0141 H   0  0  0  0  0  0  0  0  0  0  0  0
    1.2086   -0.7078    0.0000 C   0  0  0  0  0  0  0  0  0  0  0  0
    2.0838   -1.2094    0.0044 H   0  0  0  0  0  0  0  0  0  0  0  0
    1.2073    0.6820    0.0016 C   0  0  0  0  0  0  0  0  0  0  0  0
    2.0728    1.1817   -0.0049 H   0  0  0  0  0  0  0  0  0  0  0  0
  1  5  1  0
  5  6  1  0
  5  7  2  0
  1  2  1  0
  1  3  1  0
  1  4  1  0
  8 12  1  0
 12 13  2  0
 13 15  1  0
 15 17  2  0
 17 19  1  0
 19 21  2  0
 21 12  1  0
  8  9  1  0
  8 10  1  0
  8 11  1  0
 13 14  1  0
 15 16  1  0
 17 18  1  0
 19 20  1  0
 21 22  1  0
M  CHG  1   6  -1
M  END
>  <PDB_ID>  (2117) 
pdb3zok

>  <RESIDUE_NAME>  (2117) 
ASP   PHE

>  <FRAG_NAME>  (2117) 
ACET   MBZ

>  <FRAG_ATOM_NUM>  (2117) 
fragi: 7  fragj: 15

>  <atom.prop.CHAIN_ID>  (2117) 
A A A A A A A Z Z Z Z Z Z Z Z Z Z Z Z Z Z Z

>  <atom.prop.IS_HEAVY_ATOM>  (2117) 
1 0 0 0 1 1 1 1 0 0 0 1 1 0 1 0 1 0 1 0 1 0

>  <DIFUSE_FUNC_ATOM>  (2117) 
atom 6   atom 7   

>  <FINAL_SINGLE_POINT_ENERGY>  (2117) 
0

>  <NONCOV_INTER_ENERGY_QM>  (2117) 
0

>  <FF_Energy>  (2117) 
3.88

>  <QM_Energy>  (2117) 
-5.44

>  <source>  (2117) 
ACET_MBZ_02

>  <Index>  (2117) 
16114

$$$$
ACET-pdb3zok-C-ASP-207:MBZ-pdb3zok-C-PHE-210
     RDKit          3D

 22 21  0  0  0  0  0  0  0  0999 V2000
    3.3453    4.3512   -0.8000 C   0  0  0  0  0  0  0  0  0  0  0  0
    4.1509    4.0377   -1.2932 H   0  0  0  0  0  0  0  0  0  0  0  0
    3.1443    3.7367   -0.0434 H   0  0  0  0  0  0  0  0  0  0  0  0
    3.5699    5.3329   -0.3830 H   0  0  0  0  0  0  0  0  0  0  0  0
    2.1772    4.3805   -1.7343 C   0  0  0  0  0  0  0  0  0  0  0  0
    1.3366    5.2723   -1.5942 O   0  0  0  0  0  1  0  0  0  0  0  0
    2.0958    3.5159   -2.6119 O   0  0  0  0  0  0  0  0  0  0  0  0
    0.0321    2.9053   -0.0305 C   0  0  0  0  0  0  0  0  0  0  0  0
    0.0493    3.1889   -0.9821 H   0  0  0  0  0  0  0  0  0  0  0  0
    0.8535    3.2073    0.4388 H   0  0  0  0  0  0  0  0  0  0  0  0
   -0.8183    3.3936    0.4451 H   0  0  0  0  0  0  0  0  0  0  0  0
    0.0032    1.4030    0.0053 C   0  0  0  0  0  0  0  0  0  0  0  0
   -1.1933    0.6875   -0.0018 C   0  0  0  0  0  0  0  0  0  0  0  0
   -2.0604    1.1790   -0.0094 H   0  0  0  0  0  0  0  0  0  0  0  0
   -1.1965   -0.6988    0.0000 C   0  0  0  0  0  0  0  0  0  0  0  0
   -2.0774   -1.1919   -0.0016 H   0  0  0  0  0  0  0  0  0  0  0  0
   -0.0050   -1.3917    0.0057 C   0  0  0  0  0  0  0  0  0  0  0  0
   -0.0035   -2.3907    0.0136 H   0  0  0  0  0  0  0  0  0  0  0  0
    1.1965   -0.6930   -0.0000 C   0  0  0  0  0  0  0  0  0  0  0  0
    2.0779   -1.1943    0.0036 H   0  0  0  0  0  0  0  0  0  0  0  0
    1.1951    0.6931   -0.0092 C   0  0  0  0  0  0  0  0  0  0  0  0
    2.0657    1.1884   -0.0272 H   0  0  0  0  0  0  0  0  0  0  0  0
  1  5  1  0
  5  6  1  0
  5  7  2  0
  1  2  1  0
  1  3  1  0
  1  4  1  0
  8 12  1  0
 12 13  2  0
 13 15  1  0
 15 17  2  0
 17 19  1  0
 19 21  2  0
 21 12  1  0
  8  9  1  0
  8 10  1  0
  8 11  1  0
 13 14  1  0
 15 16  1  0
 17 18  1  0
 19 20  1  0
 21 22  1  0
M  CHG  1   6  -1
M  END
>  <PDB_ID>  (2118) 
pdb3zok

>  <RESIDUE_NAME>  (2118) 
ASP   PHE

>  <FRAG_NAME>  (2118) 
ACET   MBZ

>  <FRAG_ATOM_NUM>  (2118) 
fragi: 7  fragj: 15

>  <atom.prop.CHAIN_ID>  (2118) 
A A A A A A A Z Z Z Z Z Z Z Z Z Z Z Z Z Z Z

>  <atom.prop.IS_HEAVY_ATOM>  (2118) 
1 0 0 0 1 1 1 1 0 0 0 1 1 0 1 0 1 0 1 0 1 0

>  <DIFUSE_FUNC_ATOM>  (2118) 
atom 6   atom 7   

>  <FINAL_SINGLE_POINT_ENERGY>  (2118) 
0

>  <NONCOV_INTER_ENERGY_QM>  (2118) 
0

>  <FF_Energy>  (2118) 
0.89

>  <QM_Energy>  (2118) 
-5.99

>  <source>  (2118) 
ACET_MBZ_02

>  <Index>  (2118) 
16117

$$$$
ACET-pdb4ywo-A-GLU-428:MBZ-pdb4ywo-A-PHE-423
     RDKit          3D

 22 21  0  0  0  0  0  0  0  0999 V2000
   -4.5538    3.9867    2.2634 C   0  0  0  0  0  0  0  0  0  0  0  0
   -4.1443    4.8734    2.1142 H   0  0  0  0  0  0  0  0  0  0  0  0
   -4.4895    3.7159    3.2115 H   0  0  0  0  0  0  0  0  0  0  0  0
   -5.5886    3.9726    1.9210 H   0  0  0  0  0  0  0  0  0  0  0  0
   -3.7035    2.9983    1.4889 C   0  0  0  0  0  0  0  0  0  0  0  0
   -3.4412    3.1943    0.2783 O   0  0  0  0  0  1  0  0  0  0  0  0
   -3.2077    2.0394    2.0797 O   0  0  0  0  0  0  0  0  0  0  0  0
    0.0970    2.8630   -0.0095 C   0  0  0  0  0  0  0  0  0  0  0  0
   -0.6126    3.2079   -0.5913 H   0  0  0  0  0  0  0  0  0  0  0  0
    0.9925    3.1354   -0.3016 H   0  0  0  0  0  0  0  0  0  0  0  0
   -0.0617    3.2963    0.9781 H   0  0  0  0  0  0  0  0  0  0  0  0
    0.0262    1.3767    0.0121 C   0  0  0  0  0  0  0  0  0  0  0  0
   -1.1794    0.6950   -0.0130 C   0  0  0  0  0  0  0  0  0  0  0  0
   -2.0359    1.1810   -0.0411 H   0  0  0  0  0  0  0  0  0  0  0  0
   -1.1761   -0.7022   -0.0000 C   0  0  0  0  0  0  0  0  0  0  0  0
   -2.0586   -1.1914    0.0210 H   0  0  0  0  0  0  0  0  0  0  0  0
    0.0137   -1.3903   -0.0137 C   0  0  0  0  0  0  0  0  0  0  0  0
    0.0095   -2.3900   -0.0339 H   0  0  0  0  0  0  0  0  0  0  0  0
    1.1761   -0.6910   -0.0000 C   0  0  0  0  0  0  0  0  0  0  0  0
    2.0778   -1.1533    0.0018 H   0  0  0  0  0  0  0  0  0  0  0  0
    1.1395    0.7118    0.0146 C   0  0  0  0  0  0  0  0  0  0  0  0
    2.0484    1.1854    0.0264 H   0  0  0  0  0  0  0  0  0  0  0  0
  1  5  1  0
  5  6  1  0
  5  7  2  0
  1  2  1  0
  1  3  1  0
  1  4  1  0
  8 12  1  0
 12 13  2  0
 13 15  1  0
 15 17  2  0
 17 19  1  0
 19 21  2  0
 21 12  1  0
  8  9  1  0
  8 10  1  0
  8 11  1  0
 13 14  1  0
 15 16  1  0
 17 18  1  0
 19 20  1  0
 21 22  1  0
M  CHG  1   6  -1
M  END
>  <PDB_ID>  (2119) 
pdb4ywo

>  <RESIDUE_NAME>  (2119) 
GLU   PHE

>  <FRAG_NAME>  (2119) 
ACET   MBZ

>  <FRAG_ATOM_NUM>  (2119) 
fragi: 7  fragj: 15

>  <atom.prop.CHAIN_ID>  (2119) 
A A A A A A A Z Z Z Z Z Z Z Z Z Z Z Z Z Z Z

>  <atom.prop.IS_HEAVY_ATOM>  (2119) 
1 0 0 0 1 1 1 1 0 0 0 1 1 0 1 0 1 0 1 0 1 0

>  <DIFUSE_FUNC_ATOM>  (2119) 
atom 6   atom 7   

>  <FINAL_SINGLE_POINT_ENERGY>  (2119) 
0

>  <NONCOV_INTER_ENERGY_QM>  (2119) 
0

>  <FF_Energy>  (2119) 
-1.49

>  <QM_Energy>  (2119) 
-8.27

>  <source>  (2119) 
ACET_MBZ_02

>  <Index>  (2119) 
16216

$$$$
ACET-pdb4yyf-A-ASP-126:MBZ-pdb4yyf-A-PHE-177
     RDKit          3D

 22 21  0  0  0  0  0  0  0  0999 V2000
    4.8159    4.6474   -0.0089 C   0  0  0  0  0  0  0  0  0  0  0  0
    5.7274    4.2542   -0.0937 H   0  0  0  0  0  0  0  0  0  0  0  0
    4.8792    5.6302    0.1378 H   0  0  0  0  0  0  0  0  0  0  0  0
    4.2886    4.4800   -0.9481 H   0  0  0  0  0  0  0  0  0  0  0  0
    4.1255    4.0195    1.1909 C   0  0  0  0  0  0  0  0  0  0  0  0
    2.9523    3.6006    1.0770 O   0  0  0  0  0  1  0  0  0  0  0  0
    4.7635    3.9597    2.2698 O   0  0  0  0  0  0  0  0  0  0  0  0
    0.0016    2.9205    0.0006 C   0  0  0  0  0  0  0  0  0  0  0  0
    0.9233    3.2238   -0.1790 H   0  0  0  0  0  0  0  0  0  0  0  0
   -0.3155    3.2242    0.8847 H   0  0  0  0  0  0  0  0  0  0  0  0
   -0.6514    3.3500   -0.7593 H   0  0  0  0  0  0  0  0  0  0  0  0
    0.0055    1.4112    0.0061 C   0  0  0  0  0  0  0  0  0  0  0  0
   -1.1965    0.7028   -0.0106 C   0  0  0  0  0  0  0  0  0  0  0  0
   -2.0617    1.1850   -0.0308 H   0  0  0  0  0  0  0  0  0  0  0  0
   -1.2037   -0.7100   -0.0000 C   0  0  0  0  0  0  0  0  0  0  0  0
   -2.0847   -1.1888    0.0042 H   0  0  0  0  0  0  0  0  0  0  0  0
   -0.0089   -1.4027    0.0066 C   0  0  0  0  0  0  0  0  0  0  0  0
   -0.0056   -2.4018    0.0159 H   0  0  0  0  0  0  0  0  0  0  0  0
    1.2037   -0.7041    0.0000 C   0  0  0  0  0  0  0  0  0  0  0  0
    2.0801   -1.1988   -0.0019 H   0  0  0  0  0  0  0  0  0  0  0  0
    1.1999    0.7029   -0.0022 C   0  0  0  0  0  0  0  0  0  0  0  0
    2.0709    1.1897   -0.0108 H   0  0  0  0  0  0  0  0  0  0  0  0
  1  5  1  0
  5  6  1  0
  5  7  2  0
  1  2  1  0
  1  3  1  0
  1  4  1  0
  8 12  1  0
 12 13  2  0
 13 15  1  0
 15 17  2  0
 17 19  1  0
 19 21  2  0
 21 12  1  0
  8  9  1  0
  8 10  1  0
  8 11  1  0
 13 14  1  0
 15 16  1  0
 17 18  1  0
 19 20  1  0
 21 22  1  0
M  CHG  1   6  -1
M  END
>  <PDB_ID>  (2120) 
pdb4yyf

>  <RESIDUE_NAME>  (2120) 
ASP   PHE

>  <FRAG_NAME>  (2120) 
ACET   MBZ

>  <FRAG_ATOM_NUM>  (2120) 
fragi: 7  fragj: 15

>  <atom.prop.CHAIN_ID>  (2120) 
A A A A A A A Z Z Z Z Z Z Z Z Z Z Z Z Z Z Z

>  <atom.prop.IS_HEAVY_ATOM>  (2120) 
1 0 0 0 1 1 1 1 0 0 0 1 1 0 1 0 1 0 1 0 1 0

>  <DIFUSE_FUNC_ATOM>  (2120) 
atom 6   atom 7   

>  <FINAL_SINGLE_POINT_ENERGY>  (2120) 
0

>  <NONCOV_INTER_ENERGY_QM>  (2120) 
0

>  <FF_Energy>  (2120) 
-1.11

>  <QM_Energy>  (2120) 
-6.76

>  <source>  (2120) 
ACET_MBZ_02

>  <Index>  (2120) 
16348

$$$$
ACET-pdb4yt9-A-GLU-454:MBZ-pdb4yt9-A-PHE-407
     RDKit          3D

 22 21  0  0  0  0  0  0  0  0999 V2000
   -2.2246   -0.2384   -3.5115 C   0  0  0  0  0  0  0  0  0  0  0  0
   -3.0075   -0.8307   -3.3571 H   0  0  0  0  0  0  0  0  0  0  0  0
   -1.4599   -0.5203   -2.9427 H   0  0  0  0  0  0  0  0  0  0  0  0
   -1.9264   -0.3361   -4.5553 H   0  0  0  0  0  0  0  0  0  0  0  0
   -2.6185    1.1553   -3.0842 C   0  0  0  0  0  0  0  0  0  0  0  0
   -3.7486    1.3212   -2.5711 O   0  0  0  0  0  1  0  0  0  0  0  0
   -1.7609    2.0626   -3.1677 O   0  0  0  0  0  0  0  0  0  0  0  0
   -0.0007    2.9161   -0.0715 C   0  0  0  0  0  0  0  0  0  0  0  0
   -0.7527    3.2099   -0.6259 H   0  0  0  0  0  0  0  0  0  0  0  0
    0.8666    3.2144   -0.4171 H   0  0  0  0  0  0  0  0  0  0  0  0
   -0.1300    3.3420    0.9234 H   0  0  0  0  0  0  0  0  0  0  0  0
   -0.0009    1.4103   -0.0406 C   0  0  0  0  0  0  0  0  0  0  0  0
   -1.1939    0.6995   -0.0024 C   0  0  0  0  0  0  0  0  0  0  0  0
   -2.0631    1.1787    0.0217 H   0  0  0  0  0  0  0  0  0  0  0  0
   -1.1928   -0.7063    0.0000 C   0  0  0  0  0  0  0  0  0  0  0  0
   -2.0723   -1.1933   -0.0328 H   0  0  0  0  0  0  0  0  0  0  0  0
    0.0018   -1.3958    0.0486 C   0  0  0  0  0  0  0  0  0  0  0  0
   -0.0025   -2.3956    0.1184 H   0  0  0  0  0  0  0  0  0  0  0  0
    1.1928   -0.7061   -0.0000 C   0  0  0  0  0  0  0  0  0  0  0  0
    2.0783   -1.1960   -0.0309 H   0  0  0  0  0  0  0  0  0  0  0  0
    1.1930    0.6983   -0.0056 C   0  0  0  0  0  0  0  0  0  0  0  0
    2.0641    1.1851    0.0156 H   0  0  0  0  0  0  0  0  0  0  0  0
  1  5  1  0
  5  6  1  0
  5  7  2  0
  1  2  1  0
  1  3  1  0
  1  4  1  0
  8 12  1  0
 12 13  2  0
 13 15  1  0
 15 17  2  0
 17 19  1  0
 19 21  2  0
 21 12  1  0
  8  9  1  0
  8 10  1  0
  8 11  1  0
 13 14  1  0
 15 16  1  0
 17 18  1  0
 19 20  1  0
 21 22  1  0
M  CHG  1   6  -1
M  END
>  <PDB_ID>  (2121) 
pdb4yt9

>  <RESIDUE_NAME>  (2121) 
GLU   PHE

>  <FRAG_NAME>  (2121) 
ACET   MBZ

>  <FRAG_ATOM_NUM>  (2121) 
fragi: 7  fragj: 15

>  <atom.prop.CHAIN_ID>  (2121) 
A A A A A A A Z Z Z Z Z Z Z Z Z Z Z Z Z Z Z

>  <atom.prop.IS_HEAVY_ATOM>  (2121) 
1 0 0 0 1 1 1 1 0 0 0 1 1 0 1 0 1 0 1 0 1 0

>  <DIFUSE_FUNC_ATOM>  (2121) 
atom 6   atom 7   

>  <FINAL_SINGLE_POINT_ENERGY>  (2121) 
0

>  <NONCOV_INTER_ENERGY_QM>  (2121) 
0

>  <FF_Energy>  (2121) 
-0.7

>  <QM_Energy>  (2121) 
-5.92

>  <source>  (2121) 
ACET_MBZ_02

>  <Index>  (2121) 
16353

$$$$
ACET-pdb3zss-A-GLU-533:MBZ-pdb3zss-A-PHE-218
     RDKit          3D

 22 21  0  0  0  0  0  0  0  0999 V2000
   -0.8870    0.9029   -3.6796 C   0  0  0  0  0  0  0  0  0  0  0  0
   -0.2152    0.7818   -2.9712 H   0  0  0  0  0  0  0  0  0  0  0  0
   -0.5581    1.4736   -4.4095 H   0  0  0  0  0  0  0  0  0  0  0  0
   -1.1271   -0.0770   -4.0923 H   0  0  0  0  0  0  0  0  0  0  0  0
   -2.0899    1.6137   -3.0515 C   0  0  0  0  0  0  0  0  0  0  0  0
   -3.1720    0.9938   -2.8942 O   0  0  0  0  0  1  0  0  0  0  0  0
   -1.9780    2.7978   -2.7066 O   0  0  0  0  0  0  0  0  0  0  0  0
    0.0021    2.9010   -0.0406 C   0  0  0  0  0  0  0  0  0  0  0  0
   -0.5843    3.1885   -0.7926 H   0  0  0  0  0  0  0  0  0  0  0  0
    0.9386    3.1999   -0.2049 H   0  0  0  0  0  0  0  0  0  0  0  0
   -0.3516    3.3904    0.8669 H   0  0  0  0  0  0  0  0  0  0  0  0
   -0.0016    1.4033   -0.0022 C   0  0  0  0  0  0  0  0  0  0  0  0
   -1.2038    0.6813    0.0107 C   0  0  0  0  0  0  0  0  0  0  0  0
   -2.0674    1.1748    0.0263 H   0  0  0  0  0  0  0  0  0  0  0  0
   -1.1940   -0.6945   -0.0000 C   0  0  0  0  0  0  0  0  0  0  0  0
   -2.0621   -1.2083   -0.0019 H   0  0  0  0  0  0  0  0  0  0  0  0
    0.0223   -1.3926   -0.0065 C   0  0  0  0  0  0  0  0  0  0  0  0
    0.0076   -2.3903   -0.0166 H   0  0  0  0  0  0  0  0  0  0  0  0
    1.1940   -0.6951    0.0000 C   0  0  0  0  0  0  0  0  0  0  0  0
    2.0909   -1.1778    0.0081 H   0  0  0  0  0  0  0  0  0  0  0  0
    1.1831    0.6977   -0.0019 C   0  0  0  0  0  0  0  0  0  0  0  0
    2.0583    1.1919   -0.0040 H   0  0  0  0  0  0  0  0  0  0  0  0
  1  5  1  0
  5  6  1  0
  5  7  2  0
  1  2  1  0
  1  3  1  0
  1  4  1  0
  8 12  1  0
 12 13  2  0
 13 15  1  0
 15 17  2  0
 17 19  1  0
 19 21  2  0
 21 12  1  0
  8  9  1  0
  8 10  1  0
  8 11  1  0
 13 14  1  0
 15 16  1  0
 17 18  1  0
 19 20  1  0
 21 22  1  0
M  CHG  1   6  -1
M  END
>  <PDB_ID>  (2122) 
pdb3zss

>  <RESIDUE_NAME>  (2122) 
GLU   PHE

>  <FRAG_NAME>  (2122) 
ACET   MBZ

>  <FRAG_ATOM_NUM>  (2122) 
fragi: 7  fragj: 15

>  <atom.prop.CHAIN_ID>  (2122) 
A A A A A A A Z Z Z Z Z Z Z Z Z Z Z Z Z Z Z

>  <atom.prop.IS_HEAVY_ATOM>  (2122) 
1 0 0 0 1 1 1 1 0 0 0 1 1 0 1 0 1 0 1 0 1 0

>  <DIFUSE_FUNC_ATOM>  (2122) 
atom 6   atom 7   

>  <FINAL_SINGLE_POINT_ENERGY>  (2122) 
0

>  <NONCOV_INTER_ENERGY_QM>  (2122) 
0

>  <FF_Energy>  (2122) 
-1.06

>  <QM_Energy>  (2122) 
-7.5

>  <source>  (2122) 
ACET_MBZ_02

>  <Index>  (2122) 
16363

$$$$
ACET-pdb3zss-B-GLU-533:MBZ-pdb3zss-B-PHE-218
     RDKit          3D

 22 21  0  0  0  0  0  0  0  0999 V2000
   -0.9430    0.9353   -3.6703 C   0  0  0  0  0  0  0  0  0  0  0  0
   -0.2691    0.8047   -2.9645 H   0  0  0  0  0  0  0  0  0  0  0  0
   -0.6095    1.5108   -4.3972 H   0  0  0  0  0  0  0  0  0  0  0  0
   -1.1935   -0.0392   -4.0896 H   0  0  0  0  0  0  0  0  0  0  0  0
   -2.1331    1.6485   -3.0361 C   0  0  0  0  0  0  0  0  0  0  0  0
   -3.2025    1.0445   -2.8515 O   0  0  0  0  0  1  0  0  0  0  0  0
   -2.0018    2.8358   -2.6913 O   0  0  0  0  0  0  0  0  0  0  0  0
   -0.0087    2.9109   -0.0438 C   0  0  0  0  0  0  0  0  0  0  0  0
   -0.6025    3.1866   -0.7929 H   0  0  0  0  0  0  0  0  0  0  0  0
    0.9261    3.2042   -0.2180 H   0  0  0  0  0  0  0  0  0  0  0  0
   -0.3568    3.3984    0.8668 H   0  0  0  0  0  0  0  0  0  0  0  0
   -0.0065    1.3987   -0.0016 C   0  0  0  0  0  0  0  0  0  0  0  0
   -1.2061    0.6856    0.0139 C   0  0  0  0  0  0  0  0  0  0  0  0
   -2.0694    1.1825    0.0340 H   0  0  0  0  0  0  0  0  0  0  0  0
   -1.1999   -0.6839    0.0000 C   0  0  0  0  0  0  0  0  0  0  0  0
   -2.0659   -1.2009   -0.0022 H   0  0  0  0  0  0  0  0  0  0  0  0
    0.0217   -1.3878   -0.0098 C   0  0  0  0  0  0  0  0  0  0  0  0
   -0.0058   -2.3889   -0.0244 H   0  0  0  0  0  0  0  0  0  0  0  0
    1.1999   -0.7084    0.0000 C   0  0  0  0  0  0  0  0  0  0  0  0
    2.0911   -1.1886    0.0102 H   0  0  0  0  0  0  0  0  0  0  0  0
    1.1909    0.6958   -0.0025 C   0  0  0  0  0  0  0  0  0  0  0  0
    2.0589    1.1877   -0.0060 H   0  0  0  0  0  0  0  0  0  0  0  0
  1  5  1  0
  5  6  1  0
  5  7  2  0
  1  2  1  0
  1  3  1  0
  1  4  1  0
  8 12  1  0
 12 13  2  0
 13 15  1  0
 15 17  2  0
 17 19  1  0
 19 21  2  0
 21 12  1  0
  8  9  1  0
  8 10  1  0
  8 11  1  0
 13 14  1  0
 15 16  1  0
 17 18  1  0
 19 20  1  0
 21 22  1  0
M  CHG  1   6  -1
M  END
>  <PDB_ID>  (2123) 
pdb3zss

>  <RESIDUE_NAME>  (2123) 
GLU   PHE

>  <FRAG_NAME>  (2123) 
ACET   MBZ

>  <FRAG_ATOM_NUM>  (2123) 
fragi: 7  fragj: 15

>  <atom.prop.CHAIN_ID>  (2123) 
A A A A A A A Z Z Z Z Z Z Z Z Z Z Z Z Z Z Z

>  <atom.prop.IS_HEAVY_ATOM>  (2123) 
1 0 0 0 1 1 1 1 0 0 0 1 1 0 1 0 1 0 1 0 1 0

>  <DIFUSE_FUNC_ATOM>  (2123) 
atom 6   atom 7   

>  <FINAL_SINGLE_POINT_ENERGY>  (2123) 
0

>  <NONCOV_INTER_ENERGY_QM>  (2123) 
0

>  <FF_Energy>  (2123) 
-1.09

>  <QM_Energy>  (2123) 
-7.65

>  <source>  (2123) 
ACET_MBZ_02

>  <Index>  (2123) 
16365

$$$$
ACET-pdb3zss-C-GLU-533:MBZ-pdb3zss-C-PHE-218
     RDKit          3D

 22 21  0  0  0  0  0  0  0  0999 V2000
   -0.8274    0.9323   -3.6712 C   0  0  0  0  0  0  0  0  0  0  0  0
   -0.1688    0.7917   -2.9551 H   0  0  0  0  0  0  0  0  0  0  0  0
   -0.4775    1.5062   -4.3899 H   0  0  0  0  0  0  0  0  0  0  0  0
   -1.0630   -0.0402   -4.1035 H   0  0  0  0  0  0  0  0  0  0  0  0
   -2.0319    1.6331   -3.0630 C   0  0  0  0  0  0  0  0  0  0  0  0
   -3.1016    1.0260   -2.9135 O   0  0  0  0  0  1  0  0  0  0  0  0
   -1.9036    2.8261   -2.7046 O   0  0  0  0  0  0  0  0  0  0  0  0
    0.0124    2.9220   -0.0165 C   0  0  0  0  0  0  0  0  0  0  0  0
   -0.5615    3.2222   -0.7699 H   0  0  0  0  0  0  0  0  0  0  0  0
    0.9536    3.2071   -0.1594 H   0  0  0  0  0  0  0  0  0  0  0  0
   -0.3501    3.3951    0.8961 H   0  0  0  0  0  0  0  0  0  0  0  0
   -0.0078    1.4085   -0.0046 C   0  0  0  0  0  0  0  0  0  0  0  0
   -1.2083    0.6892    0.0045 C   0  0  0  0  0  0  0  0  0  0  0  0
   -2.0741    1.1710    0.0129 H   0  0  0  0  0  0  0  0  0  0  0  0
   -1.1976   -0.7067   -0.0000 C   0  0  0  0  0  0  0  0  0  0  0  0
   -2.0599   -1.2143    0.0047 H   0  0  0  0  0  0  0  0  0  0  0  0
    0.0295   -1.3914   -0.0095 C   0  0  0  0  0  0  0  0  0  0  0  0
    0.0137   -2.3964   -0.0239 H   0  0  0  0  0  0  0  0  0  0  0  0
    1.1976   -0.7043    0.0000 C   0  0  0  0  0  0  0  0  0  0  0  0
    2.0961   -1.1776    0.0024 H   0  0  0  0  0  0  0  0  0  0  0  0
    1.1866    0.7046    0.0095 C   0  0  0  0  0  0  0  0  0  0  0  0
    2.0577    1.1944    0.0260 H   0  0  0  0  0  0  0  0  0  0  0  0
  1  5  1  0
  5  6  1  0
  5  7  2  0
  1  2  1  0
  1  3  1  0
  1  4  1  0
  8 12  1  0
 12 13  2  0
 13 15  1  0
 15 17  2  0
 17 19  1  0
 19 21  2  0
 21 12  1  0
  8  9  1  0
  8 10  1  0
  8 11  1  0
 13 14  1  0
 15 16  1  0
 17 18  1  0
 19 20  1  0
 21 22  1  0
M  CHG  1   6  -1
M  END
>  <PDB_ID>  (2124) 
pdb3zss

>  <RESIDUE_NAME>  (2124) 
GLU   PHE

>  <FRAG_NAME>  (2124) 
ACET   MBZ

>  <FRAG_ATOM_NUM>  (2124) 
fragi: 7  fragj: 15

>  <atom.prop.CHAIN_ID>  (2124) 
A A A A A A A Z Z Z Z Z Z Z Z Z Z Z Z Z Z Z

>  <atom.prop.IS_HEAVY_ATOM>  (2124) 
1 0 0 0 1 1 1 1 0 0 0 1 1 0 1 0 1 0 1 0 1 0

>  <DIFUSE_FUNC_ATOM>  (2124) 
atom 6   atom 7   

>  <FINAL_SINGLE_POINT_ENERGY>  (2124) 
0

>  <NONCOV_INTER_ENERGY_QM>  (2124) 
0

>  <FF_Energy>  (2124) 
-0.84

>  <QM_Energy>  (2124) 
-7.54

>  <source>  (2124) 
ACET_MBZ_02

>  <Index>  (2124) 
16369

$$$$
ACET-pdb3zss-D-GLU-533:MBZ-pdb3zss-D-PHE-218
     RDKit          3D

 22 21  0  0  0  0  0  0  0  0999 V2000
   -0.9233    0.9427   -3.6561 C   0  0  0  0  0  0  0  0  0  0  0  0
   -0.2447    0.8124   -2.9604 H   0  0  0  0  0  0  0  0  0  0  0  0
   -0.6059    1.5088   -4.3916 H   0  0  0  0  0  0  0  0  0  0  0  0
   -1.1743   -0.0350   -4.0675 H   0  0  0  0  0  0  0  0  0  0  0  0
   -2.1144    1.6333   -3.0196 C   0  0  0  0  0  0  0  0  0  0  0  0
   -3.1801    1.0319   -2.8583 O   0  0  0  0  0  1  0  0  0  0  0  0
   -1.9802    2.8270   -2.6734 O   0  0  0  0  0  0  0  0  0  0  0  0
   -0.0111    2.9115   -0.0234 C   0  0  0  0  0  0  0  0  0  0  0  0
   -0.6050    3.1932   -0.7643 H   0  0  0  0  0  0  0  0  0  0  0  0
    0.9192    3.2140   -0.1787 H   0  0  0  0  0  0  0  0  0  0  0  0
   -0.3667    3.3948    0.8866 H   0  0  0  0  0  0  0  0  0  0  0  0
   -0.0067    1.3971    0.0188 C   0  0  0  0  0  0  0  0  0  0  0  0
   -1.1976    0.6862   -0.0117 C   0  0  0  0  0  0  0  0  0  0  0  0
   -2.0657    1.1853   -0.0442 H   0  0  0  0  0  0  0  0  0  0  0  0
   -1.2062   -0.6852   -0.0000 C   0  0  0  0  0  0  0  0  0  0  0  0
   -2.0763   -1.1912    0.0032 H   0  0  0  0  0  0  0  0  0  0  0  0
    0.0070   -1.3909    0.0089 C   0  0  0  0  0  0  0  0  0  0  0  0
   -0.0072   -2.3874    0.0212 H   0  0  0  0  0  0  0  0  0  0  0  0
    1.2062   -0.6973    0.0000 C   0  0  0  0  0  0  0  0  0  0  0  0
    2.0875   -1.1938    0.0066 H   0  0  0  0  0  0  0  0  0  0  0  0
    1.1973    0.6901   -0.0160 C   0  0  0  0  0  0  0  0  0  0  0  0
    2.0605    1.1925   -0.0535 H   0  0  0  0  0  0  0  0  0  0  0  0
  1  5  1  0
  5  6  1  0
  5  7  2  0
  1  2  1  0
  1  3  1  0
  1  4  1  0
  8 12  1  0
 12 13  2  0
 13 15  1  0
 15 17  2  0
 17 19  1  0
 19 21  2  0
 21 12  1  0
  8  9  1  0
  8 10  1  0
  8 11  1  0
 13 14  1  0
 15 16  1  0
 17 18  1  0
 19 20  1  0
 21 22  1  0
M  CHG  1   6  -1
M  END
>  <PDB_ID>  (2125) 
pdb3zss

>  <RESIDUE_NAME>  (2125) 
GLU   PHE

>  <FRAG_NAME>  (2125) 
ACET   MBZ

>  <FRAG_ATOM_NUM>  (2125) 
fragi: 7  fragj: 15

>  <atom.prop.CHAIN_ID>  (2125) 
A A A A A A A Z Z Z Z Z Z Z Z Z Z Z Z Z Z Z

>  <atom.prop.IS_HEAVY_ATOM>  (2125) 
1 0 0 0 1 1 1 1 0 0 0 1 1 0 1 0 1 0 1 0 1 0

>  <DIFUSE_FUNC_ATOM>  (2125) 
atom 6   atom 7   

>  <FINAL_SINGLE_POINT_ENERGY>  (2125) 
0

>  <NONCOV_INTER_ENERGY_QM>  (2125) 
0

>  <FF_Energy>  (2125) 
-1.13

>  <QM_Energy>  (2125) 
-7.92

>  <source>  (2125) 
ACET_MBZ_02

>  <Index>  (2125) 
16371

$$$$
ACET-pdb4yzi-A-ASP-40:MBZ-pdb4yzi-A-PHE-141
     RDKit          3D

 22 21  0  0  0  0  0  0  0  0999 V2000
    5.3674    2.5644   -3.1542 C   0  0  0  0  0  0  0  0  0  0  0  0
    5.3563    3.1904   -3.9240 H   0  0  0  0  0  0  0  0  0  0  0  0
    5.1713    1.6382   -3.4521 H   0  0  0  0  0  0  0  0  0  0  0  0
    6.3696    2.5758   -2.7258 H   0  0  0  0  0  0  0  0  0  0  0  0
    4.2995    2.9946   -2.1597 C   0  0  0  0  0  0  0  0  0  0  0  0
    4.2169    4.2074   -1.8708 O   0  0  0  0  0  1  0  0  0  0  0  0
    3.5394    2.1270   -1.6760 O   0  0  0  0  0  0  0  0  0  0  0  0
   -0.0071    2.8890   -0.0122 C   0  0  0  0  0  0  0  0  0  0  0  0
    0.9120    3.2038    0.1601 H   0  0  0  0  0  0  0  0  0  0  0  0
   -0.6349    3.2017    0.6816 H   0  0  0  0  0  0  0  0  0  0  0  0
   -0.3295    3.3054   -0.9665 H   0  0  0  0  0  0  0  0  0  0  0  0
    0.0002    1.3925    0.0042 C   0  0  0  0  0  0  0  0  0  0  0  0
   -1.1929    0.6861   -0.0009 C   0  0  0  0  0  0  0  0  0  0  0  0
   -2.0605    1.1800   -0.0062 H   0  0  0  0  0  0  0  0  0  0  0  0
   -1.1964   -0.6930    0.0000 C   0  0  0  0  0  0  0  0  0  0  0  0
   -2.0739   -1.1907    0.0024 H   0  0  0  0  0  0  0  0  0  0  0  0
   -0.0013   -1.3823   -0.0003 C   0  0  0  0  0  0  0  0  0  0  0  0
   -0.0041   -2.3854   -0.0018 H   0  0  0  0  0  0  0  0  0  0  0  0
    1.1964   -0.6928    0.0000 C   0  0  0  0  0  0  0  0  0  0  0  0
    2.0776   -1.1939    0.0037 H   0  0  0  0  0  0  0  0  0  0  0  0
    1.1941    0.6895   -0.0030 C   0  0  0  0  0  0  0  0  0  0  0  0
    2.0613    1.1881   -0.0108 H   0  0  0  0  0  0  0  0  0  0  0  0
  1  5  1  0
  5  6  1  0
  5  7  2  0
  1  2  1  0
  1  3  1  0
  1  4  1  0
  8 12  1  0
 12 13  2  0
 13 15  1  0
 15 17  2  0
 17 19  1  0
 19 21  2  0
 21 12  1  0
  8  9  1  0
  8 10  1  0
  8 11  1  0
 13 14  1  0
 15 16  1  0
 17 18  1  0
 19 20  1  0
 21 22  1  0
M  CHG  1   6  -1
M  END
>  <PDB_ID>  (2126) 
pdb4yzi

>  <RESIDUE_NAME>  (2126) 
ASP   PHE

>  <FRAG_NAME>  (2126) 
ACET   MBZ

>  <FRAG_ATOM_NUM>  (2126) 
fragi: 7  fragj: 15

>  <atom.prop.CHAIN_ID>  (2126) 
A A A A A A A Z Z Z Z Z Z Z Z Z Z Z Z Z Z Z

>  <atom.prop.IS_HEAVY_ATOM>  (2126) 
1 0 0 0 1 1 1 1 0 0 0 1 1 0 1 0 1 0 1 0 1 0

>  <DIFUSE_FUNC_ATOM>  (2126) 
atom 6   atom 7   

>  <FINAL_SINGLE_POINT_ENERGY>  (2126) 
0

>  <NONCOV_INTER_ENERGY_QM>  (2126) 
0

>  <FF_Energy>  (2126) 
-1.26

>  <QM_Energy>  (2126) 
-6.33

>  <source>  (2126) 
ACET_MBZ_02

>  <Index>  (2126) 
16422

$$$$
ACET-pdb4z0y-A-GLU-248:MBZ-pdb4z0y-A-PHE-121
     RDKit          3D

 22 21  0  0  0  0  0  0  0  0999 V2000
   -0.9483    0.1114   -3.4567 C   0  0  0  0  0  0  0  0  0  0  0  0
   -1.4144   -0.2169   -4.2414 H   0  0  0  0  0  0  0  0  0  0  0  0
   -1.1626   -0.4472   -2.6928 H   0  0  0  0  0  0  0  0  0  0  0  0
    0.1244    0.0498   -3.6401 H   0  0  0  0  0  0  0  0  0  0  0  0
   -1.4701    1.5046   -3.1645 C   0  0  0  0  0  0  0  0  0  0  0  0
   -0.7081    2.4887   -3.2411 O   0  0  0  0  0  1  0  0  0  0  0  0
   -2.6790    1.6104   -2.8516 O   0  0  0  0  0  0  0  0  0  0  0  0
    0.0090    2.8898   -0.0180 C   0  0  0  0  0  0  0  0  0  0  0  0
   -0.6345    3.1767   -0.6855 H   0  0  0  0  0  0  0  0  0  0  0  0
    0.8986    3.1754   -0.2769 H   0  0  0  0  0  0  0  0  0  0  0  0
   -0.2448    3.3551    0.9346 H   0  0  0  0  0  0  0  0  0  0  0  0
    0.0001    1.3914    0.0097 C   0  0  0  0  0  0  0  0  0  0  0  0
   -1.1888    0.6971   -0.0189 C   0  0  0  0  0  0  0  0  0  0  0  0
   -1.9950    1.1608   -0.0131 H   0  0  0  0  0  0  0  0  0  0  0  0
   -1.1927   -0.6882    0.0000 C   0  0  0  0  0  0  0  0  0  0  0  0
   -1.9991   -1.1511   -0.0044 H   0  0  0  0  0  0  0  0  0  0  0  0
    0.0003   -1.3810    0.0110 C   0  0  0  0  0  0  0  0  0  0  0  0
   -0.0022   -2.3114    0.0105 H   0  0  0  0  0  0  0  0  0  0  0  0
    1.1927   -0.6979   -0.0000 C   0  0  0  0  0  0  0  0  0  0  0  0
    1.9975   -1.1636    0.0103 H   0  0  0  0  0  0  0  0  0  0  0  0
    1.1883    0.6785   -0.0018 C   0  0  0  0  0  0  0  0  0  0  0  0
    1.9972    1.1379    0.0034 H   0  0  0  0  0  0  0  0  0  0  0  0
  1  5  1  0
  5  6  1  0
  5  7  2  0
  1  2  1  0
  1  3  1  0
  1  4  1  0
  8 12  1  0
 12 13  2  0
 13 15  1  0
 15 17  2  0
 17 19  1  0
 19 21  2  0
 21 12  1  0
  8  9  1  0
  8 10  1  0
  8 11  1  0
 13 14  1  0
 15 16  1  0
 17 18  1  0
 19 20  1  0
 21 22  1  0
M  CHG  1   6  -1
M  END
>  <PDB_ID>  (2127) 
pdb4z0y

>  <RESIDUE_NAME>  (2127) 
GLU   PHE

>  <FRAG_NAME>  (2127) 
ACET   MBZ

>  <FRAG_ATOM_NUM>  (2127) 
fragi: 7  fragj: 15

>  <atom.prop.CHAIN_ID>  (2127) 
A A A A A A A Z Z Z Z Z Z Z Z Z Z Z Z Z Z Z

>  <atom.prop.IS_HEAVY_ATOM>  (2127) 
1 0 0 0 1 1 1 1 0 0 0 1 1 0 1 0 1 0 1 0 1 0

>  <DIFUSE_FUNC_ATOM>  (2127) 
atom 6   atom 7   

>  <FINAL_SINGLE_POINT_ENERGY>  (2127) 
0

>  <NONCOV_INTER_ENERGY_QM>  (2127) 
0

>  <FF_Energy>  (2127) 
0.1

>  <QM_Energy>  (2127) 
-6.51

>  <source>  (2127) 
ACET_MBZ_02

>  <Index>  (2127) 
16503

$$$$
ACET-pdb4z0y-B-GLU-248:MBZ-pdb4z0y-B-PHE-121
     RDKit          3D

 22 21  0  0  0  0  0  0  0  0999 V2000
   -0.9008    0.0924   -3.6231 C   0  0  0  0  0  0  0  0  0  0  0  0
   -1.2653   -0.1186   -4.4969 H   0  0  0  0  0  0  0  0  0  0  0  0
   -1.2141   -0.5593   -2.9752 H   0  0  0  0  0  0  0  0  0  0  0  0
    0.1861    0.0314   -3.6770 H   0  0  0  0  0  0  0  0  0  0  0  0
   -1.4500    1.4381   -3.2149 C   0  0  0  0  0  0  0  0  0  0  0  0
   -0.7103    2.4423   -3.2263 O   0  0  0  0  0  1  0  0  0  0  0  0
   -2.6536    1.4755   -2.8650 O   0  0  0  0  0  0  0  0  0  0  0  0
   -0.0083    2.8962   -0.0186 C   0  0  0  0  0  0  0  0  0  0  0  0
   -0.6402    3.1764   -0.6996 H   0  0  0  0  0  0  0  0  0  0  0  0
    0.8837    3.1951   -0.2557 H   0  0  0  0  0  0  0  0  0  0  0  0
   -0.2904    3.3535    0.9297 H   0  0  0  0  0  0  0  0  0  0  0  0
    0.0038    1.3996    0.0029 C   0  0  0  0  0  0  0  0  0  0  0  0
   -1.1906    0.6973    0.0017 C   0  0  0  0  0  0  0  0  0  0  0  0
   -1.9959    1.1626    0.0001 H   0  0  0  0  0  0  0  0  0  0  0  0
   -1.2036   -0.6807    0.0000 C   0  0  0  0  0  0  0  0  0  0  0  0
   -2.0151   -1.1345    0.0078 H   0  0  0  0  0  0  0  0  0  0  0  0
   -0.0177   -1.3949    0.0052 C   0  0  0  0  0  0  0  0  0  0  0  0
   -0.0312   -2.3248    0.0080 H   0  0  0  0  0  0  0  0  0  0  0  0
    1.2036   -0.7080   -0.0000 C   0  0  0  0  0  0  0  0  0  0  0  0
    2.0054   -1.1777   -0.0016 H   0  0  0  0  0  0  0  0  0  0  0  0
    1.2045    0.6867   -0.0098 C   0  0  0  0  0  0  0  0  0  0  0  0
    2.0132    1.1457   -0.0102 H   0  0  0  0  0  0  0  0  0  0  0  0
  1  5  1  0
  5  6  1  0
  5  7  2  0
  1  2  1  0
  1  3  1  0
  1  4  1  0
  8 12  1  0
 12 13  2  0
 13 15  1  0
 15 17  2  0
 17 19  1  0
 19 21  2  0
 21 12  1  0
  8  9  1  0
  8 10  1  0
  8 11  1  0
 13 14  1  0
 15 16  1  0
 17 18  1  0
 19 20  1  0
 21 22  1  0
M  CHG  1   6  -1
M  END
>  <PDB_ID>  (2128) 
pdb4z0y

>  <RESIDUE_NAME>  (2128) 
GLU   PHE

>  <FRAG_NAME>  (2128) 
ACET   MBZ

>  <FRAG_ATOM_NUM>  (2128) 
fragi: 7  fragj: 15

>  <atom.prop.CHAIN_ID>  (2128) 
A A A A A A A Z Z Z Z Z Z Z Z Z Z Z Z Z Z Z

>  <atom.prop.IS_HEAVY_ATOM>  (2128) 
1 0 0 0 1 1 1 1 0 0 0 1 1 0 1 0 1 0 1 0 1 0

>  <DIFUSE_FUNC_ATOM>  (2128) 
atom 6   atom 7   

>  <FINAL_SINGLE_POINT_ENERGY>  (2128) 
0

>  <NONCOV_INTER_ENERGY_QM>  (2128) 
0

>  <FF_Energy>  (2128) 
-0.19

>  <QM_Energy>  (2128) 
-6.69

>  <source>  (2128) 
ACET_MBZ_02

>  <Index>  (2128) 
16507

$$$$
ACET-pdb4z0y-C-GLU-248:MBZ-pdb4z0y-C-PHE-121
     RDKit          3D

 22 21  0  0  0  0  0  0  0  0999 V2000
   -0.9669    0.1567   -3.5601 C   0  0  0  0  0  0  0  0  0  0  0  0
   -1.3680   -0.0321   -4.4237 H   0  0  0  0  0  0  0  0  0  0  0  0
   -1.2631   -0.5023   -2.9126 H   0  0  0  0  0  0  0  0  0  0  0  0
    0.1164    0.0859   -3.6572 H   0  0  0  0  0  0  0  0  0  0  0  0
   -1.4748    1.5082   -3.1046 C   0  0  0  0  0  0  0  0  0  0  0  0
   -0.7211    2.5012   -3.1110 O   0  0  0  0  0  1  0  0  0  0  0  0
   -2.6633    1.5683   -2.7259 O   0  0  0  0  0  0  0  0  0  0  0  0
    0.0135    2.9003   -0.0062 C   0  0  0  0  0  0  0  0  0  0  0  0
   -0.6659    3.1968   -0.6318 H   0  0  0  0  0  0  0  0  0  0  0  0
    0.8876    3.1878   -0.3117 H   0  0  0  0  0  0  0  0  0  0  0  0
   -0.1842    3.3526    0.9656 H   0  0  0  0  0  0  0  0  0  0  0  0
    0.0044    1.3919    0.0006 C   0  0  0  0  0  0  0  0  0  0  0  0
   -1.1918    0.6880    0.0040 C   0  0  0  0  0  0  0  0  0  0  0  0
   -1.9982    1.1509    0.0020 H   0  0  0  0  0  0  0  0  0  0  0  0
   -1.1957   -0.6936    0.0000 C   0  0  0  0  0  0  0  0  0  0  0  0
   -2.0015   -1.1577    0.0027 H   0  0  0  0  0  0  0  0  0  0  0  0
   -0.0004   -1.3854   -0.0023 C   0  0  0  0  0  0  0  0  0  0  0  0
    0.0004   -2.3155    0.0014 H   0  0  0  0  0  0  0  0  0  0  0  0
    1.1957   -0.6935   -0.0000 C   0  0  0  0  0  0  0  0  0  0  0  0
    2.0023   -1.1556   -0.0024 H   0  0  0  0  0  0  0  0  0  0  0  0
    1.1878    0.6926   -0.0023 C   0  0  0  0  0  0  0  0  0  0  0  0
    1.9940    1.1563   -0.0036 H   0  0  0  0  0  0  0  0  0  0  0  0
  1  5  1  0
  5  6  1  0
  5  7  2  0
  1  2  1  0
  1  3  1  0
  1  4  1  0
  8 12  1  0
 12 13  2  0
 13 15  1  0
 15 17  2  0
 17 19  1  0
 19 21  2  0
 21 12  1  0
  8  9  1  0
  8 10  1  0
  8 11  1  0
 13 14  1  0
 15 16  1  0
 17 18  1  0
 19 20  1  0
 21 22  1  0
M  CHG  1   6  -1
M  END
>  <PDB_ID>  (2129) 
pdb4z0y

>  <RESIDUE_NAME>  (2129) 
GLU   PHE

>  <FRAG_NAME>  (2129) 
ACET   MBZ

>  <FRAG_ATOM_NUM>  (2129) 
fragi: 7  fragj: 15

>  <atom.prop.CHAIN_ID>  (2129) 
A A A A A A A Z Z Z Z Z Z Z Z Z Z Z Z Z Z Z

>  <atom.prop.IS_HEAVY_ATOM>  (2129) 
1 0 0 0 1 1 1 1 0 0 0 1 1 0 1 0 1 0 1 0 1 0

>  <DIFUSE_FUNC_ATOM>  (2129) 
atom 6   atom 7   

>  <FINAL_SINGLE_POINT_ENERGY>  (2129) 
0

>  <NONCOV_INTER_ENERGY_QM>  (2129) 
0

>  <FF_Energy>  (2129) 
0.29

>  <QM_Energy>  (2129) 
-6.88

>  <source>  (2129) 
ACET_MBZ_02

>  <Index>  (2129) 
16513

$$$$
ACET-pdb3zwh-B-GLU-91:MBZ-pdb3zwh-A-PHE-27
     RDKit          3D

 22 21  0  0  0  0  0  0  0  0999 V2000
   -2.0250    0.4245    3.5618 C   0  0  0  0  0  0  0  0  0  0  0  0
   -2.3993    0.2089    2.6777 H   0  0  0  0  0  0  0  0  0  0  0  0
   -2.7265    0.5794    4.2340 H   0  0  0  0  0  0  0  0  0  0  0  0
   -1.4195   -0.4206    3.8893 H   0  0  0  0  0  0  0  0  0  0  0  0
   -1.2298    1.7089    3.4242 C   0  0  0  0  0  0  0  0  0  0  0  0
   -0.0416    1.7224    3.8096 O   0  0  0  0  0  1  0  0  0  0  0  0
   -1.7980    2.7067    2.9302 O   0  0  0  0  0  0  0  0  0  0  0  0
   -0.0030    2.8990   -0.0017 C   0  0  0  0  0  0  0  0  0  0  0  0
    0.9209    3.2057   -0.1677 H   0  0  0  0  0  0  0  0  0  0  0  0
   -0.3347    3.2080    0.8765 H   0  0  0  0  0  0  0  0  0  0  0  0
   -0.6426    3.3306   -0.7716 H   0  0  0  0  0  0  0  0  0  0  0  0
    0.0001    1.3958    0.0056 C   0  0  0  0  0  0  0  0  0  0  0  0
   -1.1903    0.6893   -0.0043 C   0  0  0  0  0  0  0  0  0  0  0  0
   -2.0592    1.1800   -0.0154 H   0  0  0  0  0  0  0  0  0  0  0  0
   -1.1951   -0.6953   -0.0000 C   0  0  0  0  0  0  0  0  0  0  0  0
   -2.0743   -1.1892    0.0056 H   0  0  0  0  0  0  0  0  0  0  0  0
   -0.0003   -1.3872   -0.0016 C   0  0  0  0  0  0  0  0  0  0  0  0
   -0.0026   -2.3882   -0.0044 H   0  0  0  0  0  0  0  0  0  0  0  0
    1.1951   -0.6937    0.0000 C   0  0  0  0  0  0  0  0  0  0  0  0
    2.0788   -1.1919    0.0024 H   0  0  0  0  0  0  0  0  0  0  0  0
    1.1905    0.6910    0.0003 C   0  0  0  0  0  0  0  0  0  0  0  0
    2.0608    1.1879   -0.0043 H   0  0  0  0  0  0  0  0  0  0  0  0
  1  5  1  0
  5  6  1  0
  5  7  2  0
  1  2  1  0
  1  3  1  0
  1  4  1  0
  8 12  1  0
 12 13  2  0
 13 15  1  0
 15 17  2  0
 17 19  1  0
 19 21  2  0
 21 12  1  0
  8  9  1  0
  8 10  1  0
  8 11  1  0
 13 14  1  0
 15 16  1  0
 17 18  1  0
 19 20  1  0
 21 22  1  0
M  CHG  1   6  -1
M  END
>  <PDB_ID>  (2130) 
pdb3zwh

>  <RESIDUE_NAME>  (2130) 
GLU   PHE

>  <FRAG_NAME>  (2130) 
ACET   MBZ

>  <FRAG_ATOM_NUM>  (2130) 
fragi: 7  fragj: 15

>  <atom.prop.CHAIN_ID>  (2130) 
A A A A A A A Z Z Z Z Z Z Z Z Z Z Z Z Z Z Z

>  <atom.prop.IS_HEAVY_ATOM>  (2130) 
1 0 0 0 1 1 1 1 0 0 0 1 1 0 1 0 1 0 1 0 1 0

>  <DIFUSE_FUNC_ATOM>  (2130) 
atom 6   atom 7   

>  <FINAL_SINGLE_POINT_ENERGY>  (2130) 
0

>  <NONCOV_INTER_ENERGY_QM>  (2130) 
0

>  <FF_Energy>  (2130) 
0.4

>  <QM_Energy>  (2130) 
-5.69

>  <source>  (2130) 
ACET_MBZ_02

>  <Index>  (2130) 
16518

$$$$
ACET-pdb4z7e-A-ASP-416:MBZ-pdb4z7e-A-PHE-374
     RDKit          3D

 22 21  0  0  0  0  0  0  0  0999 V2000
    0.1891    1.1029   -3.6102 C   0  0  0  0  0  0  0  0  0  0  0  0
   -0.7211    0.8514   -3.3022 H   0  0  0  0  0  0  0  0  0  0  0  0
    0.8793    0.6026   -3.1002 H   0  0  0  0  0  0  0  0  0  0  0  0
    0.2791    0.8287   -4.6613 H   0  0  0  0  0  0  0  0  0  0  0  0
    0.3890    2.5785   -3.3871 C   0  0  0  0  0  0  0  0  0  0  0  0
    1.5574    3.0204   -3.4215 O   0  0  0  0  0  1  0  0  0  0  0  0
   -0.6051    3.3063   -3.1884 O   0  0  0  0  0  0  0  0  0  0  0  0
   -0.0050    2.8978    0.0028 C   0  0  0  0  0  0  0  0  0  0  0  0
   -0.7703    3.1980   -0.5434 H   0  0  0  0  0  0  0  0  0  0  0  0
    0.8539    3.2073   -0.3732 H   0  0  0  0  0  0  0  0  0  0  0  0
   -0.1118    3.3333    0.9964 H   0  0  0  0  0  0  0  0  0  0  0  0
    0.0031    1.3911    0.0024 C   0  0  0  0  0  0  0  0  0  0  0  0
   -1.1858    0.6717    0.0036 C   0  0  0  0  0  0  0  0  0  0  0  0
   -2.0571    1.1658    0.0059 H   0  0  0  0  0  0  0  0  0  0  0  0
   -1.1874   -0.7037   -0.0000 C   0  0  0  0  0  0  0  0  0  0  0  0
   -2.0686   -1.1993    0.0013 H   0  0  0  0  0  0  0  0  0  0  0  0
   -0.0050   -1.3774   -0.0034 C   0  0  0  0  0  0  0  0  0  0  0  0
    0.0061   -2.3829   -0.0090 H   0  0  0  0  0  0  0  0  0  0  0  0
    1.1874   -0.6809    0.0000 C   0  0  0  0  0  0  0  0  0  0  0  0
    2.0730   -1.1826    0.0058 H   0  0  0  0  0  0  0  0  0  0  0  0
    1.1877    0.6992   -0.0026 C   0  0  0  0  0  0  0  0  0  0  0  0
    2.0579    1.1933   -0.0088 H   0  0  0  0  0  0  0  0  0  0  0  0
  1  5  1  0
  5  6  1  0
  5  7  2  0
  1  2  1  0
  1  3  1  0
  1  4  1  0
  8 12  1  0
 12 13  2  0
 13 15  1  0
 15 17  2  0
 17 19  1  0
 19 21  2  0
 21 12  1  0
  8  9  1  0
  8 10  1  0
  8 11  1  0
 13 14  1  0
 15 16  1  0
 17 18  1  0
 19 20  1  0
 21 22  1  0
M  CHG  1   6  -1
M  END
>  <PDB_ID>  (2131) 
pdb4z7e

>  <RESIDUE_NAME>  (2131) 
ASP   PHE

>  <FRAG_NAME>  (2131) 
ACET   MBZ

>  <FRAG_ATOM_NUM>  (2131) 
fragi: 7  fragj: 15

>  <atom.prop.CHAIN_ID>  (2131) 
A A A A A A A Z Z Z Z Z Z Z Z Z Z Z Z Z Z Z

>  <atom.prop.IS_HEAVY_ATOM>  (2131) 
1 0 0 0 1 1 1 1 0 0 0 1 1 0 1 0 1 0 1 0 1 0

>  <DIFUSE_FUNC_ATOM>  (2131) 
atom 6   atom 7   

>  <FINAL_SINGLE_POINT_ENERGY>  (2131) 
0

>  <NONCOV_INTER_ENERGY_QM>  (2131) 
0

>  <FF_Energy>  (2131) 
-0.72

>  <QM_Energy>  (2131) 
-6.09

>  <source>  (2131) 
ACET_MBZ_02

>  <Index>  (2131) 
16633

$$$$
ACET-pdb4z88-A-GLU-1380:MBZ-pdb4z88-A-PHE-1320
     RDKit          3D

 22 21  0  0  0  0  0  0  0  0999 V2000
    0.0809   -1.4816    3.1148 C   0  0  0  0  0  0  0  0  0  0  0  0
   -0.5559   -1.0124    3.6949 H   0  0  0  0  0  0  0  0  0  0  0  0
   -0.0173   -1.2362    2.1705 H   0  0  0  0  0  0  0  0  0  0  0  0
    1.0904   -1.2229    3.4346 H   0  0  0  0  0  0  0  0  0  0  0  0
   -0.2156   -2.9815    3.2296 C   0  0  0  0  0  0  0  0  0  0  0  0
    0.7474   -3.6927    3.5136 O   0  0  0  0  0  1  0  0  0  0  0  0
   -1.3716   -3.4761    3.0707 O   0  0  0  0  0  0  0  0  0  0  0  0
    0.0016    2.8931   -0.0055 C   0  0  0  0  0  0  0  0  0  0  0  0
   -0.6735    3.1993   -0.6619 H   0  0  0  0  0  0  0  0  0  0  0  0
    0.9087    3.2001   -0.2583 H   0  0  0  0  0  0  0  0  0  0  0  0
   -0.2443    3.3428    0.9565 H   0  0  0  0  0  0  0  0  0  0  0  0
    0.0007    1.3961    0.0028 C   0  0  0  0  0  0  0  0  0  0  0  0
   -1.1960    0.6889    0.0039 C   0  0  0  0  0  0  0  0  0  0  0  0
   -2.0613    1.1830    0.0067 H   0  0  0  0  0  0  0  0  0  0  0  0
   -1.2002   -0.6940    0.0000 C   0  0  0  0  0  0  0  0  0  0  0  0
   -2.0775   -1.1904    0.0038 H   0  0  0  0  0  0  0  0  0  0  0  0
   -0.0017   -1.3866   -0.0067 C   0  0  0  0  0  0  0  0  0  0  0  0
   -0.0037   -2.3870   -0.0169 H   0  0  0  0  0  0  0  0  0  0  0  0
    1.2002   -0.6931    0.0000 C   0  0  0  0  0  0  0  0  0  0  0  0
    2.0802   -1.1959    0.0061 H   0  0  0  0  0  0  0  0  0  0  0  0
    1.1969    0.6886   -0.0000 C   0  0  0  0  0  0  0  0  0  0  0  0
    2.0641    1.1886   -0.0031 H   0  0  0  0  0  0  0  0  0  0  0  0
  1  5  1  0
  5  6  1  0
  5  7  2  0
  1  2  1  0
  1  3  1  0
  1  4  1  0
  8 12  1  0
 12 13  2  0
 13 15  1  0
 15 17  2  0
 17 19  1  0
 19 21  2  0
 21 12  1  0
  8  9  1  0
  8 10  1  0
  8 11  1  0
 13 14  1  0
 15 16  1  0
 17 18  1  0
 19 20  1  0
 21 22  1  0
M  CHG  1   6  -1
M  END
>  <PDB_ID>  (2132) 
pdb4z88

>  <RESIDUE_NAME>  (2132) 
GLU   PHE

>  <FRAG_NAME>  (2132) 
ACET   MBZ

>  <FRAG_ATOM_NUM>  (2132) 
fragi: 7  fragj: 15

>  <atom.prop.CHAIN_ID>  (2132) 
A A A A A A A Z Z Z Z Z Z Z Z Z Z Z Z Z Z Z

>  <atom.prop.IS_HEAVY_ATOM>  (2132) 
1 0 0 0 1 1 1 1 0 0 0 1 1 0 1 0 1 0 1 0 1 0

>  <DIFUSE_FUNC_ATOM>  (2132) 
atom 6   atom 7   

>  <FINAL_SINGLE_POINT_ENERGY>  (2132) 
0

>  <NONCOV_INTER_ENERGY_QM>  (2132) 
0

>  <FF_Energy>  (2132) 
6.33

>  <QM_Energy>  (2132) 
0.91

>  <source>  (2132) 
ACET_MBZ_02

>  <Index>  (2132) 
16655

$$$$
ACET-pdb4z9c-A-GLU-123:MBZ-pdb4z9c-A-PHE-28
     RDKit          3D

 22 21  0  0  0  0  0  0  0  0999 V2000
   -4.3726    0.5834   -1.9276 C   0  0  0  0  0  0  0  0  0  0  0  0
   -3.6276   -0.0702   -1.8954 H   0  0  0  0  0  0  0  0  0  0  0  0
   -4.1335    1.3620   -2.4942 H   0  0  0  0  0  0  0  0  0  0  0  0
   -5.2457    0.0933   -2.3584 H   0  0  0  0  0  0  0  0  0  0  0  0
   -4.5912    1.0887   -0.5359 C   0  0  0  0  0  0  0  0  0  0  0  0
   -5.2767    0.4185    0.2356 O   0  0  0  0  0  1  0  0  0  0  0  0
   -4.0607    2.1487   -0.1893 O   0  0  0  0  0  0  0  0  0  0  0  0
    0.0006    2.9194    0.0008 C   0  0  0  0  0  0  0  0  0  0  0  0
    0.8953    3.2180    0.2897 H   0  0  0  0  0  0  0  0  0  0  0  0
   -0.7025    3.2170    0.6258 H   0  0  0  0  0  0  0  0  0  0  0  0
   -0.2046    3.3646   -0.9727 H   0  0  0  0  0  0  0  0  0  0  0  0
    0.0005    1.3993   -0.0034 C   0  0  0  0  0  0  0  0  0  0  0  0
   -1.1925    0.6872    0.0047 C   0  0  0  0  0  0  0  0  0  0  0  0
   -2.0615    1.1798    0.0125 H   0  0  0  0  0  0  0  0  0  0  0  0
   -1.1972   -0.6970   -0.0000 C   0  0  0  0  0  0  0  0  0  0  0  0
   -2.0752   -1.1912   -0.0028 H   0  0  0  0  0  0  0  0  0  0  0  0
   -0.0013   -1.3892    0.0010 C   0  0  0  0  0  0  0  0  0  0  0  0
   -0.0026   -2.3895    0.0016 H   0  0  0  0  0  0  0  0  0  0  0  0
    1.1972   -0.6927   -0.0000 C   0  0  0  0  0  0  0  0  0  0  0  0
    2.0798   -1.1926    0.0025 H   0  0  0  0  0  0  0  0  0  0  0  0
    1.1933    0.6924   -0.0024 C   0  0  0  0  0  0  0  0  0  0  0  0
    2.0627    1.1896   -0.0036 H   0  0  0  0  0  0  0  0  0  0  0  0
  1  5  1  0
  5  6  1  0
  5  7  2  0
  1  2  1  0
  1  3  1  0
  1  4  1  0
  8 12  1  0
 12 13  2  0
 13 15  1  0
 15 17  2  0
 17 19  1  0
 19 21  2  0
 21 12  1  0
  8  9  1  0
  8 10  1  0
  8 11  1  0
 13 14  1  0
 15 16  1  0
 17 18  1  0
 19 20  1  0
 21 22  1  0
M  CHG  1   6  -1
M  END
>  <PDB_ID>  (2133) 
pdb4z9c

>  <RESIDUE_NAME>  (2133) 
GLU   PHE

>  <FRAG_NAME>  (2133) 
ACET   MBZ

>  <FRAG_ATOM_NUM>  (2133) 
fragi: 7  fragj: 15

>  <atom.prop.CHAIN_ID>  (2133) 
A A A A A A A Z Z Z Z Z Z Z Z Z Z Z Z Z Z Z

>  <atom.prop.IS_HEAVY_ATOM>  (2133) 
1 0 0 0 1 1 1 1 0 0 0 1 1 0 1 0 1 0 1 0 1 0

>  <DIFUSE_FUNC_ATOM>  (2133) 
atom 6   atom 7   

>  <FINAL_SINGLE_POINT_ENERGY>  (2133) 
0

>  <NONCOV_INTER_ENERGY_QM>  (2133) 
0

>  <FF_Energy>  (2133) 
-1.14

>  <QM_Energy>  (2133) 
-7.13

>  <source>  (2133) 
ACET_MBZ_02

>  <Index>  (2133) 
16718

$$$$
ACET-pdb4z9c-A-ASP-5:MBZ-pdb4z9c-A-PHE-162
     RDKit          3D

 22 21  0  0  0  0  0  0  0  0999 V2000
   -3.5980    4.6417    1.8298 C   0  0  0  0  0  0  0  0  0  0  0  0
   -3.2299    4.6151    0.9073 H   0  0  0  0  0  0  0  0  0  0  0  0
   -3.8880    5.5621    2.0617 H   0  0  0  0  0  0  0  0  0  0  0  0
   -4.4731    3.9927    1.8635 H   0  0  0  0  0  0  0  0  0  0  0  0
   -2.5120    4.2131    2.8004 C   0  0  0  0  0  0  0  0  0  0  0  0
   -2.8464    3.6501    3.8653 O   0  0  0  0  0  1  0  0  0  0  0  0
   -1.3204    4.4524    2.5101 O   0  0  0  0  0  0  0  0  0  0  0  0
    0.0114    2.9187   -0.0040 C   0  0  0  0  0  0  0  0  0  0  0  0
    0.9311    3.2139   -0.2102 H   0  0  0  0  0  0  0  0  0  0  0  0
   -0.2761    3.2261    0.8895 H   0  0  0  0  0  0  0  0  0  0  0  0
   -0.6562    3.3654   -0.7408 H   0  0  0  0  0  0  0  0  0  0  0  0
    0.0010    1.4032    0.0004 C   0  0  0  0  0  0  0  0  0  0  0  0
   -1.1914    0.6924    0.0019 C   0  0  0  0  0  0  0  0  0  0  0  0
   -2.0601    1.1800    0.0028 H   0  0  0  0  0  0  0  0  0  0  0  0
   -1.1909   -0.6954   -0.0000 C   0  0  0  0  0  0  0  0  0  0  0  0
   -2.0744   -1.1884   -0.0001 H   0  0  0  0  0  0  0  0  0  0  0  0
   -0.0020   -1.3881   -0.0003 C   0  0  0  0  0  0  0  0  0  0  0  0
   -0.0065   -2.3907   -0.0014 H   0  0  0  0  0  0  0  0  0  0  0  0
    1.1909   -0.6984   -0.0000 C   0  0  0  0  0  0  0  0  0  0  0  0
    2.0754   -1.1984    0.0046 H   0  0  0  0  0  0  0  0  0  0  0  0
    1.1924    0.6862   -0.0020 C   0  0  0  0  0  0  0  0  0  0  0  0
    2.0634    1.1811   -0.0073 H   0  0  0  0  0  0  0  0  0  0  0  0
  1  5  1  0
  5  6  1  0
  5  7  2  0
  1  2  1  0
  1  3  1  0
  1  4  1  0
  8 12  1  0
 12 13  2  0
 13 15  1  0
 15 17  2  0
 17 19  1  0
 19 21  2  0
 21 12  1  0
  8  9  1  0
  8 10  1  0
  8 11  1  0
 13 14  1  0
 15 16  1  0
 17 18  1  0
 19 20  1  0
 21 22  1  0
M  CHG  1   6  -1
M  END
>  <PDB_ID>  (2134) 
pdb4z9c

>  <RESIDUE_NAME>  (2134) 
ASP   PHE

>  <FRAG_NAME>  (2134) 
ACET   MBZ

>  <FRAG_ATOM_NUM>  (2134) 
fragi: 7  fragj: 15

>  <atom.prop.CHAIN_ID>  (2134) 
A A A A A A A Z Z Z Z Z Z Z Z Z Z Z Z Z Z Z

>  <atom.prop.IS_HEAVY_ATOM>  (2134) 
1 0 0 0 1 1 1 1 0 0 0 1 1 0 1 0 1 0 1 0 1 0

>  <DIFUSE_FUNC_ATOM>  (2134) 
atom 6   atom 7   

>  <FINAL_SINGLE_POINT_ENERGY>  (2134) 
0

>  <NONCOV_INTER_ENERGY_QM>  (2134) 
0

>  <FF_Energy>  (2134) 
0.13

>  <QM_Energy>  (2134) 
-5.0

>  <source>  (2134) 
ACET_MBZ_02

>  <Index>  (2134) 
16719

$$$$
ACET-pdb4zb1-A-GLU-140:MBZ-pdb4zb1-B-PHE-191
     RDKit          3D

 22 21  0  0  0  0  0  0  0  0999 V2000
    0.4093    0.1481   -3.5346 C   0  0  0  0  0  0  0  0  0  0  0  0
   -0.1169    0.1045   -4.3673 H   0  0  0  0  0  0  0  0  0  0  0  0
   -0.1607    0.0353   -2.7372 H   0  0  0  0  0  0  0  0  0  0  0  0
    1.1386   -0.6618   -3.5501 H   0  0  0  0  0  0  0  0  0  0  0  0
    1.0332    1.5285   -3.4592 C   0  0  0  0  0  0  0  0  0  0  0  0
    0.2880    2.5130   -3.3458 O   0  0  0  0  0  1  0  0  0  0  0  0
    2.2641    1.6618   -3.5088 O   0  0  0  0  0  0  0  0  0  0  0  0
   -0.0077    2.9206    0.0016 C   0  0  0  0  0  0  0  0  0  0  0  0
   -0.8307    3.2194   -0.4548 H   0  0  0  0  0  0  0  0  0  0  0  0
    0.8018    3.2259   -0.4755 H   0  0  0  0  0  0  0  0  0  0  0  0
    0.0031    3.3680    0.9956 H   0  0  0  0  0  0  0  0  0  0  0  0
   -0.0013    1.4057    0.0045 C   0  0  0  0  0  0  0  0  0  0  0  0
   -1.1923    0.6938   -0.0061 C   0  0  0  0  0  0  0  0  0  0  0  0
   -2.0634    1.1787   -0.0197 H   0  0  0  0  0  0  0  0  0  0  0  0
   -1.1957   -0.7022   -0.0000 C   0  0  0  0  0  0  0  0  0  0  0  0
   -2.0730   -1.1942    0.0048 H   0  0  0  0  0  0  0  0  0  0  0  0
    0.0062   -1.3991    0.0013 C   0  0  0  0  0  0  0  0  0  0  0  0
    0.0030   -2.3955    0.0027 H   0  0  0  0  0  0  0  0  0  0  0  0
    1.1957   -0.6952    0.0000 C   0  0  0  0  0  0  0  0  0  0  0  0
    2.0842   -1.1866    0.0004 H   0  0  0  0  0  0  0  0  0  0  0  0
    1.1873    0.6969    0.0003 C   0  0  0  0  0  0  0  0  0  0  0  0
    2.0599    1.1919   -0.0032 H   0  0  0  0  0  0  0  0  0  0  0  0
  1  5  1  0
  5  6  1  0
  5  7  2  0
  1  2  1  0
  1  3  1  0
  1  4  1  0
  8 12  1  0
 12 13  2  0
 13 15  1  0
 15 17  2  0
 17 19  1  0
 19 21  2  0
 21 12  1  0
  8  9  1  0
  8 10  1  0
  8 11  1  0
 13 14  1  0
 15 16  1  0
 17 18  1  0
 19 20  1  0
 21 22  1  0
M  CHG  1   6  -1
M  END
>  <PDB_ID>  (2135) 
pdb4zb1

>  <RESIDUE_NAME>  (2135) 
GLU   PHE

>  <FRAG_NAME>  (2135) 
ACET   MBZ

>  <FRAG_ATOM_NUM>  (2135) 
fragi: 7  fragj: 15

>  <atom.prop.CHAIN_ID>  (2135) 
A A A A A A A Z Z Z Z Z Z Z Z Z Z Z Z Z Z Z

>  <atom.prop.IS_HEAVY_ATOM>  (2135) 
1 0 0 0 1 1 1 1 0 0 0 1 1 0 1 0 1 0 1 0 1 0

>  <DIFUSE_FUNC_ATOM>  (2135) 
atom 6   atom 7   

>  <FINAL_SINGLE_POINT_ENERGY>  (2135) 
0

>  <NONCOV_INTER_ENERGY_QM>  (2135) 
0

>  <FF_Energy>  (2135) 
-0.03

>  <QM_Energy>  (2135) 
-5.44

>  <source>  (2135) 
ACET_MBZ_02

>  <Index>  (2135) 
16803

$$$$
ACET-pdb4zah-G-ASP-237:MBZ-pdb4zah-G-PHE-32
     RDKit          3D

 22 21  0  0  0  0  0  0  0  0999 V2000
    4.6749    4.6420    0.8546 C   0  0  0  0  0  0  0  0  0  0  0  0
    5.3979    5.2281    0.5134 H   0  0  0  0  0  0  0  0  0  0  0  0
    5.0423    3.7805    1.1778 H   0  0  0  0  0  0  0  0  0  0  0  0
    4.1943    5.1456    1.6934 H   0  0  0  0  0  0  0  0  0  0  0  0
    3.7042    4.3527   -0.2959 C   0  0  0  0  0  0  0  0  0  0  0  0
    3.0238    5.3019   -0.7648 O   0  0  0  0  0  1  0  0  0  0  0  0
    3.5809    3.1579   -0.6664 O   0  0  0  0  0  0  0  0  0  0  0  0
    0.0083    2.8611   -0.0429 C   0  0  0  0  0  0  0  0  0  0  0  0
    0.9042    3.1871    0.2126 H   0  0  0  0  0  0  0  0  0  0  0  0
   -0.6917    3.2060    0.5608 H   0  0  0  0  0  0  0  0  0  0  0  0
   -0.2054    3.2412   -1.0419 H   0  0  0  0  0  0  0  0  0  0  0  0
    0.0038    1.3871    0.0164 C   0  0  0  0  0  0  0  0  0  0  0  0
   -1.1917    0.6830   -0.0093 C   0  0  0  0  0  0  0  0  0  0  0  0
   -2.0571    1.1802   -0.0361 H   0  0  0  0  0  0  0  0  0  0  0  0
   -1.1989   -0.6944    0.0000 C   0  0  0  0  0  0  0  0  0  0  0  0
   -2.0750   -1.1913    0.0049 H   0  0  0  0  0  0  0  0  0  0  0  0
   -0.0029   -1.3816    0.0046 C   0  0  0  0  0  0  0  0  0  0  0  0
    0.0001   -2.3833    0.0111 H   0  0  0  0  0  0  0  0  0  0  0  0
    1.1989   -0.6840    0.0000 C   0  0  0  0  0  0  0  0  0  0  0  0
    2.0783   -1.1882    0.0067 H   0  0  0  0  0  0  0  0  0  0  0  0
    1.1908    0.6900   -0.0117 C   0  0  0  0  0  0  0  0  0  0  0  0
    2.0599    1.1921   -0.0417 H   0  0  0  0  0  0  0  0  0  0  0  0
  1  5  1  0
  5  6  1  0
  5  7  2  0
  1  2  1  0
  1  3  1  0
  1  4  1  0
  8 12  1  0
 12 13  2  0
 13 15  1  0
 15 17  2  0
 17 19  1  0
 19 21  2  0
 21 12  1  0
  8  9  1  0
  8 10  1  0
  8 11  1  0
 13 14  1  0
 15 16  1  0
 17 18  1  0
 19 20  1  0
 21 22  1  0
M  CHG  1   6  -1
M  END
>  <PDB_ID>  (2136) 
pdb4zah

>  <RESIDUE_NAME>  (2136) 
ASP   PHE

>  <FRAG_NAME>  (2136) 
ACET   MBZ

>  <FRAG_ATOM_NUM>  (2136) 
fragi: 7  fragj: 15

>  <atom.prop.CHAIN_ID>  (2136) 
A A A A A A A Z Z Z Z Z Z Z Z Z Z Z Z Z Z Z

>  <atom.prop.IS_HEAVY_ATOM>  (2136) 
1 0 0 0 1 1 1 1 0 0 0 1 1 0 1 0 1 0 1 0 1 0

>  <DIFUSE_FUNC_ATOM>  (2136) 
atom 6   atom 7   

>  <FINAL_SINGLE_POINT_ENERGY>  (2136) 
0

>  <NONCOV_INTER_ENERGY_QM>  (2136) 
0

>  <FF_Energy>  (2136) 
-2.61

>  <QM_Energy>  (2136) 
-7.83

>  <source>  (2136) 
ACET_MBZ_02

>  <Index>  (2136) 
16805

$$$$
ACET-pdb4zb6-A-GLU-193:MBZ-pdb4zb6-A-PHE-188
     RDKit          3D

 22 21  0  0  0  0  0  0  0  0999 V2000
   -3.9074   -0.6444    3.4093 C   0  0  0  0  0  0  0  0  0  0  0  0
   -4.7790   -0.5328    3.8486 H   0  0  0  0  0  0  0  0  0  0  0  0
   -3.1604   -0.3858    3.9927 H   0  0  0  0  0  0  0  0  0  0  0  0
   -3.7894   -1.6954    3.1453 H   0  0  0  0  0  0  0  0  0  0  0  0
   -3.8826    0.2701    2.2002 C   0  0  0  0  0  0  0  0  0  0  0  0
   -4.3081   -0.1777    1.1088 O   0  0  0  0  0  1  0  0  0  0  0  0
   -3.4367    1.4306    2.3487 O   0  0  0  0  0  0  0  0  0  0  0  0
    0.0086    2.9001   -0.0109 C   0  0  0  0  0  0  0  0  0  0  0  0
   -0.4711    3.2003   -0.8231 H   0  0  0  0  0  0  0  0  0  0  0  0
    0.9517    3.2015   -0.0214 H   0  0  0  0  0  0  0  0  0  0  0  0
   -0.4774    3.3559    0.8518 H   0  0  0  0  0  0  0  0  0  0  0  0
    0.0017    1.3970    0.0038 C   0  0  0  0  0  0  0  0  0  0  0  0
   -1.1913    0.6947   -0.0009 C   0  0  0  0  0  0  0  0  0  0  0  0
   -2.0582    1.1855   -0.0065 H   0  0  0  0  0  0  0  0  0  0  0  0
   -1.1965   -0.6915   -0.0000 C   0  0  0  0  0  0  0  0  0  0  0  0
   -2.0769   -1.1842    0.0024 H   0  0  0  0  0  0  0  0  0  0  0  0
   -0.0030   -1.3879   -0.0001 C   0  0  0  0  0  0  0  0  0  0  0  0
   -0.0099   -2.3890   -0.0007 H   0  0  0  0  0  0  0  0  0  0  0  0
    1.1965   -0.6987    0.0000 C   0  0  0  0  0  0  0  0  0  0  0  0
    2.0770   -1.1985    0.0036 H   0  0  0  0  0  0  0  0  0  0  0  0
    1.1926    0.6863   -0.0028 C   0  0  0  0  0  0  0  0  0  0  0  0
    2.0637    1.1832   -0.0100 H   0  0  0  0  0  0  0  0  0  0  0  0
  1  5  1  0
  5  6  1  0
  5  7  2  0
  1  2  1  0
  1  3  1  0
  1  4  1  0
  8 12  1  0
 12 13  2  0
 13 15  1  0
 15 17  2  0
 17 19  1  0
 19 21  2  0
 21 12  1  0
  8  9  1  0
  8 10  1  0
  8 11  1  0
 13 14  1  0
 15 16  1  0
 17 18  1  0
 19 20  1  0
 21 22  1  0
M  CHG  1   6  -1
M  END
>  <PDB_ID>  (2137) 
pdb4zb6

>  <RESIDUE_NAME>  (2137) 
GLU   PHE

>  <FRAG_NAME>  (2137) 
ACET   MBZ

>  <FRAG_ATOM_NUM>  (2137) 
fragi: 7  fragj: 15

>  <atom.prop.CHAIN_ID>  (2137) 
A A A A A A A Z Z Z Z Z Z Z Z Z Z Z Z Z Z Z

>  <atom.prop.IS_HEAVY_ATOM>  (2137) 
1 0 0 0 1 1 1 1 0 0 0 1 1 0 1 0 1 0 1 0 1 0

>  <DIFUSE_FUNC_ATOM>  (2137) 
atom 6   atom 7   

>  <FINAL_SINGLE_POINT_ENERGY>  (2137) 
0

>  <NONCOV_INTER_ENERGY_QM>  (2137) 
0

>  <FF_Energy>  (2137) 
-2.3

>  <QM_Energy>  (2137) 
-7.33

>  <source>  (2137) 
ACET_MBZ_02

>  <Index>  (2137) 
16812

$$$$
ACET-pdb4zbg-A-GLU-32:MBZ-pdb4zbg-A-PHE-22
     RDKit          3D

 22 21  0  0  0  0  0  0  0  0999 V2000
   -0.0683    0.0116    3.4639 C   0  0  0  0  0  0  0  0  0  0  0  0
   -0.0491   -0.4762    2.6059 H   0  0  0  0  0  0  0  0  0  0  0  0
   -0.3860   -0.5646    4.2004 H   0  0  0  0  0  0  0  0  0  0  0  0
    0.9498    0.3248    3.6954 H   0  0  0  0  0  0  0  0  0  0  0  0
   -1.0577    1.1579    3.3187 C   0  0  0  0  0  0  0  0  0  0  0  0
   -0.6568    2.3409    3.2846 O   0  0  0  0  0  1  0  0  0  0  0  0
   -2.2643    0.8713    3.2290 O   0  0  0  0  0  0  0  0  0  0  0  0
   -0.0122    2.8944   -0.0325 C   0  0  0  0  0  0  0  0  0  0  0  0
    0.8172    3.2195    0.3889 H   0  0  0  0  0  0  0  0  0  0  0  0
   -0.8146    3.2099    0.4464 H   0  0  0  0  0  0  0  0  0  0  0  0
   -0.0505    3.2937   -1.0460 H   0  0  0  0  0  0  0  0  0  0  0  0
   -0.0024    1.3963    0.0082 C   0  0  0  0  0  0  0  0  0  0  0  0
   -1.1934    0.6874   -0.0086 C   0  0  0  0  0  0  0  0  0  0  0  0
   -2.0618    1.1783   -0.0284 H   0  0  0  0  0  0  0  0  0  0  0  0
   -1.1948   -0.6936   -0.0000 C   0  0  0  0  0  0  0  0  0  0  0  0
   -2.0719   -1.1927    0.0020 H   0  0  0  0  0  0  0  0  0  0  0  0
    0.0031   -1.3872    0.0077 C   0  0  0  0  0  0  0  0  0  0  0  0
   -0.0025   -2.3879    0.0177 H   0  0  0  0  0  0  0  0  0  0  0  0
    1.1948   -0.6942    0.0000 C   0  0  0  0  0  0  0  0  0  0  0  0
    2.0805   -1.1919    0.0015 H   0  0  0  0  0  0  0  0  0  0  0  0
    1.1927    0.6913   -0.0073 C   0  0  0  0  0  0  0  0  0  0  0  0
    2.0604    1.1891   -0.0247 H   0  0  0  0  0  0  0  0  0  0  0  0
  1  5  1  0
  5  6  1  0
  5  7  2  0
  1  2  1  0
  1  3  1  0
  1  4  1  0
  8 12  1  0
 12 13  2  0
 13 15  1  0
 15 17  2  0
 17 19  1  0
 19 21  2  0
 21 12  1  0
  8  9  1  0
  8 10  1  0
  8 11  1  0
 13 14  1  0
 15 16  1  0
 17 18  1  0
 19 20  1  0
 21 22  1  0
M  CHG  1   6  -1
M  END
>  <PDB_ID>  (2138) 
pdb4zbg

>  <RESIDUE_NAME>  (2138) 
GLU   PHE

>  <FRAG_NAME>  (2138) 
ACET   MBZ

>  <FRAG_ATOM_NUM>  (2138) 
fragi: 7  fragj: 15

>  <atom.prop.CHAIN_ID>  (2138) 
A A A A A A A Z Z Z Z Z Z Z Z Z Z Z Z Z Z Z

>  <atom.prop.IS_HEAVY_ATOM>  (2138) 
1 0 0 0 1 1 1 1 0 0 0 1 1 0 1 0 1 0 1 0 1 0

>  <DIFUSE_FUNC_ATOM>  (2138) 
atom 6   atom 7   

>  <FINAL_SINGLE_POINT_ENERGY>  (2138) 
0

>  <NONCOV_INTER_ENERGY_QM>  (2138) 
0

>  <FF_Energy>  (2138) 
0.93

>  <QM_Energy>  (2138) 
-5.11

>  <source>  (2138) 
ACET_MBZ_02

>  <Index>  (2138) 
16840

$$$$
ACET-pdb4zcc-A-GLU-310:MBZ-pdb4zcc-A-PHE-65
     RDKit          3D

 22 21  0  0  0  0  0  0  0  0999 V2000
    1.7532    1.7850   -3.1656 C   0  0  0  0  0  0  0  0  0  0  0  0
    1.6561    2.2127   -4.0302 H   0  0  0  0  0  0  0  0  0  0  0  0
    0.9946    1.9954   -2.5982 H   0  0  0  0  0  0  0  0  0  0  0  0
    1.8138    0.7051   -3.3003 H   0  0  0  0  0  0  0  0  0  0  0  0
    3.0108    2.3252   -2.5025 C   0  0  0  0  0  0  0  0  0  0  0  0
    2.9876    2.6632   -1.2985 O   0  0  0  0  0  1  0  0  0  0  0  0
    4.0152    2.4141   -3.2044 O   0  0  0  0  0  0  0  0  0  0  0  0
    0.0411    2.8914   -0.0277 C   0  0  0  0  0  0  0  0  0  0  0  0
   -0.4083    3.1859   -0.8351 H   0  0  0  0  0  0  0  0  0  0  0  0
    0.9710    3.1679   -0.0474 H   0  0  0  0  0  0  0  0  0  0  0  0
   -0.4458    3.3487    0.8336 H   0  0  0  0  0  0  0  0  0  0  0  0
    0.0048    1.3915   -0.0005 C   0  0  0  0  0  0  0  0  0  0  0  0
   -1.1956    0.6976   -0.0012 C   0  0  0  0  0  0  0  0  0  0  0  0
   -2.0009    1.1633   -0.0067 H   0  0  0  0  0  0  0  0  0  0  0  0
   -1.1994   -0.7062   -0.0000 C   0  0  0  0  0  0  0  0  0  0  0  0
   -2.0033   -1.1733    0.0053 H   0  0  0  0  0  0  0  0  0  0  0  0
   -0.0005   -1.3839    0.0035 C   0  0  0  0  0  0  0  0  0  0  0  0
    0.0120   -2.3141    0.0118 H   0  0  0  0  0  0  0  0  0  0  0  0
    1.1994   -0.6649    0.0000 C   0  0  0  0  0  0  0  0  0  0  0  0
    2.0108   -1.1203    0.0039 H   0  0  0  0  0  0  0  0  0  0  0  0
    1.1914    0.6659   -0.0018 C   0  0  0  0  0  0  0  0  0  0  0  0
    2.0014    1.1231   -0.0088 H   0  0  0  0  0  0  0  0  0  0  0  0
  1  5  1  0
  5  6  1  0
  5  7  2  0
  1  2  1  0
  1  3  1  0
  1  4  1  0
  8 12  1  0
 12 13  2  0
 13 15  1  0
 15 17  2  0
 17 19  1  0
 19 21  2  0
 21 12  1  0
  8  9  1  0
  8 10  1  0
  8 11  1  0
 13 14  1  0
 15 16  1  0
 17 18  1  0
 19 20  1  0
 21 22  1  0
M  CHG  1   6  -1
M  END
>  <PDB_ID>  (2139) 
pdb4zcc

>  <RESIDUE_NAME>  (2139) 
GLU   PHE

>  <FRAG_NAME>  (2139) 
ACET   MBZ

>  <FRAG_ATOM_NUM>  (2139) 
fragi: 7  fragj: 15

>  <atom.prop.CHAIN_ID>  (2139) 
A A A A A A A Z Z Z Z Z Z Z Z Z Z Z Z Z Z Z

>  <atom.prop.IS_HEAVY_ATOM>  (2139) 
1 0 0 0 1 1 1 1 0 0 0 1 1 0 1 0 1 0 1 0 1 0

>  <DIFUSE_FUNC_ATOM>  (2139) 
atom 6   atom 7   

>  <FINAL_SINGLE_POINT_ENERGY>  (2139) 
0

>  <NONCOV_INTER_ENERGY_QM>  (2139) 
0

>  <FF_Energy>  (2139) 
0.16

>  <QM_Energy>  (2139) 
-7.09

>  <source>  (2139) 
ACET_MBZ_02

>  <Index>  (2139) 
16863

$$$$
ACET-pdb4zcc-B-GLU-310:MBZ-pdb4zcc-B-PHE-65
     RDKit          3D

 22 21  0  0  0  0  0  0  0  0999 V2000
    1.6449    1.7931   -3.3084 C   0  0  0  0  0  0  0  0  0  0  0  0
    1.5130    2.1933   -4.1819 H   0  0  0  0  0  0  0  0  0  0  0  0
    0.9168    2.0290   -2.7123 H   0  0  0  0  0  0  0  0  0  0  0  0
    1.7001    0.7091   -3.4077 H   0  0  0  0  0  0  0  0  0  0  0  0
    2.9402    2.3241   -2.7233 C   0  0  0  0  0  0  0  0  0  0  0  0
    2.9820    2.5714   -1.5009 O   0  0  0  0  0  1  0  0  0  0  0  0
    3.9343    2.4017   -3.4541 O   0  0  0  0  0  0  0  0  0  0  0  0
    0.0274    2.9037   -0.0132 C   0  0  0  0  0  0  0  0  0  0  0  0
   -0.4326    3.2056   -0.8122 H   0  0  0  0  0  0  0  0  0  0  0  0
    0.9545    3.1854   -0.0412 H   0  0  0  0  0  0  0  0  0  0  0  0
   -0.4499    3.3556    0.8564 H   0  0  0  0  0  0  0  0  0  0  0  0
    0.0033    1.4079   -0.0094 C   0  0  0  0  0  0  0  0  0  0  0  0
   -1.2013    0.7009    0.0007 C   0  0  0  0  0  0  0  0  0  0  0  0
   -2.0076    1.1648   -0.0048 H   0  0  0  0  0  0  0  0  0  0  0  0
   -1.2079   -0.7100    0.0000 C   0  0  0  0  0  0  0  0  0  0  0  0
   -2.0139   -1.1743    0.0060 H   0  0  0  0  0  0  0  0  0  0  0  0
    0.0035   -1.4027    0.0097 C   0  0  0  0  0  0  0  0  0  0  0  0
    0.0107   -2.3328    0.0104 H   0  0  0  0  0  0  0  0  0  0  0  0
    1.2079   -0.6883   -0.0000 C   0  0  0  0  0  0  0  0  0  0  0  0
    2.0188   -1.1444    0.0040 H   0  0  0  0  0  0  0  0  0  0  0  0
    1.1946    0.6920   -0.0011 C   0  0  0  0  0  0  0  0  0  0  0  0
    2.0016    1.1537   -0.0063 H   0  0  0  0  0  0  0  0  0  0  0  0
  1  5  1  0
  5  6  1  0
  5  7  2  0
  1  2  1  0
  1  3  1  0
  1  4  1  0
  8 12  1  0
 12 13  2  0
 13 15  1  0
 15 17  2  0
 17 19  1  0
 19 21  2  0
 21 12  1  0
  8  9  1  0
  8 10  1  0
  8 11  1  0
 13 14  1  0
 15 16  1  0
 17 18  1  0
 19 20  1  0
 21 22  1  0
M  CHG  1   6  -1
M  END
>  <PDB_ID>  (2140) 
pdb4zcc

>  <RESIDUE_NAME>  (2140) 
GLU   PHE

>  <FRAG_NAME>  (2140) 
ACET   MBZ

>  <FRAG_ATOM_NUM>  (2140) 
fragi: 7  fragj: 15

>  <atom.prop.CHAIN_ID>  (2140) 
A A A A A A A Z Z Z Z Z Z Z Z Z Z Z Z Z Z Z

>  <atom.prop.IS_HEAVY_ATOM>  (2140) 
1 0 0 0 1 1 1 1 0 0 0 1 1 0 1 0 1 0 1 0 1 0

>  <DIFUSE_FUNC_ATOM>  (2140) 
atom 6   atom 7   

>  <FINAL_SINGLE_POINT_ENERGY>  (2140) 
0

>  <NONCOV_INTER_ENERGY_QM>  (2140) 
0

>  <FF_Energy>  (2140) 
-0.7

>  <QM_Energy>  (2140) 
-7.08

>  <source>  (2140) 
ACET_MBZ_02

>  <Index>  (2140) 
16867

$$$$
ACET-pdb4zg5-D-ASP-197:MBZ-pdb4zg5-D-PHE-201
     RDKit          3D

 22 21  0  0  0  0  0  0  0  0999 V2000
    3.8758    5.3544   -2.0697 C   0  0  0  0  0  0  0  0  0  0  0  0
    4.8744    5.2110   -2.0470 H   0  0  0  0  0  0  0  0  0  0  0  0
    3.6533    6.1023   -1.4313 H   0  0  0  0  0  0  0  0  0  0  0  0
    3.5943    5.6636   -3.0763 H   0  0  0  0  0  0  0  0  0  0  0  0
    3.2095    4.1057   -1.5840 C   0  0  0  0  0  0  0  0  0  0  0  0
    2.7356    3.3067   -2.3888 O   0  0  0  0  0  1  0  0  0  0  0  0
    3.3018    3.9355   -0.3213 O   0  0  0  0  0  0  0  0  0  0  0  0
    0.0006    2.8829   -0.0517 C   0  0  0  0  0  0  0  0  0  0  0  0
    0.9424    3.1876   -0.0892 H   0  0  0  0  0  0  0  0  0  0  0  0
   -0.4465    3.2138    0.7691 H   0  0  0  0  0  0  0  0  0  0  0  0
   -0.5239    3.2961   -0.9133 H   0  0  0  0  0  0  0  0  0  0  0  0
   -0.0038    1.3988   -0.0150 C   0  0  0  0  0  0  0  0  0  0  0  0
   -1.1942    0.7126    0.0019 C   0  0  0  0  0  0  0  0  0  0  0  0
   -2.0611    1.2026    0.0143 H   0  0  0  0  0  0  0  0  0  0  0  0
   -1.2067   -0.6804   -0.0000 C   0  0  0  0  0  0  0  0  0  0  0  0
   -2.0829   -1.1714   -0.0094 H   0  0  0  0  0  0  0  0  0  0  0  0
   -0.0003   -1.3930    0.0133 C   0  0  0  0  0  0  0  0  0  0  0  0
   -0.0238   -2.3928    0.0316 H   0  0  0  0  0  0  0  0  0  0  0  0
    1.2067   -0.7165    0.0000 C   0  0  0  0  0  0  0  0  0  0  0  0
    2.0812   -1.2117   -0.0079 H   0  0  0  0  0  0  0  0  0  0  0  0
    1.1983    0.6785   -0.0002 C   0  0  0  0  0  0  0  0  0  0  0  0
    2.0661    1.1767    0.0092 H   0  0  0  0  0  0  0  0  0  0  0  0
  1  5  1  0
  5  6  1  0
  5  7  2  0
  1  2  1  0
  1  3  1  0
  1  4  1  0
  8 12  1  0
 12 13  2  0
 13 15  1  0
 15 17  2  0
 17 19  1  0
 19 21  2  0
 21 12  1  0
  8  9  1  0
  8 10  1  0
  8 11  1  0
 13 14  1  0
 15 16  1  0
 17 18  1  0
 19 20  1  0
 21 22  1  0
M  CHG  1   6  -1
M  END
>  <PDB_ID>  (2141) 
pdb4zg5

>  <RESIDUE_NAME>  (2141) 
ASP   PHE

>  <FRAG_NAME>  (2141) 
ACET   MBZ

>  <FRAG_ATOM_NUM>  (2141) 
fragi: 7  fragj: 15

>  <atom.prop.CHAIN_ID>  (2141) 
A A A A A A A Z Z Z Z Z Z Z Z Z Z Z Z Z Z Z

>  <atom.prop.IS_HEAVY_ATOM>  (2141) 
1 0 0 0 1 1 1 1 0 0 0 1 1 0 1 0 1 0 1 0 1 0

>  <DIFUSE_FUNC_ATOM>  (2141) 
atom 6   atom 7   

>  <FINAL_SINGLE_POINT_ENERGY>  (2141) 
0

>  <NONCOV_INTER_ENERGY_QM>  (2141) 
0

>  <FF_Energy>  (2141) 
-1.74

>  <QM_Energy>  (2141) 
-7.99

>  <source>  (2141) 
ACET_MBZ_02

>  <Index>  (2141) 
16975

$$$$
ACET-pdb4ywe-E-GLU-291:MBZ-pdb4ywe-E-PHE-258
     RDKit          3D

 22 21  0  0  0  0  0  0  0  0999 V2000
    4.0115    2.6305    3.4451 C   0  0  0  0  0  0  0  0  0  0  0  0
    4.5741    3.2667    3.9404 H   0  0  0  0  0  0  0  0  0  0  0  0
    4.2987    1.6992    3.5740 H   0  0  0  0  0  0  0  0  0  0  0  0
    2.9871    2.7276    3.8046 H   0  0  0  0  0  0  0  0  0  0  0  0
    4.1482    2.9518    1.9682 C   0  0  0  0  0  0  0  0  0  0  0  0
    3.1101    3.0635    1.2806 O   0  0  0  0  0  1  0  0  0  0  0  0
    5.2946    3.0957    1.4948 O   0  0  0  0  0  0  0  0  0  0  0  0
    0.0018    2.8930    0.0031 C   0  0  0  0  0  0  0  0  0  0  0  0
   -0.7360    3.2032   -0.5757 H   0  0  0  0  0  0  0  0  0  0  0  0
    0.8784    3.2002   -0.3339 H   0  0  0  0  0  0  0  0  0  0  0  0
   -0.1456    3.3280    0.9917 H   0  0  0  0  0  0  0  0  0  0  0  0
   -0.0005    1.3934   -0.0004 C   0  0  0  0  0  0  0  0  0  0  0  0
   -1.1915    0.6891   -0.0009 C   0  0  0  0  0  0  0  0  0  0  0  0
   -2.0595    1.1816   -0.0028 H   0  0  0  0  0  0  0  0  0  0  0  0
   -1.1947   -0.6916    0.0000 C   0  0  0  0  0  0  0  0  0  0  0  0
   -2.0733   -1.1885    0.0014 H   0  0  0  0  0  0  0  0  0  0  0  0
    0.0007   -1.3840    0.0008 C   0  0  0  0  0  0  0  0  0  0  0  0
   -0.0052   -2.3862    0.0014 H   0  0  0  0  0  0  0  0  0  0  0  0
    1.1947   -0.6941    0.0000 C   0  0  0  0  0  0  0  0  0  0  0  0
    2.0774   -1.1944   -0.0001 H   0  0  0  0  0  0  0  0  0  0  0  0
    1.1913    0.6873    0.0005 C   0  0  0  0  0  0  0  0  0  0  0  0
    2.0609    1.1866    0.0006 H   0  0  0  0  0  0  0  0  0  0  0  0
  1  5  1  0
  5  6  1  0
  5  7  2  0
  1  2  1  0
  1  3  1  0
  1  4  1  0
  8 12  1  0
 12 13  2  0
 13 15  1  0
 15 17  2  0
 17 19  1  0
 19 21  2  0
 21 12  1  0
  8  9  1  0
  8 10  1  0
  8 11  1  0
 13 14  1  0
 15 16  1  0
 17 18  1  0
 19 20  1  0
 21 22  1  0
M  CHG  1   6  -1
M  END
>  <PDB_ID>  (2142) 
pdb4ywe

>  <RESIDUE_NAME>  (2142) 
GLU   PHE

>  <FRAG_NAME>  (2142) 
ACET   MBZ

>  <FRAG_ATOM_NUM>  (2142) 
fragi: 7  fragj: 15

>  <atom.prop.CHAIN_ID>  (2142) 
A A A A A A A Z Z Z Z Z Z Z Z Z Z Z Z Z Z Z

>  <atom.prop.IS_HEAVY_ATOM>  (2142) 
1 0 0 0 1 1 1 1 0 0 0 1 1 0 1 0 1 0 1 0 1 0

>  <DIFUSE_FUNC_ATOM>  (2142) 
atom 6   atom 7   

>  <FINAL_SINGLE_POINT_ENERGY>  (2142) 
0

>  <NONCOV_INTER_ENERGY_QM>  (2142) 
0

>  <FF_Energy>  (2142) 
-1.8

>  <QM_Energy>  (2142) 
-7.01

>  <source>  (2142) 
ACET_MBZ_02

>  <Index>  (2142) 
17020

$$$$
ACET-pdb4zhj-A-GLU-895:MBZ-pdb4zhj-A-PHE-855
     RDKit          3D

 22 21  0  0  0  0  0  0  0  0999 V2000
   -3.1525    0.7037   -3.3389 C   0  0  0  0  0  0  0  0  0  0  0  0
   -2.4812    0.0180   -3.1219 H   0  0  0  0  0  0  0  0  0  0  0  0
   -3.3998    0.6905   -4.2913 H   0  0  0  0  0  0  0  0  0  0  0  0
   -4.0470    0.5040   -2.7489 H   0  0  0  0  0  0  0  0  0  0  0  0
   -2.5368    2.0578   -3.0449 C   0  0  0  0  0  0  0  0  0  0  0  0
   -1.7237    2.5313   -3.8678 O   0  0  0  0  0  1  0  0  0  0  0  0
   -2.8610    2.6488   -1.9928 O   0  0  0  0  0  0  0  0  0  0  0  0
   -0.0058    2.8991    0.0015 C   0  0  0  0  0  0  0  0  0  0  0  0
    0.6264    3.2076    0.6965 H   0  0  0  0  0  0  0  0  0  0  0  0
   -0.9277    3.2014    0.1940 H   0  0  0  0  0  0  0  0  0  0  0  0
    0.2988    3.3434   -0.9461 H   0  0  0  0  0  0  0  0  0  0  0  0
   -0.0001    1.3955    0.0003 C   0  0  0  0  0  0  0  0  0  0  0  0
   -1.1922    0.6865   -0.0009 C   0  0  0  0  0  0  0  0  0  0  0  0
   -2.0603    1.1786   -0.0034 H   0  0  0  0  0  0  0  0  0  0  0  0
   -1.1961   -0.6965   -0.0000 C   0  0  0  0  0  0  0  0  0  0  0  0
   -2.0737   -1.1918    0.0034 H   0  0  0  0  0  0  0  0  0  0  0  0
   -0.0008   -1.3854   -0.0013 C   0  0  0  0  0  0  0  0  0  0  0  0
   -0.0016   -2.3872   -0.0034 H   0  0  0  0  0  0  0  0  0  0  0  0
    1.1961   -0.6913   -0.0000 C   0  0  0  0  0  0  0  0  0  0  0  0
    2.0792   -1.1920    0.0009 H   0  0  0  0  0  0  0  0  0  0  0  0
    1.1930    0.6913    0.0018 C   0  0  0  0  0  0  0  0  0  0  0  0
    2.0612    1.1898    0.0037 H   0  0  0  0  0  0  0  0  0  0  0  0
  1  5  1  0
  5  6  1  0
  5  7  2  0
  1  2  1  0
  1  3  1  0
  1  4  1  0
  8 12  1  0
 12 13  2  0
 13 15  1  0
 15 17  2  0
 17 19  1  0
 19 21  2  0
 21 12  1  0
  8  9  1  0
  8 10  1  0
  8 11  1  0
 13 14  1  0
 15 16  1  0
 17 18  1  0
 19 20  1  0
 21 22  1  0
M  CHG  1   6  -1
M  END
>  <PDB_ID>  (2143) 
pdb4zhj

>  <RESIDUE_NAME>  (2143) 
GLU   PHE

>  <FRAG_NAME>  (2143) 
ACET   MBZ

>  <FRAG_ATOM_NUM>  (2143) 
fragi: 7  fragj: 15

>  <atom.prop.CHAIN_ID>  (2143) 
A A A A A A A Z Z Z Z Z Z Z Z Z Z Z Z Z Z Z

>  <atom.prop.IS_HEAVY_ATOM>  (2143) 
1 0 0 0 1 1 1 1 0 0 0 1 1 0 1 0 1 0 1 0 1 0

>  <DIFUSE_FUNC_ATOM>  (2143) 
atom 6   atom 7   

>  <FINAL_SINGLE_POINT_ENERGY>  (2143) 
0

>  <NONCOV_INTER_ENERGY_QM>  (2143) 
0

>  <FF_Energy>  (2143) 
-1.08

>  <QM_Energy>  (2143) 
-6.24

>  <source>  (2143) 
ACET_MBZ_02

>  <Index>  (2143) 
17064

$$$$
ACET-pdb4zjn-A-GLU-180:MBZ-pdb4zjn-A-PHE-187
     RDKit          3D

 22 21  0  0  0  0  0  0  0  0999 V2000
   -5.3590    3.4842    1.3917 C   0  0  0  0  0  0  0  0  0  0  0  0
   -6.1585    3.4568    0.8171 H   0  0  0  0  0  0  0  0  0  0  0  0
   -5.5053    4.0258    2.2006 H   0  0  0  0  0  0  0  0  0  0  0  0
   -5.1334    2.4644    1.7034 H   0  0  0  0  0  0  0  0  0  0  0  0
   -4.2402    4.1469    0.5925 C   0  0  0  0  0  0  0  0  0  0  0  0
   -3.3683    3.4327    0.0300 O   0  0  0  0  0  1  0  0  0  0  0  0
   -4.2238    5.4026    0.5078 O   0  0  0  0  0  0  0  0  0  0  0  0
    0.0064    2.9384    0.0201 C   0  0  0  0  0  0  0  0  0  0  0  0
   -0.7374    3.2500   -0.5424 H   0  0  0  0  0  0  0  0  0  0  0  0
    0.8802    3.2367   -0.3193 H   0  0  0  0  0  0  0  0  0  0  0  0
   -0.1275    3.3592    1.0166 H   0  0  0  0  0  0  0  0  0  0  0  0
   -0.0032    1.4154    0.0004 C   0  0  0  0  0  0  0  0  0  0  0  0
   -1.2087    0.7014   -0.0008 C   0  0  0  0  0  0  0  0  0  0  0  0
   -2.0727    1.1875   -0.0037 H   0  0  0  0  0  0  0  0  0  0  0  0
   -1.2119   -0.7031   -0.0000 C   0  0  0  0  0  0  0  0  0  0  0  0
   -2.0815   -1.1957    0.0035 H   0  0  0  0  0  0  0  0  0  0  0  0
    0.0033   -1.3980   -0.0026 C   0  0  0  0  0  0  0  0  0  0  0  0
   -0.0020   -2.3980   -0.0067 H   0  0  0  0  0  0  0  0  0  0  0  0
    1.2119   -0.7039   -0.0000 C   0  0  0  0  0  0  0  0  0  0  0  0
    2.0887   -1.2044    0.0017 H   0  0  0  0  0  0  0  0  0  0  0  0
    1.2085    0.6882    0.0030 C   0  0  0  0  0  0  0  0  0  0  0  0
    2.0718    1.1895    0.0064 H   0  0  0  0  0  0  0  0  0  0  0  0
  1  5  1  0
  5  6  1  0
  5  7  2  0
  1  2  1  0
  1  3  1  0
  1  4  1  0
  8 12  1  0
 12 13  2  0
 13 15  1  0
 15 17  2  0
 17 19  1  0
 19 21  2  0
 21 12  1  0
  8  9  1  0
  8 10  1  0
  8 11  1  0
 13 14  1  0
 15 16  1  0
 17 18  1  0
 19 20  1  0
 21 22  1  0
M  CHG  1   6  -1
M  END
>  <PDB_ID>  (2144) 
pdb4zjn

>  <RESIDUE_NAME>  (2144) 
GLU   PHE

>  <FRAG_NAME>  (2144) 
ACET   MBZ

>  <FRAG_ATOM_NUM>  (2144) 
fragi: 7  fragj: 15

>  <atom.prop.CHAIN_ID>  (2144) 
A A A A A A A Z Z Z Z Z Z Z Z Z Z Z Z Z Z Z

>  <atom.prop.IS_HEAVY_ATOM>  (2144) 
1 0 0 0 1 1 1 1 0 0 0 1 1 0 1 0 1 0 1 0 1 0

>  <DIFUSE_FUNC_ATOM>  (2144) 
atom 6   atom 7   

>  <FINAL_SINGLE_POINT_ENERGY>  (2144) 
0

>  <NONCOV_INTER_ENERGY_QM>  (2144) 
0

>  <FF_Energy>  (2144) 
-2.12

>  <QM_Energy>  (2144) 
-7.73

>  <source>  (2144) 
ACET_MBZ_02

>  <Index>  (2144) 
17103

$$$$
ACET-pdb4zjn-C-GLU-126:MBZ-pdb4zjn-C-PHE-76
     RDKit          3D

 22 21  0  0  0  0  0  0  0  0999 V2000
    0.4086    0.1988    3.4118 C   0  0  0  0  0  0  0  0  0  0  0  0
   -0.0754    0.2640    2.5546 H   0  0  0  0  0  0  0  0  0  0  0  0
   -0.1779    0.4054    4.1774 H   0  0  0  0  0  0  0  0  0  0  0  0
    0.7697   -0.8237    3.5228 H   0  0  0  0  0  0  0  0  0  0  0  0
    1.5156    1.2614    3.3898 C   0  0  0  0  0  0  0  0  0  0  0  0
    2.7302    0.9280    3.4664 O   0  0  0  0  0  1  0  0  0  0  0  0
    1.1645    2.4436    3.3126 O   0  0  0  0  0  0  0  0  0  0  0  0
    0.0025    2.9258    0.0176 C   0  0  0  0  0  0  0  0  0  0  0  0
    0.6779    3.2319   -0.6353 H   0  0  0  0  0  0  0  0  0  0  0  0
    0.2243    3.2194    0.9340 H   0  0  0  0  0  0  0  0  0  0  0  0
   -0.9519    3.3766   -0.2543 H   0  0  0  0  0  0  0  0  0  0  0  0
   -0.0045    1.4115    0.0039 C   0  0  0  0  0  0  0  0  0  0  0  0
   -1.2226    0.6939   -0.0010 C   0  0  0  0  0  0  0  0  0  0  0  0
   -2.0800    1.1923   -0.0064 H   0  0  0  0  0  0  0  0  0  0  0  0
   -1.2346   -0.7026   -0.0000 C   0  0  0  0  0  0  0  0  0  0  0  0
   -2.0906   -1.2036    0.0040 H   0  0  0  0  0  0  0  0  0  0  0  0
    0.0035   -1.3960   -0.0026 C   0  0  0  0  0  0  0  0  0  0  0  0
   -0.0021   -2.3969   -0.0062 H   0  0  0  0  0  0  0  0  0  0  0  0
    1.2346   -0.7033   -0.0000 C   0  0  0  0  0  0  0  0  0  0  0  0
    2.0990   -1.2047    0.0035 H   0  0  0  0  0  0  0  0  0  0  0  0
    1.2236    0.6966   -0.0003 C   0  0  0  0  0  0  0  0  0  0  0  0
    2.0769    1.2029   -0.0038 H   0  0  0  0  0  0  0  0  0  0  0  0
  1  5  1  0
  5  6  1  0
  5  7  2  0
  1  2  1  0
  1  3  1  0
  1  4  1  0
  8 12  1  0
 12 13  2  0
 13 15  1  0
 15 17  2  0
 17 19  1  0
 19 21  2  0
 21 12  1  0
  8  9  1  0
  8 10  1  0
  8 11  1  0
 13 14  1  0
 15 16  1  0
 17 18  1  0
 19 20  1  0
 21 22  1  0
M  CHG  1   6  -1
M  END
>  <PDB_ID>  (2145) 
pdb4zjn

>  <RESIDUE_NAME>  (2145) 
GLU   PHE

>  <FRAG_NAME>  (2145) 
ACET   MBZ

>  <FRAG_ATOM_NUM>  (2145) 
fragi: 7  fragj: 15

>  <atom.prop.CHAIN_ID>  (2145) 
A A A A A A A Z Z Z Z Z Z Z Z Z Z Z Z Z Z Z

>  <atom.prop.IS_HEAVY_ATOM>  (2145) 
1 0 0 0 1 1 1 1 0 0 0 1 1 0 1 0 1 0 1 0 1 0

>  <DIFUSE_FUNC_ATOM>  (2145) 
atom 6   atom 7   

>  <FINAL_SINGLE_POINT_ENERGY>  (2145) 
0

>  <NONCOV_INTER_ENERGY_QM>  (2145) 
0

>  <FF_Energy>  (2145) 
-0.21

>  <QM_Energy>  (2145) 
-5.73

>  <source>  (2145) 
ACET_MBZ_02

>  <Index>  (2145) 
17105

$$$$
ACET-pdb4zb9-B-ASP-84:MBZ-pdb4zb9-B-PHE-101
     RDKit          3D

 22 21  0  0  0  0  0  0  0  0999 V2000
   -4.0873   -4.3338   -2.0455 C   0  0  0  0  0  0  0  0  0  0  0  0
   -4.1370   -5.2709   -1.7227 H   0  0  0  0  0  0  0  0  0  0  0  0
   -3.6718   -4.2935   -2.9454 H   0  0  0  0  0  0  0  0  0  0  0  0
   -5.1029   -3.9452   -2.1205 H   0  0  0  0  0  0  0  0  0  0  0  0
   -3.2120   -3.5336   -1.0731 C   0  0  0  0  0  0  0  0  0  0  0  0
   -3.7440   -2.7423   -0.2692 O   0  0  0  0  0  1  0  0  0  0  0  0
   -1.9775   -3.6922   -1.1099 O   0  0  0  0  0  0  0  0  0  0  0  0
    0.0062    2.9236   -0.0343 C   0  0  0  0  0  0  0  0  0  0  0  0
   -0.7375    3.2101   -0.6237 H   0  0  0  0  0  0  0  0  0  0  0  0
    0.8811    3.2102   -0.4019 H   0  0  0  0  0  0  0  0  0  0  0  0
   -0.1259    3.4091    0.9326 H   0  0  0  0  0  0  0  0  0  0  0  0
   -0.0001    1.4055    0.0065 C   0  0  0  0  0  0  0  0  0  0  0  0
   -1.1897    0.6944   -0.0089 C   0  0  0  0  0  0  0  0  0  0  0  0
   -2.0601    1.1808   -0.0280 H   0  0  0  0  0  0  0  0  0  0  0  0
   -1.1915   -0.6957   -0.0000 C   0  0  0  0  0  0  0  0  0  0  0  0
   -2.0747   -1.1865    0.0023 H   0  0  0  0  0  0  0  0  0  0  0  0
   -0.0017   -1.3914    0.0070 C   0  0  0  0  0  0  0  0  0  0  0  0
   -0.0089   -2.3931    0.0166 H   0  0  0  0  0  0  0  0  0  0  0  0
    1.1915   -0.7039   -0.0000 C   0  0  0  0  0  0  0  0  0  0  0  0
    2.0761   -1.1986    0.0001 H   0  0  0  0  0  0  0  0  0  0  0  0
    1.1915    0.6911   -0.0045 C   0  0  0  0  0  0  0  0  0  0  0  0
    2.0637    1.1816   -0.0162 H   0  0  0  0  0  0  0  0  0  0  0  0
  1  5  1  0
  5  6  1  0
  5  7  2  0
  1  2  1  0
  1  3  1  0
  1  4  1  0
  8 12  1  0
 12 13  2  0
 13 15  1  0
 15 17  2  0
 17 19  1  0
 19 21  2  0
 21 12  1  0
  8  9  1  0
  8 10  1  0
  8 11  1  0
 13 14  1  0
 15 16  1  0
 17 18  1  0
 19 20  1  0
 21 22  1  0
M  CHG  1   6  -1
M  END
>  <PDB_ID>  (2146) 
pdb4zb9

>  <RESIDUE_NAME>  (2146) 
ASP   PHE

>  <FRAG_NAME>  (2146) 
ACET   MBZ

>  <FRAG_ATOM_NUM>  (2146) 
fragi: 7  fragj: 15

>  <atom.prop.CHAIN_ID>  (2146) 
A A A A A A A Z Z Z Z Z Z Z Z Z Z Z Z Z Z Z

>  <atom.prop.IS_HEAVY_ATOM>  (2146) 
1 0 0 0 1 1 1 1 0 0 0 1 1 0 1 0 1 0 1 0 1 0

>  <DIFUSE_FUNC_ATOM>  (2146) 
atom 6   atom 7   

>  <FINAL_SINGLE_POINT_ENERGY>  (2146) 
0

>  <NONCOV_INTER_ENERGY_QM>  (2146) 
0

>  <FF_Energy>  (2146) 
-2.37

>  <QM_Energy>  (2146) 
-8.37

>  <source>  (2146) 
ACET_MBZ_02

>  <Index>  (2146) 
17156

$$$$
ACET-pdb4zp4-A-ASP-377:MBZ-pdb4zp4-A-PHE-363
     RDKit          3D

 22 21  0  0  0  0  0  0  0  0999 V2000
    5.0521    4.6227    0.6608 C   0  0  0  0  0  0  0  0  0  0  0  0
    5.2060    5.5005    1.1093 H   0  0  0  0  0  0  0  0  0  0  0  0
    5.6954    4.5107   -0.0939 H   0  0  0  0  0  0  0  0  0  0  0  0
    5.2607    3.8400    1.3900 H   0  0  0  0  0  0  0  0  0  0  0  0
    3.6364    4.5980    0.1063 C   0  0  0  0  0  0  0  0  0  0  0  0
    2.6780    4.2647    0.8305 O   0  0  0  0  0  1  0  0  0  0  0  0
    3.4852    4.9671   -1.0768 O   0  0  0  0  0  0  0  0  0  0  0  0
   -0.0005    2.8893    0.0106 C   0  0  0  0  0  0  0  0  0  0  0  0
    0.8483    3.1948    0.4175 H   0  0  0  0  0  0  0  0  0  0  0  0
   -0.7808    3.1943    0.5384 H   0  0  0  0  0  0  0  0  0  0  0  0
   -0.0738    3.3414   -0.9785 H   0  0  0  0  0  0  0  0  0  0  0  0
   -0.0016    1.3903   -0.0012 C   0  0  0  0  0  0  0  0  0  0  0  0
   -1.1877    0.6850   -0.0025 C   0  0  0  0  0  0  0  0  0  0  0  0
   -2.0569    1.1783   -0.0061 H   0  0  0  0  0  0  0  0  0  0  0  0
   -1.1863   -0.6852    0.0000 C   0  0  0  0  0  0  0  0  0  0  0  0
   -2.0669   -1.1866    0.0043 H   0  0  0  0  0  0  0  0  0  0  0  0
    0.0022   -1.3746   -0.0016 C   0  0  0  0  0  0  0  0  0  0  0  0
   -0.0087   -2.3817   -0.0044 H   0  0  0  0  0  0  0  0  0  0  0  0
    1.1863   -0.6970   -0.0000 C   0  0  0  0  0  0  0  0  0  0  0  0
    2.0722   -1.1963   -0.0017 H   0  0  0  0  0  0  0  0  0  0  0  0
    1.1871    0.6815    0.0053 C   0  0  0  0  0  0  0  0  0  0  0  0
    2.0579    1.1787    0.0127 H   0  0  0  0  0  0  0  0  0  0  0  0
  1  5  1  0
  5  6  1  0
  5  7  2  0
  1  2  1  0
  1  3  1  0
  1  4  1  0
  8 12  1  0
 12 13  2  0
 13 15  1  0
 15 17  2  0
 17 19  1  0
 19 21  2  0
 21 12  1  0
  8  9  1  0
  8 10  1  0
  8 11  1  0
 13 14  1  0
 15 16  1  0
 17 18  1  0
 19 20  1  0
 21 22  1  0
M  CHG  1   6  -1
M  END
>  <PDB_ID>  (2147) 
pdb4zp4

>  <RESIDUE_NAME>  (2147) 
ASP   PHE

>  <FRAG_NAME>  (2147) 
ACET   MBZ

>  <FRAG_ATOM_NUM>  (2147) 
fragi: 7  fragj: 15

>  <atom.prop.CHAIN_ID>  (2147) 
A A A A A A A Z Z Z Z Z Z Z Z Z Z Z Z Z Z Z

>  <atom.prop.IS_HEAVY_ATOM>  (2147) 
1 0 0 0 1 1 1 1 0 0 0 1 1 0 1 0 1 0 1 0 1 0

>  <DIFUSE_FUNC_ATOM>  (2147) 
atom 6   atom 7   

>  <FINAL_SINGLE_POINT_ENERGY>  (2147) 
0

>  <NONCOV_INTER_ENERGY_QM>  (2147) 
0

>  <FF_Energy>  (2147) 
0.36

>  <QM_Energy>  (2147) 
-6.62

>  <source>  (2147) 
ACET_MBZ_02

>  <Index>  (2147) 
17306

$$$$
ACET-pdb4zp4-B-ASP-258:MBZ-pdb4zp4-B-PHE-244
     RDKit          3D

 22 21  0  0  0  0  0  0  0  0999 V2000
    4.2429    5.6906    1.3387 C   0  0  0  0  0  0  0  0  0  0  0  0
    4.1317    6.6454    1.5954 H   0  0  0  0  0  0  0  0  0  0  0  0
    4.8119    5.6161    0.5261 H   0  0  0  0  0  0  0  0  0  0  0  0
    4.7597    5.1849    2.1544 H   0  0  0  0  0  0  0  0  0  0  0  0
    2.8895    5.0988    1.0479 C   0  0  0  0  0  0  0  0  0  0  0  0
    2.7272    3.8830    1.2647 O   0  0  0  0  0  1  0  0  0  0  0  0
    1.9871    5.8478    0.6080 O   0  0  0  0  0  0  0  0  0  0  0  0
    0.0049    2.8633   -0.0007 C   0  0  0  0  0  0  0  0  0  0  0  0
    0.8423    3.1733    0.4304 H   0  0  0  0  0  0  0  0  0  0  0  0
   -0.7893    3.1797    0.5005 H   0  0  0  0  0  0  0  0  0  0  0  0
   -0.0370    3.2944   -1.0010 H   0  0  0  0  0  0  0  0  0  0  0  0
   -0.0007    1.3841    0.0028 C   0  0  0  0  0  0  0  0  0  0  0  0
   -1.1875    0.6925   -0.0006 C   0  0  0  0  0  0  0  0  0  0  0  0
   -2.0548    1.1855   -0.0043 H   0  0  0  0  0  0  0  0  0  0  0  0
   -1.1905   -0.6837    0.0000 C   0  0  0  0  0  0  0  0  0  0  0  0
   -2.0695   -1.1826    0.0018 H   0  0  0  0  0  0  0  0  0  0  0  0
    0.0030   -1.3778    0.0004 C   0  0  0  0  0  0  0  0  0  0  0  0
   -0.0072   -2.3808    0.0008 H   0  0  0  0  0  0  0  0  0  0  0  0
    1.1905   -0.6930    0.0000 C   0  0  0  0  0  0  0  0  0  0  0  0
    2.0748   -1.1946    0.0026 H   0  0  0  0  0  0  0  0  0  0  0  0
    1.1852    0.6780   -0.0027 C   0  0  0  0  0  0  0  0  0  0  0  0
    2.0566    1.1802   -0.0095 H   0  0  0  0  0  0  0  0  0  0  0  0
  1  5  1  0
  5  6  1  0
  5  7  2  0
  1  2  1  0
  1  3  1  0
  1  4  1  0
  8 12  1  0
 12 13  2  0
 13 15  1  0
 15 17  2  0
 17 19  1  0
 19 21  2  0
 21 12  1  0
  8  9  1  0
  8 10  1  0
  8 11  1  0
 13 14  1  0
 15 16  1  0
 17 18  1  0
 19 20  1  0
 21 22  1  0
M  CHG  1   6  -1
M  END
>  <PDB_ID>  (2148) 
pdb4zp4

>  <RESIDUE_NAME>  (2148) 
ASP   PHE

>  <FRAG_NAME>  (2148) 
ACET   MBZ

>  <FRAG_ATOM_NUM>  (2148) 
fragi: 7  fragj: 15

>  <atom.prop.CHAIN_ID>  (2148) 
A A A A A A A Z Z Z Z Z Z Z Z Z Z Z Z Z Z Z

>  <atom.prop.IS_HEAVY_ATOM>  (2148) 
1 0 0 0 1 1 1 1 0 0 0 1 1 0 1 0 1 0 1 0 1 0

>  <DIFUSE_FUNC_ATOM>  (2148) 
atom 6   atom 7   

>  <FINAL_SINGLE_POINT_ENERGY>  (2148) 
0

>  <NONCOV_INTER_ENERGY_QM>  (2148) 
0

>  <FF_Energy>  (2148) 
0.01

>  <QM_Energy>  (2148) 
-7.51

>  <source>  (2148) 
ACET_MBZ_02

>  <Index>  (2148) 
17311

$$$$
ACET-pdb4zsb-A-ASP-101:MBZ-pdb4zsb-A-PHE-245
     RDKit          3D

 22 21  0  0  0  0  0  0  0  0999 V2000
   -6.4021   -0.5580   -1.0979 C   0  0  0  0  0  0  0  0  0  0  0  0
   -6.7841   -0.1969   -0.2556 H   0  0  0  0  0  0  0  0  0  0  0  0
   -6.2228   -1.5300   -1.0130 H   0  0  0  0  0  0  0  0  0  0  0  0
   -7.1340   -0.4144   -1.8927 H   0  0  0  0  0  0  0  0  0  0  0  0
   -5.0729    0.1571   -1.3705 C   0  0  0  0  0  0  0  0  0  0  0  0
   -5.0613    1.2814   -1.9381 O   0  0  0  0  0  1  0  0  0  0  0  0
   -4.0277   -0.4185   -1.0081 O   0  0  0  0  0  0  0  0  0  0  0  0
   -0.0059    2.8914   -0.0363 C   0  0  0  0  0  0  0  0  0  0  0  0
    0.8767    3.2074    0.2583 H   0  0  0  0  0  0  0  0  0  0  0  0
   -0.7303    3.2088    0.5481 H   0  0  0  0  0  0  0  0  0  0  0  0
   -0.1871    3.2665   -1.0435 H   0  0  0  0  0  0  0  0  0  0  0  0
    0.0019    1.3906    0.0114 C   0  0  0  0  0  0  0  0  0  0  0  0
   -1.1966    0.6802   -0.0080 C   0  0  0  0  0  0  0  0  0  0  0  0
   -2.0601    1.1802   -0.0288 H   0  0  0  0  0  0  0  0  0  0  0  0
   -1.1999   -0.6907    0.0000 C   0  0  0  0  0  0  0  0  0  0  0  0
   -2.0768   -1.1918    0.0027 H   0  0  0  0  0  0  0  0  0  0  0  0
   -0.0046   -1.3805    0.0060 C   0  0  0  0  0  0  0  0  0  0  0  0
   -0.0044   -2.3820    0.0145 H   0  0  0  0  0  0  0  0  0  0  0  0
    1.1999   -0.6871    0.0000 C   0  0  0  0  0  0  0  0  0  0  0  0
    2.0772   -1.1959    0.0042 H   0  0  0  0  0  0  0  0  0  0  0  0
    1.1993    0.6874   -0.0094 C   0  0  0  0  0  0  0  0  0  0  0  0
    2.0639    1.1903   -0.0323 H   0  0  0  0  0  0  0  0  0  0  0  0
  1  5  1  0
  5  6  1  0
  5  7  2  0
  1  2  1  0
  1  3  1  0
  1  4  1  0
  8 12  1  0
 12 13  2  0
 13 15  1  0
 15 17  2  0
 17 19  1  0
 19 21  2  0
 21 12  1  0
  8  9  1  0
  8 10  1  0
  8 11  1  0
 13 14  1  0
 15 16  1  0
 17 18  1  0
 19 20  1  0
 21 22  1  0
M  CHG  1   6  -1
M  END
>  <PDB_ID>  (2149) 
pdb4zsb

>  <RESIDUE_NAME>  (2149) 
ASP   PHE

>  <FRAG_NAME>  (2149) 
ACET   MBZ

>  <FRAG_ATOM_NUM>  (2149) 
fragi: 7  fragj: 15

>  <atom.prop.CHAIN_ID>  (2149) 
A A A A A A A Z Z Z Z Z Z Z Z Z Z Z Z Z Z Z

>  <atom.prop.IS_HEAVY_ATOM>  (2149) 
1 0 0 0 1 1 1 1 0 0 0 1 1 0 1 0 1 0 1 0 1 0

>  <DIFUSE_FUNC_ATOM>  (2149) 
atom 6   atom 7   

>  <FINAL_SINGLE_POINT_ENERGY>  (2149) 
0

>  <NONCOV_INTER_ENERGY_QM>  (2149) 
0

>  <FF_Energy>  (2149) 
-1.13

>  <QM_Energy>  (2149) 
-6.51

>  <source>  (2149) 
ACET_MBZ_02

>  <Index>  (2149) 
17372

$$$$
ACET-pdb4ztc-A-GLU-154:MBZ-pdb4ztc-A-PHE-172
     RDKit          3D

 22 21  0  0  0  0  0  0  0  0999 V2000
   -3.6941    4.8842   -2.3830 C   0  0  0  0  0  0  0  0  0  0  0  0
   -3.4276    4.5804   -3.2573 H   0  0  0  0  0  0  0  0  0  0  0  0
   -3.2121    5.6427   -2.0365 H   0  0  0  0  0  0  0  0  0  0  0  0
   -4.7576    5.1224   -2.4042 H   0  0  0  0  0  0  0  0  0  0  0  0
   -3.5326    3.7516   -1.4255 C   0  0  0  0  0  0  0  0  0  0  0  0
   -3.8280    2.6013   -1.8231 O   0  0  0  0  0  1  0  0  0  0  0  0
   -3.1888    4.0471   -0.2586 O   0  0  0  0  0  0  0  0  0  0  0  0
   -0.0091    2.8959    0.0191 C   0  0  0  0  0  0  0  0  0  0  0  0
   -0.6980    3.2042   -0.6217 H   0  0  0  0  0  0  0  0  0  0  0  0
    0.8926    3.2010   -0.2535 H   0  0  0  0  0  0  0  0  0  0  0  0
   -0.2332    3.3361    0.9908 H   0  0  0  0  0  0  0  0  0  0  0  0
   -0.0110    1.3947    0.0152 C   0  0  0  0  0  0  0  0  0  0  0  0
   -1.1909    0.6988   -0.0098 C   0  0  0  0  0  0  0  0  0  0  0  0
   -2.0627    1.1869   -0.0368 H   0  0  0  0  0  0  0  0  0  0  0  0
   -1.1956   -0.6836    0.0000 C   0  0  0  0  0  0  0  0  0  0  0  0
   -2.0697   -1.1826    0.0223 H   0  0  0  0  0  0  0  0  0  0  0  0
    0.0093   -1.3864   -0.0194 C   0  0  0  0  0  0  0  0  0  0  0  0
   -0.0104   -2.3871   -0.0486 H   0  0  0  0  0  0  0  0  0  0  0  0
    1.1956   -0.7043    0.0000 C   0  0  0  0  0  0  0  0  0  0  0  0
    2.0821   -1.1998    0.0063 H   0  0  0  0  0  0  0  0  0  0  0  0
    1.1926    0.6809    0.0139 C   0  0  0  0  0  0  0  0  0  0  0  0
    2.0571    1.1822    0.0222 H   0  0  0  0  0  0  0  0  0  0  0  0
  1  5  1  0
  5  6  1  0
  5  7  2  0
  1  2  1  0
  1  3  1  0
  1  4  1  0
  8 12  1  0
 12 13  2  0
 13 15  1  0
 15 17  2  0
 17 19  1  0
 19 21  2  0
 21 12  1  0
  8  9  1  0
  8 10  1  0
  8 11  1  0
 13 14  1  0
 15 16  1  0
 17 18  1  0
 19 20  1  0
 21 22  1  0
M  CHG  1   6  -1
M  END
>  <PDB_ID>  (2150) 
pdb4ztc

>  <RESIDUE_NAME>  (2150) 
GLU   PHE

>  <FRAG_NAME>  (2150) 
ACET   MBZ

>  <FRAG_ATOM_NUM>  (2150) 
fragi: 7  fragj: 15

>  <atom.prop.CHAIN_ID>  (2150) 
A A A A A A A Z Z Z Z Z Z Z Z Z Z Z Z Z Z Z

>  <atom.prop.IS_HEAVY_ATOM>  (2150) 
1 0 0 0 1 1 1 1 0 0 0 1 1 0 1 0 1 0 1 0 1 0

>  <DIFUSE_FUNC_ATOM>  (2150) 
atom 6   atom 7   

>  <FINAL_SINGLE_POINT_ENERGY>  (2150) 
0

>  <NONCOV_INTER_ENERGY_QM>  (2150) 
0

>  <FF_Energy>  (2150) 
-2.51

>  <QM_Energy>  (2150) 
-7.76

>  <source>  (2150) 
ACET_MBZ_02

>  <Index>  (2150) 
17384

$$$$
ACET-pdb5a1s-A-GLU-103:MBZ-pdb5a1s-A-PHE-99
     RDKit          3D

 22 21  0  0  0  0  0  0  0  0999 V2000
   -4.2389    2.6892    2.9972 C   0  0  0  0  0  0  0  0  0  0  0  0
   -4.6773    1.9250    3.4308 H   0  0  0  0  0  0  0  0  0  0  0  0
   -4.5509    3.5505    3.3531 H   0  0  0  0  0  0  0  0  0  0  0  0
   -3.1672    2.6134    3.1814 H   0  0  0  0  0  0  0  0  0  0  0  0
   -4.5888    2.6460    1.5215 C   0  0  0  0  0  0  0  0  0  0  0  0
   -3.6587    2.5973    0.6909 O   0  0  0  0  0  1  0  0  0  0  0  0
   -5.7939    2.6643    1.1913 O   0  0  0  0  0  0  0  0  0  0  0  0
    0.0116    2.8961    0.0064 C   0  0  0  0  0  0  0  0  0  0  0  0
    0.9084    3.1972   -0.2847 H   0  0  0  0  0  0  0  0  0  0  0  0
   -0.1835    3.1996    0.9290 H   0  0  0  0  0  0  0  0  0  0  0  0
   -0.7241    3.3515   -0.6565 H   0  0  0  0  0  0  0  0  0  0  0  0
   -0.0002    1.3957   -0.0014 C   0  0  0  0  0  0  0  0  0  0  0  0
   -1.1958    0.6902    0.0001 C   0  0  0  0  0  0  0  0  0  0  0  0
   -2.0619    1.1796    0.0002 H   0  0  0  0  0  0  0  0  0  0  0  0
   -1.1968   -0.6969    0.0000 C   0  0  0  0  0  0  0  0  0  0  0  0
   -2.0727   -1.1940    0.0015 H   0  0  0  0  0  0  0  0  0  0  0  0
    0.0041   -1.3862   -0.0004 C   0  0  0  0  0  0  0  0  0  0  0  0
    0.0013   -2.3882   -0.0016 H   0  0  0  0  0  0  0  0  0  0  0  0
    1.1968   -0.6919    0.0000 C   0  0  0  0  0  0  0  0  0  0  0  0
    2.0816   -1.1906    0.0005 H   0  0  0  0  0  0  0  0  0  0  0  0
    1.1919    0.6891    0.0017 C   0  0  0  0  0  0  0  0  0  0  0  0
    2.0609    1.1891    0.0045 H   0  0  0  0  0  0  0  0  0  0  0  0
  1  5  1  0
  5  6  1  0
  5  7  2  0
  1  2  1  0
  1  3  1  0
  1  4  1  0
  8 12  1  0
 12 13  2  0
 13 15  1  0
 15 17  2  0
 17 19  1  0
 19 21  2  0
 21 12  1  0
  8  9  1  0
  8 10  1  0
  8 11  1  0
 13 14  1  0
 15 16  1  0
 17 18  1  0
 19 20  1  0
 21 22  1  0
M  CHG  1   6  -1
M  END
>  <PDB_ID>  (2151) 
pdb5a1s

>  <RESIDUE_NAME>  (2151) 
GLU   PHE

>  <FRAG_NAME>  (2151) 
ACET   MBZ

>  <FRAG_ATOM_NUM>  (2151) 
fragi: 7  fragj: 15

>  <atom.prop.CHAIN_ID>  (2151) 
A A A A A A A Z Z Z Z Z Z Z Z Z Z Z Z Z Z Z

>  <atom.prop.IS_HEAVY_ATOM>  (2151) 
1 0 0 0 1 1 1 1 0 0 0 1 1 0 1 0 1 0 1 0 1 0

>  <DIFUSE_FUNC_ATOM>  (2151) 
atom 6   atom 7   

>  <FINAL_SINGLE_POINT_ENERGY>  (2151) 
0

>  <NONCOV_INTER_ENERGY_QM>  (2151) 
0

>  <FF_Energy>  (2151) 
-1.1

>  <QM_Energy>  (2151) 
-6.99

>  <source>  (2151) 
ACET_MBZ_02

>  <Index>  (2151) 
17560

$$$$
ACET-pdb5a1s-B-GLU-103:MBZ-pdb5a1s-B-PHE-99
     RDKit          3D

 22 21  0  0  0  0  0  0  0  0999 V2000
   -4.3872    2.2132    3.0733 C   0  0  0  0  0  0  0  0  0  0  0  0
   -4.9376    1.5430    3.5352 H   0  0  0  0  0  0  0  0  0  0  0  0
   -4.6028    3.1303    3.3549 H   0  0  0  0  0  0  0  0  0  0  0  0
   -3.3423    2.0192    3.3157 H   0  0  0  0  0  0  0  0  0  0  0  0
   -4.6826    2.1076    1.5881 C   0  0  0  0  0  0  0  0  0  0  0  0
   -3.7740    2.3795    0.7756 O   0  0  0  0  0  1  0  0  0  0  0  0
   -5.8262    1.7521    1.2321 O   0  0  0  0  0  0  0  0  0  0  0  0
    0.0022    2.8990    0.0040 C   0  0  0  0  0  0  0  0  0  0  0  0
    0.8527    3.2059   -0.3967 H   0  0  0  0  0  0  0  0  0  0  0  0
   -0.0814    3.2038    0.9418 H   0  0  0  0  0  0  0  0  0  0  0  0
   -0.8132    3.3458   -0.5646 H   0  0  0  0  0  0  0  0  0  0  0  0
   -0.0006    1.3976   -0.0003 C   0  0  0  0  0  0  0  0  0  0  0  0
   -1.1945    0.6913   -0.0002 C   0  0  0  0  0  0  0  0  0  0  0  0
   -2.0617    1.1811   -0.0018 H   0  0  0  0  0  0  0  0  0  0  0  0
   -1.1976   -0.6957    0.0000 C   0  0  0  0  0  0  0  0  0  0  0  0
   -2.0742   -1.1910    0.0020 H   0  0  0  0  0  0  0  0  0  0  0  0
    0.0017   -1.3882   -0.0006 C   0  0  0  0  0  0  0  0  0  0  0  0
   -0.0023   -2.3894   -0.0023 H   0  0  0  0  0  0  0  0  0  0  0  0
    1.1976   -0.6949   -0.0000 C   0  0  0  0  0  0  0  0  0  0  0  0
    2.0811   -1.1936    0.0009 H   0  0  0  0  0  0  0  0  0  0  0  0
    1.1934    0.6899    0.0011 C   0  0  0  0  0  0  0  0  0  0  0  0
    2.0622    1.1880    0.0017 H   0  0  0  0  0  0  0  0  0  0  0  0
  1  5  1  0
  5  6  1  0
  5  7  2  0
  1  2  1  0
  1  3  1  0
  1  4  1  0
  8 12  1  0
 12 13  2  0
 13 15  1  0
 15 17  2  0
 17 19  1  0
 19 21  2  0
 21 12  1  0
  8  9  1  0
  8 10  1  0
  8 11  1  0
 13 14  1  0
 15 16  1  0
 17 18  1  0
 19 20  1  0
 21 22  1  0
M  CHG  1   6  -1
M  END
>  <PDB_ID>  (2152) 
pdb5a1s

>  <RESIDUE_NAME>  (2152) 
GLU   PHE

>  <FRAG_NAME>  (2152) 
ACET   MBZ

>  <FRAG_ATOM_NUM>  (2152) 
fragi: 7  fragj: 15

>  <atom.prop.CHAIN_ID>  (2152) 
A A A A A A A Z Z Z Z Z Z Z Z Z Z Z Z Z Z Z

>  <atom.prop.IS_HEAVY_ATOM>  (2152) 
1 0 0 0 1 1 1 1 0 0 0 1 1 0 1 0 1 0 1 0 1 0

>  <DIFUSE_FUNC_ATOM>  (2152) 
atom 6   atom 7   

>  <FINAL_SINGLE_POINT_ENERGY>  (2152) 
0

>  <NONCOV_INTER_ENERGY_QM>  (2152) 
0

>  <FF_Energy>  (2152) 
-1.07

>  <QM_Energy>  (2152) 
-6.85

>  <source>  (2152) 
ACET_MBZ_02

>  <Index>  (2152) 
17565

$$$$
ACET-pdb5a1s-C-GLU-103:MBZ-pdb5a1s-C-PHE-99
     RDKit          3D

 22 21  0  0  0  0  0  0  0  0999 V2000
   -4.3900    2.0775    3.3218 C   0  0  0  0  0  0  0  0  0  0  0  0
   -4.7009    1.2727    3.7880 H   0  0  0  0  0  0  0  0  0  0  0  0
   -4.8376    2.8919    3.6355 H   0  0  0  0  0  0  0  0  0  0  0  0
   -3.3202    2.1841    3.5020 H   0  0  0  0  0  0  0  0  0  0  0  0
   -4.7159    1.9115    1.8489 C   0  0  0  0  0  0  0  0  0  0  0  0
   -3.8335    2.1928    1.0099 O   0  0  0  0  0  1  0  0  0  0  0  0
   -5.8524    1.5024    1.5293 O   0  0  0  0  0  0  0  0  0  0  0  0
    0.0002    2.8960   -0.0003 C   0  0  0  0  0  0  0  0  0  0  0  0
    0.8352    3.2029   -0.4316 H   0  0  0  0  0  0  0  0  0  0  0  0
   -0.0527    3.2040    0.9381 H   0  0  0  0  0  0  0  0  0  0  0  0
   -0.8362    3.3368   -0.5429 H   0  0  0  0  0  0  0  0  0  0  0  0
   -0.0001    1.3962    0.0003 C   0  0  0  0  0  0  0  0  0  0  0  0
   -1.1943    0.6892   -0.0001 C   0  0  0  0  0  0  0  0  0  0  0  0
   -2.0615    1.1799   -0.0022 H   0  0  0  0  0  0  0  0  0  0  0  0
   -1.1973   -0.6962   -0.0000 C   0  0  0  0  0  0  0  0  0  0  0  0
   -2.0741   -1.1923    0.0015 H   0  0  0  0  0  0  0  0  0  0  0  0
    0.0014   -1.3863    0.0005 C   0  0  0  0  0  0  0  0  0  0  0  0
   -0.0018   -2.3888    0.0004 H   0  0  0  0  0  0  0  0  0  0  0  0
    1.1973   -0.6937    0.0000 C   0  0  0  0  0  0  0  0  0  0  0  0
    2.0805   -1.1924    0.0012 H   0  0  0  0  0  0  0  0  0  0  0  0
    1.1930    0.6908   -0.0006 C   0  0  0  0  0  0  0  0  0  0  0  0
    2.0615    1.1887   -0.0024 H   0  0  0  0  0  0  0  0  0  0  0  0
  1  5  1  0
  5  6  1  0
  5  7  2  0
  1  2  1  0
  1  3  1  0
  1  4  1  0
  8 12  1  0
 12 13  2  0
 13 15  1  0
 15 17  2  0
 17 19  1  0
 19 21  2  0
 21 12  1  0
  8  9  1  0
  8 10  1  0
  8 11  1  0
 13 14  1  0
 15 16  1  0
 17 18  1  0
 19 20  1  0
 21 22  1  0
M  CHG  1   6  -1
M  END
>  <PDB_ID>  (2153) 
pdb5a1s

>  <RESIDUE_NAME>  (2153) 
GLU   PHE

>  <FRAG_NAME>  (2153) 
ACET   MBZ

>  <FRAG_ATOM_NUM>  (2153) 
fragi: 7  fragj: 15

>  <atom.prop.CHAIN_ID>  (2153) 
A A A A A A A Z Z Z Z Z Z Z Z Z Z Z Z Z Z Z

>  <atom.prop.IS_HEAVY_ATOM>  (2153) 
1 0 0 0 1 1 1 1 0 0 0 1 1 0 1 0 1 0 1 0 1 0

>  <DIFUSE_FUNC_ATOM>  (2153) 
atom 6   atom 7   

>  <FINAL_SINGLE_POINT_ENERGY>  (2153) 
0

>  <NONCOV_INTER_ENERGY_QM>  (2153) 
0

>  <FF_Energy>  (2153) 
-1.35

>  <QM_Energy>  (2153) 
-6.49

>  <source>  (2153) 
ACET_MBZ_02

>  <Index>  (2153) 
17566

$$$$
ACET-pdb5a2v-A-GLU-498:MBZ-pdb5a2v-A-PHE-527
     RDKit          3D

 22 21  0  0  0  0  0  0  0  0999 V2000
    1.6159    0.5576    3.7244 C   0  0  0  0  0  0  0  0  0  0  0  0
    1.0881    0.0637    3.0511 H   0  0  0  0  0  0  0  0  0  0  0  0
    1.2597    0.4196    4.6348 H   0  0  0  0  0  0  0  0  0  0  0  0
    2.6346    0.1707    3.7003 H   0  0  0  0  0  0  0  0  0  0  0  0
    1.5032    2.0364    3.4043 C   0  0  0  0  0  0  0  0  0  0  0  0
    2.4988    2.6355    2.9425 O   0  0  0  0  0  1  0  0  0  0  0  0
    0.3991    2.5966    3.6057 O   0  0  0  0  0  0  0  0  0  0  0  0
    0.0230    2.9116    0.0152 C   0  0  0  0  0  0  0  0  0  0  0  0
    0.8671    3.2087   -0.4104 H   0  0  0  0  0  0  0  0  0  0  0  0
   -0.0193    3.2024    0.9611 H   0  0  0  0  0  0  0  0  0  0  0  0
   -0.8037    3.3824   -0.5168 H   0  0  0  0  0  0  0  0  0  0  0  0
    0.0016    1.4016   -0.0054 C   0  0  0  0  0  0  0  0  0  0  0  0
   -1.1963    0.6883    0.0044 C   0  0  0  0  0  0  0  0  0  0  0  0
   -2.0626    1.1802    0.0131 H   0  0  0  0  0  0  0  0  0  0  0  0
   -1.1978   -0.6968   -0.0000 C   0  0  0  0  0  0  0  0  0  0  0  0
   -2.0753   -1.1939   -0.0022 H   0  0  0  0  0  0  0  0  0  0  0  0
    0.0003   -1.3900   -0.0001 C   0  0  0  0  0  0  0  0  0  0  0  0
   -0.0020   -2.3896   -0.0007 H   0  0  0  0  0  0  0  0  0  0  0  0
    1.1978   -0.6934    0.0000 C   0  0  0  0  0  0  0  0  0  0  0  0
    2.0804   -1.1940    0.0005 H   0  0  0  0  0  0  0  0  0  0  0  0
    1.1944    0.6904    0.0010 C   0  0  0  0  0  0  0  0  0  0  0  0
    2.0644    1.1880    0.0061 H   0  0  0  0  0  0  0  0  0  0  0  0
  1  5  1  0
  5  6  1  0
  5  7  2  0
  1  2  1  0
  1  3  1  0
  1  4  1  0
  8 12  1  0
 12 13  2  0
 13 15  1  0
 15 17  2  0
 17 19  1  0
 19 21  2  0
 21 12  1  0
  8  9  1  0
  8 10  1  0
  8 11  1  0
 13 14  1  0
 15 16  1  0
 17 18  1  0
 19 20  1  0
 21 22  1  0
M  CHG  1   6  -1
M  END
>  <PDB_ID>  (2154) 
pdb5a2v

>  <RESIDUE_NAME>  (2154) 
GLU   PHE

>  <FRAG_NAME>  (2154) 
ACET   MBZ

>  <FRAG_ATOM_NUM>  (2154) 
fragi: 7  fragj: 15

>  <atom.prop.CHAIN_ID>  (2154) 
A A A A A A A Z Z Z Z Z Z Z Z Z Z Z Z Z Z Z

>  <atom.prop.IS_HEAVY_ATOM>  (2154) 
1 0 0 0 1 1 1 1 0 0 0 1 1 0 1 0 1 0 1 0 1 0

>  <DIFUSE_FUNC_ATOM>  (2154) 
atom 6   atom 7   

>  <FINAL_SINGLE_POINT_ENERGY>  (2154) 
0

>  <NONCOV_INTER_ENERGY_QM>  (2154) 
0

>  <FF_Energy>  (2154) 
-0.87

>  <QM_Energy>  (2154) 
-6.42

>  <source>  (2154) 
ACET_MBZ_02

>  <Index>  (2154) 
17624

$$$$
ACET-pdb5a98-A-ASP-128:MBZ-pdb5a98-A-PHE-132
     RDKit          3D

 22 21  0  0  0  0  0  0  0  0999 V2000
    4.3387    5.5648   -0.7187 C   0  0  0  0  0  0  0  0  0  0  0  0
    5.3147    5.4884   -0.5438 H   0  0  0  0  0  0  0  0  0  0  0  0
    3.9374    6.2616   -0.1336 H   0  0  0  0  0  0  0  0  0  0  0  0
    4.2079    5.8807   -1.7537 H   0  0  0  0  0  0  0  0  0  0  0  0
    3.6820    4.2331   -0.4172 C   0  0  0  0  0  0  0  0  0  0  0  0
    3.0182    3.6820   -1.3075 O   0  0  0  0  0  1  0  0  0  0  0  0
    3.8223    3.7368    0.7267 O   0  0  0  0  0  0  0  0  0  0  0  0
   -0.0106    2.9097   -0.0077 C   0  0  0  0  0  0  0  0  0  0  0  0
    0.9141    3.2204    0.1248 H   0  0  0  0  0  0  0  0  0  0  0  0
   -0.6089    3.2158    0.7115 H   0  0  0  0  0  0  0  0  0  0  0  0
   -0.3731    3.3338   -0.9442 H   0  0  0  0  0  0  0  0  0  0  0  0
   -0.0022    1.3995    0.0012 C   0  0  0  0  0  0  0  0  0  0  0  0
   -1.1910    0.6885    0.0006 C   0  0  0  0  0  0  0  0  0  0  0  0
   -2.0618    1.1774   -0.0010 H   0  0  0  0  0  0  0  0  0  0  0  0
   -1.1932   -0.6955    0.0000 C   0  0  0  0  0  0  0  0  0  0  0  0
   -2.0702   -1.1933    0.0003 H   0  0  0  0  0  0  0  0  0  0  0  0
    0.0075   -1.3913    0.0005 C   0  0  0  0  0  0  0  0  0  0  0  0
   -0.0009   -2.3910    0.0011 H   0  0  0  0  0  0  0  0  0  0  0  0
    1.1932   -0.6975   -0.0000 C   0  0  0  0  0  0  0  0  0  0  0  0
    2.0820   -1.1863    0.0029 H   0  0  0  0  0  0  0  0  0  0  0  0
    1.1856    0.6964   -0.0023 C   0  0  0  0  0  0  0  0  0  0  0  0
    2.0586    1.1891   -0.0073 H   0  0  0  0  0  0  0  0  0  0  0  0
  1  5  1  0
  5  6  1  0
  5  7  2  0
  1  2  1  0
  1  3  1  0
  1  4  1  0
  8 12  1  0
 12 13  2  0
 13 15  1  0
 15 17  2  0
 17 19  1  0
 19 21  2  0
 21 12  1  0
  8  9  1  0
  8 10  1  0
  8 11  1  0
 13 14  1  0
 15 16  1  0
 17 18  1  0
 19 20  1  0
 21 22  1  0
M  CHG  1   6  -1
M  END
>  <PDB_ID>  (2155) 
pdb5a98

>  <RESIDUE_NAME>  (2155) 
ASP   PHE

>  <FRAG_NAME>  (2155) 
ACET   MBZ

>  <FRAG_ATOM_NUM>  (2155) 
fragi: 7  fragj: 15

>  <atom.prop.CHAIN_ID>  (2155) 
A A A A A A A Z Z Z Z Z Z Z Z Z Z Z Z Z Z Z

>  <atom.prop.IS_HEAVY_ATOM>  (2155) 
1 0 0 0 1 1 1 1 0 0 0 1 1 0 1 0 1 0 1 0 1 0

>  <DIFUSE_FUNC_ATOM>  (2155) 
atom 6   atom 7   

>  <FINAL_SINGLE_POINT_ENERGY>  (2155) 
0

>  <NONCOV_INTER_ENERGY_QM>  (2155) 
0

>  <FF_Energy>  (2155) 
-2.31

>  <QM_Energy>  (2155) 
-8.15

>  <source>  (2155) 
ACET_MBZ_02

>  <Index>  (2155) 
17705

$$$$
ACET-pdb5aa5-I-ASP-129:MBZ-pdb5aa5-I-PHE-182
     RDKit          3D

 22 21  0  0  0  0  0  0  0  0999 V2000
    3.0647   -2.0152    3.2770 C   0  0  0  0  0  0  0  0  0  0  0  0
    2.5766   -2.2632    4.1032 H   0  0  0  0  0  0  0  0  0  0  0  0
    2.8032   -1.1097    2.9704 H   0  0  0  0  0  0  0  0  0  0  0  0
    4.1309   -2.0029    3.5035 H   0  0  0  0  0  0  0  0  0  0  0  0
    2.7100   -3.0204    2.1824 C   0  0  0  0  0  0  0  0  0  0  0  0
    3.0777   -2.7775    1.0168 O   0  0  0  0  0  1  0  0  0  0  0  0
    2.0607   -4.0488    2.4813 O   0  0  0  0  0  0  0  0  0  0  0  0
   -0.0034    2.8798    0.0009 C   0  0  0  0  0  0  0  0  0  0  0  0
   -0.4550    3.1904   -0.8227 H   0  0  0  0  0  0  0  0  0  0  0  0
    0.9346    3.1915    0.0344 H   0  0  0  0  0  0  0  0  0  0  0  0
   -0.5290    3.3120    0.8524 H   0  0  0  0  0  0  0  0  0  0  0  0
   -0.0003    1.3891   -0.0014 C   0  0  0  0  0  0  0  0  0  0  0  0
   -1.1900    0.6835    0.0001 C   0  0  0  0  0  0  0  0  0  0  0  0
   -2.0582    1.1768    0.0003 H   0  0  0  0  0  0  0  0  0  0  0  0
   -1.1931   -0.6931   -0.0000 C   0  0  0  0  0  0  0  0  0  0  0  0
   -2.0707   -1.1921   -0.0009 H   0  0  0  0  0  0  0  0  0  0  0  0
    0.0017   -1.3815    0.0021 C   0  0  0  0  0  0  0  0  0  0  0  0
   -0.0005   -2.3837    0.0049 H   0  0  0  0  0  0  0  0  0  0  0  0
    1.1931   -0.6887    0.0000 C   0  0  0  0  0  0  0  0  0  0  0  0
    2.0778   -1.1879    0.0005 H   0  0  0  0  0  0  0  0  0  0  0  0
    1.1886    0.6907   -0.0007 C   0  0  0  0  0  0  0  0  0  0  0  0
    2.0582    1.1892   -0.0014 H   0  0  0  0  0  0  0  0  0  0  0  0
  1  5  1  0
  5  6  1  0
  5  7  2  0
  1  2  1  0
  1  3  1  0
  1  4  1  0
  8 12  1  0
 12 13  2  0
 13 15  1  0
 15 17  2  0
 17 19  1  0
 19 21  2  0
 21 12  1  0
  8  9  1  0
  8 10  1  0
  8 11  1  0
 13 14  1  0
 15 16  1  0
 17 18  1  0
 19 20  1  0
 21 22  1  0
M  CHG  1   6  -1
M  END
>  <PDB_ID>  (2156) 
pdb5aa5

>  <RESIDUE_NAME>  (2156) 
ASP   PHE

>  <FRAG_NAME>  (2156) 
ACET   MBZ

>  <FRAG_ATOM_NUM>  (2156) 
fragi: 7  fragj: 15

>  <atom.prop.CHAIN_ID>  (2156) 
A A A A A A A Z Z Z Z Z Z Z Z Z Z Z Z Z Z Z

>  <atom.prop.IS_HEAVY_ATOM>  (2156) 
1 0 0 0 1 1 1 1 0 0 0 1 1 0 1 0 1 0 1 0 1 0

>  <DIFUSE_FUNC_ATOM>  (2156) 
atom 6   atom 7   

>  <FINAL_SINGLE_POINT_ENERGY>  (2156) 
0

>  <NONCOV_INTER_ENERGY_QM>  (2156) 
0

>  <FF_Energy>  (2156) 
0.34

>  <QM_Energy>  (2156) 
-5.67

>  <source>  (2156) 
ACET_MBZ_02

>  <Index>  (2156) 
17812

$$$$
ACET-pdb5aal-B-ASP-54:MBZ-pdb5aal-B-PHE-1
     RDKit          3D

 22 21  0  0  0  0  0  0  0  0999 V2000
    3.7527    1.8029    2.9005 C   0  0  0  0  0  0  0  0  0  0  0  0
    4.4785    1.5591    2.3043 H   0  0  0  0  0  0  0  0  0  0  0  0
    3.0838    1.1017    2.9131 H   0  0  0  0  0  0  0  0  0  0  0  0
    4.1498    1.9320    3.9074 H   0  0  0  0  0  0  0  0  0  0  0  0
    3.0901    3.0818    2.3424 C   0  0  0  0  0  0  0  0  0  0  0  0
    2.4444    3.8341    3.1131 O   0  0  0  0  0  1  0  0  0  0  0  0
    3.2199    3.3255    1.1225 O   0  0  0  0  0  0  0  0  0  0  0  0
   -0.0123    2.9093   -0.0380 C   0  0  0  0  0  0  0  0  0  0  0  0
    0.7934    3.2258    0.3983 H   0  0  0  0  0  0  0  0  0  0  0  0
   -0.7946    3.2175    0.4458 H   0  0  0  0  0  0  0  0  0  0  0  0
   -0.0448    3.3052   -1.0530 H   0  0  0  0  0  0  0  0  0  0  0  0
   -0.0036    1.4003    0.0063 C   0  0  0  0  0  0  0  0  0  0  0  0
   -1.1954    0.6858   -0.0045 C   0  0  0  0  0  0  0  0  0  0  0  0
   -2.0049    1.1452   -0.0104 H   0  0  0  0  0  0  0  0  0  0  0  0
   -1.1971   -0.6874   -0.0000 C   0  0  0  0  0  0  0  0  0  0  0  0
   -2.0034   -1.1505    0.0027 H   0  0  0  0  0  0  0  0  0  0  0  0
    0.0051   -1.3861    0.0002 C   0  0  0  0  0  0  0  0  0  0  0  0
    0.0022   -2.3158    0.0111 H   0  0  0  0  0  0  0  0  0  0  0  0
    1.1971   -0.7025    0.0000 C   0  0  0  0  0  0  0  0  0  0  0  0
    2.0027   -1.1679    0.0044 H   0  0  0  0  0  0  0  0  0  0  0  0
    1.1939    0.6899   -0.0019 C   0  0  0  0  0  0  0  0  0  0  0  0
    2.0019    1.1506   -0.0086 H   0  0  0  0  0  0  0  0  0  0  0  0
  1  5  1  0
  5  6  1  0
  5  7  2  0
  1  2  1  0
  1  3  1  0
  1  4  1  0
  8 12  1  0
 12 13  2  0
 13 15  1  0
 15 17  2  0
 17 19  1  0
 19 21  2  0
 21 12  1  0
  8  9  1  0
  8 10  1  0
  8 11  1  0
 13 14  1  0
 15 16  1  0
 17 18  1  0
 19 20  1  0
 21 22  1  0
M  CHG  1   6  -1
M  END
>  <PDB_ID>  (2157) 
pdb5aal

>  <RESIDUE_NAME>  (2157) 
ASP   PHE

>  <FRAG_NAME>  (2157) 
ACET   MBZ

>  <FRAG_ATOM_NUM>  (2157) 
fragi: 7  fragj: 15

>  <atom.prop.CHAIN_ID>  (2157) 
A A A A A A A Z Z Z Z Z Z Z Z Z Z Z Z Z Z Z

>  <atom.prop.IS_HEAVY_ATOM>  (2157) 
1 0 0 0 1 1 1 1 0 0 0 1 1 0 1 0 1 0 1 0 1 0

>  <DIFUSE_FUNC_ATOM>  (2157) 
atom 6   atom 7   

>  <FINAL_SINGLE_POINT_ENERGY>  (2157) 
0

>  <NONCOV_INTER_ENERGY_QM>  (2157) 
0

>  <FF_Energy>  (2157) 
-2.21

>  <QM_Energy>  (2157) 
-7.6

>  <source>  (2157) 
ACET_MBZ_02

>  <Index>  (2157) 
17874

$$$$
ACET-pdb6a5k-A-GLU-292:MBZ-pdb6a5k-A-PHE-581
     RDKit          3D

 22 21  0  0  0  0  0  0  0  0999 V2000
    0.3958    0.1083   -3.6645 C   0  0  0  0  0  0  0  0  0  0  0  0
    1.0320    0.1766   -2.9168 H   0  0  0  0  0  0  0  0  0  0  0  0
    0.8410    0.1853   -4.5387 H   0  0  0  0  0  0  0  0  0  0  0  0
   -0.0901   -0.8660   -3.6113 H   0  0  0  0  0  0  0  0  0  0  0  0
   -0.5774    1.2818   -3.5442 C   0  0  0  0  0  0  0  0  0  0  0  0
   -1.7944    1.0923   -3.7559 O   0  0  0  0  0  1  0  0  0  0  0  0
   -0.1172    2.4023   -3.2331 O   0  0  0  0  0  0  0  0  0  0  0  0
    0.0099    2.9063   -0.0019 C   0  0  0  0  0  0  0  0  0  0  0  0
    0.4462    3.2081   -0.8365 H   0  0  0  0  0  0  0  0  0  0  0  0
    0.5130    3.2060    0.7956 H   0  0  0  0  0  0  0  0  0  0  0  0
   -0.9823    3.3558    0.0394 H   0  0  0  0  0  0  0  0  0  0  0  0
    0.0020    1.3975   -0.0037 C   0  0  0  0  0  0  0  0  0  0  0  0
   -1.1924    0.6906    0.0046 C   0  0  0  0  0  0  0  0  0  0  0  0
   -2.0592    1.1841    0.0131 H   0  0  0  0  0  0  0  0  0  0  0  0
   -1.1978   -0.6923    0.0000 C   0  0  0  0  0  0  0  0  0  0  0  0
   -2.0775   -1.1869   -0.0022 H   0  0  0  0  0  0  0  0  0  0  0  0
   -0.0030   -1.3893    0.0008 C   0  0  0  0  0  0  0  0  0  0  0  0
   -0.0083   -2.3895    0.0017 H   0  0  0  0  0  0  0  0  0  0  0  0
    1.1978   -0.6972    0.0000 C   0  0  0  0  0  0  0  0  0  0  0  0
    2.0787   -1.1958    0.0021 H   0  0  0  0  0  0  0  0  0  0  0  0
    1.1933    0.6907   -0.0018 C   0  0  0  0  0  0  0  0  0  0  0  0
    2.0638    1.1859   -0.0027 H   0  0  0  0  0  0  0  0  0  0  0  0
  1  5  1  0
  5  6  1  0
  5  7  2  0
  1  2  1  0
  1  3  1  0
  1  4  1  0
  8 12  1  0
 12 13  2  0
 13 15  1  0
 15 17  2  0
 17 19  1  0
 19 21  2  0
 21 12  1  0
  8  9  1  0
  8 10  1  0
  8 11  1  0
 13 14  1  0
 15 16  1  0
 17 18  1  0
 19 20  1  0
 21 22  1  0
M  CHG  1   6  -1
M  END
>  <PDB_ID>  (2158) 
pdb6a5k

>  <RESIDUE_NAME>  (2158) 
GLU   PHE

>  <FRAG_NAME>  (2158) 
ACET   MBZ

>  <FRAG_ATOM_NUM>  (2158) 
fragi: 7  fragj: 15

>  <atom.prop.CHAIN_ID>  (2158) 
A A A A A A A Z Z Z Z Z Z Z Z Z Z Z Z Z Z Z

>  <atom.prop.IS_HEAVY_ATOM>  (2158) 
1 0 0 0 1 1 1 1 0 0 0 1 1 0 1 0 1 0 1 0 1 0

>  <DIFUSE_FUNC_ATOM>  (2158) 
atom 6   atom 7   

>  <FINAL_SINGLE_POINT_ENERGY>  (2158) 
0

>  <NONCOV_INTER_ENERGY_QM>  (2158) 
0

>  <FF_Energy>  (2158) 
0.74

>  <QM_Energy>  (2158) 
-4.83

>  <source>  (2158) 
ACET_MBZ_02

>  <Index>  (2158) 
17938

$$$$
ACET-pdb6a8m-A-ASP-208:MBZ-pdb6a8m-A-PHE-445
     RDKit          3D

 22 21  0  0  0  0  0  0  0  0999 V2000
    3.5823   -2.4036   -0.9797 C   0  0  0  0  0  0  0  0  0  0  0  0
    2.8983   -2.4008   -0.2571 H   0  0  0  0  0  0  0  0  0  0  0  0
    3.7773   -3.3370   -1.2642 H   0  0  0  0  0  0  0  0  0  0  0  0
    3.1647   -1.8737   -1.8358 H   0  0  0  0  0  0  0  0  0  0  0  0
    4.8532   -1.7757   -0.4534 C   0  0  0  0  0  0  0  0  0  0  0  0
    5.9144   -1.9711   -1.0828 O   0  0  0  0  0  1  0  0  0  0  0  0
    4.7930   -1.0984    0.5968 O   0  0  0  0  0  0  0  0  0  0  0  0
   -0.0085    2.8938   -0.0241 C   0  0  0  0  0  0  0  0  0  0  0  0
   -0.8193    3.1921   -0.5310 H   0  0  0  0  0  0  0  0  0  0  0  0
    0.8128    3.2029   -0.5065 H   0  0  0  0  0  0  0  0  0  0  0  0
   -0.0263    3.3955    0.9433 H   0  0  0  0  0  0  0  0  0  0  0  0
    0.0014    1.3987   -0.0073 C   0  0  0  0  0  0  0  0  0  0  0  0
   -1.1981    0.6929   -0.0079 C   0  0  0  0  0  0  0  0  0  0  0  0
   -2.0631    1.1943   -0.0153 H   0  0  0  0  0  0  0  0  0  0  0  0
   -1.2189   -0.6925   -0.0000 C   0  0  0  0  0  0  0  0  0  0  0  0
   -2.0878   -1.1855   -0.0103 H   0  0  0  0  0  0  0  0  0  0  0  0
   -0.0064   -1.3905    0.0248 C   0  0  0  0  0  0  0  0  0  0  0  0
   -0.0124   -2.3899    0.0605 H   0  0  0  0  0  0  0  0  0  0  0  0
    1.2189   -0.7010    0.0000 C   0  0  0  0  0  0  0  0  0  0  0  0
    2.0844   -1.2013   -0.0101 H   0  0  0  0  0  0  0  0  0  0  0  0
    1.2030    0.6924   -0.0097 C   0  0  0  0  0  0  0  0  0  0  0  0
    2.0693    1.1947   -0.0187 H   0  0  0  0  0  0  0  0  0  0  0  0
  1  5  1  0
  5  6  1  0
  5  7  2  0
  1  2  1  0
  1  3  1  0
  1  4  1  0
  8 12  1  0
 12 13  2  0
 13 15  1  0
 15 17  2  0
 17 19  1  0
 19 21  2  0
 21 12  1  0
  8  9  1  0
  8 10  1  0
  8 11  1  0
 13 14  1  0
 15 16  1  0
 17 18  1  0
 19 20  1  0
 21 22  1  0
M  CHG  1   6  -1
M  END
>  <PDB_ID>  (2159) 
pdb6a8m

>  <RESIDUE_NAME>  (2159) 
ASP   PHE

>  <FRAG_NAME>  (2159) 
ACET   MBZ

>  <FRAG_ATOM_NUM>  (2159) 
fragi: 7  fragj: 15

>  <atom.prop.CHAIN_ID>  (2159) 
A A A A A A A Z Z Z Z Z Z Z Z Z Z Z Z Z Z Z

>  <atom.prop.IS_HEAVY_ATOM>  (2159) 
1 0 0 0 1 1 1 1 0 0 0 1 1 0 1 0 1 0 1 0 1 0

>  <DIFUSE_FUNC_ATOM>  (2159) 
atom 6   atom 7   

>  <FINAL_SINGLE_POINT_ENERGY>  (2159) 
0

>  <NONCOV_INTER_ENERGY_QM>  (2159) 
0

>  <FF_Energy>  (2159) 
47.36

>  <QM_Energy>  (2159) 
2.49

>  <source>  (2159) 
ACET_MBZ_02

>  <Index>  (2159) 
18020

$$$$
ACET-pdb6aa8-E-ASP-31:MBZ-pdb6aa8-E-PHE-36
     RDKit          3D

 22 21  0  0  0  0  0  0  0  0999 V2000
    3.3182    5.2108    0.2521 C   0  0  0  0  0  0  0  0  0  0  0  0
    2.9699    6.0860    0.5720 H   0  0  0  0  0  0  0  0  0  0  0  0
    2.8578    4.9416   -0.5865 H   0  0  0  0  0  0  0  0  0  0  0  0
    4.3745    5.3445    0.0183 H   0  0  0  0  0  0  0  0  0  0  0  0
    3.0682    4.1612    1.3129 C   0  0  0  0  0  0  0  0  0  0  0  0
    3.3346    2.9828    1.0521 O   0  0  0  0  0  1  0  0  0  0  0  0
    2.5784    4.5041    2.4083 O   0  0  0  0  0  0  0  0  0  0  0  0
    0.0065    2.9208   -0.0029 C   0  0  0  0  0  0  0  0  0  0  0  0
    0.8130    3.2205   -0.4862 H   0  0  0  0  0  0  0  0  0  0  0  0
    0.0116    3.2221    0.9366 H   0  0  0  0  0  0  0  0  0  0  0  0
   -0.8605    3.3649   -0.4921 H   0  0  0  0  0  0  0  0  0  0  0  0
    0.0001    1.4074   -0.0046 C   0  0  0  0  0  0  0  0  0  0  0  0
   -1.1978    0.6883    0.0054 C   0  0  0  0  0  0  0  0  0  0  0  0
   -2.0653    1.1769    0.0150 H   0  0  0  0  0  0  0  0  0  0  0  0
   -1.1995   -0.7047    0.0000 C   0  0  0  0  0  0  0  0  0  0  0  0
   -2.0750   -1.1983   -0.0053 H   0  0  0  0  0  0  0  0  0  0  0  0
    0.0020   -1.3956    0.0036 C   0  0  0  0  0  0  0  0  0  0  0  0
    0.0052   -2.3934    0.0086 H   0  0  0  0  0  0  0  0  0  0  0  0
    1.1995   -0.6905    0.0000 C   0  0  0  0  0  0  0  0  0  0  0  0
    2.0835   -1.1901    0.0026 H   0  0  0  0  0  0  0  0  0  0  0  0
    1.1956    0.6950   -0.0044 C   0  0  0  0  0  0  0  0  0  0  0  0
    2.0644    1.1932   -0.0084 H   0  0  0  0  0  0  0  0  0  0  0  0
  1  5  1  0
  5  6  1  0
  5  7  2  0
  1  2  1  0
  1  3  1  0
  1  4  1  0
  8 12  1  0
 12 13  2  0
 13 15  1  0
 15 17  2  0
 17 19  1  0
 19 21  2  0
 21 12  1  0
  8  9  1  0
  8 10  1  0
  8 11  1  0
 13 14  1  0
 15 16  1  0
 17 18  1  0
 19 20  1  0
 21 22  1  0
M  CHG  1   6  -1
M  END
>  <PDB_ID>  (2160) 
pdb6aa8

>  <RESIDUE_NAME>  (2160) 
ASP   PHE

>  <FRAG_NAME>  (2160) 
ACET   MBZ

>  <FRAG_ATOM_NUM>  (2160) 
fragi: 7  fragj: 15

>  <atom.prop.CHAIN_ID>  (2160) 
A A A A A A A Z Z Z Z Z Z Z Z Z Z Z Z Z Z Z

>  <atom.prop.IS_HEAVY_ATOM>  (2160) 
1 0 0 0 1 1 1 1 0 0 0 1 1 0 1 0 1 0 1 0 1 0

>  <DIFUSE_FUNC_ATOM>  (2160) 
atom 6   atom 7   

>  <FINAL_SINGLE_POINT_ENERGY>  (2160) 
0

>  <NONCOV_INTER_ENERGY_QM>  (2160) 
0

>  <FF_Energy>  (2160) 
-1.79

>  <QM_Energy>  (2160) 
-7.73

>  <source>  (2160) 
ACET_MBZ_02

>  <Index>  (2160) 
18088

$$$$
ACET-pdb6aa8-E-GLU-150:MBZ-pdb6aa8-E-PHE-185
     RDKit          3D

 22 21  0  0  0  0  0  0  0  0999 V2000
    3.6476    4.1826    2.8948 C   0  0  0  0  0  0  0  0  0  0  0  0
    3.1760    4.9418    3.2984 H   0  0  0  0  0  0  0  0  0  0  0  0
    4.6231    4.2727    2.9436 H   0  0  0  0  0  0  0  0  0  0  0  0
    3.3581    3.2765    3.4269 H   0  0  0  0  0  0  0  0  0  0  0  0
    3.2659    4.1405    1.4159 C   0  0  0  0  0  0  0  0  0  0  0  0
    3.6876    3.1950    0.7321 O   0  0  0  0  0  1  0  0  0  0  0  0
    2.5430    5.0491    0.9440 O   0  0  0  0  0  0  0  0  0  0  0  0
    0.0169    2.9340    0.0085 C   0  0  0  0  0  0  0  0  0  0  0  0
    0.8477    3.2279   -0.4354 H   0  0  0  0  0  0  0  0  0  0  0  0
   -0.0139    3.2247    0.9514 H   0  0  0  0  0  0  0  0  0  0  0  0
   -0.8228    3.3941   -0.5125 H   0  0  0  0  0  0  0  0  0  0  0  0
    0.0010    1.4089   -0.0044 C   0  0  0  0  0  0  0  0  0  0  0  0
   -1.1984    0.6962    0.0005 C   0  0  0  0  0  0  0  0  0  0  0  0
   -2.0656    1.1848    0.0036 H   0  0  0  0  0  0  0  0  0  0  0  0
   -1.2047   -0.7020    0.0000 C   0  0  0  0  0  0  0  0  0  0  0  0
   -2.0818   -1.1907    0.0039 H   0  0  0  0  0  0  0  0  0  0  0  0
   -0.0044   -1.3969   -0.0043 C   0  0  0  0  0  0  0  0  0  0  0  0
   -0.0055   -2.3965   -0.0111 H   0  0  0  0  0  0  0  0  0  0  0  0
    1.2047   -0.7004    0.0000 C   0  0  0  0  0  0  0  0  0  0  0  0
    2.0819   -1.2002   -0.0015 H   0  0  0  0  0  0  0  0  0  0  0  0
    1.2019    0.6942    0.0082 C   0  0  0  0  0  0  0  0  0  0  0  0
    2.0687    1.1896    0.0224 H   0  0  0  0  0  0  0  0  0  0  0  0
  1  5  1  0
  5  6  1  0
  5  7  2  0
  1  2  1  0
  1  3  1  0
  1  4  1  0
  8 12  1  0
 12 13  2  0
 13 15  1  0
 15 17  2  0
 17 19  1  0
 19 21  2  0
 21 12  1  0
  8  9  1  0
  8 10  1  0
  8 11  1  0
 13 14  1  0
 15 16  1  0
 17 18  1  0
 19 20  1  0
 21 22  1  0
M  CHG  1   6  -1
M  END
>  <PDB_ID>  (2161) 
pdb6aa8

>  <RESIDUE_NAME>  (2161) 
GLU   PHE

>  <FRAG_NAME>  (2161) 
ACET   MBZ

>  <FRAG_ATOM_NUM>  (2161) 
fragi: 7  fragj: 15

>  <atom.prop.CHAIN_ID>  (2161) 
A A A A A A A Z Z Z Z Z Z Z Z Z Z Z Z Z Z Z

>  <atom.prop.IS_HEAVY_ATOM>  (2161) 
1 0 0 0 1 1 1 1 0 0 0 1 1 0 1 0 1 0 1 0 1 0

>  <DIFUSE_FUNC_ATOM>  (2161) 
atom 6   atom 7   

>  <FINAL_SINGLE_POINT_ENERGY>  (2161) 
0

>  <NONCOV_INTER_ENERGY_QM>  (2161) 
0

>  <FF_Energy>  (2161) 
-2.71

>  <QM_Energy>  (2161) 
-8.2

>  <source>  (2161) 
ACET_MBZ_02

>  <Index>  (2161) 
18093

$$$$
ACET-pdb5ahk-B-ASP-32:MBZ-pdb5ahk-A-PHE-487
     RDKit          3D

 22 21  0  0  0  0  0  0  0  0999 V2000
   -3.1250    0.3183    3.8185 C   0  0  0  0  0  0  0  0  0  0  0  0
   -3.0046   -0.6118    3.4820 H   0  0  0  0  0  0  0  0  0  0  0  0
   -3.8686    0.7639    3.3285 H   0  0  0  0  0  0  0  0  0  0  0  0
   -3.4039    0.2606    4.8707 H   0  0  0  0  0  0  0  0  0  0  0  0
   -1.8635    1.0860    3.6015 C   0  0  0  0  0  0  0  0  0  0  0  0
   -1.2477    1.5626    4.5806 O   0  0  0  0  0  1  0  0  0  0  0  0
   -1.4951    1.2115    2.4315 O   0  0  0  0  0  0  0  0  0  0  0  0
    0.0073    2.9118   -0.0132 C   0  0  0  0  0  0  0  0  0  0  0  0
    0.8826    3.2157    0.3232 H   0  0  0  0  0  0  0  0  0  0  0  0
   -0.7339    3.2239    0.5566 H   0  0  0  0  0  0  0  0  0  0  0  0
   -0.1343    3.3279   -1.0107 H   0  0  0  0  0  0  0  0  0  0  0  0
    0.0020    1.4040    0.0048 C   0  0  0  0  0  0  0  0  0  0  0  0
   -1.1957    0.6891   -0.0103 C   0  0  0  0  0  0  0  0  0  0  0  0
   -2.0617    1.1798   -0.0296 H   0  0  0  0  0  0  0  0  0  0  0  0
   -1.1969   -0.6980    0.0000 C   0  0  0  0  0  0  0  0  0  0  0  0
   -2.0759   -1.1929    0.0012 H   0  0  0  0  0  0  0  0  0  0  0  0
   -0.0004   -1.3939    0.0100 C   0  0  0  0  0  0  0  0  0  0  0  0
   -0.0023   -2.3919    0.0235 H   0  0  0  0  0  0  0  0  0  0  0  0
    1.1969   -0.6952    0.0000 C   0  0  0  0  0  0  0  0  0  0  0  0
    2.0807   -1.1936   -0.0024 H   0  0  0  0  0  0  0  0  0  0  0  0
    1.1941    0.6941   -0.0045 C   0  0  0  0  0  0  0  0  0  0  0  0
    2.0648    1.1892   -0.0152 H   0  0  0  0  0  0  0  0  0  0  0  0
  1  5  1  0
  5  6  1  0
  5  7  2  0
  1  2  1  0
  1  3  1  0
  1  4  1  0
  8 12  1  0
 12 13  2  0
 13 15  1  0
 15 17  2  0
 17 19  1  0
 19 21  2  0
 21 12  1  0
  8  9  1  0
  8 10  1  0
  8 11  1  0
 13 14  1  0
 15 16  1  0
 17 18  1  0
 19 20  1  0
 21 22  1  0
M  CHG  1   6  -1
M  END
>  <PDB_ID>  (2162) 
pdb5ahk

>  <RESIDUE_NAME>  (2162) 
ASP   PHE

>  <FRAG_NAME>  (2162) 
ACET   MBZ

>  <FRAG_ATOM_NUM>  (2162) 
fragi: 7  fragj: 15

>  <atom.prop.CHAIN_ID>  (2162) 
A A A A A A A Z Z Z Z Z Z Z Z Z Z Z Z Z Z Z

>  <atom.prop.IS_HEAVY_ATOM>  (2162) 
1 0 0 0 1 1 1 1 0 0 0 1 1 0 1 0 1 0 1 0 1 0

>  <DIFUSE_FUNC_ATOM>  (2162) 
atom 6   atom 7   

>  <FINAL_SINGLE_POINT_ENERGY>  (2162) 
0

>  <NONCOV_INTER_ENERGY_QM>  (2162) 
0

>  <FF_Energy>  (2162) 
13.11

>  <QM_Energy>  (2162) 
1.04

>  <source>  (2162) 
ACET_MBZ_02

>  <Index>  (2162) 
18210

$$$$
ACET-pdb5ail-A-GLU-328:MBZ-pdb5ail-A-PHE-349
     RDKit          3D

 22 21  0  0  0  0  0  0  0  0999 V2000
    2.3069   -5.0427    0.5203 C   0  0  0  0  0  0  0  0  0  0  0  0
    3.2350   -5.3134    0.7664 H   0  0  0  0  0  0  0  0  0  0  0  0
    1.7439   -5.8550    0.3809 H   0  0  0  0  0  0  0  0  0  0  0  0
    1.8896   -4.4896    1.3618 H   0  0  0  0  0  0  0  0  0  0  0  0
    2.4016   -4.3221   -0.8623 C   0  0  0  0  0  0  0  0  0  0  0  0
    1.9992   -3.1890   -1.0944 O   0  0  0  0  0  1  0  0  0  0  0  0
    2.9281   -4.8856   -1.8065 O   0  0  0  0  0  0  0  0  0  0  0  0
   -0.0015    2.8731   -0.0665 C   0  0  0  0  0  0  0  0  0  0  0  0
    0.8402    3.2117    0.3089 H   0  0  0  0  0  0  0  0  0  0  0  0
   -0.7899    3.2101    0.4119 H   0  0  0  0  0  0  0  0  0  0  0  0
   -0.0672    3.2313   -1.0938 H   0  0  0  0  0  0  0  0  0  0  0  0
    0.0049    1.3888    0.0047 C   0  0  0  0  0  0  0  0  0  0  0  0
   -1.1924    0.6915   -0.0154 C   0  0  0  0  0  0  0  0  0  0  0  0
   -2.0544    1.1924   -0.0422 H   0  0  0  0  0  0  0  0  0  0  0  0
   -1.1992   -0.6786    0.0000 C   0  0  0  0  0  0  0  0  0  0  0  0
   -2.0821   -1.1762   -0.0043 H   0  0  0  0  0  0  0  0  0  0  0  0
   -0.0122   -1.3799    0.0230 C   0  0  0  0  0  0  0  0  0  0  0  0
   -0.0244   -2.3831    0.0562 H   0  0  0  0  0  0  0  0  0  0  0  0
    1.1992   -0.7050   -0.0000 C   0  0  0  0  0  0  0  0  0  0  0  0
    2.0708   -1.2096   -0.0066 H   0  0  0  0  0  0  0  0  0  0  0  0
    1.1998    0.6833   -0.0123 C   0  0  0  0  0  0  0  0  0  0  0  0
    2.0676    1.1779   -0.0341 H   0  0  0  0  0  0  0  0  0  0  0  0
  1  5  1  0
  5  6  1  0
  5  7  2  0
  1  2  1  0
  1  3  1  0
  1  4  1  0
  8 12  1  0
 12 13  2  0
 13 15  1  0
 15 17  2  0
 17 19  1  0
 19 21  2  0
 21 12  1  0
  8  9  1  0
  8 10  1  0
  8 11  1  0
 13 14  1  0
 15 16  1  0
 17 18  1  0
 19 20  1  0
 21 22  1  0
M  CHG  1   6  -1
M  END
>  <PDB_ID>  (2163) 
pdb5ail

>  <RESIDUE_NAME>  (2163) 
GLU   PHE

>  <FRAG_NAME>  (2163) 
ACET   MBZ

>  <FRAG_ATOM_NUM>  (2163) 
fragi: 7  fragj: 15

>  <atom.prop.CHAIN_ID>  (2163) 
A A A A A A A Z Z Z Z Z Z Z Z Z Z Z Z Z Z Z

>  <atom.prop.IS_HEAVY_ATOM>  (2163) 
1 0 0 0 1 1 1 1 0 0 0 1 1 0 1 0 1 0 1 0 1 0

>  <DIFUSE_FUNC_ATOM>  (2163) 
atom 6   atom 7   

>  <FINAL_SINGLE_POINT_ENERGY>  (2163) 
0

>  <NONCOV_INTER_ENERGY_QM>  (2163) 
0

>  <FF_Energy>  (2163) 
1.47

>  <QM_Energy>  (2163) 
-4.17

>  <source>  (2163) 
ACET_MBZ_02

>  <Index>  (2163) 
18215

$$$$
ACET-pdb5ail-B-GLU-328:MBZ-pdb5ail-B-PHE-349
     RDKit          3D

 22 21  0  0  0  0  0  0  0  0999 V2000
    2.3234   -5.0339    0.4957 C   0  0  0  0  0  0  0  0  0  0  0  0
    3.2521   -5.3052    0.7406 H   0  0  0  0  0  0  0  0  0  0  0  0
    1.7617   -5.8476    0.3564 H   0  0  0  0  0  0  0  0  0  0  0  0
    1.9072   -4.4845    1.3401 H   0  0  0  0  0  0  0  0  0  0  0  0
    2.4144   -4.3124   -0.8808 C   0  0  0  0  0  0  0  0  0  0  0  0
    2.0065   -3.1818   -1.1070 O   0  0  0  0  0  1  0  0  0  0  0  0
    2.9419   -4.8810   -1.8244 O   0  0  0  0  0  0  0  0  0  0  0  0
   -0.0229    2.8873   -0.0654 C   0  0  0  0  0  0  0  0  0  0  0  0
    0.8123    3.2349    0.3155 H   0  0  0  0  0  0  0  0  0  0  0  0
   -0.8180    3.2125    0.4084 H   0  0  0  0  0  0  0  0  0  0  0  0
   -0.0865    3.2449   -1.0931 H   0  0  0  0  0  0  0  0  0  0  0  0
    0.0019    1.3952    0.0110 C   0  0  0  0  0  0  0  0  0  0  0  0
   -1.1948    0.6844   -0.0059 C   0  0  0  0  0  0  0  0  0  0  0  0
   -2.0608    1.1828   -0.0239 H   0  0  0  0  0  0  0  0  0  0  0  0
   -1.2024   -0.6917   -0.0000 C   0  0  0  0  0  0  0  0  0  0  0  0
   -2.0796   -1.1897   -0.0120 H   0  0  0  0  0  0  0  0  0  0  0  0
   -0.0058   -1.3863    0.0238 C   0  0  0  0  0  0  0  0  0  0  0  0
   -0.0100   -2.3873    0.0576 H   0  0  0  0  0  0  0  0  0  0  0  0
    1.2024   -0.6969   -0.0000 C   0  0  0  0  0  0  0  0  0  0  0  0
    2.0784   -1.1972    0.0051 H   0  0  0  0  0  0  0  0  0  0  0  0
    1.1987    0.6952   -0.0290 C   0  0  0  0  0  0  0  0  0  0  0  0
    2.0634    1.1899   -0.0794 H   0  0  0  0  0  0  0  0  0  0  0  0
  1  5  1  0
  5  6  1  0
  5  7  2  0
  1  2  1  0
  1  3  1  0
  1  4  1  0
  8 12  1  0
 12 13  2  0
 13 15  1  0
 15 17  2  0
 17 19  1  0
 19 21  2  0
 21 12  1  0
  8  9  1  0
  8 10  1  0
  8 11  1  0
 13 14  1  0
 15 16  1  0
 17 18  1  0
 19 20  1  0
 21 22  1  0
M  CHG  1   6  -1
M  END
>  <PDB_ID>  (2164) 
pdb5ail

>  <RESIDUE_NAME>  (2164) 
GLU   PHE

>  <FRAG_NAME>  (2164) 
ACET   MBZ

>  <FRAG_ATOM_NUM>  (2164) 
fragi: 7  fragj: 15

>  <atom.prop.CHAIN_ID>  (2164) 
A A A A A A A Z Z Z Z Z Z Z Z Z Z Z Z Z Z Z

>  <atom.prop.IS_HEAVY_ATOM>  (2164) 
1 0 0 0 1 1 1 1 0 0 0 1 1 0 1 0 1 0 1 0 1 0

>  <DIFUSE_FUNC_ATOM>  (2164) 
atom 6   atom 7   

>  <FINAL_SINGLE_POINT_ENERGY>  (2164) 
0

>  <NONCOV_INTER_ENERGY_QM>  (2164) 
0

>  <FF_Energy>  (2164) 
13.77

>  <QM_Energy>  (2164) 
-4.09

>  <source>  (2164) 
ACET_MBZ_02

>  <Index>  (2164) 
18218

$$$$
ACET-pdb6a8z-A-GLU-387:MBZ-pdb6a8z-A-PHE-43
     RDKit          3D

 22 21  0  0  0  0  0  0  0  0999 V2000
   -1.7925   -3.7736   -2.2126 C   0  0  0  0  0  0  0  0  0  0  0  0
   -1.8997   -4.7498   -2.2124 H   0  0  0  0  0  0  0  0  0  0  0  0
   -0.9660   -3.4869   -1.7664 H   0  0  0  0  0  0  0  0  0  0  0  0
   -1.7797   -3.4201   -3.2436 H   0  0  0  0  0  0  0  0  0  0  0  0
   -2.9584   -3.1942   -1.4109 C   0  0  0  0  0  0  0  0  0  0  0  0
   -3.9231   -2.6854   -2.0239 O   0  0  0  0  0  1  0  0  0  0  0  0
   -2.9024   -3.2560   -0.1625 O   0  0  0  0  0  0  0  0  0  0  0  0
   -0.0140    2.9166    0.0093 C   0  0  0  0  0  0  0  0  0  0  0  0
    0.8850    3.2212    0.2787 H   0  0  0  0  0  0  0  0  0  0  0  0
   -0.7047    3.2065    0.6533 H   0  0  0  0  0  0  0  0  0  0  0  0
   -0.2462    3.3602   -0.9589 H   0  0  0  0  0  0  0  0  0  0  0  0
   -0.0026    1.4031   -0.0033 C   0  0  0  0  0  0  0  0  0  0  0  0
   -1.1968    0.6889   -0.0029 C   0  0  0  0  0  0  0  0  0  0  0  0
   -2.0658    1.1784   -0.0061 H   0  0  0  0  0  0  0  0  0  0  0  0
   -1.2006   -0.7019   -0.0000 C   0  0  0  0  0  0  0  0  0  0  0  0
   -2.0736   -1.1979   -0.0002 H   0  0  0  0  0  0  0  0  0  0  0  0
    0.0072   -1.3946    0.0047 C   0  0  0  0  0  0  0  0  0  0  0  0
    0.0033   -2.3941    0.0106 H   0  0  0  0  0  0  0  0  0  0  0  0
    1.2006   -0.6970    0.0000 C   0  0  0  0  0  0  0  0  0  0  0  0
    2.0869   -1.1860   -0.0030 H   0  0  0  0  0  0  0  0  0  0  0  0
    1.1922    0.7015    0.0016 C   0  0  0  0  0  0  0  0  0  0  0  0
    2.0614    1.1955    0.0058 H   0  0  0  0  0  0  0  0  0  0  0  0
  1  5  1  0
  5  6  1  0
  5  7  2  0
  1  2  1  0
  1  3  1  0
  1  4  1  0
  8 12  1  0
 12 13  2  0
 13 15  1  0
 15 17  2  0
 17 19  1  0
 19 21  2  0
 21 12  1  0
  8  9  1  0
  8 10  1  0
  8 11  1  0
 13 14  1  0
 15 16  1  0
 17 18  1  0
 19 20  1  0
 21 22  1  0
M  CHG  1   6  -1
M  END
>  <PDB_ID>  (2165) 
pdb6a8z

>  <RESIDUE_NAME>  (2165) 
GLU   PHE

>  <FRAG_NAME>  (2165) 
ACET   MBZ

>  <FRAG_ATOM_NUM>  (2165) 
fragi: 7  fragj: 15

>  <atom.prop.CHAIN_ID>  (2165) 
A A A A A A A Z Z Z Z Z Z Z Z Z Z Z Z Z Z Z

>  <atom.prop.IS_HEAVY_ATOM>  (2165) 
1 0 0 0 1 1 1 1 0 0 0 1 1 0 1 0 1 0 1 0 1 0

>  <DIFUSE_FUNC_ATOM>  (2165) 
atom 6   atom 7   

>  <FINAL_SINGLE_POINT_ENERGY>  (2165) 
0

>  <NONCOV_INTER_ENERGY_QM>  (2165) 
0

>  <FF_Energy>  (2165) 
-0.63

>  <QM_Energy>  (2165) 
-6.06

>  <source>  (2165) 
ACET_MBZ_02

>  <Index>  (2165) 
18282

$$$$
ACET-pdb5an1-B-ASP-155:MBZ-pdb5an1-B-PHE-146
     RDKit          3D

 22 21  0  0  0  0  0  0  0  0999 V2000
    5.8484    3.1614    0.1953 C   0  0  0  0  0  0  0  0  0  0  0  0
    6.5442    3.8565    0.3071 H   0  0  0  0  0  0  0  0  0  0  0  0
    6.1839    2.4063   -0.3491 H   0  0  0  0  0  0  0  0  0  0  0  0
    5.5860    2.7805    1.1823 H   0  0  0  0  0  0  0  0  0  0  0  0
    4.6511    3.7796   -0.5130 C   0  0  0  0  0  0  0  0  0  0  0  0
    3.6494    3.0598   -0.7076 O   0  0  0  0  0  1  0  0  0  0  0  0
    4.7092    4.9808   -0.8302 O   0  0  0  0  0  0  0  0  0  0  0  0
   -0.0103    2.9174   -0.0437 C   0  0  0  0  0  0  0  0  0  0  0  0
    0.8460    3.2421    0.3087 H   0  0  0  0  0  0  0  0  0  0  0  0
   -0.7772    3.2327    0.4814 H   0  0  0  0  0  0  0  0  0  0  0  0
   -0.1201    3.2979   -1.0592 H   0  0  0  0  0  0  0  0  0  0  0  0
    0.0041    1.4082    0.0081 C   0  0  0  0  0  0  0  0  0  0  0  0
   -1.1907    0.6911   -0.0055 C   0  0  0  0  0  0  0  0  0  0  0  0
   -2.0611    1.1734   -0.0205 H   0  0  0  0  0  0  0  0  0  0  0  0
   -1.1956   -0.7157    0.0000 C   0  0  0  0  0  0  0  0  0  0  0  0
   -2.0782   -1.1972   -0.0042 H   0  0  0  0  0  0  0  0  0  0  0  0
   -0.0049   -1.4060    0.0129 C   0  0  0  0  0  0  0  0  0  0  0  0
    0.0060   -2.4006    0.0312 H   0  0  0  0  0  0  0  0  0  0  0  0
    1.1956   -0.6925    0.0000 C   0  0  0  0  0  0  0  0  0  0  0  0
    2.0820   -1.1825    0.0029 H   0  0  0  0  0  0  0  0  0  0  0  0
    1.1915    0.7150   -0.0156 C   0  0  0  0  0  0  0  0  0  0  0  0
    2.0630    1.1995   -0.0448 H   0  0  0  0  0  0  0  0  0  0  0  0
  1  5  1  0
  5  6  1  0
  5  7  2  0
  1  2  1  0
  1  3  1  0
  1  4  1  0
  8 12  1  0
 12 13  2  0
 13 15  1  0
 15 17  2  0
 17 19  1  0
 19 21  2  0
 21 12  1  0
  8  9  1  0
  8 10  1  0
  8 11  1  0
 13 14  1  0
 15 16  1  0
 17 18  1  0
 19 20  1  0
 21 22  1  0
M  CHG  1   6  -1
M  END
>  <PDB_ID>  (2166) 
pdb5an1

>  <RESIDUE_NAME>  (2166) 
ASP   PHE

>  <FRAG_NAME>  (2166) 
ACET   MBZ

>  <FRAG_ATOM_NUM>  (2166) 
fragi: 7  fragj: 15

>  <atom.prop.CHAIN_ID>  (2166) 
A A A A A A A Z Z Z Z Z Z Z Z Z Z Z Z Z Z Z

>  <atom.prop.IS_HEAVY_ATOM>  (2166) 
1 0 0 0 1 1 1 1 0 0 0 1 1 0 1 0 1 0 1 0 1 0

>  <DIFUSE_FUNC_ATOM>  (2166) 
atom 6   atom 7   

>  <FINAL_SINGLE_POINT_ENERGY>  (2166) 
0

>  <NONCOV_INTER_ENERGY_QM>  (2166) 
0

>  <FF_Energy>  (2166) 
-2.11

>  <QM_Energy>  (2166) 
-7.18

>  <source>  (2166) 
ACET_MBZ_02

>  <Index>  (2166) 
18300

$$$$
ACET-pdb6agt-E-ASP-558:MBZ-pdb6agt-E-PHE-342
     RDKit          3D

 22 21  0  0  0  0  0  0  0  0999 V2000
    3.3741    5.2938    2.7493 C   0  0  0  0  0  0  0  0  0  0  0  0
    3.0477    4.4691    3.1866 H   0  0  0  0  0  0  0  0  0  0  0  0
    2.9803    6.0995    3.1643 H   0  0  0  0  0  0  0  0  0  0  0  0
    4.4565    5.3403    2.8690 H   0  0  0  0  0  0  0  0  0  0  0  0
    2.9806    5.2570    1.2852 C   0  0  0  0  0  0  0  0  0  0  0  0
    2.8462    6.3512    0.6842 O   0  0  0  0  0  1  0  0  0  0  0  0
    2.8787    4.1387    0.7222 O   0  0  0  0  0  0  0  0  0  0  0  0
    0.0107    2.9155    0.0292 C   0  0  0  0  0  0  0  0  0  0  0  0
    0.8844    3.2128    0.3856 H   0  0  0  0  0  0  0  0  0  0  0  0
   -0.7321    3.2133    0.6116 H   0  0  0  0  0  0  0  0  0  0  0  0
   -0.1257    3.3846   -0.9452 H   0  0  0  0  0  0  0  0  0  0  0  0
    0.0065    1.4092    0.0002 C   0  0  0  0  0  0  0  0  0  0  0  0
   -1.1936    0.7006   -0.0053 C   0  0  0  0  0  0  0  0  0  0  0  0
   -2.0609    1.1845   -0.0149 H   0  0  0  0  0  0  0  0  0  0  0  0
   -1.2040   -0.7108    0.0000 C   0  0  0  0  0  0  0  0  0  0  0  0
   -2.0842   -1.1888    0.0111 H   0  0  0  0  0  0  0  0  0  0  0  0
   -0.0086   -1.4035   -0.0081 C   0  0  0  0  0  0  0  0  0  0  0  0
   -0.0020   -2.4009   -0.0204 H   0  0  0  0  0  0  0  0  0  0  0  0
    1.2040   -0.6996   -0.0000 C   0  0  0  0  0  0  0  0  0  0  0  0
    2.0809   -1.1942   -0.0021 H   0  0  0  0  0  0  0  0  0  0  0  0
    1.1958    0.7042    0.0132 C   0  0  0  0  0  0  0  0  0  0  0  0
    2.0684    1.1933    0.0316 H   0  0  0  0  0  0  0  0  0  0  0  0
  1  5  1  0
  5  6  1  0
  5  7  2  0
  1  2  1  0
  1  3  1  0
  1  4  1  0
  8 12  1  0
 12 13  2  0
 13 15  1  0
 15 17  2  0
 17 19  1  0
 19 21  2  0
 21 12  1  0
  8  9  1  0
  8 10  1  0
  8 11  1  0
 13 14  1  0
 15 16  1  0
 17 18  1  0
 19 20  1  0
 21 22  1  0
M  CHG  1   6  -1
M  END
>  <PDB_ID>  (2167) 
pdb6agt

>  <RESIDUE_NAME>  (2167) 
ASP   PHE

>  <FRAG_NAME>  (2167) 
ACET   MBZ

>  <FRAG_ATOM_NUM>  (2167) 
fragi: 7  fragj: 15

>  <atom.prop.CHAIN_ID>  (2167) 
A A A A A A A Z Z Z Z Z Z Z Z Z Z Z Z Z Z Z

>  <atom.prop.IS_HEAVY_ATOM>  (2167) 
1 0 0 0 1 1 1 1 0 0 0 1 1 0 1 0 1 0 1 0 1 0

>  <DIFUSE_FUNC_ATOM>  (2167) 
atom 6   atom 7   

>  <FINAL_SINGLE_POINT_ENERGY>  (2167) 
0

>  <NONCOV_INTER_ENERGY_QM>  (2167) 
0

>  <FF_Energy>  (2167) 
-0.59

>  <QM_Energy>  (2167) 
-6.79

>  <source>  (2167) 
ACET_MBZ_02

>  <Index>  (2167) 
18386

$$$$
ACET-pdb6aho-A-ASP-468:MBZ-pdb6aho-A-PHE-514
     RDKit          3D

 22 21  0  0  0  0  0  0  0  0999 V2000
   -1.3431    1.5236    3.4695 C   0  0  0  0  0  0  0  0  0  0  0  0
   -1.6798    0.9791    2.7110 H   0  0  0  0  0  0  0  0  0  0  0  0
   -1.9419    1.4390    4.2548 H   0  0  0  0  0  0  0  0  0  0  0  0
   -0.3600    1.1449    3.7489 H   0  0  0  0  0  0  0  0  0  0  0  0
   -1.3182    2.9957    3.0355 C   0  0  0  0  0  0  0  0  0  0  0  0
   -0.2595    3.6387    3.1452 O   0  0  0  0  0  1  0  0  0  0  0  0
   -2.3580    3.5126    2.5772 O   0  0  0  0  0  0  0  0  0  0  0  0
    0.0032    2.9312   -0.0042 C   0  0  0  0  0  0  0  0  0  0  0  0
    0.8342    3.2272    0.4390 H   0  0  0  0  0  0  0  0  0  0  0  0
   -0.7976    3.2290    0.4896 H   0  0  0  0  0  0  0  0  0  0  0  0
   -0.0271    3.3805   -0.9969 H   0  0  0  0  0  0  0  0  0  0  0  0
    0.0010    1.4037   -0.0062 C   0  0  0  0  0  0  0  0  0  0  0  0
   -1.1946    0.6928    0.0037 C   0  0  0  0  0  0  0  0  0  0  0  0
   -2.0620    1.1843    0.0128 H   0  0  0  0  0  0  0  0  0  0  0  0
   -1.1998   -0.6946    0.0000 C   0  0  0  0  0  0  0  0  0  0  0  0
   -2.0786   -1.1879   -0.0026 H   0  0  0  0  0  0  0  0  0  0  0  0
   -0.0028   -1.3915    0.0018 C   0  0  0  0  0  0  0  0  0  0  0  0
   -0.0064   -2.3906    0.0040 H   0  0  0  0  0  0  0  0  0  0  0  0
    1.1998   -0.6975    0.0000 C   0  0  0  0  0  0  0  0  0  0  0  0
    2.0797   -1.1995   -0.0006 H   0  0  0  0  0  0  0  0  0  0  0  0
    1.1965    0.6871    0.0007 C   0  0  0  0  0  0  0  0  0  0  0  0
    2.0661    1.1858    0.0051 H   0  0  0  0  0  0  0  0  0  0  0  0
  1  5  1  0
  5  6  1  0
  5  7  2  0
  1  2  1  0
  1  3  1  0
  1  4  1  0
  8 12  1  0
 12 13  2  0
 13 15  1  0
 15 17  2  0
 17 19  1  0
 19 21  2  0
 21 12  1  0
  8  9  1  0
  8 10  1  0
  8 11  1  0
 13 14  1  0
 15 16  1  0
 17 18  1  0
 19 20  1  0
 21 22  1  0
M  CHG  1   6  -1
M  END
>  <PDB_ID>  (2168) 
pdb6aho

>  <RESIDUE_NAME>  (2168) 
ASP   PHE

>  <FRAG_NAME>  (2168) 
ACET   MBZ

>  <FRAG_ATOM_NUM>  (2168) 
fragi: 7  fragj: 15

>  <atom.prop.CHAIN_ID>  (2168) 
A A A A A A A Z Z Z Z Z Z Z Z Z Z Z Z Z Z Z

>  <atom.prop.IS_HEAVY_ATOM>  (2168) 
1 0 0 0 1 1 1 1 0 0 0 1 1 0 1 0 1 0 1 0 1 0

>  <DIFUSE_FUNC_ATOM>  (2168) 
atom 6   atom 7   

>  <FINAL_SINGLE_POINT_ENERGY>  (2168) 
0

>  <NONCOV_INTER_ENERGY_QM>  (2168) 
0

>  <FF_Energy>  (2168) 
-0.5

>  <QM_Energy>  (2168) 
-6.48

>  <source>  (2168) 
ACET_MBZ_02

>  <Index>  (2168) 
18441

$$$$
ACET-pdb5ap8-A-ASP-39:MBZ-pdb5ap8-A-PHE-74
     RDKit          3D

 22 21  0  0  0  0  0  0  0  0999 V2000
    3.5565    1.6473   -3.0728 C   0  0  0  0  0  0  0  0  0  0  0  0
    4.1290    1.6926   -2.2616 H   0  0  0  0  0  0  0  0  0  0  0  0
    4.0326    2.0316   -3.8554 H   0  0  0  0  0  0  0  0  0  0  0  0
    3.3534    0.5974   -3.2842 H   0  0  0  0  0  0  0  0  0  0  0  0
    2.2943    2.4584   -2.8228 C   0  0  0  0  0  0  0  0  0  0  0  0
    1.1835    1.9587   -3.0997 O   0  0  0  0  0  1  0  0  0  0  0  0
    2.4188    3.6096   -2.3532 O   0  0  0  0  0  0  0  0  0  0  0  0
    0.0032    2.8950   -0.0061 C   0  0  0  0  0  0  0  0  0  0  0  0
   -0.8039    3.2019   -0.4912 H   0  0  0  0  0  0  0  0  0  0  0  0
    0.8298    3.1993   -0.4589 H   0  0  0  0  0  0  0  0  0  0  0  0
   -0.0152    3.3475    0.9855 H   0  0  0  0  0  0  0  0  0  0  0  0
    0.0000    1.3943    0.0025 C   0  0  0  0  0  0  0  0  0  0  0  0
   -1.1928    0.6895   -0.0026 C   0  0  0  0  0  0  0  0  0  0  0  0
   -2.0599    1.1815   -0.0098 H   0  0  0  0  0  0  0  0  0  0  0  0
   -1.1962   -0.6923    0.0000 C   0  0  0  0  0  0  0  0  0  0  0  0
   -2.0743   -1.1891    0.0022 H   0  0  0  0  0  0  0  0  0  0  0  0
    0.0001   -1.3866    0.0007 C   0  0  0  0  0  0  0  0  0  0  0  0
   -0.0045   -2.3875    0.0013 H   0  0  0  0  0  0  0  0  0  0  0  0
    1.1962   -0.6938   -0.0000 C   0  0  0  0  0  0  0  0  0  0  0  0
    2.0789   -1.1937    0.0011 H   0  0  0  0  0  0  0  0  0  0  0  0
    1.1927    0.6890   -0.0007 C   0  0  0  0  0  0  0  0  0  0  0  0
    2.0619    1.1878   -0.0045 H   0  0  0  0  0  0  0  0  0  0  0  0
  1  5  1  0
  5  6  1  0
  5  7  2  0
  1  2  1  0
  1  3  1  0
  1  4  1  0
  8 12  1  0
 12 13  2  0
 13 15  1  0
 15 17  2  0
 17 19  1  0
 19 21  2  0
 21 12  1  0
  8  9  1  0
  8 10  1  0
  8 11  1  0
 13 14  1  0
 15 16  1  0
 17 18  1  0
 19 20  1  0
 21 22  1  0
M  CHG  1   6  -1
M  END
>  <PDB_ID>  (2169) 
pdb5ap8

>  <RESIDUE_NAME>  (2169) 
ASP   PHE

>  <FRAG_NAME>  (2169) 
ACET   MBZ

>  <FRAG_ATOM_NUM>  (2169) 
fragi: 7  fragj: 15

>  <atom.prop.CHAIN_ID>  (2169) 
A A A A A A A Z Z Z Z Z Z Z Z Z Z Z Z Z Z Z

>  <atom.prop.IS_HEAVY_ATOM>  (2169) 
1 0 0 0 1 1 1 1 0 0 0 1 1 0 1 0 1 0 1 0 1 0

>  <DIFUSE_FUNC_ATOM>  (2169) 
atom 6   atom 7   

>  <FINAL_SINGLE_POINT_ENERGY>  (2169) 
0

>  <NONCOV_INTER_ENERGY_QM>  (2169) 
0

>  <FF_Energy>  (2169) 
0.98

>  <QM_Energy>  (2169) 
-5.61

>  <source>  (2169) 
ACET_MBZ_02

>  <Index>  (2169) 
18488

$$$$
ACET-pdb5ap8-B-ASP-39:MBZ-pdb5ap8-B-PHE-74
     RDKit          3D

 22 21  0  0  0  0  0  0  0  0999 V2000
   -2.6172    0.3813    3.4138 C   0  0  0  0  0  0  0  0  0  0  0  0
   -3.0473    0.4345    2.5189 H   0  0  0  0  0  0  0  0  0  0  0  0
   -3.2454    0.6897    4.1186 H   0  0  0  0  0  0  0  0  0  0  0  0
   -2.3765   -0.6636    3.6097 H   0  0  0  0  0  0  0  0  0  0  0  0
   -1.3930    1.2930    3.4200 C   0  0  0  0  0  0  0  0  0  0  0  0
   -0.2616    0.8083    3.2110 O   0  0  0  0  0  1  0  0  0  0  0  0
   -1.5722    2.5152    3.6183 O   0  0  0  0  0  0  0  0  0  0  0  0
   -0.0011    2.8973    0.0071 C   0  0  0  0  0  0  0  0  0  0  0  0
    0.8718    3.2019    0.3603 H   0  0  0  0  0  0  0  0  0  0  0  0
   -0.7464    3.1994    0.5840 H   0  0  0  0  0  0  0  0  0  0  0  0
   -0.1384    3.3473   -0.9762 H   0  0  0  0  0  0  0  0  0  0  0  0
    0.0006    1.3945   -0.0022 C   0  0  0  0  0  0  0  0  0  0  0  0
   -1.1917    0.6871    0.0012 C   0  0  0  0  0  0  0  0  0  0  0  0
   -2.0596    1.1800    0.0035 H   0  0  0  0  0  0  0  0  0  0  0  0
   -1.1955   -0.6944   -0.0000 C   0  0  0  0  0  0  0  0  0  0  0  0
   -2.0740   -1.1903    0.0014 H   0  0  0  0  0  0  0  0  0  0  0  0
   -0.0008   -1.3856   -0.0009 C   0  0  0  0  0  0  0  0  0  0  0  0
   -0.0023   -2.3867   -0.0023 H   0  0  0  0  0  0  0  0  0  0  0  0
    1.1955   -0.6907    0.0000 C   0  0  0  0  0  0  0  0  0  0  0  0
    2.0778   -1.1927    0.0004 H   0  0  0  0  0  0  0  0  0  0  0  0
    1.1919    0.6892    0.0019 C   0  0  0  0  0  0  0  0  0  0  0  0
    2.0617    1.1887    0.0059 H   0  0  0  0  0  0  0  0  0  0  0  0
  1  5  1  0
  5  6  1  0
  5  7  2  0
  1  2  1  0
  1  3  1  0
  1  4  1  0
  8 12  1  0
 12 13  2  0
 13 15  1  0
 15 17  2  0
 17 19  1  0
 19 21  2  0
 21 12  1  0
  8  9  1  0
  8 10  1  0
  8 11  1  0
 13 14  1  0
 15 16  1  0
 17 18  1  0
 19 20  1  0
 21 22  1  0
M  CHG  1   6  -1
M  END
>  <PDB_ID>  (2170) 
pdb5ap8

>  <RESIDUE_NAME>  (2170) 
ASP   PHE

>  <FRAG_NAME>  (2170) 
ACET   MBZ

>  <FRAG_ATOM_NUM>  (2170) 
fragi: 7  fragj: 15

>  <atom.prop.CHAIN_ID>  (2170) 
A A A A A A A Z Z Z Z Z Z Z Z Z Z Z Z Z Z Z

>  <atom.prop.IS_HEAVY_ATOM>  (2170) 
1 0 0 0 1 1 1 1 0 0 0 1 1 0 1 0 1 0 1 0 1 0

>  <DIFUSE_FUNC_ATOM>  (2170) 
atom 6   atom 7   

>  <FINAL_SINGLE_POINT_ENERGY>  (2170) 
0

>  <NONCOV_INTER_ENERGY_QM>  (2170) 
0

>  <FF_Energy>  (2170) 
2.92

>  <QM_Energy>  (2170) 
-2.2

>  <source>  (2170) 
ACET_MBZ_02

>  <Index>  (2170) 
18490

$$$$
ACET-pdb6al9-A-GLU-52:MBZ-pdb6al9-A-PHE-80
     RDKit          3D

 22 21  0  0  0  0  0  0  0  0999 V2000
    0.6846    0.4132    3.6089 C   0  0  0  0  0  0  0  0  0  0  0  0
    0.0343    0.2723    2.8866 H   0  0  0  0  0  0  0  0  0  0  0  0
    0.2616    0.4329    4.4951 H   0  0  0  0  0  0  0  0  0  0  0  0
    1.4019   -0.4072    3.5885 H   0  0  0  0  0  0  0  0  0  0  0  0
    1.3312    1.7791    3.3809 C   0  0  0  0  0  0  0  0  0  0  0  0
    2.5565    1.8136    3.1135 O   0  0  0  0  0  1  0  0  0  0  0  0
    0.6182    2.8234    3.4774 O   0  0  0  0  0  0  0  0  0  0  0  0
    0.0426    2.8926   -0.0129 C   0  0  0  0  0  0  0  0  0  0  0  0
    0.9326    3.1718   -0.3537 H   0  0  0  0  0  0  0  0  0  0  0  0
   -0.0888    3.2081    0.9197 H   0  0  0  0  0  0  0  0  0  0  0  0
   -0.7141    3.3731   -0.6331 H   0  0  0  0  0  0  0  0  0  0  0  0
   -0.0036    1.3928   -0.0081 C   0  0  0  0  0  0  0  0  0  0  0  0
   -1.1959    0.7094    0.0103 C   0  0  0  0  0  0  0  0  0  0  0  0
   -2.0586    1.2025    0.0291 H   0  0  0  0  0  0  0  0  0  0  0  0
   -1.1938   -0.6648    0.0000 C   0  0  0  0  0  0  0  0  0  0  0  0
   -2.0714   -1.1706   -0.0049 H   0  0  0  0  0  0  0  0  0  0  0  0
    0.0104   -1.3801   -0.0019 C   0  0  0  0  0  0  0  0  0  0  0  0
   -0.0261   -2.3829   -0.0050 H   0  0  0  0  0  0  0  0  0  0  0  0
    1.1938   -0.7150   -0.0000 C   0  0  0  0  0  0  0  0  0  0  0  0
    2.0769   -1.2146    0.0026 H   0  0  0  0  0  0  0  0  0  0  0  0
    1.1892    0.6577   -0.0003 C   0  0  0  0  0  0  0  0  0  0  0  0
    2.0623    1.1626    0.0046 H   0  0  0  0  0  0  0  0  0  0  0  0
  1  5  1  0
  5  6  1  0
  5  7  2  0
  1  2  1  0
  1  3  1  0
  1  4  1  0
  8 12  1  0
 12 13  2  0
 13 15  1  0
 15 17  2  0
 17 19  1  0
 19 21  2  0
 21 12  1  0
  8  9  1  0
  8 10  1  0
  8 11  1  0
 13 14  1  0
 15 16  1  0
 17 18  1  0
 19 20  1  0
 21 22  1  0
M  CHG  1   6  -1
M  END
>  <PDB_ID>  (2171) 
pdb6al9

>  <RESIDUE_NAME>  (2171) 
GLU   PHE

>  <FRAG_NAME>  (2171) 
ACET   MBZ

>  <FRAG_ATOM_NUM>  (2171) 
fragi: 7  fragj: 15

>  <atom.prop.CHAIN_ID>  (2171) 
A A A A A A A Z Z Z Z Z Z Z Z Z Z Z Z Z Z Z

>  <atom.prop.IS_HEAVY_ATOM>  (2171) 
1 0 0 0 1 1 1 1 0 0 0 1 1 0 1 0 1 0 1 0 1 0

>  <DIFUSE_FUNC_ATOM>  (2171) 
atom 6   atom 7   

>  <FINAL_SINGLE_POINT_ENERGY>  (2171) 
0

>  <NONCOV_INTER_ENERGY_QM>  (2171) 
0

>  <FF_Energy>  (2171) 
-1.0

>  <QM_Energy>  (2171) 
-6.38

>  <source>  (2171) 
ACET_MBZ_02

>  <Index>  (2171) 
18527

$$$$
ACET-pdb6al9-B-GLU-52:MBZ-pdb6al9-B-PHE-80
     RDKit          3D

 22 21  0  0  0  0  0  0  0  0999 V2000
    0.6331    0.4262    3.6493 C   0  0  0  0  0  0  0  0  0  0  0  0
   -0.0565    0.3113    2.9584 H   0  0  0  0  0  0  0  0  0  0  0  0
    0.2510    0.4673    4.5533 H   0  0  0  0  0  0  0  0  0  0  0  0
    1.3098   -0.4269    3.6016 H   0  0  0  0  0  0  0  0  0  0  0  0
    1.3274    1.7583    3.3856 C   0  0  0  0  0  0  0  0  0  0  0  0
    2.5535    1.7487    3.0896 O   0  0  0  0  0  1  0  0  0  0  0  0
    0.6442    2.8282    3.4851 O   0  0  0  0  0  0  0  0  0  0  0  0
    0.0267    2.9123    0.0035 C   0  0  0  0  0  0  0  0  0  0  0  0
    0.8970    3.1964   -0.3747 H   0  0  0  0  0  0  0  0  0  0  0  0
   -0.0672    3.2151    0.9431 H   0  0  0  0  0  0  0  0  0  0  0  0
   -0.7612    3.3884   -0.5802 H   0  0  0  0  0  0  0  0  0  0  0  0
    0.0000    1.3892    0.0059 C   0  0  0  0  0  0  0  0  0  0  0  0
   -1.1750    0.6836    0.0036 C   0  0  0  0  0  0  0  0  0  0  0  0
   -2.0510    1.1758    0.0030 H   0  0  0  0  0  0  0  0  0  0  0  0
   -1.1815   -0.6886   -0.0000 C   0  0  0  0  0  0  0  0  0  0  0  0
   -2.0652   -1.1828    0.0051 H   0  0  0  0  0  0  0  0  0  0  0  0
    0.0005   -1.3776   -0.0091 C   0  0  0  0  0  0  0  0  0  0  0  0
   -0.0046   -2.3816   -0.0224 H   0  0  0  0  0  0  0  0  0  0  0  0
    1.1815   -0.6901   -0.0000 C   0  0  0  0  0  0  0  0  0  0  0  0
    2.0705   -1.1878    0.0088 H   0  0  0  0  0  0  0  0  0  0  0  0
    1.1745    0.6835   -0.0004 C   0  0  0  0  0  0  0  0  0  0  0  0
    2.0527    1.1810   -0.0061 H   0  0  0  0  0  0  0  0  0  0  0  0
  1  5  1  0
  5  6  1  0
  5  7  2  0
  1  2  1  0
  1  3  1  0
  1  4  1  0
  8 12  1  0
 12 13  2  0
 13 15  1  0
 15 17  2  0
 17 19  1  0
 19 21  2  0
 21 12  1  0
  8  9  1  0
  8 10  1  0
  8 11  1  0
 13 14  1  0
 15 16  1  0
 17 18  1  0
 19 20  1  0
 21 22  1  0
M  CHG  1   6  -1
M  END
>  <PDB_ID>  (2172) 
pdb6al9

>  <RESIDUE_NAME>  (2172) 
GLU   PHE

>  <FRAG_NAME>  (2172) 
ACET   MBZ

>  <FRAG_ATOM_NUM>  (2172) 
fragi: 7  fragj: 15

>  <atom.prop.CHAIN_ID>  (2172) 
A A A A A A A Z Z Z Z Z Z Z Z Z Z Z Z Z Z Z

>  <atom.prop.IS_HEAVY_ATOM>  (2172) 
1 0 0 0 1 1 1 1 0 0 0 1 1 0 1 0 1 0 1 0 1 0

>  <DIFUSE_FUNC_ATOM>  (2172) 
atom 6   atom 7   

>  <FINAL_SINGLE_POINT_ENERGY>  (2172) 
0

>  <NONCOV_INTER_ENERGY_QM>  (2172) 
0

>  <FF_Energy>  (2172) 
-0.97

>  <QM_Energy>  (2172) 
-6.36

>  <source>  (2172) 
ACET_MBZ_02

>  <Index>  (2172) 
18529

$$$$
ACET-pdb6al9-B-ASP-28:MBZ-pdb6al9-A-PHE-64
     RDKit          3D

 22 21  0  0  0  0  0  0  0  0999 V2000
   -3.8280    2.0211    2.6611 C   0  0  0  0  0  0  0  0  0  0  0  0
   -3.2481    1.2192    2.5865 H   0  0  0  0  0  0  0  0  0  0  0  0
   -4.6856    1.8806    2.1845 H   0  0  0  0  0  0  0  0  0  0  0  0
   -4.0491    2.1819    3.7162 H   0  0  0  0  0  0  0  0  0  0  0  0
   -3.1056    3.2044    2.0265 C   0  0  0  0  0  0  0  0  0  0  0  0
   -2.1684    3.7359    2.6565 O   0  0  0  0  0  1  0  0  0  0  0  0
   -3.4630    3.5840    0.8916 O   0  0  0  0  0  0  0  0  0  0  0  0
   -0.0019    2.8845   -0.0075 C   0  0  0  0  0  0  0  0  0  0  0  0
    0.9398    3.1973    0.0183 H   0  0  0  0  0  0  0  0  0  0  0  0
   -0.4957    3.1913    0.7967 H   0  0  0  0  0  0  0  0  0  0  0  0
   -0.4765    3.3365   -0.8785 H   0  0  0  0  0  0  0  0  0  0  0  0
    0.0009    1.3947   -0.0142 C   0  0  0  0  0  0  0  0  0  0  0  0
   -1.1884    0.6873    0.0009 C   0  0  0  0  0  0  0  0  0  0  0  0
   -2.0570    1.1822    0.0114 H   0  0  0  0  0  0  0  0  0  0  0  0
   -1.1914   -0.6866    0.0000 C   0  0  0  0  0  0  0  0  0  0  0  0
   -2.0735   -1.1843   -0.0144 H   0  0  0  0  0  0  0  0  0  0  0  0
   -0.0044   -1.3823    0.0201 C   0  0  0  0  0  0  0  0  0  0  0  0
   -0.0146   -2.3853    0.0493 H   0  0  0  0  0  0  0  0  0  0  0  0
    1.1914   -0.7014   -0.0000 C   0  0  0  0  0  0  0  0  0  0  0  0
    2.0727   -1.1997   -0.0092 H   0  0  0  0  0  0  0  0  0  0  0  0
    1.1918    0.6883   -0.0069 C   0  0  0  0  0  0  0  0  0  0  0  0
    2.0627    1.1806   -0.0072 H   0  0  0  0  0  0  0  0  0  0  0  0
  1  5  1  0
  5  6  1  0
  5  7  2  0
  1  2  1  0
  1  3  1  0
  1  4  1  0
  8 12  1  0
 12 13  2  0
 13 15  1  0
 15 17  2  0
 17 19  1  0
 19 21  2  0
 21 12  1  0
  8  9  1  0
  8 10  1  0
  8 11  1  0
 13 14  1  0
 15 16  1  0
 17 18  1  0
 19 20  1  0
 21 22  1  0
M  CHG  1   6  -1
M  END
>  <PDB_ID>  (2173) 
pdb6al9

>  <RESIDUE_NAME>  (2173) 
ASP   PHE

>  <FRAG_NAME>  (2173) 
ACET   MBZ

>  <FRAG_ATOM_NUM>  (2173) 
fragi: 7  fragj: 15

>  <atom.prop.CHAIN_ID>  (2173) 
A A A A A A A Z Z Z Z Z Z Z Z Z Z Z Z Z Z Z

>  <atom.prop.IS_HEAVY_ATOM>  (2173) 
1 0 0 0 1 1 1 1 0 0 0 1 1 0 1 0 1 0 1 0 1 0

>  <DIFUSE_FUNC_ATOM>  (2173) 
atom 6   atom 7   

>  <FINAL_SINGLE_POINT_ENERGY>  (2173) 
0

>  <NONCOV_INTER_ENERGY_QM>  (2173) 
0

>  <FF_Energy>  (2173) 
-2.3

>  <QM_Energy>  (2173) 
-8.14

>  <source>  (2173) 
ACET_MBZ_02

>  <Index>  (2173) 
18530

$$$$
ACET-pdb6ans-B-GLU-58:MBZ-pdb6ans-B-PHE-72
     RDKit          3D

 22 21  0  0  0  0  0  0  0  0999 V2000
   -1.9726    1.6304   -4.5173 C   0  0  0  0  0  0  0  0  0  0  0  0
   -1.3334    2.2170   -4.9703 H   0  0  0  0  0  0  0  0  0  0  0  0
   -2.6182    1.2228   -5.1296 H   0  0  0  0  0  0  0  0  0  0  0  0
   -1.4140    0.8319   -4.0290 H   0  0  0  0  0  0  0  0  0  0  0  0
   -2.7681    2.4988   -3.5244 C   0  0  0  0  0  0  0  0  0  0  0  0
   -2.5170    2.4206   -2.2989 O   0  0  0  0  0  1  0  0  0  0  0  0
   -3.6418    3.2732   -3.9734 O   0  0  0  0  0  0  0  0  0  0  0  0
    0.0073    2.9055   -0.0048 C   0  0  0  0  0  0  0  0  0  0  0  0
   -0.8565    3.2193   -0.3558 H   0  0  0  0  0  0  0  0  0  0  0  0
    0.7642    3.2108   -0.5556 H   0  0  0  0  0  0  0  0  0  0  0  0
    0.1324    3.3261    0.9929 H   0  0  0  0  0  0  0  0  0  0  0  0
   -0.0016    1.4005   -0.0118 C   0  0  0  0  0  0  0  0  0  0  0  0
   -1.1960    0.7032   -0.0017 C   0  0  0  0  0  0  0  0  0  0  0  0
   -2.0636    1.1849    0.0027 H   0  0  0  0  0  0  0  0  0  0  0  0
   -1.2023   -0.7044   -0.0000 C   0  0  0  0  0  0  0  0  0  0  0  0
   -2.0765   -1.1904   -0.0012 H   0  0  0  0  0  0  0  0  0  0  0  0
    0.0031   -1.3945    0.0055 C   0  0  0  0  0  0  0  0  0  0  0  0
    0.0055   -2.3932    0.0125 H   0  0  0  0  0  0  0  0  0  0  0  0
    1.2023   -0.6912    0.0000 C   0  0  0  0  0  0  0  0  0  0  0  0
    2.0845   -1.1931   -0.0078 H   0  0  0  0  0  0  0  0  0  0  0  0
    1.1945    0.6864    0.0079 C   0  0  0  0  0  0  0  0  0  0  0  0
    2.0626    1.1906    0.0274 H   0  0  0  0  0  0  0  0  0  0  0  0
  1  5  1  0
  5  6  1  0
  5  7  2  0
  1  2  1  0
  1  3  1  0
  1  4  1  0
  8 12  1  0
 12 13  2  0
 13 15  1  0
 15 17  2  0
 17 19  1  0
 19 21  2  0
 21 12  1  0
  8  9  1  0
  8 10  1  0
  8 11  1  0
 13 14  1  0
 15 16  1  0
 17 18  1  0
 19 20  1  0
 21 22  1  0
M  CHG  1   6  -1
M  END
>  <PDB_ID>  (2174) 
pdb6ans

>  <RESIDUE_NAME>  (2174) 
GLU   PHE

>  <FRAG_NAME>  (2174) 
ACET   MBZ

>  <FRAG_ATOM_NUM>  (2174) 
fragi: 7  fragj: 15

>  <atom.prop.CHAIN_ID>  (2174) 
A A A A A A A Z Z Z Z Z Z Z Z Z Z Z Z Z Z Z

>  <atom.prop.IS_HEAVY_ATOM>  (2174) 
1 0 0 0 1 1 1 1 0 0 0 1 1 0 1 0 1 0 1 0 1 0

>  <DIFUSE_FUNC_ATOM>  (2174) 
atom 6   atom 7   

>  <FINAL_SINGLE_POINT_ENERGY>  (2174) 
0

>  <NONCOV_INTER_ENERGY_QM>  (2174) 
0

>  <FF_Energy>  (2174) 
-0.39

>  <QM_Energy>  (2174) 
-5.52

>  <source>  (2174) 
ACET_MBZ_02

>  <Index>  (2174) 
18614

$$$$
ACET-pdb6ans-B-GLU-182:MBZ-pdb6ans-B-PHE-176
     RDKit          3D

 22 21  0  0  0  0  0  0  0  0999 V2000
   -5.3657    2.3605   -0.8741 C   0  0  0  0  0  0  0  0  0  0  0  0
   -6.0128    2.0799   -1.5459 H   0  0  0  0  0  0  0  0  0  0  0  0
   -5.7218    2.9929   -0.2241 H   0  0  0  0  0  0  0  0  0  0  0  0
   -5.0135    1.4766   -0.3424 H   0  0  0  0  0  0  0  0  0  0  0  0
   -4.2178    3.0297   -1.5877 C   0  0  0  0  0  0  0  0  0  0  0  0
   -3.0871    2.8380   -1.1293 O   0  0  0  0  0  1  0  0  0  0  0  0
   -4.4254    3.7249   -2.5973 O   0  0  0  0  0  0  0  0  0  0  0  0
    0.0058    2.8758   -0.0211 C   0  0  0  0  0  0  0  0  0  0  0  0
    0.8460    3.1926    0.3883 H   0  0  0  0  0  0  0  0  0  0  0  0
   -0.7839    3.1985    0.4757 H   0  0  0  0  0  0  0  0  0  0  0  0
   -0.0468    3.2895   -1.0281 H   0  0  0  0  0  0  0  0  0  0  0  0
    0.0019    1.3885    0.0010 C   0  0  0  0  0  0  0  0  0  0  0  0
   -1.1946    0.6851   -0.0005 C   0  0  0  0  0  0  0  0  0  0  0  0
   -2.0590    1.1861   -0.0034 H   0  0  0  0  0  0  0  0  0  0  0  0
   -1.2012   -0.6855   -0.0000 C   0  0  0  0  0  0  0  0  0  0  0  0
   -2.0775   -1.1878    0.0019 H   0  0  0  0  0  0  0  0  0  0  0  0
   -0.0019   -1.3831   -0.0008 C   0  0  0  0  0  0  0  0  0  0  0  0
   -0.0082   -2.3829   -0.0022 H   0  0  0  0  0  0  0  0  0  0  0  0
    1.2012   -0.6916   -0.0000 C   0  0  0  0  0  0  0  0  0  0  0  0
    2.0794   -1.1952    0.0021 H   0  0  0  0  0  0  0  0  0  0  0  0
    1.1946    0.6866    0.0002 C   0  0  0  0  0  0  0  0  0  0  0  0
    2.0629    1.1888   -0.0010 H   0  0  0  0  0  0  0  0  0  0  0  0
  1  5  1  0
  5  6  1  0
  5  7  2  0
  1  2  1  0
  1  3  1  0
  1  4  1  0
  8 12  1  0
 12 13  2  0
 13 15  1  0
 15 17  2  0
 17 19  1  0
 19 21  2  0
 21 12  1  0
  8  9  1  0
  8 10  1  0
  8 11  1  0
 13 14  1  0
 15 16  1  0
 17 18  1  0
 19 20  1  0
 21 22  1  0
M  CHG  1   6  -1
M  END
>  <PDB_ID>  (2175) 
pdb6ans

>  <RESIDUE_NAME>  (2175) 
GLU   PHE

>  <FRAG_NAME>  (2175) 
ACET   MBZ

>  <FRAG_ATOM_NUM>  (2175) 
fragi: 7  fragj: 15

>  <atom.prop.CHAIN_ID>  (2175) 
A A A A A A A Z Z Z Z Z Z Z Z Z Z Z Z Z Z Z

>  <atom.prop.IS_HEAVY_ATOM>  (2175) 
1 0 0 0 1 1 1 1 0 0 0 1 1 0 1 0 1 0 1 0 1 0

>  <DIFUSE_FUNC_ATOM>  (2175) 
atom 6   atom 7   

>  <FINAL_SINGLE_POINT_ENERGY>  (2175) 
0

>  <NONCOV_INTER_ENERGY_QM>  (2175) 
0

>  <FF_Energy>  (2175) 
-0.11

>  <QM_Energy>  (2175) 
-7.15

>  <source>  (2175) 
ACET_MBZ_02

>  <Index>  (2175) 
18616

$$$$
ACET-pdb6aoq-B-ASP-132:MBZ-pdb6aoq-B-PHE-119
     RDKit          3D

 22 21  0  0  0  0  0  0  0  0999 V2000
    0.5639   -5.6743    1.3434 C   0  0  0  0  0  0  0  0  0  0  0  0
    0.8107   -5.1106    2.1279 H   0  0  0  0  0  0  0  0  0  0  0  0
    1.2354   -6.4012    1.2234 H   0  0  0  0  0  0  0  0  0  0  0  0
   -0.3958   -6.1427    1.5615 H   0  0  0  0  0  0  0  0  0  0  0  0
    0.5548   -4.8041    0.0996 C   0  0  0  0  0  0  0  0  0  0  0  0
   -0.4421   -4.7648   -0.6702 O   0  0  0  0  0  1  0  0  0  0  0  0
    1.5865   -4.1368   -0.1066 O   0  0  0  0  0  0  0  0  0  0  0  0
   -0.0030    2.8765   -0.0144 C   0  0  0  0  0  0  0  0  0  0  0  0
   -0.7494    3.1789   -0.5922 H   0  0  0  0  0  0  0  0  0  0  0  0
    0.8689    3.1849   -0.3726 H   0  0  0  0  0  0  0  0  0  0  0  0
   -0.1381    3.3218    0.9712 H   0  0  0  0  0  0  0  0  0  0  0  0
    0.0002    1.3911   -0.0010 C   0  0  0  0  0  0  0  0  0  0  0  0
   -1.1799    0.7055    0.0004 C   0  0  0  0  0  0  0  0  0  0  0  0
   -2.0519    1.1969    0.0007 H   0  0  0  0  0  0  0  0  0  0  0  0
   -1.1947   -0.6787   -0.0000 C   0  0  0  0  0  0  0  0  0  0  0  0
   -2.0816   -1.1639   -0.0055 H   0  0  0  0  0  0  0  0  0  0  0  0
   -0.0131   -1.3799    0.0089 C   0  0  0  0  0  0  0  0  0  0  0  0
   -0.0289   -2.3861    0.0216 H   0  0  0  0  0  0  0  0  0  0  0  0
    1.1947   -0.7120   -0.0000 C   0  0  0  0  0  0  0  0  0  0  0  0
    2.0668   -1.2153    0.0012 H   0  0  0  0  0  0  0  0  0  0  0  0
    1.1928    0.6739   -0.0083 C   0  0  0  0  0  0  0  0  0  0  0  0
    2.0635    1.1702   -0.0211 H   0  0  0  0  0  0  0  0  0  0  0  0
  1  5  1  0
  5  6  1  0
  5  7  2  0
  1  2  1  0
  1  3  1  0
  1  4  1  0
  8 12  1  0
 12 13  2  0
 13 15  1  0
 15 17  2  0
 17 19  1  0
 19 21  2  0
 21 12  1  0
  8  9  1  0
  8 10  1  0
  8 11  1  0
 13 14  1  0
 15 16  1  0
 17 18  1  0
 19 20  1  0
 21 22  1  0
M  CHG  1   6  -1
M  END
>  <PDB_ID>  (2176) 
pdb6aoq

>  <RESIDUE_NAME>  (2176) 
ASP   PHE

>  <FRAG_NAME>  (2176) 
ACET   MBZ

>  <FRAG_ATOM_NUM>  (2176) 
fragi: 7  fragj: 15

>  <atom.prop.CHAIN_ID>  (2176) 
A A A A A A A Z Z Z Z Z Z Z Z Z Z Z Z Z Z Z

>  <atom.prop.IS_HEAVY_ATOM>  (2176) 
1 0 0 0 1 1 1 1 0 0 0 1 1 0 1 0 1 0 1 0 1 0

>  <DIFUSE_FUNC_ATOM>  (2176) 
atom 6   atom 7   

>  <FINAL_SINGLE_POINT_ENERGY>  (2176) 
0

>  <NONCOV_INTER_ENERGY_QM>  (2176) 
0

>  <FF_Energy>  (2176) 
-1.6

>  <QM_Energy>  (2176) 
-6.86

>  <source>  (2176) 
ACET_MBZ_02

>  <Index>  (2176) 
18735

$$$$
ACET-pdb5ay9-A-GLU-136:MBZ-pdb5ay9-A-PHE-196
     RDKit          3D

 22 21  0  0  0  0  0  0  0  0999 V2000
    4.4139    0.8041   -1.7481 C   0  0  0  0  0  0  0  0  0  0  0  0
    3.7086    0.7123   -2.4193 H   0  0  0  0  0  0  0  0  0  0  0  0
    4.3041    0.1926   -0.9922 H   0  0  0  0  0  0  0  0  0  0  0  0
    5.3701    0.5914   -2.2262 H   0  0  0  0  0  0  0  0  0  0  0  0
    4.3552    2.2213   -1.2070 C   0  0  0  0  0  0  0  0  0  0  0  0
    5.3698    2.9393   -1.3218 O   0  0  0  0  0  1  0  0  0  0  0  0
    3.3039    2.6197   -0.6713 O   0  0  0  0  0  0  0  0  0  0  0  0
    0.0035    2.9075    0.0155 C   0  0  0  0  0  0  0  0  0  0  0  0
    0.8603    3.2035    0.4120 H   0  0  0  0  0  0  0  0  0  0  0  0
   -0.7653    3.2045    0.5635 H   0  0  0  0  0  0  0  0  0  0  0  0
   -0.0877    3.3743   -0.9653 H   0  0  0  0  0  0  0  0  0  0  0  0
    0.0003    1.3965   -0.0076 C   0  0  0  0  0  0  0  0  0  0  0  0
   -1.1926    0.6901    0.0057 C   0  0  0  0  0  0  0  0  0  0  0  0
   -2.0604    1.1815    0.0182 H   0  0  0  0  0  0  0  0  0  0  0  0
   -1.1956   -0.6931   -0.0000 C   0  0  0  0  0  0  0  0  0  0  0  0
   -2.0733   -1.1896   -0.0005 H   0  0  0  0  0  0  0  0  0  0  0  0
    0.0015   -1.3852   -0.0034 C   0  0  0  0  0  0  0  0  0  0  0  0
   -0.0035   -2.3871   -0.0089 H   0  0  0  0  0  0  0  0  0  0  0  0
    1.1956   -0.6940    0.0000 C   0  0  0  0  0  0  0  0  0  0  0  0
    2.0784   -1.1945    0.0006 H   0  0  0  0  0  0  0  0  0  0  0  0
    1.1907    0.6858    0.0053 C   0  0  0  0  0  0  0  0  0  0  0  0
    2.0617    1.1855    0.0178 H   0  0  0  0  0  0  0  0  0  0  0  0
  1  5  1  0
  5  6  1  0
  5  7  2  0
  1  2  1  0
  1  3  1  0
  1  4  1  0
  8 12  1  0
 12 13  2  0
 13 15  1  0
 15 17  2  0
 17 19  1  0
 19 21  2  0
 21 12  1  0
  8  9  1  0
  8 10  1  0
  8 11  1  0
 13 14  1  0
 15 16  1  0
 17 18  1  0
 19 20  1  0
 21 22  1  0
M  CHG  1   6  -1
M  END
>  <PDB_ID>  (2177) 
pdb5ay9

>  <RESIDUE_NAME>  (2177) 
GLU   PHE

>  <FRAG_NAME>  (2177) 
ACET   MBZ

>  <FRAG_ATOM_NUM>  (2177) 
fragi: 7  fragj: 15

>  <atom.prop.CHAIN_ID>  (2177) 
A A A A A A A Z Z Z Z Z Z Z Z Z Z Z Z Z Z Z

>  <atom.prop.IS_HEAVY_ATOM>  (2177) 
1 0 0 0 1 1 1 1 0 0 0 1 1 0 1 0 1 0 1 0 1 0

>  <DIFUSE_FUNC_ATOM>  (2177) 
atom 6   atom 7   

>  <FINAL_SINGLE_POINT_ENERGY>  (2177) 
0

>  <NONCOV_INTER_ENERGY_QM>  (2177) 
0

>  <FF_Energy>  (2177) 
4.77

>  <QM_Energy>  (2177) 
-6.81

>  <source>  (2177) 
ACET_MBZ_02

>  <Index>  (2177) 
18767

$$$$
ACET-pdb5aza-A-ASP-95:MBZ-pdb5aza-A-PHE-92
     RDKit          3D

 22 21  0  0  0  0  0  0  0  0999 V2000
   -4.9630    4.7857    0.2084 C   0  0  0  0  0  0  0  0  0  0  0  0
   -4.4566    5.3714    0.8255 H   0  0  0  0  0  0  0  0  0  0  0  0
   -5.7656    4.4113    0.6485 H   0  0  0  0  0  0  0  0  0  0  0  0
   -5.2756    5.3713   -0.6561 H   0  0  0  0  0  0  0  0  0  0  0  0
   -3.9936    3.5268   -0.1278 C   0  0  0  0  0  0  0  0  0  0  0  0
   -4.3035    2.4556   -0.8291 O   0  0  0  0  0  1  0  0  0  0  0  0
   -2.8683    3.5907    0.4355 O   0  0  0  0  0  0  0  0  0  0  0  0
   -0.0334    2.9194   -0.1049 C   0  0  0  0  0  0  0  0  0  0  0  0
    0.8862    3.2386   -0.0635 H   0  0  0  0  0  0  0  0  0  0  0  0
   -0.6002    3.2568    0.6125 H   0  0  0  0  0  0  0  0  0  0  0  0
   -0.4619    3.2365   -1.0557 H   0  0  0  0  0  0  0  0  0  0  0  0
   -0.0053    1.4020   -0.0028 C   0  0  0  0  0  0  0  0  0  0  0  0
   -1.1972    0.6990   -0.0179 C   0  0  0  0  0  0  0  0  0  0  0  0
   -2.0655    1.1839   -0.0429 H   0  0  0  0  0  0  0  0  0  0  0  0
   -1.2011   -0.6980    0.0000 C   0  0  0  0  0  0  0  0  0  0  0  0
   -2.0748   -1.1907    0.0153 H   0  0  0  0  0  0  0  0  0  0  0  0
    0.0067   -1.3919   -0.0016 C   0  0  0  0  0  0  0  0  0  0  0  0
   -0.0041   -2.3942   -0.0045 H   0  0  0  0  0  0  0  0  0  0  0  0
    1.2011   -0.7043   -0.0000 C   0  0  0  0  0  0  0  0  0  0  0  0
    2.0849   -1.1960   -0.0135 H   0  0  0  0  0  0  0  0  0  0  0  0
    1.1959    0.6933    0.0223 C   0  0  0  0  0  0  0  0  0  0  0  0
    2.0620    1.1886    0.0559 H   0  0  0  0  0  0  0  0  0  0  0  0
  1  5  1  0
  5  6  1  0
  5  7  2  0
  1  2  1  0
  1  3  1  0
  1  4  1  0
  8 12  1  0
 12 13  2  0
 13 15  1  0
 15 17  2  0
 17 19  1  0
 19 21  2  0
 21 12  1  0
  8  9  1  0
  8 10  1  0
  8 11  1  0
 13 14  1  0
 15 16  1  0
 17 18  1  0
 19 20  1  0
 21 22  1  0
M  CHG  1   6  -1
M  END
>  <PDB_ID>  (2178) 
pdb5aza

>  <RESIDUE_NAME>  (2178) 
ASP   PHE

>  <FRAG_NAME>  (2178) 
ACET   MBZ

>  <FRAG_ATOM_NUM>  (2178) 
fragi: 7  fragj: 15

>  <atom.prop.CHAIN_ID>  (2178) 
A A A A A A A Z Z Z Z Z Z Z Z Z Z Z Z Z Z Z

>  <atom.prop.IS_HEAVY_ATOM>  (2178) 
1 0 0 0 1 1 1 1 0 0 0 1 1 0 1 0 1 0 1 0 1 0

>  <DIFUSE_FUNC_ATOM>  (2178) 
atom 6   atom 7   

>  <FINAL_SINGLE_POINT_ENERGY>  (2178) 
0

>  <NONCOV_INTER_ENERGY_QM>  (2178) 
0

>  <FF_Energy>  (2178) 
-1.14

>  <QM_Energy>  (2178) 
-8.9

>  <source>  (2178) 
ACET_MBZ_02

>  <Index>  (2178) 
18811

$$$$
ACET-pdb6aqg-C-ASP-473:MBZ-pdb6aqg-C-PHE-267
     RDKit          3D

 22 21  0  0  0  0  0  0  0  0999 V2000
    3.3081    5.3364    3.0447 C   0  0  0  0  0  0  0  0  0  0  0  0
    2.9086    4.5402    3.4700 H   0  0  0  0  0  0  0  0  0  0  0  0
    2.9505    6.1722    3.4289 H   0  0  0  0  0  0  0  0  0  0  0  0
    4.3861    5.3119    3.2048 H   0  0  0  0  0  0  0  0  0  0  0  0
    2.9423    5.3080    1.5375 C   0  0  0  0  0  0  0  0  0  0  0  0
    2.8838    6.3795    0.8851 O   0  0  0  0  0  1  0  0  0  0  0  0
    2.7650    4.1941    0.9906 O   0  0  0  0  0  0  0  0  0  0  0  0
    0.0027    2.9254    0.0107 C   0  0  0  0  0  0  0  0  0  0  0  0
    0.8581    3.2256    0.4023 H   0  0  0  0  0  0  0  0  0  0  0  0
   -0.7694    3.2271    0.5480 H   0  0  0  0  0  0  0  0  0  0  0  0
   -0.0853    3.3750   -0.9783 H   0  0  0  0  0  0  0  0  0  0  0  0
    0.0003    1.4152   -0.0011 C   0  0  0  0  0  0  0  0  0  0  0  0
   -1.1985    0.7018   -0.0033 C   0  0  0  0  0  0  0  0  0  0  0  0
   -2.0661    1.1818   -0.0083 H   0  0  0  0  0  0  0  0  0  0  0  0
   -1.1991   -0.7087    0.0000 C   0  0  0  0  0  0  0  0  0  0  0  0
   -2.0775   -1.1950    0.0050 H   0  0  0  0  0  0  0  0  0  0  0  0
    0.0024   -1.4050   -0.0012 C   0  0  0  0  0  0  0  0  0  0  0  0
   -0.0006   -2.4026   -0.0030 H   0  0  0  0  0  0  0  0  0  0  0  0
    1.1991   -0.7057    0.0000 C   0  0  0  0  0  0  0  0  0  0  0  0
    2.0847   -1.1940   -0.0018 H   0  0  0  0  0  0  0  0  0  0  0  0
    1.1957    0.7024    0.0056 C   0  0  0  0  0  0  0  0  0  0  0  0
    2.0666    1.1896    0.0135 H   0  0  0  0  0  0  0  0  0  0  0  0
  1  5  1  0
  5  6  1  0
  5  7  2  0
  1  2  1  0
  1  3  1  0
  1  4  1  0
  8 12  1  0
 12 13  2  0
 13 15  1  0
 15 17  2  0
 17 19  1  0
 19 21  2  0
 21 12  1  0
  8  9  1  0
  8 10  1  0
  8 11  1  0
 13 14  1  0
 15 16  1  0
 17 18  1  0
 19 20  1  0
 21 22  1  0
M  CHG  1   6  -1
M  END
>  <PDB_ID>  (2179) 
pdb6aqg

>  <RESIDUE_NAME>  (2179) 
ASP   PHE

>  <FRAG_NAME>  (2179) 
ACET   MBZ

>  <FRAG_ATOM_NUM>  (2179) 
fragi: 7  fragj: 15

>  <atom.prop.CHAIN_ID>  (2179) 
A A A A A A A Z Z Z Z Z Z Z Z Z Z Z Z Z Z Z

>  <atom.prop.IS_HEAVY_ATOM>  (2179) 
1 0 0 0 1 1 1 1 0 0 0 1 1 0 1 0 1 0 1 0 1 0

>  <DIFUSE_FUNC_ATOM>  (2179) 
atom 6   atom 7   

>  <FINAL_SINGLE_POINT_ENERGY>  (2179) 
0

>  <NONCOV_INTER_ENERGY_QM>  (2179) 
0

>  <FF_Energy>  (2179) 
-0.35

>  <QM_Energy>  (2179) 
-6.66

>  <source>  (2179) 
ACET_MBZ_02

>  <Index>  (2179) 
18840

$$$$
ACET-pdb6aqh-D-ASP-477:MBZ-pdb6aqh-D-PHE-270
     RDKit          3D

 22 21  0  0  0  0  0  0  0  0999 V2000
    3.8103    5.0322    2.1046 C   0  0  0  0  0  0  0  0  0  0  0  0
    3.6035    4.1589    2.5293 H   0  0  0  0  0  0  0  0  0  0  0  0
    3.4671    5.7807    2.6578 H   0  0  0  0  0  0  0  0  0  0  0  0
    4.8942    5.1280    2.0410 H   0  0  0  0  0  0  0  0  0  0  0  0
    3.1460    5.0841    0.7458 C   0  0  0  0  0  0  0  0  0  0  0  0
    2.8943    6.1988    0.2423 O   0  0  0  0  0  1  0  0  0  0  0  0
    2.9042    4.0038    0.1672 O   0  0  0  0  0  0  0  0  0  0  0  0
    0.0059    2.9003    0.0083 C   0  0  0  0  0  0  0  0  0  0  0  0
    0.9088    3.2020    0.2780 H   0  0  0  0  0  0  0  0  0  0  0  0
   -0.6794    3.2039    0.6546 H   0  0  0  0  0  0  0  0  0  0  0  0
   -0.2217    3.3589   -0.9540 H   0  0  0  0  0  0  0  0  0  0  0  0
    0.0001    1.3972   -0.0058 C   0  0  0  0  0  0  0  0  0  0  0  0
   -1.1915    0.6904    0.0022 C   0  0  0  0  0  0  0  0  0  0  0  0
   -2.0600    1.1815    0.0089 H   0  0  0  0  0  0  0  0  0  0  0  0
   -1.1949   -0.6939   -0.0000 C   0  0  0  0  0  0  0  0  0  0  0  0
   -2.0737   -1.1889   -0.0019 H   0  0  0  0  0  0  0  0  0  0  0  0
    0.0000   -1.3869    0.0016 C   0  0  0  0  0  0  0  0  0  0  0  0
   -0.0043   -2.3884    0.0039 H   0  0  0  0  0  0  0  0  0  0  0  0
    1.1949   -0.6952    0.0000 C   0  0  0  0  0  0  0  0  0  0  0  0
    2.0782   -1.1951   -0.0013 H   0  0  0  0  0  0  0  0  0  0  0  0
    1.1913    0.6885    0.0020 C   0  0  0  0  0  0  0  0  0  0  0  0
    2.0615    1.1862    0.0086 H   0  0  0  0  0  0  0  0  0  0  0  0
  1  5  1  0
  5  6  1  0
  5  7  2  0
  1  2  1  0
  1  3  1  0
  1  4  1  0
  8 12  1  0
 12 13  2  0
 13 15  1  0
 15 17  2  0
 17 19  1  0
 19 21  2  0
 21 12  1  0
  8  9  1  0
  8 10  1  0
  8 11  1  0
 13 14  1  0
 15 16  1  0
 17 18  1  0
 19 20  1  0
 21 22  1  0
M  CHG  1   6  -1
M  END
>  <PDB_ID>  (2180) 
pdb6aqh

>  <RESIDUE_NAME>  (2180) 
ASP   PHE

>  <FRAG_NAME>  (2180) 
ACET   MBZ

>  <FRAG_ATOM_NUM>  (2180) 
fragi: 7  fragj: 15

>  <atom.prop.CHAIN_ID>  (2180) 
A A A A A A A Z Z Z Z Z Z Z Z Z Z Z Z Z Z Z

>  <atom.prop.IS_HEAVY_ATOM>  (2180) 
1 0 0 0 1 1 1 1 0 0 0 1 1 0 1 0 1 0 1 0 1 0

>  <DIFUSE_FUNC_ATOM>  (2180) 
atom 6   atom 7   

>  <FINAL_SINGLE_POINT_ENERGY>  (2180) 
0

>  <NONCOV_INTER_ENERGY_QM>  (2180) 
0

>  <FF_Energy>  (2180) 
0.3

>  <QM_Energy>  (2180) 
-6.91

>  <source>  (2180) 
ACET_MBZ_02

>  <Index>  (2180) 
18877

$$$$
ACET-pdb5az4-B-GLU-789:MBZ-pdb5az4-B-PHE-795
     RDKit          3D

 22 21  0  0  0  0  0  0  0  0999 V2000
   -4.1545   -1.9799   -1.3036 C   0  0  0  0  0  0  0  0  0  0  0  0
   -3.9342   -2.9348   -1.3794 H   0  0  0  0  0  0  0  0  0  0  0  0
   -3.5385   -1.5014   -0.7054 H   0  0  0  0  0  0  0  0  0  0  0  0
   -4.0841   -1.5345   -2.2959 H   0  0  0  0  0  0  0  0  0  0  0  0
   -5.5461   -1.8742   -0.7090 C   0  0  0  0  0  0  0  0  0  0  0  0
   -6.3537   -1.0716   -1.2208 O   0  0  0  0  0  1  0  0  0  0  0  0
   -5.8354   -2.5990    0.2668 O   0  0  0  0  0  0  0  0  0  0  0  0
   -0.0024    2.9033   -0.0017 C   0  0  0  0  0  0  0  0  0  0  0  0
    0.8320    3.2101    0.4305 H   0  0  0  0  0  0  0  0  0  0  0  0
   -0.7991    3.2076    0.4975 H   0  0  0  0  0  0  0  0  0  0  0  0
   -0.0439    3.3464   -0.9968 H   0  0  0  0  0  0  0  0  0  0  0  0
   -0.0005    1.3961   -0.0017 C   0  0  0  0  0  0  0  0  0  0  0  0
   -1.1917    0.6906    0.0001 C   0  0  0  0  0  0  0  0  0  0  0  0
   -2.0599    1.1830    0.0004 H   0  0  0  0  0  0  0  0  0  0  0  0
   -1.1953   -0.6914    0.0000 C   0  0  0  0  0  0  0  0  0  0  0  0
   -2.0746   -1.1876    0.0005 H   0  0  0  0  0  0  0  0  0  0  0  0
   -0.0009   -1.3855    0.0002 C   0  0  0  0  0  0  0  0  0  0  0  0
   -0.0068   -2.3871   -0.0004 H   0  0  0  0  0  0  0  0  0  0  0  0
    1.1953   -0.6965   -0.0000 C   0  0  0  0  0  0  0  0  0  0  0  0
    2.0774   -1.1973   -0.0001 H   0  0  0  0  0  0  0  0  0  0  0  0
    1.1932    0.6867    0.0014 C   0  0  0  0  0  0  0  0  0  0  0  0
    2.0621    1.1846    0.0038 H   0  0  0  0  0  0  0  0  0  0  0  0
  1  5  1  0
  5  6  1  0
  5  7  2  0
  1  2  1  0
  1  3  1  0
  1  4  1  0
  8 12  1  0
 12 13  2  0
 13 15  1  0
 15 17  2  0
 17 19  1  0
 19 21  2  0
 21 12  1  0
  8  9  1  0
  8 10  1  0
  8 11  1  0
 13 14  1  0
 15 16  1  0
 17 18  1  0
 19 20  1  0
 21 22  1  0
M  CHG  1   6  -1
M  END
>  <PDB_ID>  (2181) 
pdb5az4

>  <RESIDUE_NAME>  (2181) 
GLU   PHE

>  <FRAG_NAME>  (2181) 
ACET   MBZ

>  <FRAG_ATOM_NUM>  (2181) 
fragi: 7  fragj: 15

>  <atom.prop.CHAIN_ID>  (2181) 
A A A A A A A Z Z Z Z Z Z Z Z Z Z Z Z Z Z Z

>  <atom.prop.IS_HEAVY_ATOM>  (2181) 
1 0 0 0 1 1 1 1 0 0 0 1 1 0 1 0 1 0 1 0 1 0

>  <DIFUSE_FUNC_ATOM>  (2181) 
atom 6   atom 7   

>  <FINAL_SINGLE_POINT_ENERGY>  (2181) 
0

>  <NONCOV_INTER_ENERGY_QM>  (2181) 
0

>  <FF_Energy>  (2181) 
8.33

>  <QM_Energy>  (2181) 
0.36

>  <source>  (2181) 
ACET_MBZ_02

>  <Index>  (2181) 
18879

$$$$
ACET-pdb6arh-D-ASP-189:MBZ-pdb6arh-C-PHE-249
     RDKit          3D

 22 21  0  0  0  0  0  0  0  0999 V2000
   -0.0857    0.3058    3.5262 C   0  0  0  0  0  0  0  0  0  0  0  0
   -0.3738    0.0198    2.6141 H   0  0  0  0  0  0  0  0  0  0  0  0
   -0.8820    0.3744    4.1245 H   0  0  0  0  0  0  0  0  0  0  0  0
    0.5692   -0.4674    3.9279 H   0  0  0  0  0  0  0  0  0  0  0  0
    0.5671    1.6652    3.4258 C   0  0  0  0  0  0  0  0  0  0  0  0
    1.8215    1.7732    3.3201 O   0  0  0  0  0  1  0  0  0  0  0  0
   -0.2009    2.6486    3.4305 O   0  0  0  0  0  0  0  0  0  0  0  0
    0.0842    2.9157    0.0600 C   0  0  0  0  0  0  0  0  0  0  0  0
    0.8837    3.1994   -0.4596 H   0  0  0  0  0  0  0  0  0  0  0  0
    0.1812    3.1780    1.0142 H   0  0  0  0  0  0  0  0  0  0  0  0
   -0.7789    3.4449   -0.3438 H   0  0  0  0  0  0  0  0  0  0  0  0
    0.0069    1.4094    0.0014 C   0  0  0  0  0  0  0  0  0  0  0  0
   -1.2005    0.6932    0.0199 C   0  0  0  0  0  0  0  0  0  0  0  0
   -2.0608    1.1845    0.0459 H   0  0  0  0  0  0  0  0  0  0  0  0
   -1.1927   -0.6908    0.0000 C   0  0  0  0  0  0  0  0  0  0  0  0
   -2.0743   -1.1909   -0.0075 H   0  0  0  0  0  0  0  0  0  0  0  0
    0.0011   -1.3866   -0.0079 C   0  0  0  0  0  0  0  0  0  0  0  0
   -0.0110   -2.3905   -0.0202 H   0  0  0  0  0  0  0  0  0  0  0  0
    1.1927   -0.7056    0.0000 C   0  0  0  0  0  0  0  0  0  0  0  0
    2.0758   -1.2041    0.0170 H   0  0  0  0  0  0  0  0  0  0  0  0
    1.1925    0.6805   -0.0135 C   0  0  0  0  0  0  0  0  0  0  0  0
    2.0691    1.1735   -0.0359 H   0  0  0  0  0  0  0  0  0  0  0  0
  1  5  1  0
  5  6  1  0
  5  7  2  0
  1  2  1  0
  1  3  1  0
  1  4  1  0
  8 12  1  0
 12 13  2  0
 13 15  1  0
 15 17  2  0
 17 19  1  0
 19 21  2  0
 21 12  1  0
  8  9  1  0
  8 10  1  0
  8 11  1  0
 13 14  1  0
 15 16  1  0
 17 18  1  0
 19 20  1  0
 21 22  1  0
M  CHG  1   6  -1
M  END
>  <PDB_ID>  (2182) 
pdb6arh

>  <RESIDUE_NAME>  (2182) 
ASP   PHE

>  <FRAG_NAME>  (2182) 
ACET   MBZ

>  <FRAG_ATOM_NUM>  (2182) 
fragi: 7  fragj: 15

>  <atom.prop.CHAIN_ID>  (2182) 
A A A A A A A Z Z Z Z Z Z Z Z Z Z Z Z Z Z Z

>  <atom.prop.IS_HEAVY_ATOM>  (2182) 
1 0 0 0 1 1 1 1 0 0 0 1 1 0 1 0 1 0 1 0 1 0

>  <DIFUSE_FUNC_ATOM>  (2182) 
atom 6   atom 7   

>  <FINAL_SINGLE_POINT_ENERGY>  (2182) 
0

>  <NONCOV_INTER_ENERGY_QM>  (2182) 
0

>  <FF_Energy>  (2182) 
0.16

>  <QM_Energy>  (2182) 
-6.54

>  <source>  (2182) 
ACET_MBZ_02

>  <Index>  (2182) 
18998

$$$$
ACET-pdb6at7-A-GLU-652:MBZ-pdb6at7-A-PHE-648
     RDKit          3D

 22 21  0  0  0  0  0  0  0  0999 V2000
   -4.7285    0.6483    2.0428 C   0  0  0  0  0  0  0  0  0  0  0  0
   -4.2993   -0.1285    2.4357 H   0  0  0  0  0  0  0  0  0  0  0  0
   -5.6805    0.6299    2.2255 H   0  0  0  0  0  0  0  0  0  0  0  0
   -4.2999    1.5506    2.4789 H   0  0  0  0  0  0  0  0  0  0  0  0
   -4.5335    0.5850    0.5369 C   0  0  0  0  0  0  0  0  0  0  0  0
   -4.1233    1.6062   -0.0567 O   0  0  0  0  0  1  0  0  0  0  0  0
   -4.7908   -0.4869   -0.0545 O   0  0  0  0  0  0  0  0  0  0  0  0
    0.0041    2.8884   -0.0011 C   0  0  0  0  0  0  0  0  0  0  0  0
   -0.5558    3.1824   -0.7375 H   0  0  0  0  0  0  0  0  0  0  0  0
    0.9167    3.1820   -0.1454 H   0  0  0  0  0  0  0  0  0  0  0  0
   -0.3665    3.3367    0.9208 H   0  0  0  0  0  0  0  0  0  0  0  0
    0.0012    1.3899    0.0048 C   0  0  0  0  0  0  0  0  0  0  0  0
   -1.1898    0.6870   -0.0014 C   0  0  0  0  0  0  0  0  0  0  0  0
   -1.9966    1.1496   -0.0004 H   0  0  0  0  0  0  0  0  0  0  0  0
   -1.1943   -0.6910    0.0000 C   0  0  0  0  0  0  0  0  0  0  0  0
   -2.0012   -1.1538   -0.0016 H   0  0  0  0  0  0  0  0  0  0  0  0
   -0.0034   -1.3814   -0.0035 C   0  0  0  0  0  0  0  0  0  0  0  0
   -0.0043   -2.3118   -0.0020 H   0  0  0  0  0  0  0  0  0  0  0  0
    1.1943   -0.6901    0.0000 C   0  0  0  0  0  0  0  0  0  0  0  0
    2.0001   -1.1548   -0.0011 H   0  0  0  0  0  0  0  0  0  0  0  0
    1.1920    0.6856    0.0001 C   0  0  0  0  0  0  0  0  0  0  0  0
    1.9998    1.1462    0.0011 H   0  0  0  0  0  0  0  0  0  0  0  0
  1  5  1  0
  5  6  1  0
  5  7  2  0
  1  2  1  0
  1  3  1  0
  1  4  1  0
  8 12  1  0
 12 13  2  0
 13 15  1  0
 15 17  2  0
 17 19  1  0
 19 21  2  0
 21 12  1  0
  8  9  1  0
  8 10  1  0
  8 11  1  0
 13 14  1  0
 15 16  1  0
 17 18  1  0
 19 20  1  0
 21 22  1  0
M  CHG  1   6  -1
M  END
>  <PDB_ID>  (2183) 
pdb6at7

>  <RESIDUE_NAME>  (2183) 
GLU   PHE

>  <FRAG_NAME>  (2183) 
ACET   MBZ

>  <FRAG_ATOM_NUM>  (2183) 
fragi: 7  fragj: 15

>  <atom.prop.CHAIN_ID>  (2183) 
A A A A A A A Z Z Z Z Z Z Z Z Z Z Z Z Z Z Z

>  <atom.prop.IS_HEAVY_ATOM>  (2183) 
1 0 0 0 1 1 1 1 0 0 0 1 1 0 1 0 1 0 1 0 1 0

>  <DIFUSE_FUNC_ATOM>  (2183) 
atom 6   atom 7   

>  <FINAL_SINGLE_POINT_ENERGY>  (2183) 
0

>  <NONCOV_INTER_ENERGY_QM>  (2183) 
0

>  <FF_Energy>  (2183) 
-0.52

>  <QM_Energy>  (2183) 
-7.26

>  <source>  (2183) 
ACET_MBZ_02

>  <Index>  (2183) 
19020

$$$$
ACET-pdb6at7-B-GLU-652:MBZ-pdb6at7-B-PHE-648
     RDKit          3D

 22 21  0  0  0  0  0  0  0  0999 V2000
   -4.6413    0.7851    1.7264 C   0  0  0  0  0  0  0  0  0  0  0  0
   -4.2340   -0.0013    2.1241 H   0  0  0  0  0  0  0  0  0  0  0  0
   -5.6006    0.7731    1.8704 H   0  0  0  0  0  0  0  0  0  0  0  0
   -4.2209    1.6784    2.1885 H   0  0  0  0  0  0  0  0  0  0  0  0
   -4.3861    0.7444    0.2248 C   0  0  0  0  0  0  0  0  0  0  0  0
   -4.0412    1.8025   -0.3464 O   0  0  0  0  0  1  0  0  0  0  0  0
   -4.5156   -0.3394   -0.3830 O   0  0  0  0  0  0  0  0  0  0  0  0
    0.0010    2.8945   -0.0126 C   0  0  0  0  0  0  0  0  0  0  0  0
   -0.5216    3.1804   -0.7782 H   0  0  0  0  0  0  0  0  0  0  0  0
    0.9203    3.1865   -0.1163 H   0  0  0  0  0  0  0  0  0  0  0  0
   -0.4133    3.3557    0.8840 H   0  0  0  0  0  0  0  0  0  0  0  0
   -0.0012    1.3934    0.0057 C   0  0  0  0  0  0  0  0  0  0  0  0
   -1.1906    0.6886   -0.0052 C   0  0  0  0  0  0  0  0  0  0  0  0
   -1.9968    1.1512   -0.0045 H   0  0  0  0  0  0  0  0  0  0  0  0
   -1.1956   -0.6914   -0.0000 C   0  0  0  0  0  0  0  0  0  0  0  0
   -2.0025   -1.1538   -0.0008 H   0  0  0  0  0  0  0  0  0  0  0  0
    0.0011   -1.3846    0.0005 C   0  0  0  0  0  0  0  0  0  0  0  0
    0.0007   -2.3153    0.0038 H   0  0  0  0  0  0  0  0  0  0  0  0
    1.1956   -0.6935    0.0000 C   0  0  0  0  0  0  0  0  0  0  0  0
    2.0023   -1.1566    0.0033 H   0  0  0  0  0  0  0  0  0  0  0  0
    1.1907    0.6875   -0.0009 C   0  0  0  0  0  0  0  0  0  0  0  0
    1.9982    1.1493   -0.0012 H   0  0  0  0  0  0  0  0  0  0  0  0
  1  5  1  0
  5  6  1  0
  5  7  2  0
  1  2  1  0
  1  3  1  0
  1  4  1  0
  8 12  1  0
 12 13  2  0
 13 15  1  0
 15 17  2  0
 17 19  1  0
 19 21  2  0
 21 12  1  0
  8  9  1  0
  8 10  1  0
  8 11  1  0
 13 14  1  0
 15 16  1  0
 17 18  1  0
 19 20  1  0
 21 22  1  0
M  CHG  1   6  -1
M  END
>  <PDB_ID>  (2184) 
pdb6at7

>  <RESIDUE_NAME>  (2184) 
GLU   PHE

>  <FRAG_NAME>  (2184) 
ACET   MBZ

>  <FRAG_ATOM_NUM>  (2184) 
fragi: 7  fragj: 15

>  <atom.prop.CHAIN_ID>  (2184) 
A A A A A A A Z Z Z Z Z Z Z Z Z Z Z Z Z Z Z

>  <atom.prop.IS_HEAVY_ATOM>  (2184) 
1 0 0 0 1 1 1 1 0 0 0 1 1 0 1 0 1 0 1 0 1 0

>  <DIFUSE_FUNC_ATOM>  (2184) 
atom 6   atom 7   

>  <FINAL_SINGLE_POINT_ENERGY>  (2184) 
0

>  <NONCOV_INTER_ENERGY_QM>  (2184) 
0

>  <FF_Energy>  (2184) 
1.14

>  <QM_Energy>  (2184) 
-7.08

>  <source>  (2184) 
ACET_MBZ_02

>  <Index>  (2184) 
19022

$$$$
ACET-pdb5anh-C-ASP-101:MBZ-pdb5anh-C-PHE-69
     RDKit          3D

 22 21  0  0  0  0  0  0  0  0999 V2000
    6.2367   -0.1666   -1.6875 C   0  0  0  0  0  0  0  0  0  0  0  0
    6.1517   -1.0844   -1.3277 H   0  0  0  0  0  0  0  0  0  0  0  0
    7.0059    0.3068   -1.2848 H   0  0  0  0  0  0  0  0  0  0  0  0
    6.3942   -0.2303   -2.7642 H   0  0  0  0  0  0  0  0  0  0  0  0
    4.9518    0.6107   -1.3251 C   0  0  0  0  0  0  0  0  0  0  0  0
    4.6772    1.6549   -1.9616 O   0  0  0  0  0  1  0  0  0  0  0  0
    4.2057    0.1689   -0.4207 O   0  0  0  0  0  0  0  0  0  0  0  0
   -0.0024    2.8904   -0.0175 C   0  0  0  0  0  0  0  0  0  0  0  0
    0.7451    3.1924   -0.5903 H   0  0  0  0  0  0  0  0  0  0  0  0
    0.1084    3.2066    0.9130 H   0  0  0  0  0  0  0  0  0  0  0  0
   -0.9209    3.3261   -0.4104 H   0  0  0  0  0  0  0  0  0  0  0  0
   -0.0015    1.3915   -0.0031 C   0  0  0  0  0  0  0  0  0  0  0  0
   -1.1863    0.6898   -0.0036 C   0  0  0  0  0  0  0  0  0  0  0  0
   -2.0572    1.1833   -0.0085 H   0  0  0  0  0  0  0  0  0  0  0  0
   -1.1959   -0.6892    0.0000 C   0  0  0  0  0  0  0  0  0  0  0  0
   -2.0744   -1.1838   -0.0012 H   0  0  0  0  0  0  0  0  0  0  0  0
   -0.0003   -1.3866    0.0064 C   0  0  0  0  0  0  0  0  0  0  0  0
   -0.0067   -2.3856    0.0151 H   0  0  0  0  0  0  0  0  0  0  0  0
    1.1959   -0.6939   -0.0000 C   0  0  0  0  0  0  0  0  0  0  0  0
    2.0782   -1.1921   -0.0036 H   0  0  0  0  0  0  0  0  0  0  0  0
    1.1881    0.6884    0.0003 C   0  0  0  0  0  0  0  0  0  0  0  0
    2.0587    1.1883    0.0021 H   0  0  0  0  0  0  0  0  0  0  0  0
  1  5  1  0
  5  6  1  0
  5  7  2  0
  1  2  1  0
  1  3  1  0
  1  4  1  0
  8 12  1  0
 12 13  2  0
 13 15  1  0
 15 17  2  0
 17 19  1  0
 19 21  2  0
 21 12  1  0
  8  9  1  0
  8 10  1  0
  8 11  1  0
 13 14  1  0
 15 16  1  0
 17 18  1  0
 19 20  1  0
 21 22  1  0
M  CHG  1   6  -1
M  END
>  <PDB_ID>  (2185) 
pdb5anh

>  <RESIDUE_NAME>  (2185) 
ASP   PHE

>  <FRAG_NAME>  (2185) 
ACET   MBZ

>  <FRAG_ATOM_NUM>  (2185) 
fragi: 7  fragj: 15

>  <atom.prop.CHAIN_ID>  (2185) 
A A A A A A A Z Z Z Z Z Z Z Z Z Z Z Z Z Z Z

>  <atom.prop.IS_HEAVY_ATOM>  (2185) 
1 0 0 0 1 1 1 1 0 0 0 1 1 0 1 0 1 0 1 0 1 0

>  <DIFUSE_FUNC_ATOM>  (2185) 
atom 6   atom 7   

>  <FINAL_SINGLE_POINT_ENERGY>  (2185) 
0

>  <NONCOV_INTER_ENERGY_QM>  (2185) 
0

>  <FF_Energy>  (2185) 
-1.85

>  <QM_Energy>  (2185) 
-7.47

>  <source>  (2185) 
ACET_MBZ_02

>  <Index>  (2185) 
19246

$$$$
ACET-pdb6b26-A-ASP-387:MBZ-pdb6b26-A-PHE-391
     RDKit          3D

 22 21  0  0  0  0  0  0  0  0999 V2000
   -3.4115    6.9024   -1.0126 C   0  0  0  0  0  0  0  0  0  0  0  0
   -4.1657    6.8571   -1.6676 H   0  0  0  0  0  0  0  0  0  0  0  0
   -2.6871    7.4842   -1.3790 H   0  0  0  0  0  0  0  0  0  0  0  0
   -3.7905    7.3798   -0.1090 H   0  0  0  0  0  0  0  0  0  0  0  0
   -2.8607    5.5056   -0.8015 C   0  0  0  0  0  0  0  0  0  0  0  0
   -3.3934    4.7360    0.0286 O   0  0  0  0  0  1  0  0  0  0  0  0
   -1.8692    5.1898   -1.5025 O   0  0  0  0  0  0  0  0  0  0  0  0
    0.0030    2.9066    0.0180 C   0  0  0  0  0  0  0  0  0  0  0  0
   -0.7173    3.2219   -0.5757 H   0  0  0  0  0  0  0  0  0  0  0  0
    0.8891    3.2165   -0.2827 H   0  0  0  0  0  0  0  0  0  0  0  0
   -0.1762    3.3231    1.0092 H   0  0  0  0  0  0  0  0  0  0  0  0
    0.0018    1.4022   -0.0030 C   0  0  0  0  0  0  0  0  0  0  0  0
   -1.1952    0.7006    0.0039 C   0  0  0  0  0  0  0  0  0  0  0  0
   -2.0610    1.1893    0.0107 H   0  0  0  0  0  0  0  0  0  0  0  0
   -1.1984   -0.6915    0.0000 C   0  0  0  0  0  0  0  0  0  0  0  0
   -2.0770   -1.1837   -0.0039 H   0  0  0  0  0  0  0  0  0  0  0  0
   -0.0009   -1.3890    0.0026 C   0  0  0  0  0  0  0  0  0  0  0  0
   -0.0122   -2.3913    0.0063 H   0  0  0  0  0  0  0  0  0  0  0  0
    1.1984   -0.7050   -0.0000 C   0  0  0  0  0  0  0  0  0  0  0  0
    2.0783   -1.2033    0.0018 H   0  0  0  0  0  0  0  0  0  0  0  0
    1.1944    0.6827   -0.0035 C   0  0  0  0  0  0  0  0  0  0  0  0
    2.0663    1.1789   -0.0069 H   0  0  0  0  0  0  0  0  0  0  0  0
  1  5  1  0
  5  6  1  0
  5  7  2  0
  1  2  1  0
  1  3  1  0
  1  4  1  0
  8 12  1  0
 12 13  2  0
 13 15  1  0
 15 17  2  0
 17 19  1  0
 19 21  2  0
 21 12  1  0
  8  9  1  0
  8 10  1  0
  8 11  1  0
 13 14  1  0
 15 16  1  0
 17 18  1  0
 19 20  1  0
 21 22  1  0
M  CHG  1   6  -1
M  END
>  <PDB_ID>  (2186) 
pdb6b26

>  <RESIDUE_NAME>  (2186) 
ASP   PHE

>  <FRAG_NAME>  (2186) 
ACET   MBZ

>  <FRAG_ATOM_NUM>  (2186) 
fragi: 7  fragj: 15

>  <atom.prop.CHAIN_ID>  (2186) 
A A A A A A A Z Z Z Z Z Z Z Z Z Z Z Z Z Z Z

>  <atom.prop.IS_HEAVY_ATOM>  (2186) 
1 0 0 0 1 1 1 1 0 0 0 1 1 0 1 0 1 0 1 0 1 0

>  <DIFUSE_FUNC_ATOM>  (2186) 
atom 6   atom 7   

>  <FINAL_SINGLE_POINT_ENERGY>  (2186) 
0

>  <NONCOV_INTER_ENERGY_QM>  (2186) 
0

>  <FF_Energy>  (2186) 
-1.55

>  <QM_Energy>  (2186) 
-6.82

>  <source>  (2186) 
ACET_MBZ_02

>  <Index>  (2186) 
19267

$$$$
ACET-pdb5b5v-C-GLU-176:MBZ-pdb5b5v-C-PHE-167
     RDKit          3D

 22 21  0  0  0  0  0  0  0  0999 V2000
   -2.0625   -3.5233    1.9079 C   0  0  0  0  0  0  0  0  0  0  0  0
   -2.7246   -3.9048    1.2862 H   0  0  0  0  0  0  0  0  0  0  0  0
   -1.9256   -2.5602    1.7537 H   0  0  0  0  0  0  0  0  0  0  0  0
   -2.4416   -3.6521    2.9217 H   0  0  0  0  0  0  0  0  0  0  0  0
   -0.7264   -4.2249    1.6432 C   0  0  0  0  0  0  0  0  0  0  0  0
   -0.4426   -4.5135    0.4509 O   0  0  0  0  0  1  0  0  0  0  0  0
    0.0343   -4.4719    2.6148 O   0  0  0  0  0  0  0  0  0  0  0  0
   -0.0169    2.8933    0.0085 C   0  0  0  0  0  0  0  0  0  0  0  0
   -0.5130    3.2021   -0.7851 H   0  0  0  0  0  0  0  0  0  0  0  0
    0.9169    3.2116    0.0037 H   0  0  0  0  0  0  0  0  0  0  0  0
   -0.5073    3.3009    0.8925 H   0  0  0  0  0  0  0  0  0  0  0  0
    0.0014    1.3963   -0.0072 C   0  0  0  0  0  0  0  0  0  0  0  0
   -1.1964    0.6850    0.0016 C   0  0  0  0  0  0  0  0  0  0  0  0
   -2.0615    1.1802    0.0077 H   0  0  0  0  0  0  0  0  0  0  0  0
   -1.2012   -0.6963   -0.0000 C   0  0  0  0  0  0  0  0  0  0  0  0
   -2.0773   -1.1936   -0.0004 H   0  0  0  0  0  0  0  0  0  0  0  0
   -0.0026   -1.3874    0.0006 C   0  0  0  0  0  0  0  0  0  0  0  0
   -0.0025   -2.3878    0.0007 H   0  0  0  0  0  0  0  0  0  0  0  0
    1.2012   -0.6911    0.0000 C   0  0  0  0  0  0  0  0  0  0  0  0
    2.0804   -1.1936   -0.0020 H   0  0  0  0  0  0  0  0  0  0  0  0
    1.1976    0.6935    0.0051 C   0  0  0  0  0  0  0  0  0  0  0  0
    2.0644    1.1921    0.0166 H   0  0  0  0  0  0  0  0  0  0  0  0
  1  5  1  0
  5  6  1  0
  5  7  2  0
  1  2  1  0
  1  3  1  0
  1  4  1  0
  8 12  1  0
 12 13  2  0
 13 15  1  0
 15 17  2  0
 17 19  1  0
 19 21  2  0
 21 12  1  0
  8  9  1  0
  8 10  1  0
  8 11  1  0
 13 14  1  0
 15 16  1  0
 17 18  1  0
 19 20  1  0
 21 22  1  0
M  CHG  1   6  -1
M  END
>  <PDB_ID>  (2187) 
pdb5b5v

>  <RESIDUE_NAME>  (2187) 
GLU   PHE

>  <FRAG_NAME>  (2187) 
ACET   MBZ

>  <FRAG_ATOM_NUM>  (2187) 
fragi: 7  fragj: 15

>  <atom.prop.CHAIN_ID>  (2187) 
A A A A A A A Z Z Z Z Z Z Z Z Z Z Z Z Z Z Z

>  <atom.prop.IS_HEAVY_ATOM>  (2187) 
1 0 0 0 1 1 1 1 0 0 0 1 1 0 1 0 1 0 1 0 1 0

>  <DIFUSE_FUNC_ATOM>  (2187) 
atom 6   atom 7   

>  <FINAL_SINGLE_POINT_ENERGY>  (2187) 
0

>  <NONCOV_INTER_ENERGY_QM>  (2187) 
0

>  <FF_Energy>  (2187) 
0.27

>  <QM_Energy>  (2187) 
-4.8

>  <source>  (2187) 
ACET_MBZ_02

>  <Index>  (2187) 
19304

$$$$
ACET-pdb6b9o-A-GLU-694:MBZ-pdb6b9o-A-PHE-627
     RDKit          3D

 22 21  0  0  0  0  0  0  0  0999 V2000
   -4.8812   -0.4048   -2.8139 C   0  0  0  0  0  0  0  0  0  0  0  0
   -5.3995    0.0894   -3.5007 H   0  0  0  0  0  0  0  0  0  0  0  0
   -5.4786   -0.9910   -2.2796 H   0  0  0  0  0  0  0  0  0  0  0  0
   -4.1741   -1.0472   -3.3387 H   0  0  0  0  0  0  0  0  0  0  0  0
   -4.2659    0.6040   -1.8804 C   0  0  0  0  0  0  0  0  0  0  0  0
   -4.9071    0.8977   -0.8458 O   0  0  0  0  0  1  0  0  0  0  0  0
   -3.1798    1.1369   -2.1883 O   0  0  0  0  0  0  0  0  0  0  0  0
    0.0223    2.9142   -0.0236 C   0  0  0  0  0  0  0  0  0  0  0  0
   -0.0932    3.2035   -0.9659 H   0  0  0  0  0  0  0  0  0  0  0  0
    0.9005    3.2107    0.3303 H   0  0  0  0  0  0  0  0  0  0  0  0
   -0.7576    3.3893    0.5715 H   0  0  0  0  0  0  0  0  0  0  0  0
    0.0031    1.4047    0.0002 C   0  0  0  0  0  0  0  0  0  0  0  0
   -1.1885    0.7017   -0.0039 C   0  0  0  0  0  0  0  0  0  0  0  0
   -2.0580    1.1862   -0.0112 H   0  0  0  0  0  0  0  0  0  0  0  0
   -1.1959   -0.6993    0.0000 C   0  0  0  0  0  0  0  0  0  0  0  0
   -2.0793   -1.1833    0.0036 H   0  0  0  0  0  0  0  0  0  0  0  0
   -0.0043   -1.3979    0.0005 C   0  0  0  0  0  0  0  0  0  0  0  0
   -0.0104   -2.3977    0.0004 H   0  0  0  0  0  0  0  0  0  0  0  0
    1.1959   -0.7060    0.0000 C   0  0  0  0  0  0  0  0  0  0  0  0
    2.0780   -1.1966   -0.0009 H   0  0  0  0  0  0  0  0  0  0  0  0
    1.1897    0.6968    0.0032 C   0  0  0  0  0  0  0  0  0  0  0  0
    2.0644    1.1841    0.0073 H   0  0  0  0  0  0  0  0  0  0  0  0
  1  5  1  0
  5  6  1  0
  5  7  2  0
  1  2  1  0
  1  3  1  0
  1  4  1  0
  8 12  1  0
 12 13  2  0
 13 15  1  0
 15 17  2  0
 17 19  1  0
 19 21  2  0
 21 12  1  0
  8  9  1  0
  8 10  1  0
  8 11  1  0
 13 14  1  0
 15 16  1  0
 17 18  1  0
 19 20  1  0
 21 22  1  0
M  CHG  1   6  -1
M  END
>  <PDB_ID>  (2188) 
pdb6b9o

>  <RESIDUE_NAME>  (2188) 
GLU   PHE

>  <FRAG_NAME>  (2188) 
ACET   MBZ

>  <FRAG_ATOM_NUM>  (2188) 
fragi: 7  fragj: 15

>  <atom.prop.CHAIN_ID>  (2188) 
A A A A A A A Z Z Z Z Z Z Z Z Z Z Z Z Z Z Z

>  <atom.prop.IS_HEAVY_ATOM>  (2188) 
1 0 0 0 1 1 1 1 0 0 0 1 1 0 1 0 1 0 1 0 1 0

>  <DIFUSE_FUNC_ATOM>  (2188) 
atom 6   atom 7   

>  <FINAL_SINGLE_POINT_ENERGY>  (2188) 
0

>  <NONCOV_INTER_ENERGY_QM>  (2188) 
0

>  <FF_Energy>  (2188) 
-0.61

>  <QM_Energy>  (2188) 
-5.63

>  <source>  (2188) 
ACET_MBZ_02

>  <Index>  (2188) 
19550

$$$$
ACET-pdb5bke-A-ASP-146:MBZ-pdb5bke-A-PHE-12
     RDKit          3D

 22 21  0  0  0  0  0  0  0  0999 V2000
   -0.0598    0.2521    3.5072 C   0  0  0  0  0  0  0  0  0  0  0  0
   -0.1365    0.2228    2.5185 H   0  0  0  0  0  0  0  0  0  0  0  0
   -0.9203    0.0066    3.9340 H   0  0  0  0  0  0  0  0  0  0  0  0
    0.6904   -0.4778    3.8113 H   0  0  0  0  0  0  0  0  0  0  0  0
    0.2908    1.6955    3.9213 C   0  0  0  0  0  0  0  0  0  0  0  0
    1.0879    1.9327    4.8528 O   0  0  0  0  0  1  0  0  0  0  0  0
   -0.2564    2.6256    3.3078 O   0  0  0  0  0  0  0  0  0  0  0  0
    0.0327    2.9319    0.0192 C   0  0  0  0  0  0  0  0  0  0  0  0
    0.9328    3.2232   -0.2761 H   0  0  0  0  0  0  0  0  0  0  0  0
   -0.1454    3.2214    0.9502 H   0  0  0  0  0  0  0  0  0  0  0  0
   -0.6957    3.4307   -0.6202 H   0  0  0  0  0  0  0  0  0  0  0  0
   -0.0018    1.4147   -0.0142 C   0  0  0  0  0  0  0  0  0  0  0  0
   -1.2082    0.6942    0.0084 C   0  0  0  0  0  0  0  0  0  0  0  0
   -2.0720    1.1862    0.0299 H   0  0  0  0  0  0  0  0  0  0  0  0
   -1.2150   -0.7032    0.0000 C   0  0  0  0  0  0  0  0  0  0  0  0
   -2.0857   -1.1974   -0.0012 H   0  0  0  0  0  0  0  0  0  0  0  0
   -0.0002   -1.4027   -0.0047 C   0  0  0  0  0  0  0  0  0  0  0  0
    0.0002   -2.3963   -0.0115 H   0  0  0  0  0  0  0  0  0  0  0  0
    1.2150   -0.6957    0.0000 C   0  0  0  0  0  0  0  0  0  0  0  0
    2.0904   -1.1997   -0.0024 H   0  0  0  0  0  0  0  0  0  0  0  0
    1.2102    0.6927    0.0104 C   0  0  0  0  0  0  0  0  0  0  0  0
    2.0714    1.1959    0.0348 H   0  0  0  0  0  0  0  0  0  0  0  0
  1  5  1  0
  5  6  1  0
  5  7  2  0
  1  2  1  0
  1  3  1  0
  1  4  1  0
  8 12  1  0
 12 13  2  0
 13 15  1  0
 15 17  2  0
 17 19  1  0
 19 21  2  0
 21 12  1  0
  8  9  1  0
  8 10  1  0
  8 11  1  0
 13 14  1  0
 15 16  1  0
 17 18  1  0
 19 20  1  0
 21 22  1  0
M  CHG  1   6  -1
M  END
>  <PDB_ID>  (2189) 
pdb5bke

>  <RESIDUE_NAME>  (2189) 
ASP   PHE

>  <FRAG_NAME>  (2189) 
ACET   MBZ

>  <FRAG_ATOM_NUM>  (2189) 
fragi: 7  fragj: 15

>  <atom.prop.CHAIN_ID>  (2189) 
A A A A A A A Z Z Z Z Z Z Z Z Z Z Z Z Z Z Z

>  <atom.prop.IS_HEAVY_ATOM>  (2189) 
1 0 0 0 1 1 1 1 0 0 0 1 1 0 1 0 1 0 1 0 1 0

>  <DIFUSE_FUNC_ATOM>  (2189) 
atom 6   atom 7   

>  <FINAL_SINGLE_POINT_ENERGY>  (2189) 
0

>  <NONCOV_INTER_ENERGY_QM>  (2189) 
0

>  <FF_Energy>  (2189) 
0.44

>  <QM_Energy>  (2189) 
-5.15

>  <source>  (2189) 
ACET_MBZ_02

>  <Index>  (2189) 
19687

$$$$
ACET-pdb6bj5-A-ASP-81:MBZ-pdb6bj5-A-PHE-107
     RDKit          3D

 22 21  0  0  0  0  0  0  0  0999 V2000
    4.6947    1.3308   -0.6085 C   0  0  0  0  0  0  0  0  0  0  0  0
    3.8620    1.1177   -0.1125 H   0  0  0  0  0  0  0  0  0  0  0  0
    5.4686    1.3778    0.0089 H   0  0  0  0  0  0  0  0  0  0  0  0
    4.8788    0.5272   -1.3216 H   0  0  0  0  0  0  0  0  0  0  0  0
    4.5298    2.6640   -1.2914 C   0  0  0  0  0  0  0  0  0  0  0  0
    3.4382    2.9326   -1.8474 O   0  0  0  0  0  1  0  0  0  0  0  0
    5.5152    3.4306   -1.3059 O   0  0  0  0  0  0  0  0  0  0  0  0
    0.0022    2.9403   -0.0276 C   0  0  0  0  0  0  0  0  0  0  0  0
    0.9121    3.2389    0.1901 H   0  0  0  0  0  0  0  0  0  0  0  0
   -0.6605    3.2484    0.6283 H   0  0  0  0  0  0  0  0  0  0  0  0
   -0.2663    3.3558   -0.9989 H   0  0  0  0  0  0  0  0  0  0  0  0
    0.0001    1.4084   -0.0019 C   0  0  0  0  0  0  0  0  0  0  0  0
   -1.1917    0.6919    0.0058 C   0  0  0  0  0  0  0  0  0  0  0  0
   -2.0624    1.1779    0.0143 H   0  0  0  0  0  0  0  0  0  0  0  0
   -1.1956   -0.7037    0.0000 C   0  0  0  0  0  0  0  0  0  0  0  0
   -2.0751   -1.1925   -0.0041 H   0  0  0  0  0  0  0  0  0  0  0  0
   -0.0010   -1.3936    0.0013 C   0  0  0  0  0  0  0  0  0  0  0  0
   -0.0009   -2.3944    0.0023 H   0  0  0  0  0  0  0  0  0  0  0  0
    1.1956   -0.6968    0.0000 C   0  0  0  0  0  0  0  0  0  0  0  0
    2.0793   -1.1939    0.0044 H   0  0  0  0  0  0  0  0  0  0  0  0
    1.1926    0.6937   -0.0053 C   0  0  0  0  0  0  0  0  0  0  0  0
    2.0641    1.1879   -0.0127 H   0  0  0  0  0  0  0  0  0  0  0  0
  1  5  1  0
  5  6  1  0
  5  7  2  0
  1  2  1  0
  1  3  1  0
  1  4  1  0
  8 12  1  0
 12 13  2  0
 13 15  1  0
 15 17  2  0
 17 19  1  0
 19 21  2  0
 21 12  1  0
  8  9  1  0
  8 10  1  0
  8 11  1  0
 13 14  1  0
 15 16  1  0
 17 18  1  0
 19 20  1  0
 21 22  1  0
M  CHG  1   6  -1
M  END
>  <PDB_ID>  (2190) 
pdb6bj5

>  <RESIDUE_NAME>  (2190) 
ASP   PHE

>  <FRAG_NAME>  (2190) 
ACET   MBZ

>  <FRAG_ATOM_NUM>  (2190) 
fragi: 7  fragj: 15

>  <atom.prop.CHAIN_ID>  (2190) 
A A A A A A A Z Z Z Z Z Z Z Z Z Z Z Z Z Z Z

>  <atom.prop.IS_HEAVY_ATOM>  (2190) 
1 0 0 0 1 1 1 1 0 0 0 1 1 0 1 0 1 0 1 0 1 0

>  <DIFUSE_FUNC_ATOM>  (2190) 
atom 6   atom 7   

>  <FINAL_SINGLE_POINT_ENERGY>  (2190) 
0

>  <NONCOV_INTER_ENERGY_QM>  (2190) 
0

>  <FF_Energy>  (2190) 
1.67

>  <QM_Energy>  (2190) 
-3.82

>  <source>  (2190) 
ACET_MBZ_02

>  <Index>  (2190) 
19923

$$$$
ACET-pdb6bj5-C-GLU-93:MBZ-pdb6bj5-C-PHE-90
     RDKit          3D

 22 21  0  0  0  0  0  0  0  0999 V2000
   -3.7677    1.7020    4.6622 C   0  0  0  0  0  0  0  0  0  0  0  0
   -3.7011    0.7539    4.9105 H   0  0  0  0  0  0  0  0  0  0  0  0
   -4.5901    1.8990    4.1601 H   0  0  0  0  0  0  0  0  0  0  0  0
   -3.7754    2.2944    5.5771 H   0  0  0  0  0  0  0  0  0  0  0  0
   -2.5766    2.0084    3.7193 C   0  0  0  0  0  0  0  0  0  0  0  0
   -2.5386    1.4681    2.5887 O   0  0  0  0  0  1  0  0  0  0  0  0
   -1.7075    2.7691    4.1298 O   0  0  0  0  0  0  0  0  0  0  0  0
   -0.0861    2.9147    0.0533 C   0  0  0  0  0  0  0  0  0  0  0  0
   -0.8091    3.1970   -0.5531 H   0  0  0  0  0  0  0  0  0  0  0  0
    0.7882    3.2737   -0.2224 H   0  0  0  0  0  0  0  0  0  0  0  0
   -0.3105    3.2942    1.0501 H   0  0  0  0  0  0  0  0  0  0  0  0
   -0.0038    1.4099    0.0045 C   0  0  0  0  0  0  0  0  0  0  0  0
   -1.1788    0.6906   -0.0075 C   0  0  0  0  0  0  0  0  0  0  0  0
   -2.0596    1.1718   -0.0231 H   0  0  0  0  0  0  0  0  0  0  0  0
   -1.1863   -0.7048    0.0000 C   0  0  0  0  0  0  0  0  0  0  0  0
   -2.0764   -1.1847    0.0095 H   0  0  0  0  0  0  0  0  0  0  0  0
   -0.0116   -1.3973   -0.0036 C   0  0  0  0  0  0  0  0  0  0  0  0
   -0.0088   -2.3972   -0.0092 H   0  0  0  0  0  0  0  0  0  0  0  0
    1.1863   -0.7018   -0.0000 C   0  0  0  0  0  0  0  0  0  0  0  0
    2.0718   -1.1970   -0.0005 H   0  0  0  0  0  0  0  0  0  0  0  0
    1.1943    0.7034    0.0066 C   0  0  0  0  0  0  0  0  0  0  0  0
    2.0618    1.1879    0.0119 H   0  0  0  0  0  0  0  0  0  0  0  0
  1  5  1  0
  5  6  1  0
  5  7  2  0
  1  2  1  0
  1  3  1  0
  1  4  1  0
  8 12  1  0
 12 13  2  0
 13 15  1  0
 15 17  2  0
 17 19  1  0
 19 21  2  0
 21 12  1  0
  8  9  1  0
  8 10  1  0
  8 11  1  0
 13 14  1  0
 15 16  1  0
 17 18  1  0
 19 20  1  0
 21 22  1  0
M  CHG  1   6  -1
M  END
>  <PDB_ID>  (2191) 
pdb6bj5

>  <RESIDUE_NAME>  (2191) 
GLU   PHE

>  <FRAG_NAME>  (2191) 
ACET   MBZ

>  <FRAG_ATOM_NUM>  (2191) 
fragi: 7  fragj: 15

>  <atom.prop.CHAIN_ID>  (2191) 
A A A A A A A Z Z Z Z Z Z Z Z Z Z Z Z Z Z Z

>  <atom.prop.IS_HEAVY_ATOM>  (2191) 
1 0 0 0 1 1 1 1 0 0 0 1 1 0 1 0 1 0 1 0 1 0

>  <DIFUSE_FUNC_ATOM>  (2191) 
atom 6   atom 7   

>  <FINAL_SINGLE_POINT_ENERGY>  (2191) 
0

>  <NONCOV_INTER_ENERGY_QM>  (2191) 
0

>  <FF_Energy>  (2191) 
1.1

>  <QM_Energy>  (2191) 
-4.08

>  <source>  (2191) 
ACET_MBZ_02

>  <Index>  (2191) 
19930

$$$$
ACET-pdb5bto-B-ASP-290:MBZ-pdb5bto-B-PHE-294
     RDKit          3D

 22 21  0  0  0  0  0  0  0  0999 V2000
    4.4889    5.6572   -0.5629 C   0  0  0  0  0  0  0  0  0  0  0  0
    5.4564    5.4461   -0.4748 H   0  0  0  0  0  0  0  0  0  0  0  0
    4.2088    6.2968    0.1450 H   0  0  0  0  0  0  0  0  0  0  0  0
    4.3377    6.1388   -1.5290 H   0  0  0  0  0  0  0  0  0  0  0  0
    3.6925    4.3716   -0.4020 C   0  0  0  0  0  0  0  0  0  0  0  0
    3.4113    3.7025   -1.4142 O   0  0  0  0  0  1  0  0  0  0  0  0
    3.3670    4.0190    0.7561 O   0  0  0  0  0  0  0  0  0  0  0  0
   -0.0019    2.8973    0.0023 C   0  0  0  0  0  0  0  0  0  0  0  0
    0.9163    3.2044    0.2038 H   0  0  0  0  0  0  0  0  0  0  0  0
   -0.6438    3.2010    0.6901 H   0  0  0  0  0  0  0  0  0  0  0  0
   -0.2998    3.3357   -0.9502 H   0  0  0  0  0  0  0  0  0  0  0  0
    0.0001    1.3960   -0.0005 C   0  0  0  0  0  0  0  0  0  0  0  0
   -1.1923    0.6888    0.0002 C   0  0  0  0  0  0  0  0  0  0  0  0
   -2.0603    1.1781    0.0000 H   0  0  0  0  0  0  0  0  0  0  0  0
   -1.1939   -0.6978   -0.0000 C   0  0  0  0  0  0  0  0  0  0  0  0
   -2.0731   -1.1914    0.0027 H   0  0  0  0  0  0  0  0  0  0  0  0
   -0.0008   -1.3846   -0.0022 C   0  0  0  0  0  0  0  0  0  0  0  0
   -0.0008   -2.3872   -0.0057 H   0  0  0  0  0  0  0  0  0  0  0  0
    1.1939   -0.6916    0.0000 C   0  0  0  0  0  0  0  0  0  0  0  0
    2.0779   -1.1933    0.0015 H   0  0  0  0  0  0  0  0  0  0  0  0
    1.1930    0.6893    0.0025 C   0  0  0  0  0  0  0  0  0  0  0  0
    2.0610    1.1874    0.0058 H   0  0  0  0  0  0  0  0  0  0  0  0
  1  5  1  0
  5  6  1  0
  5  7  2  0
  1  2  1  0
  1  3  1  0
  1  4  1  0
  8 12  1  0
 12 13  2  0
 13 15  1  0
 15 17  2  0
 17 19  1  0
 19 21  2  0
 21 12  1  0
  8  9  1  0
  8 10  1  0
  8 11  1  0
 13 14  1  0
 15 16  1  0
 17 18  1  0
 19 20  1  0
 21 22  1  0
M  CHG  1   6  -1
M  END
>  <PDB_ID>  (2192) 
pdb5bto

>  <RESIDUE_NAME>  (2192) 
ASP   PHE

>  <FRAG_NAME>  (2192) 
ACET   MBZ

>  <FRAG_ATOM_NUM>  (2192) 
fragi: 7  fragj: 15

>  <atom.prop.CHAIN_ID>  (2192) 
A A A A A A A Z Z Z Z Z Z Z Z Z Z Z Z Z Z Z

>  <atom.prop.IS_HEAVY_ATOM>  (2192) 
1 0 0 0 1 1 1 1 0 0 0 1 1 0 1 0 1 0 1 0 1 0

>  <DIFUSE_FUNC_ATOM>  (2192) 
atom 6   atom 7   

>  <FINAL_SINGLE_POINT_ENERGY>  (2192) 
0

>  <NONCOV_INTER_ENERGY_QM>  (2192) 
0

>  <FF_Energy>  (2192) 
-2.35

>  <QM_Energy>  (2192) 
-8.06

>  <source>  (2192) 
ACET_MBZ_02

>  <Index>  (2192) 
19990

$$$$
ACET-pdb5bke-C-ASP-146:MBZ-pdb5bke-C-PHE-12
     RDKit          3D

 22 21  0  0  0  0  0  0  0  0999 V2000
   -0.0278    0.2685    3.4529 C   0  0  0  0  0  0  0  0  0  0  0  0
   -0.0818    0.2246    2.4620 H   0  0  0  0  0  0  0  0  0  0  0  0
   -0.9069    0.0478    3.8586 H   0  0  0  0  0  0  0  0  0  0  0  0
    0.6937   -0.4787    3.7835 H   0  0  0  0  0  0  0  0  0  0  0  0
    0.3496    1.6959    3.8559 C   0  0  0  0  0  0  0  0  0  0  0  0
    1.0950    1.8979    4.8483 O   0  0  0  0  0  1  0  0  0  0  0  0
   -0.1224    2.6344    3.1735 O   0  0  0  0  0  0  0  0  0  0  0  0
    0.0429    2.9349    0.0106 C   0  0  0  0  0  0  0  0  0  0  0  0
    0.9561    3.2174   -0.2487 H   0  0  0  0  0  0  0  0  0  0  0  0
   -0.1727    3.2316    0.9314 H   0  0  0  0  0  0  0  0  0  0  0  0
   -0.6553    3.4304   -0.6639 H   0  0  0  0  0  0  0  0  0  0  0  0
    0.0015    1.4133   -0.0106 C   0  0  0  0  0  0  0  0  0  0  0  0
   -1.2035    0.6937    0.0052 C   0  0  0  0  0  0  0  0  0  0  0  0
   -2.0681    1.1845    0.0193 H   0  0  0  0  0  0  0  0  0  0  0  0
   -1.2078   -0.7027   -0.0000 C   0  0  0  0  0  0  0  0  0  0  0  0
   -2.0803   -1.1967   -0.0036 H   0  0  0  0  0  0  0  0  0  0  0  0
    0.0020   -1.3991    0.0017 C   0  0  0  0  0  0  0  0  0  0  0  0
    0.0003   -2.3965    0.0034 H   0  0  0  0  0  0  0  0  0  0  0  0
    1.2078   -0.6978    0.0000 C   0  0  0  0  0  0  0  0  0  0  0  0
    2.0871   -1.1955   -0.0024 H   0  0  0  0  0  0  0  0  0  0  0  0
    1.2001    0.6926    0.0037 C   0  0  0  0  0  0  0  0  0  0  0  0
    2.0692    1.1919    0.0155 H   0  0  0  0  0  0  0  0  0  0  0  0
  1  5  1  0
  5  6  1  0
  5  7  2  0
  1  2  1  0
  1  3  1  0
  1  4  1  0
  8 12  1  0
 12 13  2  0
 13 15  1  0
 15 17  2  0
 17 19  1  0
 19 21  2  0
 21 12  1  0
  8  9  1  0
  8 10  1  0
  8 11  1  0
 13 14  1  0
 15 16  1  0
 17 18  1  0
 19 20  1  0
 21 22  1  0
M  CHG  1   6  -1
M  END
>  <PDB_ID>  (2193) 
pdb5bke

>  <RESIDUE_NAME>  (2193) 
ASP   PHE

>  <FRAG_NAME>  (2193) 
ACET   MBZ

>  <FRAG_ATOM_NUM>  (2193) 
fragi: 7  fragj: 15

>  <atom.prop.CHAIN_ID>  (2193) 
A A A A A A A Z Z Z Z Z Z Z Z Z Z Z Z Z Z Z

>  <atom.prop.IS_HEAVY_ATOM>  (2193) 
1 0 0 0 1 1 1 1 0 0 0 1 1 0 1 0 1 0 1 0 1 0

>  <DIFUSE_FUNC_ATOM>  (2193) 
atom 6   atom 7   

>  <FINAL_SINGLE_POINT_ENERGY>  (2193) 
0

>  <NONCOV_INTER_ENERGY_QM>  (2193) 
0

>  <FF_Energy>  (2193) 
1.4

>  <QM_Energy>  (2193) 
-5.09

>  <source>  (2193) 
ACET_MBZ_02

>  <Index>  (2193) 
19992

$$$$
ACET-pdb5bnt-B-GLU-174:MBZ-pdb5bnt-B-PHE-218
     RDKit          3D

 22 21  0  0  0  0  0  0  0  0999 V2000
    5.2404    1.7492   -1.2203 C   0  0  0  0  0  0  0  0  0  0  0  0
    5.0103    1.6588   -0.2674 H   0  0  0  0  0  0  0  0  0  0  0  0
    6.1273    2.1568   -1.3491 H   0  0  0  0  0  0  0  0  0  0  0  0
    5.2531    0.7535   -1.6638 H   0  0  0  0  0  0  0  0  0  0  0  0
    4.2174    2.6703   -1.8545 C   0  0  0  0  0  0  0  0  0  0  0  0
    3.1287    2.8497   -1.2685 O   0  0  0  0  0  1  0  0  0  0  0  0
    4.5016    3.2151   -2.9424 O   0  0  0  0  0  0  0  0  0  0  0  0
   -0.0064    2.8966    0.0001 C   0  0  0  0  0  0  0  0  0  0  0  0
    0.9248    3.2076    0.1135 H   0  0  0  0  0  0  0  0  0  0  0  0
   -0.5824    3.2013    0.7433 H   0  0  0  0  0  0  0  0  0  0  0  0
   -0.3929    3.3345   -0.9202 H   0  0  0  0  0  0  0  0  0  0  0  0
   -0.0004    1.3949   -0.0011 C   0  0  0  0  0  0  0  0  0  0  0  0
   -1.1911    0.6878    0.0029 C   0  0  0  0  0  0  0  0  0  0  0  0
   -2.0603    1.1790    0.0067 H   0  0  0  0  0  0  0  0  0  0  0  0
   -1.1945   -0.6952    0.0000 C   0  0  0  0  0  0  0  0  0  0  0  0
   -2.0727   -1.1903    0.0007 H   0  0  0  0  0  0  0  0  0  0  0  0
   -0.0003   -1.3848   -0.0021 C   0  0  0  0  0  0  0  0  0  0  0  0
   -0.0032   -2.3877   -0.0054 H   0  0  0  0  0  0  0  0  0  0  0  0
    1.1945   -0.6934    0.0000 C   0  0  0  0  0  0  0  0  0  0  0  0
    2.0774   -1.1929    0.0024 H   0  0  0  0  0  0  0  0  0  0  0  0
    1.1918    0.6907    0.0004 C   0  0  0  0  0  0  0  0  0  0  0  0
    2.0609    1.1878    0.0013 H   0  0  0  0  0  0  0  0  0  0  0  0
  1  5  1  0
  5  6  1  0
  5  7  2  0
  1  2  1  0
  1  3  1  0
  1  4  1  0
  8 12  1  0
 12 13  2  0
 13 15  1  0
 15 17  2  0
 17 19  1  0
 19 21  2  0
 21 12  1  0
  8  9  1  0
  8 10  1  0
  8 11  1  0
 13 14  1  0
 15 16  1  0
 17 18  1  0
 19 20  1  0
 21 22  1  0
M  CHG  1   6  -1
M  END
>  <PDB_ID>  (2194) 
pdb5bnt

>  <RESIDUE_NAME>  (2194) 
GLU   PHE

>  <FRAG_NAME>  (2194) 
ACET   MBZ

>  <FRAG_ATOM_NUM>  (2194) 
fragi: 7  fragj: 15

>  <atom.prop.CHAIN_ID>  (2194) 
A A A A A A A Z Z Z Z Z Z Z Z Z Z Z Z Z Z Z

>  <atom.prop.IS_HEAVY_ATOM>  (2194) 
1 0 0 0 1 1 1 1 0 0 0 1 1 0 1 0 1 0 1 0 1 0

>  <DIFUSE_FUNC_ATOM>  (2194) 
atom 6   atom 7   

>  <FINAL_SINGLE_POINT_ENERGY>  (2194) 
0

>  <NONCOV_INTER_ENERGY_QM>  (2194) 
0

>  <FF_Energy>  (2194) 
-0.99

>  <QM_Energy>  (2194) 
-6.97

>  <source>  (2194) 
ACET_MBZ_02

>  <Index>  (2194) 
19997

$$$$
ACET-pdb5bxb-G-GLU-123:MBZ-pdb5bxb-G-PHE-90
     RDKit          3D

 22 21  0  0  0  0  0  0  0  0999 V2000
    3.9566   -4.5252    0.9217 C   0  0  0  0  0  0  0  0  0  0  0  0
    4.7082   -5.1478    0.8030 H   0  0  0  0  0  0  0  0  0  0  0  0
    3.0971   -4.9928    1.0193 H   0  0  0  0  0  0  0  0  0  0  0  0
    4.1346   -3.9438    1.8264 H   0  0  0  0  0  0  0  0  0  0  0  0
    3.8712   -3.6644   -0.3245 C   0  0  0  0  0  0  0  0  0  0  0  0
    3.8399   -2.4232   -0.1929 O   0  0  0  0  0  1  0  0  0  0  0  0
    3.8395   -4.2311   -1.4374 O   0  0  0  0  0  0  0  0  0  0  0  0
    0.0029    2.9001   -0.0059 C   0  0  0  0  0  0  0  0  0  0  0  0
    0.8321    3.2050    0.4359 H   0  0  0  0  0  0  0  0  0  0  0  0
   -0.8002    3.2086    0.4793 H   0  0  0  0  0  0  0  0  0  0  0  0
   -0.0230    3.3344   -1.0053 H   0  0  0  0  0  0  0  0  0  0  0  0
    0.0001    1.3953   -0.0002 C   0  0  0  0  0  0  0  0  0  0  0  0
   -1.1914    0.6875   -0.0005 C   0  0  0  0  0  0  0  0  0  0  0  0
   -2.0598    1.1799   -0.0028 H   0  0  0  0  0  0  0  0  0  0  0  0
   -1.1943   -0.6939   -0.0000 C   0  0  0  0  0  0  0  0  0  0  0  0
   -2.0729   -1.1904    0.0007 H   0  0  0  0  0  0  0  0  0  0  0  0
    0.0006   -1.3854    0.0011 C   0  0  0  0  0  0  0  0  0  0  0  0
   -0.0030   -2.3866    0.0020 H   0  0  0  0  0  0  0  0  0  0  0  0
    1.1943   -0.6932    0.0000 C   0  0  0  0  0  0  0  0  0  0  0  0
    2.0778   -1.1921    0.0014 H   0  0  0  0  0  0  0  0  0  0  0  0
    1.1906    0.6897   -0.0004 C   0  0  0  0  0  0  0  0  0  0  0  0
    2.0603    1.1872   -0.0015 H   0  0  0  0  0  0  0  0  0  0  0  0
  1  5  1  0
  5  6  1  0
  5  7  2  0
  1  2  1  0
  1  3  1  0
  1  4  1  0
  8 12  1  0
 12 13  2  0
 13 15  1  0
 15 17  2  0
 17 19  1  0
 19 21  2  0
 21 12  1  0
  8  9  1  0
  8 10  1  0
  8 11  1  0
 13 14  1  0
 15 16  1  0
 17 18  1  0
 19 20  1  0
 21 22  1  0
M  CHG  1   6  -1
M  END
>  <PDB_ID>  (2195) 
pdb5bxb

>  <RESIDUE_NAME>  (2195) 
GLU   PHE

>  <FRAG_NAME>  (2195) 
ACET   MBZ

>  <FRAG_ATOM_NUM>  (2195) 
fragi: 7  fragj: 15

>  <atom.prop.CHAIN_ID>  (2195) 
A A A A A A A Z Z Z Z Z Z Z Z Z Z Z Z Z Z Z

>  <atom.prop.IS_HEAVY_ATOM>  (2195) 
1 0 0 0 1 1 1 1 0 0 0 1 1 0 1 0 1 0 1 0 1 0

>  <DIFUSE_FUNC_ATOM>  (2195) 
atom 6   atom 7   

>  <FINAL_SINGLE_POINT_ENERGY>  (2195) 
0

>  <NONCOV_INTER_ENERGY_QM>  (2195) 
0

>  <FF_Energy>  (2195) 
-0.41

>  <QM_Energy>  (2195) 
-6.0

>  <source>  (2195) 
ACET_MBZ_02

>  <Index>  (2195) 
20198

$$$$
ACET-pdb6bqm-A-ASP-224:MBZ-pdb6bqm-A-PHE-160
     RDKit          3D

 22 21  0  0  0  0  0  0  0  0999 V2000
   -5.5990    4.3754    0.2564 C   0  0  0  0  0  0  0  0  0  0  0  0
   -6.2529    3.6486    0.4468 H   0  0  0  0  0  0  0  0  0  0  0  0
   -5.7228    4.7106   -0.6726 H   0  0  0  0  0  0  0  0  0  0  0  0
   -5.7577    5.1939    0.9585 H   0  0  0  0  0  0  0  0  0  0  0  0
   -4.1737    3.7453    0.3336 C   0  0  0  0  0  0  0  0  0  0  0  0
   -3.2073    4.3504   -0.2070 O   0  0  0  0  0  1  0  0  0  0  0  0
   -4.0689    2.6283    0.9165 O   0  0  0  0  0  0  0  0  0  0  0  0
   -0.0113    2.8787   -0.0423 C   0  0  0  0  0  0  0  0  0  0  0  0
   -0.8218    3.1825   -0.5310 H   0  0  0  0  0  0  0  0  0  0  0  0
    0.8107    3.1787   -0.5144 H   0  0  0  0  0  0  0  0  0  0  0  0
   -0.0202    3.3578    0.9367 H   0  0  0  0  0  0  0  0  0  0  0  0
   -0.0148    1.3963   -0.0044 C   0  0  0  0  0  0  0  0  0  0  0  0
   -1.1913    0.7060    0.0019 C   0  0  0  0  0  0  0  0  0  0  0  0
   -2.0653    1.1903    0.0072 H   0  0  0  0  0  0  0  0  0  0  0  0
   -1.1955   -0.6810    0.0000 C   0  0  0  0  0  0  0  0  0  0  0  0
   -2.0647   -1.1849   -0.0130 H   0  0  0  0  0  0  0  0  0  0  0  0
    0.0266   -1.3980    0.0178 C   0  0  0  0  0  0  0  0  0  0  0  0
   -0.0024   -2.3901    0.0427 H   0  0  0  0  0  0  0  0  0  0  0  0
    1.1955   -0.7039   -0.0000 C   0  0  0  0  0  0  0  0  0  0  0  0
    2.0919   -1.1875   -0.0008 H   0  0  0  0  0  0  0  0  0  0  0  0
    1.1795    0.6806   -0.0154 C   0  0  0  0  0  0  0  0  0  0  0  0
    2.0500    1.1841   -0.0357 H   0  0  0  0  0  0  0  0  0  0  0  0
  1  5  1  0
  5  6  1  0
  5  7  2  0
  1  2  1  0
  1  3  1  0
  1  4  1  0
  8 12  1  0
 12 13  2  0
 13 15  1  0
 15 17  2  0
 17 19  1  0
 19 21  2  0
 21 12  1  0
  8  9  1  0
  8 10  1  0
  8 11  1  0
 13 14  1  0
 15 16  1  0
 17 18  1  0
 19 20  1  0
 21 22  1  0
M  CHG  1   6  -1
M  END
>  <PDB_ID>  (2196) 
pdb6bqm

>  <RESIDUE_NAME>  (2196) 
ASP   PHE

>  <FRAG_NAME>  (2196) 
ACET   MBZ

>  <FRAG_ATOM_NUM>  (2196) 
fragi: 7  fragj: 15

>  <atom.prop.CHAIN_ID>  (2196) 
A A A A A A A Z Z Z Z Z Z Z Z Z Z Z Z Z Z Z

>  <atom.prop.IS_HEAVY_ATOM>  (2196) 
1 0 0 0 1 1 1 1 0 0 0 1 1 0 1 0 1 0 1 0 1 0

>  <DIFUSE_FUNC_ATOM>  (2196) 
atom 6   atom 7   

>  <FINAL_SINGLE_POINT_ENERGY>  (2196) 
0

>  <NONCOV_INTER_ENERGY_QM>  (2196) 
0

>  <FF_Energy>  (2196) 
-2.73

>  <QM_Energy>  (2196) 
-8.4

>  <source>  (2196) 
ACET_MBZ_02

>  <Index>  (2196) 
20241

$$$$
ACET-pdb6bro-B-ASP-628:MBZ-pdb6bro-B-PHE-660
     RDKit          3D

 22 21  0  0  0  0  0  0  0  0999 V2000
    4.6275    4.7652   -0.2032 C   0  0  0  0  0  0  0  0  0  0  0  0
    5.5921    4.5952   -0.3609 H   0  0  0  0  0  0  0  0  0  0  0  0
    4.4987    5.5886    0.3339 H   0  0  0  0  0  0  0  0  0  0  0  0
    4.1470    4.9123   -1.1704 H   0  0  0  0  0  0  0  0  0  0  0  0
    4.0426    3.5917    0.5523 C   0  0  0  0  0  0  0  0  0  0  0  0
    4.3981    2.4374    0.2162 O   0  0  0  0  0  1  0  0  0  0  0  0
    3.2158    3.8202    1.4819 O   0  0  0  0  0  0  0  0  0  0  0  0
   -0.0049    2.9152   -0.0396 C   0  0  0  0  0  0  0  0  0  0  0  0
    0.9308    3.2252   -0.0062 H   0  0  0  0  0  0  0  0  0  0  0  0
   -0.5249    3.2397    0.7330 H   0  0  0  0  0  0  0  0  0  0  0  0
   -0.4593    3.3242   -0.9420 H   0  0  0  0  0  0  0  0  0  0  0  0
   -0.0000    1.4088    0.0009 C   0  0  0  0  0  0  0  0  0  0  0  0
   -1.2117    0.6824   -0.0016 C   0  0  0  0  0  0  0  0  0  0  0  0
   -2.0733    1.1773   -0.0061 H   0  0  0  0  0  0  0  0  0  0  0  0
   -1.2137   -0.7085    0.0000 C   0  0  0  0  0  0  0  0  0  0  0  0
   -2.0821   -1.2074   -0.0022 H   0  0  0  0  0  0  0  0  0  0  0  0
   -0.0004   -1.3941    0.0061 C   0  0  0  0  0  0  0  0  0  0  0  0
    0.0055   -2.3937    0.0141 H   0  0  0  0  0  0  0  0  0  0  0  0
    1.2137   -0.6903   -0.0000 C   0  0  0  0  0  0  0  0  0  0  0  0
    2.0897   -1.1932    0.0012 H   0  0  0  0  0  0  0  0  0  0  0  0
    1.2121    0.7017   -0.0053 C   0  0  0  0  0  0  0  0  0  0  0  0
    2.0714    1.2012   -0.0144 H   0  0  0  0  0  0  0  0  0  0  0  0
  1  5  1  0
  5  6  1  0
  5  7  2  0
  1  2  1  0
  1  3  1  0
  1  4  1  0
  8 12  1  0
 12 13  2  0
 13 15  1  0
 15 17  2  0
 17 19  1  0
 19 21  2  0
 21 12  1  0
  8  9  1  0
  8 10  1  0
  8 11  1  0
 13 14  1  0
 15 16  1  0
 17 18  1  0
 19 20  1  0
 21 22  1  0
M  CHG  1   6  -1
M  END
>  <PDB_ID>  (2197) 
pdb6bro

>  <RESIDUE_NAME>  (2197) 
ASP   PHE

>  <FRAG_NAME>  (2197) 
ACET   MBZ

>  <FRAG_ATOM_NUM>  (2197) 
fragi: 7  fragj: 15

>  <atom.prop.CHAIN_ID>  (2197) 
A A A A A A A Z Z Z Z Z Z Z Z Z Z Z Z Z Z Z

>  <atom.prop.IS_HEAVY_ATOM>  (2197) 
1 0 0 0 1 1 1 1 0 0 0 1 1 0 1 0 1 0 1 0 1 0

>  <DIFUSE_FUNC_ATOM>  (2197) 
atom 6   atom 7   

>  <FINAL_SINGLE_POINT_ENERGY>  (2197) 
0

>  <NONCOV_INTER_ENERGY_QM>  (2197) 
0

>  <FF_Energy>  (2197) 
-2.71

>  <QM_Energy>  (2197) 
-8.04

>  <source>  (2197) 
ACET_MBZ_02

>  <Index>  (2197) 
20332

$$$$
ACET-pdb5bza-B-ASP-63:MBZ-pdb5bza-B-PHE-112
     RDKit          3D

 22 21  0  0  0  0  0  0  0  0999 V2000
    4.4713    4.7168   -1.7170 C   0  0  0  0  0  0  0  0  0  0  0  0
    5.2537    4.6624   -2.3332 H   0  0  0  0  0  0  0  0  0  0  0  0
    4.5004    5.5704   -1.2047 H   0  0  0  0  0  0  0  0  0  0  0  0
    3.5707    4.7316   -2.3307 H   0  0  0  0  0  0  0  0  0  0  0  0
    4.5180    3.5617   -0.7560 C   0  0  0  0  0  0  0  0  0  0  0  0
    3.4480    3.1237   -0.3056 O   0  0  0  0  0  1  0  0  0  0  0  0
    5.6447    3.1308   -0.4124 O   0  0  0  0  0  0  0  0  0  0  0  0
    0.0038    2.9207    0.0485 C   0  0  0  0  0  0  0  0  0  0  0  0
    0.7063    3.2419   -0.5662 H   0  0  0  0  0  0  0  0  0  0  0  0
    0.1820    3.1967    0.9791 H   0  0  0  0  0  0  0  0  0  0  0  0
   -0.9411    3.3689   -0.2587 H   0  0  0  0  0  0  0  0  0  0  0  0
    0.0010    1.4118    0.0036 C   0  0  0  0  0  0  0  0  0  0  0  0
   -1.1754    0.7095    0.0010 C   0  0  0  0  0  0  0  0  0  0  0  0
   -2.0542    1.1905   -0.0013 H   0  0  0  0  0  0  0  0  0  0  0  0
   -1.1905   -0.6946   -0.0000 C   0  0  0  0  0  0  0  0  0  0  0  0
   -2.0856   -1.1661    0.0101 H   0  0  0  0  0  0  0  0  0  0  0  0
   -0.0185   -1.4072   -0.0128 C   0  0  0  0  0  0  0  0  0  0  0  0
   -0.0261   -2.4018   -0.0316 H   0  0  0  0  0  0  0  0  0  0  0  0
    1.1905   -0.7160    0.0000 C   0  0  0  0  0  0  0  0  0  0  0  0
    2.0688   -1.2094    0.0051 H   0  0  0  0  0  0  0  0  0  0  0  0
    1.1929    0.6965    0.0082 C   0  0  0  0  0  0  0  0  0  0  0  0
    2.0660    1.1774    0.0168 H   0  0  0  0  0  0  0  0  0  0  0  0
  1  5  1  0
  5  6  1  0
  5  7  2  0
  1  2  1  0
  1  3  1  0
  1  4  1  0
  8 12  1  0
 12 13  2  0
 13 15  1  0
 15 17  2  0
 17 19  1  0
 19 21  2  0
 21 12  1  0
  8  9  1  0
  8 10  1  0
  8 11  1  0
 13 14  1  0
 15 16  1  0
 17 18  1  0
 19 20  1  0
 21 22  1  0
M  CHG  1   6  -1
M  END
>  <PDB_ID>  (2198) 
pdb5bza

>  <RESIDUE_NAME>  (2198) 
ASP   PHE

>  <FRAG_NAME>  (2198) 
ACET   MBZ

>  <FRAG_ATOM_NUM>  (2198) 
fragi: 7  fragj: 15

>  <atom.prop.CHAIN_ID>  (2198) 
A A A A A A A Z Z Z Z Z Z Z Z Z Z Z Z Z Z Z

>  <atom.prop.IS_HEAVY_ATOM>  (2198) 
1 0 0 0 1 1 1 1 0 0 0 1 1 0 1 0 1 0 1 0 1 0

>  <DIFUSE_FUNC_ATOM>  (2198) 
atom 6   atom 7   

>  <FINAL_SINGLE_POINT_ENERGY>  (2198) 
0

>  <NONCOV_INTER_ENERGY_QM>  (2198) 
0

>  <FF_Energy>  (2198) 
-1.92

>  <QM_Energy>  (2198) 
-7.85

>  <source>  (2198) 
ACET_MBZ_02

>  <Index>  (2198) 
20338

$$$$
ACET-pdb5bza-D-ASP-63:MBZ-pdb5bza-D-PHE-112
     RDKit          3D

 22 21  0  0  0  0  0  0  0  0999 V2000
    4.3656    4.7738   -1.5458 C   0  0  0  0  0  0  0  0  0  0  0  0
    5.1886    4.7712   -2.0997 H   0  0  0  0  0  0  0  0  0  0  0  0
    4.3196    5.5929   -0.9889 H   0  0  0  0  0  0  0  0  0  0  0  0
    3.5085    4.7775   -2.2191 H   0  0  0  0  0  0  0  0  0  0  0  0
    4.3976    3.5535   -0.6191 C   0  0  0  0  0  0  0  0  0  0  0  0
    3.3184    3.0744   -0.1978 O   0  0  0  0  0  1  0  0  0  0  0  0
    5.5148    3.0531   -0.3215 O   0  0  0  0  0  0  0  0  0  0  0  0
   -0.0235    2.8888    0.0026 C   0  0  0  0  0  0  0  0  0  0  0  0
    0.6914    3.2095   -0.5971 H   0  0  0  0  0  0  0  0  0  0  0  0
    0.1115    3.1977    0.9297 H   0  0  0  0  0  0  0  0  0  0  0  0
   -0.9692    3.2978   -0.3529 H   0  0  0  0  0  0  0  0  0  0  0  0
   -0.0004    1.3955   -0.0006 C   0  0  0  0  0  0  0  0  0  0  0  0
   -1.1974    0.6833    0.0003 C   0  0  0  0  0  0  0  0  0  0  0  0
   -2.0628    1.1835    0.0002 H   0  0  0  0  0  0  0  0  0  0  0  0
   -1.2011   -0.6872    0.0000 C   0  0  0  0  0  0  0  0  0  0  0  0
   -2.0778   -1.1899   -0.0078 H   0  0  0  0  0  0  0  0  0  0  0  0
   -0.0032   -1.3853    0.0116 C   0  0  0  0  0  0  0  0  0  0  0  0
   -0.0111   -2.3863    0.0280 H   0  0  0  0  0  0  0  0  0  0  0  0
    1.2011   -0.6970    0.0000 C   0  0  0  0  0  0  0  0  0  0  0  0
    2.0792   -1.1989    0.0015 H   0  0  0  0  0  0  0  0  0  0  0  0
    1.2011    0.6907   -0.0113 C   0  0  0  0  0  0  0  0  0  0  0  0
    2.0647    1.1885   -0.0280 H   0  0  0  0  0  0  0  0  0  0  0  0
  1  5  1  0
  5  6  1  0
  5  7  2  0
  1  2  1  0
  1  3  1  0
  1  4  1  0
  8 12  1  0
 12 13  2  0
 13 15  1  0
 15 17  2  0
 17 19  1  0
 19 21  2  0
 21 12  1  0
  8  9  1  0
  8 10  1  0
  8 11  1  0
 13 14  1  0
 15 16  1  0
 17 18  1  0
 19 20  1  0
 21 22  1  0
M  CHG  1   6  -1
M  END
>  <PDB_ID>  (2199) 
pdb5bza

>  <RESIDUE_NAME>  (2199) 
ASP   PHE

>  <FRAG_NAME>  (2199) 
ACET   MBZ

>  <FRAG_ATOM_NUM>  (2199) 
fragi: 7  fragj: 15

>  <atom.prop.CHAIN_ID>  (2199) 
A A A A A A A Z Z Z Z Z Z Z Z Z Z Z Z Z Z Z

>  <atom.prop.IS_HEAVY_ATOM>  (2199) 
1 0 0 0 1 1 1 1 0 0 0 1 1 0 1 0 1 0 1 0 1 0

>  <DIFUSE_FUNC_ATOM>  (2199) 
atom 6   atom 7   

>  <FINAL_SINGLE_POINT_ENERGY>  (2199) 
0

>  <NONCOV_INTER_ENERGY_QM>  (2199) 
0

>  <FF_Energy>  (2199) 
-0.05

>  <QM_Energy>  (2199) 
-8.26

>  <source>  (2199) 
ACET_MBZ_02

>  <Index>  (2199) 
20358

$$$$
ACET-pdb5c05-B-ASP-182:MBZ-pdb5c05-B-PHE-217
     RDKit          3D

 22 21  0  0  0  0  0  0  0  0999 V2000
   -4.6923    2.5813   -3.4622 C   0  0  0  0  0  0  0  0  0  0  0  0
   -5.4169    3.2637   -3.4859 H   0  0  0  0  0  0  0  0  0  0  0  0
   -5.0745    1.6701   -3.5841 H   0  0  0  0  0  0  0  0  0  0  0  0
   -4.0185    2.7783   -4.2961 H   0  0  0  0  0  0  0  0  0  0  0  0
   -4.0077    2.6455   -2.1084 C   0  0  0  0  0  0  0  0  0  0  0  0
   -2.8101    3.0462   -2.0325 O   0  0  0  0  0  1  0  0  0  0  0  0
   -4.6928    2.3275   -1.1117 O   0  0  0  0  0  0  0  0  0  0  0  0
    0.0118    2.9212   -0.0364 C   0  0  0  0  0  0  0  0  0  0  0  0
   -0.7554    3.2103   -0.5940 H   0  0  0  0  0  0  0  0  0  0  0  0
    0.8709    3.2055   -0.4425 H   0  0  0  0  0  0  0  0  0  0  0  0
   -0.0768    3.4116    0.9329 H   0  0  0  0  0  0  0  0  0  0  0  0
    0.0031    1.4031    0.0071 C   0  0  0  0  0  0  0  0  0  0  0  0
   -1.1911    0.6924   -0.0080 C   0  0  0  0  0  0  0  0  0  0  0  0
   -2.0606    1.1806   -0.0260 H   0  0  0  0  0  0  0  0  0  0  0  0
   -1.1995   -0.7036   -0.0000 C   0  0  0  0  0  0  0  0  0  0  0  0
   -2.0816   -1.1890    0.0024 H   0  0  0  0  0  0  0  0  0  0  0  0
   -0.0092   -1.3974    0.0069 C   0  0  0  0  0  0  0  0  0  0  0  0
    0.0019   -2.3919    0.0161 H   0  0  0  0  0  0  0  0  0  0  0  0
    1.1995   -0.6853   -0.0000 C   0  0  0  0  0  0  0  0  0  0  0  0
    2.0785   -1.1937    0.0003 H   0  0  0  0  0  0  0  0  0  0  0  0
    1.1971    0.6908   -0.0059 C   0  0  0  0  0  0  0  0  0  0  0  0
    2.0657    1.1930   -0.0209 H   0  0  0  0  0  0  0  0  0  0  0  0
  1  5  1  0
  5  6  1  0
  5  7  2  0
  1  2  1  0
  1  3  1  0
  1  4  1  0
  8 12  1  0
 12 13  2  0
 13 15  1  0
 15 17  2  0
 17 19  1  0
 19 21  2  0
 21 12  1  0
  8  9  1  0
  8 10  1  0
  8 11  1  0
 13 14  1  0
 15 16  1  0
 17 18  1  0
 19 20  1  0
 21 22  1  0
M  CHG  1   6  -1
M  END
>  <PDB_ID>  (2200) 
pdb5c05

>  <RESIDUE_NAME>  (2200) 
ASP   PHE

>  <FRAG_NAME>  (2200) 
ACET   MBZ

>  <FRAG_ATOM_NUM>  (2200) 
fragi: 7  fragj: 15

>  <atom.prop.CHAIN_ID>  (2200) 
A A A A A A A Z Z Z Z Z Z Z Z Z Z Z Z Z Z Z

>  <atom.prop.IS_HEAVY_ATOM>  (2200) 
1 0 0 0 1 1 1 1 0 0 0 1 1 0 1 0 1 0 1 0 1 0

>  <DIFUSE_FUNC_ATOM>  (2200) 
atom 6   atom 7   

>  <FINAL_SINGLE_POINT_ENERGY>  (2200) 
0

>  <NONCOV_INTER_ENERGY_QM>  (2200) 
0

>  <FF_Energy>  (2200) 
-2.05

>  <QM_Energy>  (2200) 
-8.13

>  <source>  (2200) 
ACET_MBZ_02

>  <Index>  (2200) 
20384

$$$$
ACET-pdb5c1f-B-GLU-37:MBZ-pdb5c1f-A-PHE-64
     RDKit          3D

 22 21  0  0  0  0  0  0  0  0999 V2000
    4.7534    1.6519    2.5425 C   0  0  0  0  0  0  0  0  0  0  0  0
    4.4957    1.4395    3.4690 H   0  0  0  0  0  0  0  0  0  0  0  0
    5.7135    1.8577    2.4664 H   0  0  0  0  0  0  0  0  0  0  0  0
    4.5382    0.7833    1.9201 H   0  0  0  0  0  0  0  0  0  0  0  0
    3.9856    2.8991    2.1292 C   0  0  0  0  0  0  0  0  0  0  0  0
    3.3214    2.8811    1.0732 O   0  0  0  0  0  1  0  0  0  0  0  0
    4.0502    3.9012    2.8721 O   0  0  0  0  0  0  0  0  0  0  0  0
    0.0071    2.8950   -0.0064 C   0  0  0  0  0  0  0  0  0  0  0  0
   -0.7825    3.2017   -0.5179 H   0  0  0  0  0  0  0  0  0  0  0  0
    0.8475    3.1952   -0.4343 H   0  0  0  0  0  0  0  0  0  0  0  0
   -0.0420    3.3453    0.9851 H   0  0  0  0  0  0  0  0  0  0  0  0
    0.0013    1.3939    0.0023 C   0  0  0  0  0  0  0  0  0  0  0  0
   -1.1909    0.6894   -0.0005 C   0  0  0  0  0  0  0  0  0  0  0  0
   -2.0585    1.1811   -0.0036 H   0  0  0  0  0  0  0  0  0  0  0  0
   -1.1938   -0.6929    0.0000 C   0  0  0  0  0  0  0  0  0  0  0  0
   -2.0739   -1.1883    0.0020 H   0  0  0  0  0  0  0  0  0  0  0  0
   -0.0016   -1.3846   -0.0006 C   0  0  0  0  0  0  0  0  0  0  0  0
   -0.0048   -2.3864   -0.0017 H   0  0  0  0  0  0  0  0  0  0  0  0
    1.1938   -0.6929    0.0000 C   0  0  0  0  0  0  0  0  0  0  0  0
    2.0763   -1.1951    0.0026 H   0  0  0  0  0  0  0  0  0  0  0  0
    1.1913    0.6871   -0.0012 C   0  0  0  0  0  0  0  0  0  0  0  0
    2.0617    1.1859   -0.0054 H   0  0  0  0  0  0  0  0  0  0  0  0
  1  5  1  0
  5  6  1  0
  5  7  2  0
  1  2  1  0
  1  3  1  0
  1  4  1  0
  8 12  1  0
 12 13  2  0
 13 15  1  0
 15 17  2  0
 17 19  1  0
 19 21  2  0
 21 12  1  0
  8  9  1  0
  8 10  1  0
  8 11  1  0
 13 14  1  0
 15 16  1  0
 17 18  1  0
 19 20  1  0
 21 22  1  0
M  CHG  1   6  -1
M  END
>  <PDB_ID>  (2201) 
pdb5c1f

>  <RESIDUE_NAME>  (2201) 
GLU   PHE

>  <FRAG_NAME>  (2201) 
ACET   MBZ

>  <FRAG_ATOM_NUM>  (2201) 
fragi: 7  fragj: 15

>  <atom.prop.CHAIN_ID>  (2201) 
A A A A A A A Z Z Z Z Z Z Z Z Z Z Z Z Z Z Z

>  <atom.prop.IS_HEAVY_ATOM>  (2201) 
1 0 0 0 1 1 1 1 0 0 0 1 1 0 1 0 1 0 1 0 1 0

>  <DIFUSE_FUNC_ATOM>  (2201) 
atom 6   atom 7   

>  <FINAL_SINGLE_POINT_ENERGY>  (2201) 
0

>  <NONCOV_INTER_ENERGY_QM>  (2201) 
0

>  <FF_Energy>  (2201) 
-1.53

>  <QM_Energy>  (2201) 
-7.1

>  <source>  (2201) 
ACET_MBZ_02

>  <Index>  (2201) 
20460

$$$$
ACET-pdb6bnc-B-ASP-294:MBZ-pdb6bnc-B-PHE-282
     RDKit          3D

 22 21  0  0  0  0  0  0  0  0999 V2000
   -4.9964    4.8933    0.3354 C   0  0  0  0  0  0  0  0  0  0  0  0
   -5.9340    4.6760    0.0737 H   0  0  0  0  0  0  0  0  0  0  0  0
   -4.8847    5.8810    0.4049 H   0  0  0  0  0  0  0  0  0  0  0  0
   -4.8001    4.4535    1.3133 H   0  0  0  0  0  0  0  0  0  0  0  0
   -4.0663    4.3816   -0.7530 C   0  0  0  0  0  0  0  0  0  0  0  0
   -3.0081    3.8244   -0.4281 O   0  0  0  0  0  1  0  0  0  0  0  0
   -4.4292    4.5504   -1.9339 O   0  0  0  0  0  0  0  0  0  0  0  0
    0.0100    2.9180    0.0733 C   0  0  0  0  0  0  0  0  0  0  0  0
    0.6842    3.1877    0.7518 H   0  0  0  0  0  0  0  0  0  0  0  0
   -0.8994    3.2051    0.3542 H   0  0  0  0  0  0  0  0  0  0  0  0
    0.2493    3.4342   -0.8565 H   0  0  0  0  0  0  0  0  0  0  0  0
    0.0085    1.3925    0.0099 C   0  0  0  0  0  0  0  0  0  0  0  0
   -1.1904    0.7010    0.0060 C   0  0  0  0  0  0  0  0  0  0  0  0
   -2.0507    1.2173    0.0067 H   0  0  0  0  0  0  0  0  0  0  0  0
   -1.2132   -0.6551    0.0000 C   0  0  0  0  0  0  0  0  0  0  0  0
   -2.0973   -1.1556    0.0123 H   0  0  0  0  0  0  0  0  0  0  0  0
   -0.0184   -1.3986   -0.0213 C   0  0  0  0  0  0  0  0  0  0  0  0
   -0.0483   -2.3861   -0.0514 H   0  0  0  0  0  0  0  0  0  0  0  0
    1.2132   -0.7186   -0.0000 C   0  0  0  0  0  0  0  0  0  0  0  0
    2.0743   -1.2198    0.0128 H   0  0  0  0  0  0  0  0  0  0  0  0
    1.2003    0.6787    0.0054 C   0  0  0  0  0  0  0  0  0  0  0  0
    2.0730    1.1741    0.0049 H   0  0  0  0  0  0  0  0  0  0  0  0
  1  5  1  0
  5  6  1  0
  5  7  2  0
  1  2  1  0
  1  3  1  0
  1  4  1  0
  8 12  1  0
 12 13  2  0
 13 15  1  0
 15 17  2  0
 17 19  1  0
 19 21  2  0
 21 12  1  0
  8  9  1  0
  8 10  1  0
  8 11  1  0
 13 14  1  0
 15 16  1  0
 17 18  1  0
 19 20  1  0
 21 22  1  0
M  CHG  1   6  -1
M  END
>  <PDB_ID>  (2202) 
pdb6bnc

>  <RESIDUE_NAME>  (2202) 
ASP   PHE

>  <FRAG_NAME>  (2202) 
ACET   MBZ

>  <FRAG_ATOM_NUM>  (2202) 
fragi: 7  fragj: 15

>  <atom.prop.CHAIN_ID>  (2202) 
A A A A A A A Z Z Z Z Z Z Z Z Z Z Z Z Z Z Z

>  <atom.prop.IS_HEAVY_ATOM>  (2202) 
1 0 0 0 1 1 1 1 0 0 0 1 1 0 1 0 1 0 1 0 1 0

>  <DIFUSE_FUNC_ATOM>  (2202) 
atom 6   atom 7   

>  <FINAL_SINGLE_POINT_ENERGY>  (2202) 
0

>  <NONCOV_INTER_ENERGY_QM>  (2202) 
0

>  <FF_Energy>  (2202) 
-1.21

>  <QM_Energy>  (2202) 
-7.03

>  <source>  (2202) 
ACET_MBZ_02

>  <Index>  (2202) 
20463

$$$$
ACET-pdb5c2i-A-GLU-198:MBZ-pdb5c2i-A-PHE-202
     RDKit          3D

 22 21  0  0  0  0  0  0  0  0999 V2000
   -3.5099    5.3615   -1.6222 C   0  0  0  0  0  0  0  0  0  0  0  0
   -3.2859    5.3289   -2.5752 H   0  0  0  0  0  0  0  0  0  0  0  0
   -2.7365    5.5646   -1.0554 H   0  0  0  0  0  0  0  0  0  0  0  0
   -4.2692    6.1282   -1.4678 H   0  0  0  0  0  0  0  0  0  0  0  0
   -4.0079    3.9706   -1.2259 C   0  0  0  0  0  0  0  0  0  0  0  0
   -5.1507    3.6207   -1.5615 O   0  0  0  0  0  1  0  0  0  0  0  0
   -3.2745    3.2327   -0.5497 O   0  0  0  0  0  0  0  0  0  0  0  0
   -0.0195    2.9126   -0.0118 C   0  0  0  0  0  0  0  0  0  0  0  0
   -0.7311    3.2110   -0.6235 H   0  0  0  0  0  0  0  0  0  0  0  0
    0.8688    3.2275   -0.2990 H   0  0  0  0  0  0  0  0  0  0  0  0
   -0.2233    3.3374    0.9711 H   0  0  0  0  0  0  0  0  0  0  0  0
   -0.0021    1.3990   -0.0209 C   0  0  0  0  0  0  0  0  0  0  0  0
   -1.1966    0.6906    0.0184 C   0  0  0  0  0  0  0  0  0  0  0  0
   -2.0631    1.1805    0.0592 H   0  0  0  0  0  0  0  0  0  0  0  0
   -1.1993   -0.6962   -0.0000 C   0  0  0  0  0  0  0  0  0  0  0  0
   -2.0708   -1.1967   -0.0306 H   0  0  0  0  0  0  0  0  0  0  0  0
    0.0141   -1.4029    0.0261 C   0  0  0  0  0  0  0  0  0  0  0  0
    0.0038   -2.3934    0.0624 H   0  0  0  0  0  0  0  0  0  0  0  0
    1.1993   -0.6964    0.0000 C   0  0  0  0  0  0  0  0  0  0  0  0
    2.0909   -1.1776   -0.0011 H   0  0  0  0  0  0  0  0  0  0  0  0
    1.1846    0.7058   -0.0235 C   0  0  0  0  0  0  0  0  0  0  0  0
    2.0569    1.1967   -0.0431 H   0  0  0  0  0  0  0  0  0  0  0  0
  1  5  1  0
  5  6  1  0
  5  7  2  0
  1  2  1  0
  1  3  1  0
  1  4  1  0
  8 12  1  0
 12 13  2  0
 13 15  1  0
 15 17  2  0
 17 19  1  0
 19 21  2  0
 21 12  1  0
  8  9  1  0
  8 10  1  0
  8 11  1  0
 13 14  1  0
 15 16  1  0
 17 18  1  0
 19 20  1  0
 21 22  1  0
M  CHG  1   6  -1
M  END
>  <PDB_ID>  (2203) 
pdb5c2i

>  <RESIDUE_NAME>  (2203) 
GLU   PHE

>  <FRAG_NAME>  (2203) 
ACET   MBZ

>  <FRAG_ATOM_NUM>  (2203) 
fragi: 7  fragj: 15

>  <atom.prop.CHAIN_ID>  (2203) 
A A A A A A A Z Z Z Z Z Z Z Z Z Z Z Z Z Z Z

>  <atom.prop.IS_HEAVY_ATOM>  (2203) 
1 0 0 0 1 1 1 1 0 0 0 1 1 0 1 0 1 0 1 0 1 0

>  <DIFUSE_FUNC_ATOM>  (2203) 
atom 6   atom 7   

>  <FINAL_SINGLE_POINT_ENERGY>  (2203) 
0

>  <NONCOV_INTER_ENERGY_QM>  (2203) 
0

>  <FF_Energy>  (2203) 
-1.91

>  <QM_Energy>  (2203) 
-7.78

>  <source>  (2203) 
ACET_MBZ_02

>  <Index>  (2203) 
20498

$$$$
ACET-pdb5c2i-B-GLU-198:MBZ-pdb5c2i-B-PHE-202
     RDKit          3D

 22 21  0  0  0  0  0  0  0  0999 V2000
   -3.4263    5.3999   -1.6716 C   0  0  0  0  0  0  0  0  0  0  0  0
   -3.2023    5.3804   -2.6270 H   0  0  0  0  0  0  0  0  0  0  0  0
   -2.6504    5.6082   -1.1070 H   0  0  0  0  0  0  0  0  0  0  0  0
   -4.1762    6.1757   -1.5171 H   0  0  0  0  0  0  0  0  0  0  0  0
   -3.9278    4.0304   -1.2842 C   0  0  0  0  0  0  0  0  0  0  0  0
   -5.0713    3.6926   -1.6339 O   0  0  0  0  0  1  0  0  0  0  0  0
   -3.2207    3.2986   -0.5744 O   0  0  0  0  0  0  0  0  0  0  0  0
    0.0033    2.9195    0.0177 C   0  0  0  0  0  0  0  0  0  0  0  0
   -0.6961    3.2232   -0.6092 H   0  0  0  0  0  0  0  0  0  0  0  0
    0.8998    3.2217   -0.2635 H   0  0  0  0  0  0  0  0  0  0  0  0
   -0.2072    3.3588    0.9929 H   0  0  0  0  0  0  0  0  0  0  0  0
    0.0032    1.4023    0.0111 C   0  0  0  0  0  0  0  0  0  0  0  0
   -1.1873    0.6940   -0.0056 C   0  0  0  0  0  0  0  0  0  0  0  0
   -2.0580    1.1829   -0.0235 H   0  0  0  0  0  0  0  0  0  0  0  0
   -1.1974   -0.7006    0.0000 C   0  0  0  0  0  0  0  0  0  0  0  0
   -2.0775   -1.1878    0.0151 H   0  0  0  0  0  0  0  0  0  0  0  0
   -0.0021   -1.4006   -0.0134 C   0  0  0  0  0  0  0  0  0  0  0  0
   -0.0024   -2.3947   -0.0328 H   0  0  0  0  0  0  0  0  0  0  0  0
    1.1974   -0.6967   -0.0000 C   0  0  0  0  0  0  0  0  0  0  0  0
    2.0807   -1.1867    0.0060 H   0  0  0  0  0  0  0  0  0  0  0  0
    1.1862    0.7017    0.0079 C   0  0  0  0  0  0  0  0  0  0  0  0
    2.0617    1.1925    0.0108 H   0  0  0  0  0  0  0  0  0  0  0  0
  1  5  1  0
  5  6  1  0
  5  7  2  0
  1  2  1  0
  1  3  1  0
  1  4  1  0
  8 12  1  0
 12 13  2  0
 13 15  1  0
 15 17  2  0
 17 19  1  0
 19 21  2  0
 21 12  1  0
  8  9  1  0
  8 10  1  0
  8 11  1  0
 13 14  1  0
 15 16  1  0
 17 18  1  0
 19 20  1  0
 21 22  1  0
M  CHG  1   6  -1
M  END
>  <PDB_ID>  (2204) 
pdb5c2i

>  <RESIDUE_NAME>  (2204) 
GLU   PHE

>  <FRAG_NAME>  (2204) 
ACET   MBZ

>  <FRAG_ATOM_NUM>  (2204) 
fragi: 7  fragj: 15

>  <atom.prop.CHAIN_ID>  (2204) 
A A A A A A A Z Z Z Z Z Z Z Z Z Z Z Z Z Z Z

>  <atom.prop.IS_HEAVY_ATOM>  (2204) 
1 0 0 0 1 1 1 1 0 0 0 1 1 0 1 0 1 0 1 0 1 0

>  <DIFUSE_FUNC_ATOM>  (2204) 
atom 6   atom 7   

>  <FINAL_SINGLE_POINT_ENERGY>  (2204) 
0

>  <NONCOV_INTER_ENERGY_QM>  (2204) 
0

>  <FF_Energy>  (2204) 
-1.93

>  <QM_Energy>  (2204) 
-7.75

>  <source>  (2204) 
ACET_MBZ_02

>  <Index>  (2204) 
20503

$$$$
ACET-pdb5c2i-C-GLU-198:MBZ-pdb5c2i-C-PHE-202
     RDKit          3D

 22 21  0  0  0  0  0  0  0  0999 V2000
   -3.4343    5.3610   -1.6022 C   0  0  0  0  0  0  0  0  0  0  0  0
   -3.1761    5.3568   -2.5499 H   0  0  0  0  0  0  0  0  0  0  0  0
   -2.6783    5.5703   -1.0108 H   0  0  0  0  0  0  0  0  0  0  0  0
   -4.1935    6.1308   -1.4647 H   0  0  0  0  0  0  0  0  0  0  0  0
   -3.9333    3.9839   -1.2490 C   0  0  0  0  0  0  0  0  0  0  0  0
   -5.0899    3.6411   -1.6278 O   0  0  0  0  0  1  0  0  0  0  0  0
   -3.2419    3.2470   -0.5437 O   0  0  0  0  0  0  0  0  0  0  0  0
   -0.0104    2.9211    0.0666 C   0  0  0  0  0  0  0  0  0  0  0  0
   -0.7083    3.2404   -0.5512 H   0  0  0  0  0  0  0  0  0  0  0  0
    0.8855    3.2383   -0.1951 H   0  0  0  0  0  0  0  0  0  0  0  0
   -0.2301    3.3267    1.0542 H   0  0  0  0  0  0  0  0  0  0  0  0
   -0.0031    1.4123    0.0258 C   0  0  0  0  0  0  0  0  0  0  0  0
   -1.1957    0.6962   -0.0135 C   0  0  0  0  0  0  0  0  0  0  0  0
   -2.0649    1.1791   -0.0530 H   0  0  0  0  0  0  0  0  0  0  0  0
   -1.1962   -0.7034    0.0000 C   0  0  0  0  0  0  0  0  0  0  0  0
   -2.0726   -1.1941    0.0325 H   0  0  0  0  0  0  0  0  0  0  0  0
    0.0047   -1.3983   -0.0298 C   0  0  0  0  0  0  0  0  0  0  0  0
   -0.0016   -2.3964   -0.0727 H   0  0  0  0  0  0  0  0  0  0  0  0
    1.1962   -0.7042   -0.0000 C   0  0  0  0  0  0  0  0  0  0  0  0
    2.0830   -1.1943    0.0115 H   0  0  0  0  0  0  0  0  0  0  0  0
    1.1941    0.6974    0.0175 C   0  0  0  0  0  0  0  0  0  0  0  0
    2.0641    1.1873    0.0230 H   0  0  0  0  0  0  0  0  0  0  0  0
  1  5  1  0
  5  6  1  0
  5  7  2  0
  1  2  1  0
  1  3  1  0
  1  4  1  0
  8 12  1  0
 12 13  2  0
 13 15  1  0
 15 17  2  0
 17 19  1  0
 19 21  2  0
 21 12  1  0
  8  9  1  0
  8 10  1  0
  8 11  1  0
 13 14  1  0
 15 16  1  0
 17 18  1  0
 19 20  1  0
 21 22  1  0
M  CHG  1   6  -1
M  END
>  <PDB_ID>  (2205) 
pdb5c2i

>  <RESIDUE_NAME>  (2205) 
GLU   PHE

>  <FRAG_NAME>  (2205) 
ACET   MBZ

>  <FRAG_ATOM_NUM>  (2205) 
fragi: 7  fragj: 15

>  <atom.prop.CHAIN_ID>  (2205) 
A A A A A A A Z Z Z Z Z Z Z Z Z Z Z Z Z Z Z

>  <atom.prop.IS_HEAVY_ATOM>  (2205) 
1 0 0 0 1 1 1 1 0 0 0 1 1 0 1 0 1 0 1 0 1 0

>  <DIFUSE_FUNC_ATOM>  (2205) 
atom 6   atom 7   

>  <FINAL_SINGLE_POINT_ENERGY>  (2205) 
0

>  <NONCOV_INTER_ENERGY_QM>  (2205) 
0

>  <FF_Energy>  (2205) 
-1.87

>  <QM_Energy>  (2205) 
-7.82

>  <source>  (2205) 
ACET_MBZ_02

>  <Index>  (2205) 
20507

$$$$
ACET-pdb6bxa-B-GLU-327:MBZ-pdb6bxa-B-PHE-351
     RDKit          3D

 22 21  0  0  0  0  0  0  0  0999 V2000
    4.5748   -1.8198    0.3107 C   0  0  0  0  0  0  0  0  0  0  0  0
    3.6249   -1.9280    0.0766 H   0  0  0  0  0  0  0  0  0  0  0  0
    5.1697   -2.1160   -0.4155 H   0  0  0  0  0  0  0  0  0  0  0  0
    4.7589   -0.7599    0.4858 H   0  0  0  0  0  0  0  0  0  0  0  0
    4.8546   -2.6928    1.5211 C   0  0  0  0  0  0  0  0  0  0  0  0
    5.0312   -2.1469    2.6289 O   0  0  0  0  0  1  0  0  0  0  0  0
    4.9150   -3.9332    1.3563 O   0  0  0  0  0  0  0  0  0  0  0  0
   -0.0076    2.8913    0.0066 C   0  0  0  0  0  0  0  0  0  0  0  0
    0.9039    3.2030    0.2408 H   0  0  0  0  0  0  0  0  0  0  0  0
   -0.6690    3.1910    0.6811 H   0  0  0  0  0  0  0  0  0  0  0  0
   -0.2769    3.3499   -0.9448 H   0  0  0  0  0  0  0  0  0  0  0  0
   -0.0006    1.3925   -0.0078 C   0  0  0  0  0  0  0  0  0  0  0  0
   -1.1859    0.6844    0.0056 C   0  0  0  0  0  0  0  0  0  0  0  0
   -2.0576    1.1755    0.0181 H   0  0  0  0  0  0  0  0  0  0  0  0
   -1.1894   -0.6944   -0.0000 C   0  0  0  0  0  0  0  0  0  0  0  0
   -2.0691   -1.1903   -0.0015 H   0  0  0  0  0  0  0  0  0  0  0  0
    0.0012   -1.3829   -0.0024 C   0  0  0  0  0  0  0  0  0  0  0  0
   -0.0009   -2.3857   -0.0060 H   0  0  0  0  0  0  0  0  0  0  0  0
    1.1894   -0.6901    0.0000 C   0  0  0  0  0  0  0  0  0  0  0  0
    2.0760   -1.1883   -0.0000 H   0  0  0  0  0  0  0  0  0  0  0  0
    1.1853    0.6904    0.0045 C   0  0  0  0  0  0  0  0  0  0  0  0
    2.0576    1.1876    0.0166 H   0  0  0  0  0  0  0  0  0  0  0  0
  1  5  1  0
  5  6  1  0
  5  7  2  0
  1  2  1  0
  1  3  1  0
  1  4  1  0
  8 12  1  0
 12 13  2  0
 13 15  1  0
 15 17  2  0
 17 19  1  0
 19 21  2  0
 21 12  1  0
  8  9  1  0
  8 10  1  0
  8 11  1  0
 13 14  1  0
 15 16  1  0
 17 18  1  0
 19 20  1  0
 21 22  1  0
M  CHG  1   6  -1
M  END
>  <PDB_ID>  (2206) 
pdb6bxa

>  <RESIDUE_NAME>  (2206) 
GLU   PHE

>  <FRAG_NAME>  (2206) 
ACET   MBZ

>  <FRAG_ATOM_NUM>  (2206) 
fragi: 7  fragj: 15

>  <atom.prop.CHAIN_ID>  (2206) 
A A A A A A A Z Z Z Z Z Z Z Z Z Z Z Z Z Z Z

>  <atom.prop.IS_HEAVY_ATOM>  (2206) 
1 0 0 0 1 1 1 1 0 0 0 1 1 0 1 0 1 0 1 0 1 0

>  <DIFUSE_FUNC_ATOM>  (2206) 
atom 6   atom 7   

>  <FINAL_SINGLE_POINT_ENERGY>  (2206) 
0

>  <NONCOV_INTER_ENERGY_QM>  (2206) 
0

>  <FF_Energy>  (2206) 
4.83

>  <QM_Energy>  (2206) 
-0.29

>  <source>  (2206) 
ACET_MBZ_02

>  <Index>  (2206) 
20590

$$$$
ACET-pdb6byp-A-GLU-144:MBZ-pdb6byp-A-PHE-80
     RDKit          3D

 22 21  0  0  0  0  0  0  0  0999 V2000
    6.1893    0.4628    0.8511 C   0  0  0  0  0  0  0  0  0  0  0  0
    6.7702   -0.3340    0.8715 H   0  0  0  0  0  0  0  0  0  0  0  0
    6.3725    1.0662    1.6099 H   0  0  0  0  0  0  0  0  0  0  0  0
    6.3799    1.0045   -0.0754 H   0  0  0  0  0  0  0  0  0  0  0  0
    4.7601   -0.0123    0.9835 C   0  0  0  0  0  0  0  0  0  0  0  0
    4.4977   -1.2218    0.7660 O   0  0  0  0  0  1  0  0  0  0  0  0
    3.9050    0.8132    1.3553 O   0  0  0  0  0  0  0  0  0  0  0  0
    0.0027    2.9118    0.0042 C   0  0  0  0  0  0  0  0  0  0  0  0
    0.9277    3.2163    0.1643 H   0  0  0  0  0  0  0  0  0  0  0  0
   -0.6088    3.2169    0.7160 H   0  0  0  0  0  0  0  0  0  0  0  0
   -0.3346    3.3507   -0.9348 H   0  0  0  0  0  0  0  0  0  0  0  0
    0.0021    1.4018    0.0037 C   0  0  0  0  0  0  0  0  0  0  0  0
   -1.1968    0.6992    0.0077 C   0  0  0  0  0  0  0  0  0  0  0  0
   -2.0637    1.1810    0.0148 H   0  0  0  0  0  0  0  0  0  0  0  0
   -1.2046   -0.7121   -0.0000 C   0  0  0  0  0  0  0  0  0  0  0  0
   -2.0803   -1.1950   -0.0047 H   0  0  0  0  0  0  0  0  0  0  0  0
   -0.0019   -1.3972    0.0014 C   0  0  0  0  0  0  0  0  0  0  0  0
    0.0107   -2.3935    0.0032 H   0  0  0  0  0  0  0  0  0  0  0  0
    1.2046   -0.6833    0.0000 C   0  0  0  0  0  0  0  0  0  0  0  0
    2.0844   -1.1894    0.0104 H   0  0  0  0  0  0  0  0  0  0  0  0
    1.1966    0.6915   -0.0129 C   0  0  0  0  0  0  0  0  0  0  0  0
    2.0641    1.1964   -0.0357 H   0  0  0  0  0  0  0  0  0  0  0  0
  1  5  1  0
  5  6  1  0
  5  7  2  0
  1  2  1  0
  1  3  1  0
  1  4  1  0
  8 12  1  0
 12 13  2  0
 13 15  1  0
 15 17  2  0
 17 19  1  0
 19 21  2  0
 21 12  1  0
  8  9  1  0
  8 10  1  0
  8 11  1  0
 13 14  1  0
 15 16  1  0
 17 18  1  0
 19 20  1  0
 21 22  1  0
M  CHG  1   6  -1
M  END
>  <PDB_ID>  (2207) 
pdb6byp

>  <RESIDUE_NAME>  (2207) 
GLU   PHE

>  <FRAG_NAME>  (2207) 
ACET   MBZ

>  <FRAG_ATOM_NUM>  (2207) 
fragi: 7  fragj: 15

>  <atom.prop.CHAIN_ID>  (2207) 
A A A A A A A Z Z Z Z Z Z Z Z Z Z Z Z Z Z Z

>  <atom.prop.IS_HEAVY_ATOM>  (2207) 
1 0 0 0 1 1 1 1 0 0 0 1 1 0 1 0 1 0 1 0 1 0

>  <DIFUSE_FUNC_ATOM>  (2207) 
atom 6   atom 7   

>  <FINAL_SINGLE_POINT_ENERGY>  (2207) 
0

>  <NONCOV_INTER_ENERGY_QM>  (2207) 
0

>  <FF_Energy>  (2207) 
-1.78

>  <QM_Energy>  (2207) 
-7.48

>  <source>  (2207) 
ACET_MBZ_02

>  <Index>  (2207) 
20672

$$$$
ACET-pdb6byp-A-ASP-172:MBZ-pdb6byp-A-PHE-178
     RDKit          3D

 22 21  0  0  0  0  0  0  0  0999 V2000
    5.0082    3.7863   -1.6869 C   0  0  0  0  0  0  0  0  0  0  0  0
    5.1908    3.9158   -2.6566 H   0  0  0  0  0  0  0  0  0  0  0  0
    5.2890    2.8752   -1.4023 H   0  0  0  0  0  0  0  0  0  0  0  0
    5.6102    4.5082   -1.1351 H   0  0  0  0  0  0  0  0  0  0  0  0
    3.5158    3.9377   -1.4459 C   0  0  0  0  0  0  0  0  0  0  0  0
    3.1090    4.7819   -0.6212 O   0  0  0  0  0  1  0  0  0  0  0  0
    2.7535    3.1658   -2.0695 O   0  0  0  0  0  0  0  0  0  0  0  0
   -0.0047    2.9004    0.0033 C   0  0  0  0  0  0  0  0  0  0  0  0
    0.9335    3.2108   -0.0058 H   0  0  0  0  0  0  0  0  0  0  0  0
   -0.4779    3.2044    0.8158 H   0  0  0  0  0  0  0  0  0  0  0  0
   -0.5090    3.3366   -0.8589 H   0  0  0  0  0  0  0  0  0  0  0  0
   -0.0004    1.4025   -0.0013 C   0  0  0  0  0  0  0  0  0  0  0  0
   -1.1971    0.6893    0.0030 C   0  0  0  0  0  0  0  0  0  0  0  0
   -2.0644    1.1783    0.0067 H   0  0  0  0  0  0  0  0  0  0  0  0
   -1.1981   -0.7007   -0.0000 C   0  0  0  0  0  0  0  0  0  0  0  0
   -2.0750   -1.1957   -0.0000 H   0  0  0  0  0  0  0  0  0  0  0  0
    0.0011   -1.3927   -0.0005 C   0  0  0  0  0  0  0  0  0  0  0  0
   -0.0013   -2.3928   -0.0016 H   0  0  0  0  0  0  0  0  0  0  0  0
    1.1981   -0.6969   -0.0000 C   0  0  0  0  0  0  0  0  0  0  0  0
    2.0822   -1.1927    0.0031 H   0  0  0  0  0  0  0  0  0  0  0  0
    1.1964    0.6985   -0.0012 C   0  0  0  0  0  0  0  0  0  0  0  0
    2.0636    1.1918   -0.0027 H   0  0  0  0  0  0  0  0  0  0  0  0
  1  5  1  0
  5  6  1  0
  5  7  2  0
  1  2  1  0
  1  3  1  0
  1  4  1  0
  8 12  1  0
 12 13  2  0
 13 15  1  0
 15 17  2  0
 17 19  1  0
 19 21  2  0
 21 12  1  0
  8  9  1  0
  8 10  1  0
  8 11  1  0
 13 14  1  0
 15 16  1  0
 17 18  1  0
 19 20  1  0
 21 22  1  0
M  CHG  1   6  -1
M  END
>  <PDB_ID>  (2208) 
pdb6byp

>  <RESIDUE_NAME>  (2208) 
ASP   PHE

>  <FRAG_NAME>  (2208) 
ACET   MBZ

>  <FRAG_ATOM_NUM>  (2208) 
fragi: 7  fragj: 15

>  <atom.prop.CHAIN_ID>  (2208) 
A A A A A A A Z Z Z Z Z Z Z Z Z Z Z Z Z Z Z

>  <atom.prop.IS_HEAVY_ATOM>  (2208) 
1 0 0 0 1 1 1 1 0 0 0 1 1 0 1 0 1 0 1 0 1 0

>  <DIFUSE_FUNC_ATOM>  (2208) 
atom 6   atom 7   

>  <FINAL_SINGLE_POINT_ENERGY>  (2208) 
0

>  <NONCOV_INTER_ENERGY_QM>  (2208) 
0

>  <FF_Energy>  (2208) 
-1.66

>  <QM_Energy>  (2208) 
-7.1

>  <source>  (2208) 
ACET_MBZ_02

>  <Index>  (2208) 
20675

$$$$
ACET-pdb6byp-B-GLU-144:MBZ-pdb6byp-B-PHE-80
     RDKit          3D

 22 21  0  0  0  0  0  0  0  0999 V2000
    6.3073    0.2488    0.8978 C   0  0  0  0  0  0  0  0  0  0  0  0
    6.8623   -0.5613    0.9353 H   0  0  0  0  0  0  0  0  0  0  0  0
    6.4923    0.8628    1.6428 H   0  0  0  0  0  0  0  0  0  0  0  0
    6.5254    0.7679   -0.0356 H   0  0  0  0  0  0  0  0  0  0  0  0
    4.8564   -0.1827    1.0086 C   0  0  0  0  0  0  0  0  0  0  0  0
    4.5453   -1.3547    0.6934 O   0  0  0  0  0  1  0  0  0  0  0  0
    4.0287    0.6639    1.3904 O   0  0  0  0  0  0  0  0  0  0  0  0
    0.0124    2.9129   -0.0047 C   0  0  0  0  0  0  0  0  0  0  0  0
    0.9394    3.2115    0.1567 H   0  0  0  0  0  0  0  0  0  0  0  0
   -0.5980    3.2222    0.7070 H   0  0  0  0  0  0  0  0  0  0  0  0
   -0.3205    3.3558   -0.9434 H   0  0  0  0  0  0  0  0  0  0  0  0
    0.0027    1.4024   -0.0025 C   0  0  0  0  0  0  0  0  0  0  0  0
   -1.1935    0.7006    0.0003 C   0  0  0  0  0  0  0  0  0  0  0  0
   -2.0599    1.1894    0.0016 H   0  0  0  0  0  0  0  0  0  0  0  0
   -1.2031   -0.6975   -0.0000 C   0  0  0  0  0  0  0  0  0  0  0  0
   -2.0836   -1.1827    0.0018 H   0  0  0  0  0  0  0  0  0  0  0  0
   -0.0079   -1.3953   -0.0013 C   0  0  0  0  0  0  0  0  0  0  0  0
   -0.0091   -2.3939   -0.0037 H   0  0  0  0  0  0  0  0  0  0  0  0
    1.2031   -0.7002    0.0000 C   0  0  0  0  0  0  0  0  0  0  0  0
    2.0783   -1.2020    0.0002 H   0  0  0  0  0  0  0  0  0  0  0  0
    1.1986    0.6900    0.0035 C   0  0  0  0  0  0  0  0  0  0  0  0
    2.0677    1.1867    0.0100 H   0  0  0  0  0  0  0  0  0  0  0  0
  1  5  1  0
  5  6  1  0
  5  7  2  0
  1  2  1  0
  1  3  1  0
  1  4  1  0
  8 12  1  0
 12 13  2  0
 13 15  1  0
 15 17  2  0
 17 19  1  0
 19 21  2  0
 21 12  1  0
  8  9  1  0
  8 10  1  0
  8 11  1  0
 13 14  1  0
 15 16  1  0
 17 18  1  0
 19 20  1  0
 21 22  1  0
M  CHG  1   6  -1
M  END
>  <PDB_ID>  (2209) 
pdb6byp

>  <RESIDUE_NAME>  (2209) 
GLU   PHE

>  <FRAG_NAME>  (2209) 
ACET   MBZ

>  <FRAG_ATOM_NUM>  (2209) 
fragi: 7  fragj: 15

>  <atom.prop.CHAIN_ID>  (2209) 
A A A A A A A Z Z Z Z Z Z Z Z Z Z Z Z Z Z Z

>  <atom.prop.IS_HEAVY_ATOM>  (2209) 
1 0 0 0 1 1 1 1 0 0 0 1 1 0 1 0 1 0 1 0 1 0

>  <DIFUSE_FUNC_ATOM>  (2209) 
atom 6   atom 7   

>  <FINAL_SINGLE_POINT_ENERGY>  (2209) 
0

>  <NONCOV_INTER_ENERGY_QM>  (2209) 
0

>  <FF_Energy>  (2209) 
-2.55

>  <QM_Energy>  (2209) 
-7.74

>  <source>  (2209) 
ACET_MBZ_02

>  <Index>  (2209) 
20679

$$$$
ACET-pdb6byq-A-ASP-79:MBZ-pdb6byq-A-PHE-126
     RDKit          3D

 22 21  0  0  0  0  0  0  0  0999 V2000
   -4.6425    3.1004    1.3135 C   0  0  0  0  0  0  0  0  0  0  0  0
   -4.9690    2.9880    2.2441 H   0  0  0  0  0  0  0  0  0  0  0  0
   -4.5513    2.2188    0.8664 H   0  0  0  0  0  0  0  0  0  0  0  0
   -5.3780    3.6870    0.7630 H   0  0  0  0  0  0  0  0  0  0  0  0
   -3.2646    3.7648    1.3609 C   0  0  0  0  0  0  0  0  0  0  0  0
   -2.9008    4.4697    0.3917 O   0  0  0  0  0  1  0  0  0  0  0  0
   -2.5398    3.5675    2.3639 O   0  0  0  0  0  0  0  0  0  0  0  0
   -0.0030    2.8884    0.0162 C   0  0  0  0  0  0  0  0  0  0  0  0
    0.7929    3.1982    0.5140 H   0  0  0  0  0  0  0  0  0  0  0  0
   -0.8389    3.1975    0.4438 H   0  0  0  0  0  0  0  0  0  0  0  0
    0.0393    3.3316   -0.9787 H   0  0  0  0  0  0  0  0  0  0  0  0
   -0.0018    1.3941    0.0091 C   0  0  0  0  0  0  0  0  0  0  0  0
   -1.1960    0.6885   -0.0025 C   0  0  0  0  0  0  0  0  0  0  0  0
   -2.0621    1.1825   -0.0138 H   0  0  0  0  0  0  0  0  0  0  0  0
   -1.1971   -0.6896   -0.0000 C   0  0  0  0  0  0  0  0  0  0  0  0
   -2.0727   -1.1902    0.0112 H   0  0  0  0  0  0  0  0  0  0  0  0
    0.0025   -1.3827   -0.0114 C   0  0  0  0  0  0  0  0  0  0  0  0
   -0.0067   -2.3861   -0.0281 H   0  0  0  0  0  0  0  0  0  0  0  0
    1.1971   -0.6969    0.0000 C   0  0  0  0  0  0  0  0  0  0  0  0
    2.0796   -1.1968    0.0062 H   0  0  0  0  0  0  0  0  0  0  0  0
    1.1953    0.6866    0.0049 C   0  0  0  0  0  0  0  0  0  0  0  0
    2.0622    1.1856    0.0051 H   0  0  0  0  0  0  0  0  0  0  0  0
  1  5  1  0
  5  6  1  0
  5  7  2  0
  1  2  1  0
  1  3  1  0
  1  4  1  0
  8 12  1  0
 12 13  2  0
 13 15  1  0
 15 17  2  0
 17 19  1  0
 19 21  2  0
 21 12  1  0
  8  9  1  0
  8 10  1  0
  8 11  1  0
 13 14  1  0
 15 16  1  0
 17 18  1  0
 19 20  1  0
 21 22  1  0
M  CHG  1   6  -1
M  END
>  <PDB_ID>  (2210) 
pdb6byq

>  <RESIDUE_NAME>  (2210) 
ASP   PHE

>  <FRAG_NAME>  (2210) 
ACET   MBZ

>  <FRAG_ATOM_NUM>  (2210) 
fragi: 7  fragj: 15

>  <atom.prop.CHAIN_ID>  (2210) 
A A A A A A A Z Z Z Z Z Z Z Z Z Z Z Z Z Z Z

>  <atom.prop.IS_HEAVY_ATOM>  (2210) 
1 0 0 0 1 1 1 1 0 0 0 1 1 0 1 0 1 0 1 0 1 0

>  <DIFUSE_FUNC_ATOM>  (2210) 
atom 6   atom 7   

>  <FINAL_SINGLE_POINT_ENERGY>  (2210) 
0

>  <NONCOV_INTER_ENERGY_QM>  (2210) 
0

>  <FF_Energy>  (2210) 
-2.2

>  <QM_Energy>  (2210) 
-7.22

>  <source>  (2210) 
ACET_MBZ_02

>  <Index>  (2210) 
20687

$$$$
ACET-pdb6bz0-C-ASP-425:MBZ-pdb6bz0-D-PHE-453
     RDKit          3D

 22 21  0  0  0  0  0  0  0  0999 V2000
    5.2366    4.3085   -0.8919 C   0  0  0  0  0  0  0  0  0  0  0  0
    5.8452    3.6454   -0.4945 H   0  0  0  0  0  0  0  0  0  0  0  0
    5.0572    5.0593   -0.2819 H   0  0  0  0  0  0  0  0  0  0  0  0
    5.6974    4.7013   -1.7982 H   0  0  0  0  0  0  0  0  0  0  0  0
    3.8836    3.5989   -1.1945 C   0  0  0  0  0  0  0  0  0  0  0  0
    2.9670    4.2446   -1.7760 O   0  0  0  0  0  1  0  0  0  0  0  0
    3.7431    2.3866   -0.8831 O   0  0  0  0  0  0  0  0  0  0  0  0
    0.0174    2.8933    0.0200 C   0  0  0  0  0  0  0  0  0  0  0  0
    0.9510    3.1963   -0.1119 H   0  0  0  0  0  0  0  0  0  0  0  0
   -0.3312    3.1876    0.8992 H   0  0  0  0  0  0  0  0  0  0  0  0
   -0.5944    3.3617   -0.7510 H   0  0  0  0  0  0  0  0  0  0  0  0
    0.0050    1.3932   -0.0091 C   0  0  0  0  0  0  0  0  0  0  0  0
   -1.1908    0.6901    0.0163 C   0  0  0  0  0  0  0  0  0  0  0  0
   -2.0546    1.1858    0.0450 H   0  0  0  0  0  0  0  0  0  0  0  0
   -1.1898   -0.6822    0.0000 C   0  0  0  0  0  0  0  0  0  0  0  0
   -2.0727   -1.1829    0.0021 H   0  0  0  0  0  0  0  0  0  0  0  0
   -0.0023   -1.3817   -0.0167 C   0  0  0  0  0  0  0  0  0  0  0  0
   -0.0163   -2.3848   -0.0414 H   0  0  0  0  0  0  0  0  0  0  0  0
    1.1898   -0.7023   -0.0000 C   0  0  0  0  0  0  0  0  0  0  0  0
    2.0726   -1.2010    0.0068 H   0  0  0  0  0  0  0  0  0  0  0  0
    1.1880    0.6829    0.0095 C   0  0  0  0  0  0  0  0  0  0  0  0
    2.0627    1.1754    0.0299 H   0  0  0  0  0  0  0  0  0  0  0  0
  1  5  1  0
  5  6  1  0
  5  7  2  0
  1  2  1  0
  1  3  1  0
  1  4  1  0
  8 12  1  0
 12 13  2  0
 13 15  1  0
 15 17  2  0
 17 19  1  0
 19 21  2  0
 21 12  1  0
  8  9  1  0
  8 10  1  0
  8 11  1  0
 13 14  1  0
 15 16  1  0
 17 18  1  0
 19 20  1  0
 21 22  1  0
M  CHG  1   6  -1
M  END
>  <PDB_ID>  (2211) 
pdb6bz0

>  <RESIDUE_NAME>  (2211) 
ASP   PHE

>  <FRAG_NAME>  (2211) 
ACET   MBZ

>  <FRAG_ATOM_NUM>  (2211) 
fragi: 7  fragj: 15

>  <atom.prop.CHAIN_ID>  (2211) 
A A A A A A A Z Z Z Z Z Z Z Z Z Z Z Z Z Z Z

>  <atom.prop.IS_HEAVY_ATOM>  (2211) 
1 0 0 0 1 1 1 1 0 0 0 1 1 0 1 0 1 0 1 0 1 0

>  <DIFUSE_FUNC_ATOM>  (2211) 
atom 6   atom 7   

>  <FINAL_SINGLE_POINT_ENERGY>  (2211) 
0

>  <NONCOV_INTER_ENERGY_QM>  (2211) 
0

>  <FF_Energy>  (2211) 
-1.44

>  <QM_Energy>  (2211) 
-8.29

>  <source>  (2211) 
ACET_MBZ_02

>  <Index>  (2211) 
20718

$$$$
ACET-pdb6c0y-F-GLU-70:MBZ-pdb6c0y-J-PHE-10
     RDKit          3D

 22 21  0  0  0  0  0  0  0  0999 V2000
    4.9582    2.4668    1.4282 C   0  0  0  0  0  0  0  0  0  0  0  0
    4.2504    3.0555    1.8010 H   0  0  0  0  0  0  0  0  0  0  0  0
    5.8149    2.9633    1.3459 H   0  0  0  0  0  0  0  0  0  0  0  0
    5.1076    1.6327    2.1138 H   0  0  0  0  0  0  0  0  0  0  0  0
    4.5297    2.0733    0.0352 C   0  0  0  0  0  0  0  0  0  0  0  0
    4.8965    1.0035   -0.4656 O   0  0  0  0  0  1  0  0  0  0  0  0
    3.8142    2.9021   -0.5748 O   0  0  0  0  0  0  0  0  0  0  0  0
    0.0407    2.9083    0.0431 C   0  0  0  0  0  0  0  0  0  0  0  0
    0.9194    3.2097   -0.2771 H   0  0  0  0  0  0  0  0  0  0  0  0
   -0.1527    3.2226    0.9539 H   0  0  0  0  0  0  0  0  0  0  0  0
   -0.7104    3.3444   -0.6155 H   0  0  0  0  0  0  0  0  0  0  0  0
    0.0236    1.4037    0.0443 C   0  0  0  0  0  0  0  0  0  0  0  0
   -1.1752    0.6864    0.0157 C   0  0  0  0  0  0  0  0  0  0  0  0
   -2.0405    1.1841    0.0051 H   0  0  0  0  0  0  0  0  0  0  0  0
   -1.1777   -0.6895    0.0000 C   0  0  0  0  0  0  0  0  0  0  0  0
   -2.0805   -1.1732    0.0275 H   0  0  0  0  0  0  0  0  0  0  0  0
   -0.0275   -1.3899   -0.0478 C   0  0  0  0  0  0  0  0  0  0  0  0
   -0.0237   -2.3856   -0.1168 H   0  0  0  0  0  0  0  0  0  0  0  0
    1.1777   -0.6984    0.0000 C   0  0  0  0  0  0  0  0  0  0  0  0
    2.0545   -1.2027    0.0448 H   0  0  0  0  0  0  0  0  0  0  0  0
    1.1790    0.6878   -0.0121 C   0  0  0  0  0  0  0  0  0  0  0  0
    2.0676    1.1688   -0.0656 H   0  0  0  0  0  0  0  0  0  0  0  0
  1  5  1  0
  5  6  1  0
  5  7  2  0
  1  2  1  0
  1  3  1  0
  1  4  1  0
  8 12  1  0
 12 13  2  0
 13 15  1  0
 15 17  2  0
 17 19  1  0
 19 21  2  0
 21 12  1  0
  8  9  1  0
  8 10  1  0
  8 11  1  0
 13 14  1  0
 15 16  1  0
 17 18  1  0
 19 20  1  0
 21 22  1  0
M  CHG  1   6  -1
M  END
>  <PDB_ID>  (2212) 
pdb6c0y

>  <RESIDUE_NAME>  (2212) 
GLU   PHE

>  <FRAG_NAME>  (2212) 
ACET   MBZ

>  <FRAG_ATOM_NUM>  (2212) 
fragi: 7  fragj: 15

>  <atom.prop.CHAIN_ID>  (2212) 
A A A A A A A Z Z Z Z Z Z Z Z Z Z Z Z Z Z Z

>  <atom.prop.IS_HEAVY_ATOM>  (2212) 
1 0 0 0 1 1 1 1 0 0 0 1 1 0 1 0 1 0 1 0 1 0

>  <DIFUSE_FUNC_ATOM>  (2212) 
atom 6   atom 7   

>  <FINAL_SINGLE_POINT_ENERGY>  (2212) 
0

>  <NONCOV_INTER_ENERGY_QM>  (2212) 
0

>  <FF_Energy>  (2212) 
-2.67

>  <QM_Energy>  (2212) 
-7.93

>  <source>  (2212) 
ACET_MBZ_02

>  <Index>  (2212) 
20856

$$$$
ACET-pdb6c46-B-ASP-83:MBZ-pdb6c46-B-PHE-111
     RDKit          3D

 22 21  0  0  0  0  0  0  0  0999 V2000
    4.6856    1.1900   -2.7358 C   0  0  0  0  0  0  0  0  0  0  0  0
    4.9948    2.0213   -3.1944 H   0  0  0  0  0  0  0  0  0  0  0  0
    3.7137    1.0503   -2.9140 H   0  0  0  0  0  0  0  0  0  0  0  0
    5.2183    0.3556   -3.1921 H   0  0  0  0  0  0  0  0  0  0  0  0
    4.9241    1.2937   -1.2893 C   0  0  0  0  0  0  0  0  0  0  0  0
    5.8223    2.0790   -0.9075 O   0  0  0  0  0  1  0  0  0  0  0  0
    4.2332    0.5733   -0.5236 O   0  0  0  0  0  0  0  0  0  0  0  0
    0.0585    2.8892   -0.0696 C   0  0  0  0  0  0  0  0  0  0  0  0
   -0.0080    3.1586   -1.0291 H   0  0  0  0  0  0  0  0  0  0  0  0
    0.9396    3.1807    0.3004 H   0  0  0  0  0  0  0  0  0  0  0  0
   -0.7224    3.4165    0.4784 H   0  0  0  0  0  0  0  0  0  0  0  0
    0.0008    1.4029   -0.0035 C   0  0  0  0  0  0  0  0  0  0  0  0
   -1.1947    0.7154   -0.0080 C   0  0  0  0  0  0  0  0  0  0  0  0
   -2.0581    1.2091   -0.0183 H   0  0  0  0  0  0  0  0  0  0  0  0
   -1.2065   -0.6739   -0.0000 C   0  0  0  0  0  0  0  0  0  0  0  0
   -2.0894   -1.1649   -0.0038 H   0  0  0  0  0  0  0  0  0  0  0  0
   -0.0074   -1.4020    0.0156 C   0  0  0  0  0  0  0  0  0  0  0  0
   -0.0338   -2.3951    0.0370 H   0  0  0  0  0  0  0  0  0  0  0  0
    1.2065   -0.7210    0.0000 C   0  0  0  0  0  0  0  0  0  0  0  0
    2.0788   -1.2191   -0.0067 H   0  0  0  0  0  0  0  0  0  0  0  0
    1.2013    0.6786   -0.0041 C   0  0  0  0  0  0  0  0  0  0  0  0
    2.0707    1.1731   -0.0084 H   0  0  0  0  0  0  0  0  0  0  0  0
  1  5  1  0
  5  6  1  0
  5  7  2  0
  1  2  1  0
  1  3  1  0
  1  4  1  0
  8 12  1  0
 12 13  2  0
 13 15  1  0
 15 17  2  0
 17 19  1  0
 19 21  2  0
 21 12  1  0
  8  9  1  0
  8 10  1  0
  8 11  1  0
 13 14  1  0
 15 16  1  0
 17 18  1  0
 19 20  1  0
 21 22  1  0
M  CHG  1   6  -1
M  END
>  <PDB_ID>  (2213) 
pdb6c46

>  <RESIDUE_NAME>  (2213) 
ASP   PHE

>  <FRAG_NAME>  (2213) 
ACET   MBZ

>  <FRAG_ATOM_NUM>  (2213) 
fragi: 7  fragj: 15

>  <atom.prop.CHAIN_ID>  (2213) 
A A A A A A A Z Z Z Z Z Z Z Z Z Z Z Z Z Z Z

>  <atom.prop.IS_HEAVY_ATOM>  (2213) 
1 0 0 0 1 1 1 1 0 0 0 1 1 0 1 0 1 0 1 0 1 0

>  <DIFUSE_FUNC_ATOM>  (2213) 
atom 6   atom 7   

>  <FINAL_SINGLE_POINT_ENERGY>  (2213) 
0

>  <NONCOV_INTER_ENERGY_QM>  (2213) 
0

>  <FF_Energy>  (2213) 
-1.71

>  <QM_Energy>  (2213) 
-6.74

>  <source>  (2213) 
ACET_MBZ_02

>  <Index>  (2213) 
20977

$$$$
ACET-pdb6bz0-B-ASP-425:MBZ-pdb6bz0-A-PHE-453
     RDKit          3D

 22 21  0  0  0  0  0  0  0  0999 V2000
    5.3593    4.3543   -0.6956 C   0  0  0  0  0  0  0  0  0  0  0  0
    5.9533    3.6699   -0.3053 H   0  0  0  0  0  0  0  0  0  0  0  0
    5.1727    5.0818   -0.0562 H   0  0  0  0  0  0  0  0  0  0  0  0
    5.8514    4.7804   -1.5700 H   0  0  0  0  0  0  0  0  0  0  0  0
    4.0250    3.6799   -1.0646 C   0  0  0  0  0  0  0  0  0  0  0  0
    3.1469    4.3617   -1.6614 O   0  0  0  0  0  1  0  0  0  0  0  0
    3.8507    2.4738   -0.7747 O   0  0  0  0  0  0  0  0  0  0  0  0
    0.0132    2.9191    0.0240 C   0  0  0  0  0  0  0  0  0  0  0  0
    0.9523    3.2159   -0.0545 H   0  0  0  0  0  0  0  0  0  0  0  0
   -0.3857    3.2069    0.8813 H   0  0  0  0  0  0  0  0  0  0  0  0
   -0.5546    3.3831   -0.7826 H   0  0  0  0  0  0  0  0  0  0  0  0
    0.0029    1.4055   -0.0062 C   0  0  0  0  0  0  0  0  0  0  0  0
   -1.1929    0.6973    0.0137 C   0  0  0  0  0  0  0  0  0  0  0  0
   -2.0593    1.1846    0.0367 H   0  0  0  0  0  0  0  0  0  0  0  0
   -1.1950   -0.6957    0.0000 C   0  0  0  0  0  0  0  0  0  0  0  0
   -2.0778   -1.1853   -0.0046 H   0  0  0  0  0  0  0  0  0  0  0  0
   -0.0049   -1.3920   -0.0061 C   0  0  0  0  0  0  0  0  0  0  0  0
   -0.0098   -2.3924   -0.0155 H   0  0  0  0  0  0  0  0  0  0  0  0
    1.1950   -0.7015   -0.0000 C   0  0  0  0  0  0  0  0  0  0  0  0
    2.0759   -1.2023    0.0067 H   0  0  0  0  0  0  0  0  0  0  0  0
    1.1950    0.6865   -0.0014 C   0  0  0  0  0  0  0  0  0  0  0  0
    2.0672    1.1805    0.0002 H   0  0  0  0  0  0  0  0  0  0  0  0
  1  5  1  0
  5  6  1  0
  5  7  2  0
  1  2  1  0
  1  3  1  0
  1  4  1  0
  8 12  1  0
 12 13  2  0
 13 15  1  0
 15 17  2  0
 17 19  1  0
 19 21  2  0
 21 12  1  0
  8  9  1  0
  8 10  1  0
  8 11  1  0
 13 14  1  0
 15 16  1  0
 17 18  1  0
 19 20  1  0
 21 22  1  0
M  CHG  1   6  -1
M  END
>  <PDB_ID>  (2214) 
pdb6bz0

>  <RESIDUE_NAME>  (2214) 
ASP   PHE

>  <FRAG_NAME>  (2214) 
ACET   MBZ

>  <FRAG_ATOM_NUM>  (2214) 
fragi: 7  fragj: 15

>  <atom.prop.CHAIN_ID>  (2214) 
A A A A A A A Z Z Z Z Z Z Z Z Z Z Z Z Z Z Z

>  <atom.prop.IS_HEAVY_ATOM>  (2214) 
1 0 0 0 1 1 1 1 0 0 0 1 1 0 1 0 1 0 1 0 1 0

>  <DIFUSE_FUNC_ATOM>  (2214) 
atom 6   atom 7   

>  <FINAL_SINGLE_POINT_ENERGY>  (2214) 
0

>  <NONCOV_INTER_ENERGY_QM>  (2214) 
0

>  <FF_Energy>  (2214) 
-0.16

>  <QM_Energy>  (2214) 
-8.31

>  <source>  (2214) 
ACET_MBZ_02

>  <Index>  (2214) 
21008

$$$$
ACET-pdb5cdh-B-ASP-98:MBZ-pdb5cdh-A-PHE-139
     RDKit          3D

 22 21  0  0  0  0  0  0  0  0999 V2000
    6.3756    1.4712   -0.3141 C   0  0  0  0  0  0  0  0  0  0  0  0
    6.8228    2.3127   -0.0245 H   0  0  0  0  0  0  0  0  0  0  0  0
    7.0167    0.9004   -0.8184 H   0  0  0  0  0  0  0  0  0  0  0  0
    6.0735    0.9269    0.5806 H   0  0  0  0  0  0  0  0  0  0  0  0
    5.2141    1.8311   -1.2372 C   0  0  0  0  0  0  0  0  0  0  0  0
    4.0539    1.9215   -0.7774 O   0  0  0  0  0  1  0  0  0  0  0  0
    5.4830    2.0365   -2.4428 O   0  0  0  0  0  0  0  0  0  0  0  0
    0.0073    2.9138    0.0008 C   0  0  0  0  0  0  0  0  0  0  0  0
   -0.7706    3.2183   -0.5234 H   0  0  0  0  0  0  0  0  0  0  0  0
    0.8579    3.2144   -0.3987 H   0  0  0  0  0  0  0  0  0  0  0  0
   -0.0675    3.3563    0.9940 H   0  0  0  0  0  0  0  0  0  0  0  0
    0.0039    1.3987    0.0025 C   0  0  0  0  0  0  0  0  0  0  0  0
   -1.1944    0.6930   -0.0015 C   0  0  0  0  0  0  0  0  0  0  0  0
   -2.0584    1.1914   -0.0064 H   0  0  0  0  0  0  0  0  0  0  0  0
   -1.1999   -0.6828    0.0000 C   0  0  0  0  0  0  0  0  0  0  0  0
   -2.0802   -1.1813   -0.0031 H   0  0  0  0  0  0  0  0  0  0  0  0
   -0.0041   -1.3907    0.0068 C   0  0  0  0  0  0  0  0  0  0  0  0
   -0.0188   -2.3887    0.0156 H   0  0  0  0  0  0  0  0  0  0  0  0
    1.1999   -0.7055    0.0000 C   0  0  0  0  0  0  0  0  0  0  0  0
    2.0776   -1.2026    0.0020 H   0  0  0  0  0  0  0  0  0  0  0  0
    1.1946    0.6872   -0.0078 C   0  0  0  0  0  0  0  0  0  0  0  0
    2.0665    1.1808   -0.0222 H   0  0  0  0  0  0  0  0  0  0  0  0
  1  5  1  0
  5  6  1  0
  5  7  2  0
  1  2  1  0
  1  3  1  0
  1  4  1  0
  8 12  1  0
 12 13  2  0
 13 15  1  0
 15 17  2  0
 17 19  1  0
 19 21  2  0
 21 12  1  0
  8  9  1  0
  8 10  1  0
  8 11  1  0
 13 14  1  0
 15 16  1  0
 17 18  1  0
 19 20  1  0
 21 22  1  0
M  CHG  1   6  -1
M  END
>  <PDB_ID>  (2215) 
pdb5cdh

>  <RESIDUE_NAME>  (2215) 
ASP   PHE

>  <FRAG_NAME>  (2215) 
ACET   MBZ

>  <FRAG_ATOM_NUM>  (2215) 
fragi: 7  fragj: 15

>  <atom.prop.CHAIN_ID>  (2215) 
A A A A A A A Z Z Z Z Z Z Z Z Z Z Z Z Z Z Z

>  <atom.prop.IS_HEAVY_ATOM>  (2215) 
1 0 0 0 1 1 1 1 0 0 0 1 1 0 1 0 1 0 1 0 1 0

>  <DIFUSE_FUNC_ATOM>  (2215) 
atom 6   atom 7   

>  <FINAL_SINGLE_POINT_ENERGY>  (2215) 
0

>  <NONCOV_INTER_ENERGY_QM>  (2215) 
0

>  <FF_Energy>  (2215) 
-0.93

>  <QM_Energy>  (2215) 
-6.67

>  <source>  (2215) 
ACET_MBZ_02

>  <Index>  (2215) 
21084

$$$$
ACET-pdb6c72-A-GLU-428:MBZ-pdb6c72-A-PHE-406
     RDKit          3D

 22 21  0  0  0  0  0  0  0  0999 V2000
   -6.2846   -0.2446   -0.0458 C   0  0  0  0  0  0  0  0  0  0  0  0
   -6.6135   -0.4212    0.8604 H   0  0  0  0  0  0  0  0  0  0  0  0
   -7.0102   -0.1106   -0.6919 H   0  0  0  0  0  0  0  0  0  0  0  0
   -5.6737    0.6578   -0.0208 H   0  0  0  0  0  0  0  0  0  0  0  0
   -5.4935   -1.4616   -0.4917 C   0  0  0  0  0  0  0  0  0  0  0  0
   -4.2517   -1.4725   -0.3118 O   0  0  0  0  0  1  0  0  0  0  0  0
   -6.1147   -2.4070   -1.0227 O   0  0  0  0  0  0  0  0  0  0  0  0
    0.0090    2.9074    0.0111 C   0  0  0  0  0  0  0  0  0  0  0  0
    0.9471    3.2071    0.1105 H   0  0  0  0  0  0  0  0  0  0  0  0
   -0.5430    3.2076    0.7776 H   0  0  0  0  0  0  0  0  0  0  0  0
   -0.3943    3.3689   -0.8902 H   0  0  0  0  0  0  0  0  0  0  0  0
    0.0018    1.4019   -0.0047 C   0  0  0  0  0  0  0  0  0  0  0  0
   -1.2025    0.6964    0.0027 C   0  0  0  0  0  0  0  0  0  0  0  0
   -2.0650    1.1881    0.0080 H   0  0  0  0  0  0  0  0  0  0  0  0
   -1.2076   -0.6970   -0.0000 C   0  0  0  0  0  0  0  0  0  0  0  0
   -2.0836   -1.1907   -0.0056 H   0  0  0  0  0  0  0  0  0  0  0  0
   -0.0036   -1.3964    0.0071 C   0  0  0  0  0  0  0  0  0  0  0  0
   -0.0051   -2.3929    0.0168 H   0  0  0  0  0  0  0  0  0  0  0  0
    1.2076   -0.6954    0.0000 C   0  0  0  0  0  0  0  0  0  0  0  0
    2.0836   -1.1993    0.0001 H   0  0  0  0  0  0  0  0  0  0  0  0
    1.2043    0.6905   -0.0051 C   0  0  0  0  0  0  0  0  0  0  0  0
    2.0695    1.1910   -0.0102 H   0  0  0  0  0  0  0  0  0  0  0  0
  1  5  1  0
  5  6  1  0
  5  7  2  0
  1  2  1  0
  1  3  1  0
  1  4  1  0
  8 12  1  0
 12 13  2  0
 13 15  1  0
 15 17  2  0
 17 19  1  0
 19 21  2  0
 21 12  1  0
  8  9  1  0
  8 10  1  0
  8 11  1  0
 13 14  1  0
 15 16  1  0
 17 18  1  0
 19 20  1  0
 21 22  1  0
M  CHG  1   6  -1
M  END
>  <PDB_ID>  (2216) 
pdb6c72

>  <RESIDUE_NAME>  (2216) 
GLU   PHE

>  <FRAG_NAME>  (2216) 
ACET   MBZ

>  <FRAG_ATOM_NUM>  (2216) 
fragi: 7  fragj: 15

>  <atom.prop.CHAIN_ID>  (2216) 
A A A A A A A Z Z Z Z Z Z Z Z Z Z Z Z Z Z Z

>  <atom.prop.IS_HEAVY_ATOM>  (2216) 
1 0 0 0 1 1 1 1 0 0 0 1 1 0 1 0 1 0 1 0 1 0

>  <DIFUSE_FUNC_ATOM>  (2216) 
atom 6   atom 7   

>  <FINAL_SINGLE_POINT_ENERGY>  (2216) 
0

>  <NONCOV_INTER_ENERGY_QM>  (2216) 
0

>  <FF_Energy>  (2216) 
-0.93

>  <QM_Energy>  (2216) 
-6.39

>  <source>  (2216) 
ACET_MBZ_02

>  <Index>  (2216) 
21135

$$$$
ACET-pdb6c72-C-GLU-428:MBZ-pdb6c72-C-PHE-406
     RDKit          3D

 22 21  0  0  0  0  0  0  0  0999 V2000
   -6.1916   -0.2058    0.2260 C   0  0  0  0  0  0  0  0  0  0  0  0
   -6.4687   -0.3626    1.1565 H   0  0  0  0  0  0  0  0  0  0  0  0
   -6.9589   -0.0559   -0.3698 H   0  0  0  0  0  0  0  0  0  0  0  0
   -5.5642    0.6853    0.2047 H   0  0  0  0  0  0  0  0  0  0  0  0
   -5.4715   -1.4511   -0.2562 C   0  0  0  0  0  0  0  0  0  0  0  0
   -4.2245   -1.5030   -0.1692 O   0  0  0  0  0  1  0  0  0  0  0  0
   -6.1487   -2.3888   -0.7064 O   0  0  0  0  0  0  0  0  0  0  0  0
    0.0027    2.8920    0.0139 C   0  0  0  0  0  0  0  0  0  0  0  0
    0.9439    3.1960    0.0911 H   0  0  0  0  0  0  0  0  0  0  0  0
   -0.5291    3.1900    0.7963 H   0  0  0  0  0  0  0  0  0  0  0  0
   -0.4233    3.3615   -0.8728 H   0  0  0  0  0  0  0  0  0  0  0  0
   -0.0034    1.3935   -0.0106 C   0  0  0  0  0  0  0  0  0  0  0  0
   -1.1887    0.6923   -0.0043 C   0  0  0  0  0  0  0  0  0  0  0  0
   -2.0602    1.1770   -0.0043 H   0  0  0  0  0  0  0  0  0  0  0  0
   -1.1908   -0.6973    0.0000 C   0  0  0  0  0  0  0  0  0  0  0  0
   -2.0679   -1.1913   -0.0021 H   0  0  0  0  0  0  0  0  0  0  0  0
    0.0063   -1.3835    0.0085 C   0  0  0  0  0  0  0  0  0  0  0  0
    0.0020   -2.3874    0.0202 H   0  0  0  0  0  0  0  0  0  0  0  0
    1.1908   -0.6924    0.0000 C   0  0  0  0  0  0  0  0  0  0  0  0
    2.0792   -1.1889   -0.0090 H   0  0  0  0  0  0  0  0  0  0  0  0
    1.1858    0.6875    0.0064 C   0  0  0  0  0  0  0  0  0  0  0  0
    2.0565    1.1867    0.0231 H   0  0  0  0  0  0  0  0  0  0  0  0
  1  5  1  0
  5  6  1  0
  5  7  2  0
  1  2  1  0
  1  3  1  0
  1  4  1  0
  8 12  1  0
 12 13  2  0
 13 15  1  0
 15 17  2  0
 17 19  1  0
 19 21  2  0
 21 12  1  0
  8  9  1  0
  8 10  1  0
  8 11  1  0
 13 14  1  0
 15 16  1  0
 17 18  1  0
 19 20  1  0
 21 22  1  0
M  CHG  1   6  -1
M  END
>  <PDB_ID>  (2217) 
pdb6c72

>  <RESIDUE_NAME>  (2217) 
GLU   PHE

>  <FRAG_NAME>  (2217) 
ACET   MBZ

>  <FRAG_ATOM_NUM>  (2217) 
fragi: 7  fragj: 15

>  <atom.prop.CHAIN_ID>  (2217) 
A A A A A A A Z Z Z Z Z Z Z Z Z Z Z Z Z Z Z

>  <atom.prop.IS_HEAVY_ATOM>  (2217) 
1 0 0 0 1 1 1 1 0 0 0 1 1 0 1 0 1 0 1 0 1 0

>  <DIFUSE_FUNC_ATOM>  (2217) 
atom 6   atom 7   

>  <FINAL_SINGLE_POINT_ENERGY>  (2217) 
0

>  <NONCOV_INTER_ENERGY_QM>  (2217) 
0

>  <FF_Energy>  (2217) 
-0.69

>  <QM_Energy>  (2217) 
-6.43

>  <source>  (2217) 
ACET_MBZ_02

>  <Index>  (2217) 
21147

$$$$
ACET-pdb6c7n-C-ASP-350:MBZ-pdb6c7n-C-PHE-541
     RDKit          3D

 22 21  0  0  0  0  0  0  0  0999 V2000
    2.9043    2.7513   -4.0969 C   0  0  0  0  0  0  0  0  0  0  0  0
    1.9399    2.9648   -4.1523 H   0  0  0  0  0  0  0  0  0  0  0  0
    3.1550    2.0530   -4.7503 H   0  0  0  0  0  0  0  0  0  0  0  0
    3.4650    3.6550   -4.3357 H   0  0  0  0  0  0  0  0  0  0  0  0
    3.2144    2.2478   -2.6961 C   0  0  0  0  0  0  0  0  0  0  0  0
    3.1491    3.0591   -1.7430 O   0  0  0  0  0  1  0  0  0  0  0  0
    3.5578    1.0525   -2.5565 O   0  0  0  0  0  0  0  0  0  0  0  0
   -0.0004    2.9214   -0.0103 C   0  0  0  0  0  0  0  0  0  0  0  0
   -0.6666    3.2081   -0.7139 H   0  0  0  0  0  0  0  0  0  0  0  0
    0.9167    3.2191   -0.3119 H   0  0  0  0  0  0  0  0  0  0  0  0
   -0.2344    3.4803    0.8957 H   0  0  0  0  0  0  0  0  0  0  0  0
    0.0010    1.4096    0.0283 C   0  0  0  0  0  0  0  0  0  0  0  0
   -1.1974    0.6920   -0.0317 C   0  0  0  0  0  0  0  0  0  0  0  0
   -2.0614    1.1762   -0.0989 H   0  0  0  0  0  0  0  0  0  0  0  0
   -1.1970   -0.7069   -0.0000 C   0  0  0  0  0  0  0  0  0  0  0  0
   -2.0750   -1.1971    0.0132 H   0  0  0  0  0  0  0  0  0  0  0  0
    0.0000   -1.3935    0.0148 C   0  0  0  0  0  0  0  0  0  0  0  0
   -0.0002   -2.3958    0.0359 H   0  0  0  0  0  0  0  0  0  0  0  0
    1.1970   -0.7005    0.0000 C   0  0  0  0  0  0  0  0  0  0  0  0
    2.0806   -1.1935   -0.0015 H   0  0  0  0  0  0  0  0  0  0  0  0
    1.1963    0.6994   -0.0114 C   0  0  0  0  0  0  0  0  0  0  0  0
    2.0644    1.1887   -0.0490 H   0  0  0  0  0  0  0  0  0  0  0  0
  1  5  1  0
  5  6  1  0
  5  7  2  0
  1  2  1  0
  1  3  1  0
  1  4  1  0
  8 12  1  0
 12 13  2  0
 13 15  1  0
 15 17  2  0
 17 19  1  0
 19 21  2  0
 21 12  1  0
  8  9  1  0
  8 10  1  0
  8 11  1  0
 13 14  1  0
 15 16  1  0
 17 18  1  0
 19 20  1  0
 21 22  1  0
M  CHG  1   6  -1
M  END
>  <PDB_ID>  (2218) 
pdb6c7n

>  <RESIDUE_NAME>  (2218) 
ASP   PHE

>  <FRAG_NAME>  (2218) 
ACET   MBZ

>  <FRAG_ATOM_NUM>  (2218) 
fragi: 7  fragj: 15

>  <atom.prop.CHAIN_ID>  (2218) 
A A A A A A A Z Z Z Z Z Z Z Z Z Z Z Z Z Z Z

>  <atom.prop.IS_HEAVY_ATOM>  (2218) 
1 0 0 0 1 1 1 1 0 0 0 1 1 0 1 0 1 0 1 0 1 0

>  <DIFUSE_FUNC_ATOM>  (2218) 
atom 6   atom 7   

>  <FINAL_SINGLE_POINT_ENERGY>  (2218) 
0

>  <NONCOV_INTER_ENERGY_QM>  (2218) 
0

>  <FF_Energy>  (2218) 
-2.26

>  <QM_Energy>  (2218) 
-7.81

>  <source>  (2218) 
ACET_MBZ_02

>  <Index>  (2218) 
21184

$$$$
ACET-pdb6c80-A-ASP-398:MBZ-pdb6c80-A-PHE-258
     RDKit          3D

 22 21  0  0  0  0  0  0  0  0999 V2000
    0.2988    0.4037   -3.7846 C   0  0  0  0  0  0  0  0  0  0  0  0
   -0.0730   -0.3038   -3.1972 H   0  0  0  0  0  0  0  0  0  0  0  0
    1.2755    0.4997   -3.6483 H   0  0  0  0  0  0  0  0  0  0  0  0
    0.1328    0.1014   -4.8186 H   0  0  0  0  0  0  0  0  0  0  0  0
   -0.3754    1.7181   -3.4588 C   0  0  0  0  0  0  0  0  0  0  0  0
   -1.6239    1.7239   -3.4196 O   0  0  0  0  0  1  0  0  0  0  0  0
    0.3183    2.7480   -3.2607 O   0  0  0  0  0  0  0  0  0  0  0  0
   -0.0084    2.8847    0.0270 C   0  0  0  0  0  0  0  0  0  0  0  0
   -0.7006    3.2053   -0.5956 H   0  0  0  0  0  0  0  0  0  0  0  0
    0.8891    3.2044   -0.2214 H   0  0  0  0  0  0  0  0  0  0  0  0
   -0.2410    3.2801    1.0158 H   0  0  0  0  0  0  0  0  0  0  0  0
   -0.0009    1.3898   -0.0086 C   0  0  0  0  0  0  0  0  0  0  0  0
   -1.1922    0.6904    0.0036 C   0  0  0  0  0  0  0  0  0  0  0  0
   -2.0594    1.1804    0.0140 H   0  0  0  0  0  0  0  0  0  0  0  0
   -1.1956   -0.6946    0.0000 C   0  0  0  0  0  0  0  0  0  0  0  0
   -2.0725   -1.1896   -0.0021 H   0  0  0  0  0  0  0  0  0  0  0  0
    0.0010   -1.3808    0.0012 C   0  0  0  0  0  0  0  0  0  0  0  0
   -0.0013   -2.3855    0.0023 H   0  0  0  0  0  0  0  0  0  0  0  0
    1.1956   -0.6910   -0.0000 C   0  0  0  0  0  0  0  0  0  0  0  0
    2.0781   -1.1937   -0.0017 H   0  0  0  0  0  0  0  0  0  0  0  0
    1.1921    0.6861    0.0038 C   0  0  0  0  0  0  0  0  0  0  0  0
    2.0603    1.1873    0.0153 H   0  0  0  0  0  0  0  0  0  0  0  0
  1  5  1  0
  5  6  1  0
  5  7  2  0
  1  2  1  0
  1  3  1  0
  1  4  1  0
  8 12  1  0
 12 13  2  0
 13 15  1  0
 15 17  2  0
 17 19  1  0
 19 21  2  0
 21 12  1  0
  8  9  1  0
  8 10  1  0
  8 11  1  0
 13 14  1  0
 15 16  1  0
 17 18  1  0
 19 20  1  0
 21 22  1  0
M  CHG  1   6  -1
M  END
>  <PDB_ID>  (2219) 
pdb6c80

>  <RESIDUE_NAME>  (2219) 
ASP   PHE

>  <FRAG_NAME>  (2219) 
ACET   MBZ

>  <FRAG_ATOM_NUM>  (2219) 
fragi: 7  fragj: 15

>  <atom.prop.CHAIN_ID>  (2219) 
A A A A A A A Z Z Z Z Z Z Z Z Z Z Z Z Z Z Z

>  <atom.prop.IS_HEAVY_ATOM>  (2219) 
1 0 0 0 1 1 1 1 0 0 0 1 1 0 1 0 1 0 1 0 1 0

>  <DIFUSE_FUNC_ATOM>  (2219) 
atom 6   atom 7   

>  <FINAL_SINGLE_POINT_ENERGY>  (2219) 
0

>  <NONCOV_INTER_ENERGY_QM>  (2219) 
0

>  <FF_Energy>  (2219) 
0.4

>  <QM_Energy>  (2219) 
-5.53

>  <source>  (2219) 
ACET_MBZ_02

>  <Index>  (2219) 
21198

$$$$
ACET-pdb6ca8-A-GLU-631:MBZ-pdb6ca8-A-PHE-626
     RDKit          3D

 22 21  0  0  0  0  0  0  0  0999 V2000
   -4.4269    2.0266    0.6693 C   0  0  0  0  0  0  0  0  0  0  0  0
   -3.5362    1.6494    0.5091 H   0  0  0  0  0  0  0  0  0  0  0  0
   -5.0927    1.3416    0.8896 H   0  0  0  0  0  0  0  0  0  0  0  0
   -4.3648    2.7375    1.4932 H   0  0  0  0  0  0  0  0  0  0  0  0
   -4.8754    2.6923   -0.6241 C   0  0  0  0  0  0  0  0  0  0  0  0
   -4.9584    3.9472   -0.6413 O   0  0  0  0  0  1  0  0  0  0  0  0
   -5.1194    1.9857   -1.6136 O   0  0  0  0  0  0  0  0  0  0  0  0
    0.0025    2.8951   -0.0071 C   0  0  0  0  0  0  0  0  0  0  0  0
    0.8475    3.2025    0.4015 H   0  0  0  0  0  0  0  0  0  0  0  0
   -0.7820    3.2063    0.5058 H   0  0  0  0  0  0  0  0  0  0  0  0
   -0.0612    3.3229   -1.0076 H   0  0  0  0  0  0  0  0  0  0  0  0
    0.0004    1.3942    0.0036 C   0  0  0  0  0  0  0  0  0  0  0  0
   -1.1920    0.6907   -0.0032 C   0  0  0  0  0  0  0  0  0  0  0  0
   -2.0596    1.1829   -0.0116 H   0  0  0  0  0  0  0  0  0  0  0  0
   -1.1953   -0.6917   -0.0000 C   0  0  0  0  0  0  0  0  0  0  0  0
   -2.0744   -1.1874    0.0029 H   0  0  0  0  0  0  0  0  0  0  0  0
   -0.0005   -1.3849    0.0008 C   0  0  0  0  0  0  0  0  0  0  0  0
   -0.0057   -2.3864    0.0019 H   0  0  0  0  0  0  0  0  0  0  0  0
    1.1953   -0.6944    0.0000 C   0  0  0  0  0  0  0  0  0  0  0  0
    2.0780   -1.1960    0.0017 H   0  0  0  0  0  0  0  0  0  0  0  0
    1.1921    0.6862   -0.0012 C   0  0  0  0  0  0  0  0  0  0  0  0
    2.0620    1.1852   -0.0064 H   0  0  0  0  0  0  0  0  0  0  0  0
  1  5  1  0
  5  6  1  0
  5  7  2  0
  1  2  1  0
  1  3  1  0
  1  4  1  0
  8 12  1  0
 12 13  2  0
 13 15  1  0
 15 17  2  0
 17 19  1  0
 19 21  2  0
 21 12  1  0
  8  9  1  0
  8 10  1  0
  8 11  1  0
 13 14  1  0
 15 16  1  0
 17 18  1  0
 19 20  1  0
 21 22  1  0
M  CHG  1   6  -1
M  END
>  <PDB_ID>  (2220) 
pdb6ca8

>  <RESIDUE_NAME>  (2220) 
GLU   PHE

>  <FRAG_NAME>  (2220) 
ACET   MBZ

>  <FRAG_ATOM_NUM>  (2220) 
fragi: 7  fragj: 15

>  <atom.prop.CHAIN_ID>  (2220) 
A A A A A A A Z Z Z Z Z Z Z Z Z Z Z Z Z Z Z

>  <atom.prop.IS_HEAVY_ATOM>  (2220) 
1 0 0 0 1 1 1 1 0 0 0 1 1 0 1 0 1 0 1 0 1 0

>  <DIFUSE_FUNC_ATOM>  (2220) 
atom 6   atom 7   

>  <FINAL_SINGLE_POINT_ENERGY>  (2220) 
0

>  <NONCOV_INTER_ENERGY_QM>  (2220) 
0

>  <FF_Energy>  (2220) 
9.51

>  <QM_Energy>  (2220) 
-0.84

>  <source>  (2220) 
ACET_MBZ_02

>  <Index>  (2220) 
21250

$$$$
ACET-pdb5cgm-B-GLU-551:MBZ-pdb5cgm-B-PHE-233
     RDKit          3D

 22 21  0  0  0  0  0  0  0  0999 V2000
   -0.6981    0.5229   -3.5690 C   0  0  0  0  0  0  0  0  0  0  0  0
   -0.1203    0.4786   -2.7760 H   0  0  0  0  0  0  0  0  0  0  0  0
   -0.2838    1.0222   -4.3064 H   0  0  0  0  0  0  0  0  0  0  0  0
   -0.8934   -0.4944   -3.9083 H   0  0  0  0  0  0  0  0  0  0  0  0
   -1.9626    1.2517   -3.1753 C   0  0  0  0  0  0  0  0  0  0  0  0
   -3.0144    0.5891   -3.0670 O   0  0  0  0  0  1  0  0  0  0  0  0
   -1.8848    2.4575   -2.8609 O   0  0  0  0  0  0  0  0  0  0  0  0
    0.0022    2.9249   -0.0753 C   0  0  0  0  0  0  0  0  0  0  0  0
   -0.4900    3.1856   -0.9148 H   0  0  0  0  0  0  0  0  0  0  0  0
    0.9605    3.2234   -0.1655 H   0  0  0  0  0  0  0  0  0  0  0  0
   -0.4350    3.4968    0.7431 H   0  0  0  0  0  0  0  0  0  0  0  0
   -0.0004    1.4131    0.0055 C   0  0  0  0  0  0  0  0  0  0  0  0
   -1.1973    0.6975    0.0194 C   0  0  0  0  0  0  0  0  0  0  0  0
   -2.0648    1.1791    0.0420 H   0  0  0  0  0  0  0  0  0  0  0  0
   -1.1945   -0.7046    0.0000 C   0  0  0  0  0  0  0  0  0  0  0  0
   -2.0744   -1.1937   -0.0249 H   0  0  0  0  0  0  0  0  0  0  0  0
    0.0020   -1.3979    0.0167 C   0  0  0  0  0  0  0  0  0  0  0  0
   -0.0025   -2.3978    0.0405 H   0  0  0  0  0  0  0  0  0  0  0  0
    1.1945   -0.7048    0.0000 C   0  0  0  0  0  0  0  0  0  0  0  0
    2.0814   -1.1961    0.0192 H   0  0  0  0  0  0  0  0  0  0  0  0
    1.1956    0.6967   -0.0416 C   0  0  0  0  0  0  0  0  0  0  0  0
    2.0635    1.1837   -0.1060 H   0  0  0  0  0  0  0  0  0  0  0  0
  1  5  1  0
  5  6  1  0
  5  7  2  0
  1  2  1  0
  1  3  1  0
  1  4  1  0
  8 12  1  0
 12 13  2  0
 13 15  1  0
 15 17  2  0
 17 19  1  0
 19 21  2  0
 21 12  1  0
  8  9  1  0
  8 10  1  0
  8 11  1  0
 13 14  1  0
 15 16  1  0
 17 18  1  0
 19 20  1  0
 21 22  1  0
M  CHG  1   6  -1
M  END
>  <PDB_ID>  (2221) 
pdb5cgm

>  <RESIDUE_NAME>  (2221) 
GLU   PHE

>  <FRAG_NAME>  (2221) 
ACET   MBZ

>  <FRAG_ATOM_NUM>  (2221) 
fragi: 7  fragj: 15

>  <atom.prop.CHAIN_ID>  (2221) 
A A A A A A A Z Z Z Z Z Z Z Z Z Z Z Z Z Z Z

>  <atom.prop.IS_HEAVY_ATOM>  (2221) 
1 0 0 0 1 1 1 1 0 0 0 1 1 0 1 0 1 0 1 0 1 0

>  <DIFUSE_FUNC_ATOM>  (2221) 
atom 6   atom 7   

>  <FINAL_SINGLE_POINT_ENERGY>  (2221) 
0

>  <NONCOV_INTER_ENERGY_QM>  (2221) 
0

>  <FF_Energy>  (2221) 
-0.9

>  <QM_Energy>  (2221) 
-7.26

>  <source>  (2221) 
ACET_MBZ_02

>  <Index>  (2221) 
21373

$$$$
ACET-pdb6cgp-A-GLU-478:MBZ-pdb6cgp-A-PHE-474
     RDKit          3D

 22 21  0  0  0  0  0  0  0  0999 V2000
    1.1616   -1.0105    4.1014 C   0  0  0  0  0  0  0  0  0  0  0  0
    0.5367   -1.7926    4.0912 H   0  0  0  0  0  0  0  0  0  0  0  0
    0.6982   -0.2137    3.7086 H   0  0  0  0  0  0  0  0  0  0  0  0
    1.3866   -0.7818    5.1432 H   0  0  0  0  0  0  0  0  0  0  0  0
    2.3233   -1.3418    3.2208 C   0  0  0  0  0  0  0  0  0  0  0  0
    3.4848   -1.3680    3.6068 O   0  0  0  0  0  1  0  0  0  0  0  0
    1.9787   -1.5764    2.0451 O   0  0  0  0  0  0  0  0  0  0  0  0
    0.0005    2.8973   -0.0052 C   0  0  0  0  0  0  0  0  0  0  0  0
   -0.5991    3.2004   -0.7311 H   0  0  0  0  0  0  0  0  0  0  0  0
    0.9291    3.2024   -0.1567 H   0  0  0  0  0  0  0  0  0  0  0  0
   -0.3496    3.3437    0.9255 H   0  0  0  0  0  0  0  0  0  0  0  0
   -0.0005    1.3949    0.0012 C   0  0  0  0  0  0  0  0  0  0  0  0
   -1.1918    0.6886   -0.0003 C   0  0  0  0  0  0  0  0  0  0  0  0
   -2.0604    1.1800   -0.0028 H   0  0  0  0  0  0  0  0  0  0  0  0
   -1.1944   -0.6945   -0.0000 C   0  0  0  0  0  0  0  0  0  0  0  0
   -2.0725   -1.1910    0.0016 H   0  0  0  0  0  0  0  0  0  0  0  0
    0.0013   -1.3851   -0.0006 C   0  0  0  0  0  0  0  0  0  0  0  0
   -0.0025   -2.3873   -0.0025 H   0  0  0  0  0  0  0  0  0  0  0  0
    1.1944   -0.6934    0.0000 C   0  0  0  0  0  0  0  0  0  0  0  0
    2.0780   -1.1924    0.0019 H   0  0  0  0  0  0  0  0  0  0  0  0
    1.1911    0.6893   -0.0003 C   0  0  0  0  0  0  0  0  0  0  0  0
    2.0607    1.1869   -0.0029 H   0  0  0  0  0  0  0  0  0  0  0  0
  1  5  1  0
  5  6  1  0
  5  7  2  0
  1  2  1  0
  1  3  1  0
  1  4  1  0
  8 12  1  0
 12 13  2  0
 13 15  1  0
 15 17  2  0
 17 19  1  0
 19 21  2  0
 21 12  1  0
  8  9  1  0
  8 10  1  0
  8 11  1  0
 13 14  1  0
 15 16  1  0
 17 18  1  0
 19 20  1  0
 21 22  1  0
M  CHG  1   6  -1
M  END
>  <PDB_ID>  (2222) 
pdb6cgp

>  <RESIDUE_NAME>  (2222) 
GLU   PHE

>  <FRAG_NAME>  (2222) 
ACET   MBZ

>  <FRAG_ATOM_NUM>  (2222) 
fragi: 7  fragj: 15

>  <atom.prop.CHAIN_ID>  (2222) 
A A A A A A A Z Z Z Z Z Z Z Z Z Z Z Z Z Z Z

>  <atom.prop.IS_HEAVY_ATOM>  (2222) 
1 0 0 0 1 1 1 1 0 0 0 1 1 0 1 0 1 0 1 0 1 0

>  <DIFUSE_FUNC_ATOM>  (2222) 
atom 6   atom 7   

>  <FINAL_SINGLE_POINT_ENERGY>  (2222) 
0

>  <NONCOV_INTER_ENERGY_QM>  (2222) 
0

>  <FF_Energy>  (2222) 
23.45

>  <QM_Energy>  (2222) 
3.02

>  <source>  (2222) 
ACET_MBZ_02

>  <Index>  (2222) 
21464

$$$$
ACET-pdb5cl2-B-ASP-25:MBZ-pdb5cl2-B-PHE-133
     RDKit          3D

 22 21  0  0  0  0  0  0  0  0999 V2000
    6.1035    2.3234    1.5250 C   0  0  0  0  0  0  0  0  0  0  0  0
    6.7819    1.6123    1.3499 H   0  0  0  0  0  0  0  0  0  0  0  0
    6.3657    2.8497    2.3304 H   0  0  0  0  0  0  0  0  0  0  0  0
    6.1101    3.0014    0.6716 H   0  0  0  0  0  0  0  0  0  0  0  0
    4.7484    1.6431    1.8084 C   0  0  0  0  0  0  0  0  0  0  0  0
    3.7654    1.8165    1.0570 O   0  0  0  0  0  1  0  0  0  0  0  0
    4.6855    0.9113    2.8365 O   0  0  0  0  0  0  0  0  0  0  0  0
   -0.0114    2.9035   -0.0383 C   0  0  0  0  0  0  0  0  0  0  0  0
    0.8531    3.2292    0.3034 H   0  0  0  0  0  0  0  0  0  0  0  0
   -0.7675    3.2249    0.5056 H   0  0  0  0  0  0  0  0  0  0  0  0
   -0.1380    3.3026   -1.0446 H   0  0  0  0  0  0  0  0  0  0  0  0
   -0.0015    1.4031    0.0048 C   0  0  0  0  0  0  0  0  0  0  0  0
   -1.1908    0.6959    0.0001 C   0  0  0  0  0  0  0  0  0  0  0  0
   -2.0623    1.1816   -0.0049 H   0  0  0  0  0  0  0  0  0  0  0  0
   -1.1970   -0.7000    0.0000 C   0  0  0  0  0  0  0  0  0  0  0  0
   -2.0748   -1.1892   -0.0002 H   0  0  0  0  0  0  0  0  0  0  0  0
    0.0018   -1.3957    0.0024 C   0  0  0  0  0  0  0  0  0  0  0  0
   -0.0017   -2.3939    0.0055 H   0  0  0  0  0  0  0  0  0  0  0  0
    1.1970   -0.6977   -0.0000 C   0  0  0  0  0  0  0  0  0  0  0  0
    2.0813   -1.1913    0.0053 H   0  0  0  0  0  0  0  0  0  0  0  0
    1.1905    0.6944   -0.0073 C   0  0  0  0  0  0  0  0  0  0  0  0
    2.0613    1.1896   -0.0219 H   0  0  0  0  0  0  0  0  0  0  0  0
  1  5  1  0
  5  6  1  0
  5  7  2  0
  1  2  1  0
  1  3  1  0
  1  4  1  0
  8 12  1  0
 12 13  2  0
 13 15  1  0
 15 17  2  0
 17 19  1  0
 19 21  2  0
 21 12  1  0
  8  9  1  0
  8 10  1  0
  8 11  1  0
 13 14  1  0
 15 16  1  0
 17 18  1  0
 19 20  1  0
 21 22  1  0
M  CHG  1   6  -1
M  END
>  <PDB_ID>  (2223) 
pdb5cl2

>  <RESIDUE_NAME>  (2223) 
ASP   PHE

>  <FRAG_NAME>  (2223) 
ACET   MBZ

>  <FRAG_ATOM_NUM>  (2223) 
fragi: 7  fragj: 15

>  <atom.prop.CHAIN_ID>  (2223) 
A A A A A A A Z Z Z Z Z Z Z Z Z Z Z Z Z Z Z

>  <atom.prop.IS_HEAVY_ATOM>  (2223) 
1 0 0 0 1 1 1 1 0 0 0 1 1 0 1 0 1 0 1 0 1 0

>  <DIFUSE_FUNC_ATOM>  (2223) 
atom 6   atom 7   

>  <FINAL_SINGLE_POINT_ENERGY>  (2223) 
0

>  <NONCOV_INTER_ENERGY_QM>  (2223) 
0

>  <FF_Energy>  (2223) 
1.89

>  <QM_Energy>  (2223) 
-5.9

>  <source>  (2223) 
ACET_MBZ_02

>  <Index>  (2223) 
21519

$$$$
ACET-pdb6chj-A-GLU-85:MBZ-pdb6chj-A-PHE-99
     RDKit          3D

 22 21  0  0  0  0  0  0  0  0999 V2000
   -2.1992   -4.9665   -1.5727 C   0  0  0  0  0  0  0  0  0  0  0  0
   -3.0703   -5.3286   -1.2710 H   0  0  0  0  0  0  0  0  0  0  0  0
   -1.7347   -5.6072   -2.1687 H   0  0  0  0  0  0  0  0  0  0  0  0
   -2.4086   -4.0722   -2.1596 H   0  0  0  0  0  0  0  0  0  0  0  0
   -1.3196   -4.7694   -0.3265 C   0  0  0  0  0  0  0  0  0  0  0  0
   -0.1893   -4.2633   -0.4478 O   0  0  0  0  0  1  0  0  0  0  0  0
   -1.7339   -5.1886    0.7767 O   0  0  0  0  0  0  0  0  0  0  0  0
   -0.0157    2.8779    0.0472 C   0  0  0  0  0  0  0  0  0  0  0  0
   -0.8683    3.1927   -0.3379 H   0  0  0  0  0  0  0  0  0  0  0  0
    0.7605    3.2172   -0.4595 H   0  0  0  0  0  0  0  0  0  0  0  0
    0.0544    3.2713    1.0613 H   0  0  0  0  0  0  0  0  0  0  0  0
    0.0028    1.3926    0.0001 C   0  0  0  0  0  0  0  0  0  0  0  0
   -1.1907    0.6808    0.0119 C   0  0  0  0  0  0  0  0  0  0  0  0
   -2.0586    1.1779    0.0277 H   0  0  0  0  0  0  0  0  0  0  0  0
   -1.1975   -0.6950    0.0000 C   0  0  0  0  0  0  0  0  0  0  0  0
   -2.0810   -1.1873   -0.0002 H   0  0  0  0  0  0  0  0  0  0  0  0
   -0.0152   -1.3819   -0.0095 C   0  0  0  0  0  0  0  0  0  0  0  0
   -0.0089   -2.3846   -0.0239 H   0  0  0  0  0  0  0  0  0  0  0  0
    1.1975   -0.6887   -0.0000 C   0  0  0  0  0  0  0  0  0  0  0  0
    2.0713   -1.2001    0.0109 H   0  0  0  0  0  0  0  0  0  0  0  0
    1.2032    0.6923   -0.0025 C   0  0  0  0  0  0  0  0  0  0  0  0
    2.0666    1.1900   -0.0069 H   0  0  0  0  0  0  0  0  0  0  0  0
  1  5  1  0
  5  6  1  0
  5  7  2  0
  1  2  1  0
  1  3  1  0
  1  4  1  0
  8 12  1  0
 12 13  2  0
 13 15  1  0
 15 17  2  0
 17 19  1  0
 19 21  2  0
 21 12  1  0
  8  9  1  0
  8 10  1  0
  8 11  1  0
 13 14  1  0
 15 16  1  0
 17 18  1  0
 19 20  1  0
 21 22  1  0
M  CHG  1   6  -1
M  END
>  <PDB_ID>  (2224) 
pdb6chj

>  <RESIDUE_NAME>  (2224) 
GLU   PHE

>  <FRAG_NAME>  (2224) 
ACET   MBZ

>  <FRAG_ATOM_NUM>  (2224) 
fragi: 7  fragj: 15

>  <atom.prop.CHAIN_ID>  (2224) 
A A A A A A A Z Z Z Z Z Z Z Z Z Z Z Z Z Z Z

>  <atom.prop.IS_HEAVY_ATOM>  (2224) 
1 0 0 0 1 1 1 1 0 0 0 1 1 0 1 0 1 0 1 0 1 0

>  <DIFUSE_FUNC_ATOM>  (2224) 
atom 6   atom 7   

>  <FINAL_SINGLE_POINT_ENERGY>  (2224) 
0

>  <NONCOV_INTER_ENERGY_QM>  (2224) 
0

>  <FF_Energy>  (2224) 
9.44

>  <QM_Energy>  (2224) 
-5.03

>  <source>  (2224) 
ACET_MBZ_02

>  <Index>  (2224) 
21537

$$$$
ACET-pdb5cml-A-GLU-175:MBZ-pdb5cml-A-PHE-85
     RDKit          3D

 22 21  0  0  0  0  0  0  0  0999 V2000
    3.8380    0.4251    2.4525 C   0  0  0  0  0  0  0  0  0  0  0  0
    3.0629   -0.1446    2.5771 H   0  0  0  0  0  0  0  0  0  0  0  0
    4.3592    0.4610    3.2696 H   0  0  0  0  0  0  0  0  0  0  0  0
    4.4559    0.0133    1.6546 H   0  0  0  0  0  0  0  0  0  0  0  0
    3.3429    1.8367    2.1458 C   0  0  0  0  0  0  0  0  0  0  0  0
    3.6884    2.3853    1.0637 O   0  0  0  0  0  1  0  0  0  0  0  0
    2.6072    2.4064    2.9965 O   0  0  0  0  0  0  0  0  0  0  0  0
   -0.0106    2.8763    0.0014 C   0  0  0  0  0  0  0  0  0  0  0  0
    0.9025    3.1839    0.1131 H   0  0  0  0  0  0  0  0  0  0  0  0
   -0.5540    3.1759    0.7473 H   0  0  0  0  0  0  0  0  0  0  0  0
   -0.4142    3.2935   -0.9212 H   0  0  0  0  0  0  0  0  0  0  0  0
    0.0023    1.3892    0.0114 C   0  0  0  0  0  0  0  0  0  0  0  0
   -1.1841    0.6878    0.0013 C   0  0  0  0  0  0  0  0  0  0  0  0
   -1.9907    1.1500    0.0059 H   0  0  0  0  0  0  0  0  0  0  0  0
   -1.1883   -0.6879    0.0000 C   0  0  0  0  0  0  0  0  0  0  0  0
   -1.9960   -1.1486    0.0010 H   0  0  0  0  0  0  0  0  0  0  0  0
   -0.0020   -1.3838   -0.0036 C   0  0  0  0  0  0  0  0  0  0  0  0
   -0.0062   -2.3139   -0.0048 H   0  0  0  0  0  0  0  0  0  0  0  0
    1.1883   -0.6989    0.0000 C   0  0  0  0  0  0  0  0  0  0  0  0
    1.9942   -1.1636   -0.0073 H   0  0  0  0  0  0  0  0  0  0  0  0
    1.1838    0.6935   -0.0092 C   0  0  0  0  0  0  0  0  0  0  0  0
    1.9913    1.1556   -0.0036 H   0  0  0  0  0  0  0  0  0  0  0  0
  1  5  1  0
  5  6  1  0
  5  7  2  0
  1  2  1  0
  1  3  1  0
  1  4  1  0
  8 12  1  0
 12 13  2  0
 13 15  1  0
 15 17  2  0
 17 19  1  0
 19 21  2  0
 21 12  1  0
  8  9  1  0
  8 10  1  0
  8 11  1  0
 13 14  1  0
 15 16  1  0
 17 18  1  0
 19 20  1  0
 21 22  1  0
M  CHG  1   6  -1
M  END
>  <PDB_ID>  (2225) 
pdb5cml

>  <RESIDUE_NAME>  (2225) 
GLU   PHE

>  <FRAG_NAME>  (2225) 
ACET   MBZ

>  <FRAG_ATOM_NUM>  (2225) 
fragi: 7  fragj: 15

>  <atom.prop.CHAIN_ID>  (2225) 
A A A A A A A Z Z Z Z Z Z Z Z Z Z Z Z Z Z Z

>  <atom.prop.IS_HEAVY_ATOM>  (2225) 
1 0 0 0 1 1 1 1 0 0 0 1 1 0 1 0 1 0 1 0 1 0

>  <DIFUSE_FUNC_ATOM>  (2225) 
atom 6   atom 7   

>  <FINAL_SINGLE_POINT_ENERGY>  (2225) 
0

>  <NONCOV_INTER_ENERGY_QM>  (2225) 
0

>  <FF_Energy>  (2225) 
-0.71

>  <QM_Energy>  (2225) 
-7.21

>  <source>  (2225) 
ACET_MBZ_02

>  <Index>  (2225) 
21543

$$$$
ACET-pdb5cn1-C-ASP-456:MBZ-pdb5cn1-C-PHE-472
     RDKit          3D

 22 21  0  0  0  0  0  0  0  0999 V2000
    4.2659    5.6304    1.9459 C   0  0  0  0  0  0  0  0  0  0  0  0
    5.0083    5.0242    2.2244 H   0  0  0  0  0  0  0  0  0  0  0  0
    4.3625    6.5138    2.3985 H   0  0  0  0  0  0  0  0  0  0  0  0
    4.3499    5.7925    0.8714 H   0  0  0  0  0  0  0  0  0  0  0  0
    2.9467    5.0085    2.3710 C   0  0  0  0  0  0  0  0  0  0  0  0
    2.3080    4.2356    1.6072 O   0  0  0  0  0  1  0  0  0  0  0  0
    2.5352    5.2836    3.5212 O   0  0  0  0  0  0  0  0  0  0  0  0
   -0.0176    2.8976    0.0109 C   0  0  0  0  0  0  0  0  0  0  0  0
    0.8441    3.2127    0.3778 H   0  0  0  0  0  0  0  0  0  0  0  0
   -0.7781    3.2018    0.5642 H   0  0  0  0  0  0  0  0  0  0  0  0
   -0.1345    3.3342   -0.9810 H   0  0  0  0  0  0  0  0  0  0  0  0
   -0.0075    1.3999    0.0110 C   0  0  0  0  0  0  0  0  0  0  0  0
   -1.1972    0.6913    0.0074 C   0  0  0  0  0  0  0  0  0  0  0  0
   -2.0683    1.1807    0.0084 H   0  0  0  0  0  0  0  0  0  0  0  0
   -1.2052   -0.6994   -0.0000 C   0  0  0  0  0  0  0  0  0  0  0  0
   -2.0775   -1.1941    0.0037 H   0  0  0  0  0  0  0  0  0  0  0  0
    0.0038   -1.3978   -0.0112 C   0  0  0  0  0  0  0  0  0  0  0  0
    0.0004   -2.3931   -0.0276 H   0  0  0  0  0  0  0  0  0  0  0  0
    1.2052   -0.6959    0.0000 C   0  0  0  0  0  0  0  0  0  0  0  0
    2.0875   -1.1902    0.0149 H   0  0  0  0  0  0  0  0  0  0  0  0
    1.2008    0.7019   -0.0072 C   0  0  0  0  0  0  0  0  0  0  0  0
    2.0608    1.1988   -0.0262 H   0  0  0  0  0  0  0  0  0  0  0  0
  1  5  1  0
  5  6  1  0
  5  7  2  0
  1  2  1  0
  1  3  1  0
  1  4  1  0
  8 12  1  0
 12 13  2  0
 13 15  1  0
 15 17  2  0
 17 19  1  0
 19 21  2  0
 21 12  1  0
  8  9  1  0
  8 10  1  0
  8 11  1  0
 13 14  1  0
 15 16  1  0
 17 18  1  0
 19 20  1  0
 21 22  1  0
M  CHG  1   6  -1
M  END
>  <PDB_ID>  (2226) 
pdb5cn1

>  <RESIDUE_NAME>  (2226) 
ASP   PHE

>  <FRAG_NAME>  (2226) 
ACET   MBZ

>  <FRAG_ATOM_NUM>  (2226) 
fragi: 7  fragj: 15

>  <atom.prop.CHAIN_ID>  (2226) 
A A A A A A A Z Z Z Z Z Z Z Z Z Z Z Z Z Z Z

>  <atom.prop.IS_HEAVY_ATOM>  (2226) 
1 0 0 0 1 1 1 1 0 0 0 1 1 0 1 0 1 0 1 0 1 0

>  <DIFUSE_FUNC_ATOM>  (2226) 
atom 6   atom 7   

>  <FINAL_SINGLE_POINT_ENERGY>  (2226) 
0

>  <NONCOV_INTER_ENERGY_QM>  (2226) 
0

>  <FF_Energy>  (2226) 
1.18

>  <QM_Energy>  (2226) 
-5.84

>  <source>  (2226) 
ACET_MBZ_02

>  <Index>  (2226) 
21549

$$$$
ACET-pdb6cj6-C-GLU-104:MBZ-pdb6cj6-C-PHE-63
     RDKit          3D

 22 21  0  0  0  0  0  0  0  0999 V2000
    1.3183    0.4380    3.4474 C   0  0  0  0  0  0  0  0  0  0  0  0
    1.8489    0.1431    4.2192 H   0  0  0  0  0  0  0  0  0  0  0  0
    1.5897   -0.0056    2.6145 H   0  0  0  0  0  0  0  0  0  0  0  0
    0.2732    0.1951    3.6393 H   0  0  0  0  0  0  0  0  0  0  0  0
    1.5594    1.9333    3.2696 C   0  0  0  0  0  0  0  0  0  0  0  0
    0.5727    2.6938    3.1608 O   0  0  0  0  0  1  0  0  0  0  0  0
    2.7409    2.3484    3.2308 O   0  0  0  0  0  0  0  0  0  0  0  0
   -0.0071    2.9117    0.0040 C   0  0  0  0  0  0  0  0  0  0  0  0
    0.9121    3.2170    0.1941 H   0  0  0  0  0  0  0  0  0  0  0  0
   -0.6389    3.2072    0.7024 H   0  0  0  0  0  0  0  0  0  0  0  0
   -0.3194    3.3559   -0.9412 H   0  0  0  0  0  0  0  0  0  0  0  0
   -0.0003    1.3981   -0.0034 C   0  0  0  0  0  0  0  0  0  0  0  0
   -1.1906    0.6874    0.0006 C   0  0  0  0  0  0  0  0  0  0  0  0
   -2.0609    1.1789    0.0025 H   0  0  0  0  0  0  0  0  0  0  0  0
   -1.1951   -0.6958   -0.0000 C   0  0  0  0  0  0  0  0  0  0  0  0
   -2.0739   -1.1900    0.0000 H   0  0  0  0  0  0  0  0  0  0  0  0
   -0.0005   -1.3872    0.0011 C   0  0  0  0  0  0  0  0  0  0  0  0
   -0.0035   -2.3891    0.0017 H   0  0  0  0  0  0  0  0  0  0  0  0
    1.1951   -0.6943   -0.0000 C   0  0  0  0  0  0  0  0  0  0  0  0
    2.0786   -1.1930   -0.0006 H   0  0  0  0  0  0  0  0  0  0  0  0
    1.1914    0.6918    0.0017 C   0  0  0  0  0  0  0  0  0  0  0  0
    2.0608    1.1879    0.0053 H   0  0  0  0  0  0  0  0  0  0  0  0
  1  5  1  0
  5  6  1  0
  5  7  2  0
  1  2  1  0
  1  3  1  0
  1  4  1  0
  8 12  1  0
 12 13  2  0
 13 15  1  0
 15 17  2  0
 17 19  1  0
 19 21  2  0
 21 12  1  0
  8  9  1  0
  8 10  1  0
  8 11  1  0
 13 14  1  0
 15 16  1  0
 17 18  1  0
 19 20  1  0
 21 22  1  0
M  CHG  1   6  -1
M  END
>  <PDB_ID>  (2227) 
pdb6cj6

>  <RESIDUE_NAME>  (2227) 
GLU   PHE

>  <FRAG_NAME>  (2227) 
ACET   MBZ

>  <FRAG_ATOM_NUM>  (2227) 
fragi: 7  fragj: 15

>  <atom.prop.CHAIN_ID>  (2227) 
A A A A A A A Z Z Z Z Z Z Z Z Z Z Z Z Z Z Z

>  <atom.prop.IS_HEAVY_ATOM>  (2227) 
1 0 0 0 1 1 1 1 0 0 0 1 1 0 1 0 1 0 1 0 1 0

>  <DIFUSE_FUNC_ATOM>  (2227) 
atom 6   atom 7   

>  <FINAL_SINGLE_POINT_ENERGY>  (2227) 
0

>  <NONCOV_INTER_ENERGY_QM>  (2227) 
0

>  <FF_Energy>  (2227) 
0.29

>  <QM_Energy>  (2227) 
-5.28

>  <source>  (2227) 
ACET_MBZ_02

>  <Index>  (2227) 
21585

$$$$
ACET-pdb5coa-B-GLU-113:MBZ-pdb5coa-B-PHE-177
     RDKit          3D

 22 21  0  0  0  0  0  0  0  0999 V2000
   -3.1235   -3.2922   -0.5437 C   0  0  0  0  0  0  0  0  0  0  0  0
   -2.9171   -2.4710   -0.0432 H   0  0  0  0  0  0  0  0  0  0  0  0
   -4.0631   -3.3220   -0.8348 H   0  0  0  0  0  0  0  0  0  0  0  0
   -2.4922   -3.3140   -1.4320 H   0  0  0  0  0  0  0  0  0  0  0  0
   -2.8887   -4.4662    0.3771 C   0  0  0  0  0  0  0  0  0  0  0  0
   -1.8842   -5.1869    0.1853 O   0  0  0  0  0  1  0  0  0  0  0  0
   -3.7140   -4.6672    1.2945 O   0  0  0  0  0  0  0  0  0  0  0  0
    0.0206    2.8868    0.0187 C   0  0  0  0  0  0  0  0  0  0  0  0
   -0.8812    3.2080   -0.2118 H   0  0  0  0  0  0  0  0  0  0  0  0
    0.6999    3.1992   -0.6219 H   0  0  0  0  0  0  0  0  0  0  0  0
    0.2786    3.2723    1.0050 H   0  0  0  0  0  0  0  0  0  0  0  0
    0.0026    1.3894   -0.0177 C   0  0  0  0  0  0  0  0  0  0  0  0
   -1.1898    0.6947   -0.0006 C   0  0  0  0  0  0  0  0  0  0  0  0
   -2.0542    1.1916    0.0107 H   0  0  0  0  0  0  0  0  0  0  0  0
   -1.1915   -0.6762   -0.0000 C   0  0  0  0  0  0  0  0  0  0  0  0
   -2.0732   -1.1778    0.0029 H   0  0  0  0  0  0  0  0  0  0  0  0
    0.0001   -1.3805   -0.0015 C   0  0  0  0  0  0  0  0  0  0  0  0
   -0.0169   -2.3821   -0.0045 H   0  0  0  0  0  0  0  0  0  0  0  0
    1.1915   -0.7008    0.0000 C   0  0  0  0  0  0  0  0  0  0  0  0
    2.0736   -1.2022   -0.0118 H   0  0  0  0  0  0  0  0  0  0  0  0
    1.1871    0.6734    0.0198 C   0  0  0  0  0  0  0  0  0  0  0  0
    2.0600    1.1734    0.0612 H   0  0  0  0  0  0  0  0  0  0  0  0
  1  5  1  0
  5  6  1  0
  5  7  2  0
  1  2  1  0
  1  3  1  0
  1  4  1  0
  8 12  1  0
 12 13  2  0
 13 15  1  0
 15 17  2  0
 17 19  1  0
 19 21  2  0
 21 12  1  0
  8  9  1  0
  8 10  1  0
  8 11  1  0
 13 14  1  0
 15 16  1  0
 17 18  1  0
 19 20  1  0
 21 22  1  0
M  CHG  1   6  -1
M  END
>  <PDB_ID>  (2228) 
pdb5coa

>  <RESIDUE_NAME>  (2228) 
GLU   PHE

>  <FRAG_NAME>  (2228) 
ACET   MBZ

>  <FRAG_ATOM_NUM>  (2228) 
fragi: 7  fragj: 15

>  <atom.prop.CHAIN_ID>  (2228) 
A A A A A A A Z Z Z Z Z Z Z Z Z Z Z Z Z Z Z

>  <atom.prop.IS_HEAVY_ATOM>  (2228) 
1 0 0 0 1 1 1 1 0 0 0 1 1 0 1 0 1 0 1 0 1 0

>  <DIFUSE_FUNC_ATOM>  (2228) 
atom 6   atom 7   

>  <FINAL_SINGLE_POINT_ENERGY>  (2228) 
0

>  <NONCOV_INTER_ENERGY_QM>  (2228) 
0

>  <FF_Energy>  (2228) 
21.08

>  <QM_Energy>  (2228) 
0.76

>  <source>  (2228) 
ACET_MBZ_02

>  <Index>  (2228) 
21607

$$$$
ACET-pdb6ck1-A-ASP-137:MBZ-pdb6ck1-A-PHE-123
     RDKit          3D

 22 21  0  0  0  0  0  0  0  0999 V2000
    3.5563    4.7973    2.6962 C   0  0  0  0  0  0  0  0  0  0  0  0
    4.0175    4.5821    1.8442 H   0  0  0  0  0  0  0  0  0  0  0  0
    4.0600    4.4341    3.4696 H   0  0  0  0  0  0  0  0  0  0  0  0
    3.5196    5.8823    2.7955 H   0  0  0  0  0  0  0  0  0  0  0  0
    2.1852    4.2017    2.6771 C   0  0  0  0  0  0  0  0  0  0  0  0
    1.2224    5.0051    2.7125 O   0  0  0  0  0  1  0  0  0  0  0  0
    2.0903    2.9571    2.6735 O   0  0  0  0  0  0  0  0  0  0  0  0
   -0.0023    2.9202   -0.0149 C   0  0  0  0  0  0  0  0  0  0  0  0
    0.9300    3.2301    0.0469 H   0  0  0  0  0  0  0  0  0  0  0  0
   -0.5487    3.2348    0.7417 H   0  0  0  0  0  0  0  0  0  0  0  0
   -0.4298    3.3352   -0.9276 H   0  0  0  0  0  0  0  0  0  0  0  0
    0.0035    1.4109    0.0064 C   0  0  0  0  0  0  0  0  0  0  0  0
   -1.1890    0.6937   -0.0064 C   0  0  0  0  0  0  0  0  0  0  0  0
   -2.0606    1.1786   -0.0221 H   0  0  0  0  0  0  0  0  0  0  0  0
   -1.1959   -0.7078   -0.0000 C   0  0  0  0  0  0  0  0  0  0  0  0
   -2.0791   -1.1919    0.0070 H   0  0  0  0  0  0  0  0  0  0  0  0
   -0.0054   -1.4035   -0.0013 C   0  0  0  0  0  0  0  0  0  0  0  0
   -0.0022   -2.4000   -0.0036 H   0  0  0  0  0  0  0  0  0  0  0  0
    1.1959   -0.6996    0.0000 C   0  0  0  0  0  0  0  0  0  0  0  0
    2.0797   -1.1901    0.0012 H   0  0  0  0  0  0  0  0  0  0  0  0
    1.1909    0.7063    0.0012 C   0  0  0  0  0  0  0  0  0  0  0  0
    2.0644    1.1920   -0.0031 H   0  0  0  0  0  0  0  0  0  0  0  0
  1  5  1  0
  5  6  1  0
  5  7  2  0
  1  2  1  0
  1  3  1  0
  1  4  1  0
  8 12  1  0
 12 13  2  0
 13 15  1  0
 15 17  2  0
 17 19  1  0
 19 21  2  0
 21 12  1  0
  8  9  1  0
  8 10  1  0
  8 11  1  0
 13 14  1  0
 15 16  1  0
 17 18  1  0
 19 20  1  0
 21 22  1  0
M  CHG  1   6  -1
M  END
>  <PDB_ID>  (2229) 
pdb6ck1

>  <RESIDUE_NAME>  (2229) 
ASP   PHE

>  <FRAG_NAME>  (2229) 
ACET   MBZ

>  <FRAG_ATOM_NUM>  (2229) 
fragi: 7  fragj: 15

>  <atom.prop.CHAIN_ID>  (2229) 
A A A A A A A Z Z Z Z Z Z Z Z Z Z Z Z Z Z Z

>  <atom.prop.IS_HEAVY_ATOM>  (2229) 
1 0 0 0 1 1 1 1 0 0 0 1 1 0 1 0 1 0 1 0 1 0

>  <DIFUSE_FUNC_ATOM>  (2229) 
atom 6   atom 7   

>  <FINAL_SINGLE_POINT_ENERGY>  (2229) 
0

>  <NONCOV_INTER_ENERGY_QM>  (2229) 
0

>  <FF_Energy>  (2229) 
-0.07

>  <QM_Energy>  (2229) 
-5.32

>  <source>  (2229) 
ACET_MBZ_02

>  <Index>  (2229) 
21624

$$$$
ACET-pdb6ck1-C-ASP-137:MBZ-pdb6ck1-C-PHE-123
     RDKit          3D

 22 21  0  0  0  0  0  0  0  0999 V2000
    3.1943    4.8514    3.0938 C   0  0  0  0  0  0  0  0  0  0  0  0
    3.7055    4.7705    2.2487 H   0  0  0  0  0  0  0  0  0  0  0  0
    3.6741    4.4131    3.8409 H   0  0  0  0  0  0  0  0  0  0  0  0
    3.1023    5.9116    3.3298 H   0  0  0  0  0  0  0  0  0  0  0  0
    1.8488    4.1967    2.9198 C   0  0  0  0  0  0  0  0  0  0  0  0
    0.8485    4.9416    3.0519 O   0  0  0  0  0  1  0  0  0  0  0  0
    1.7897    2.9731    2.6262 O   0  0  0  0  0  0  0  0  0  0  0  0
   -0.0172    2.9117    0.0375 C   0  0  0  0  0  0  0  0  0  0  0  0
    0.9234    3.2198    0.1033 H   0  0  0  0  0  0  0  0  0  0  0  0
   -0.5358    3.1904    0.8358 H   0  0  0  0  0  0  0  0  0  0  0  0
   -0.4656    3.3842   -0.8364 H   0  0  0  0  0  0  0  0  0  0  0  0
   -0.0063    1.4058   -0.0025 C   0  0  0  0  0  0  0  0  0  0  0  0
   -1.1994    0.6822   -0.0062 C   0  0  0  0  0  0  0  0  0  0  0  0
   -2.0707    1.1707   -0.0143 H   0  0  0  0  0  0  0  0  0  0  0  0
   -1.2066   -0.7113   -0.0000 C   0  0  0  0  0  0  0  0  0  0  0  0
   -2.0745   -1.2065    0.0072 H   0  0  0  0  0  0  0  0  0  0  0  0
    0.0069   -1.3964   -0.0026 C   0  0  0  0  0  0  0  0  0  0  0  0
    0.0155   -2.3933   -0.0069 H   0  0  0  0  0  0  0  0  0  0  0  0
    1.2066   -0.6824    0.0000 C   0  0  0  0  0  0  0  0  0  0  0  0
    2.0910   -1.1819   -0.0053 H   0  0  0  0  0  0  0  0  0  0  0  0
    1.1988    0.7023    0.0113 C   0  0  0  0  0  0  0  0  0  0  0  0
    2.0607    1.2061    0.0286 H   0  0  0  0  0  0  0  0  0  0  0  0
  1  5  1  0
  5  6  1  0
  5  7  2  0
  1  2  1  0
  1  3  1  0
  1  4  1  0
  8 12  1  0
 12 13  2  0
 13 15  1  0
 15 17  2  0
 17 19  1  0
 19 21  2  0
 21 12  1  0
  8  9  1  0
  8 10  1  0
  8 11  1  0
 13 14  1  0
 15 16  1  0
 17 18  1  0
 19 20  1  0
 21 22  1  0
M  CHG  1   6  -1
M  END
>  <PDB_ID>  (2230) 
pdb6ck1

>  <RESIDUE_NAME>  (2230) 
ASP   PHE

>  <FRAG_NAME>  (2230) 
ACET   MBZ

>  <FRAG_ATOM_NUM>  (2230) 
fragi: 7  fragj: 15

>  <atom.prop.CHAIN_ID>  (2230) 
A A A A A A A Z Z Z Z Z Z Z Z Z Z Z Z Z Z Z

>  <atom.prop.IS_HEAVY_ATOM>  (2230) 
1 0 0 0 1 1 1 1 0 0 0 1 1 0 1 0 1 0 1 0 1 0

>  <DIFUSE_FUNC_ATOM>  (2230) 
atom 6   atom 7   

>  <FINAL_SINGLE_POINT_ENERGY>  (2230) 
0

>  <NONCOV_INTER_ENERGY_QM>  (2230) 
0

>  <FF_Energy>  (2230) 
0.3

>  <QM_Energy>  (2230) 
-5.68

>  <source>  (2230) 
ACET_MBZ_02

>  <Index>  (2230) 
21628

$$$$
ACET-pdb5crv-A-GLU-187:MBZ-pdb5crv-A-PHE-248
     RDKit          3D

 22 21  0  0  0  0  0  0  0  0999 V2000
   -0.1078   -3.5170    2.7488 C   0  0  0  0  0  0  0  0  0  0  0  0
   -0.5888   -4.3655    2.8645 H   0  0  0  0  0  0  0  0  0  0  0  0
   -0.6546   -2.8344    2.3022 H   0  0  0  0  0  0  0  0  0  0  0  0
    0.1669   -3.1439    3.7355 H   0  0  0  0  0  0  0  0  0  0  0  0
    1.0973   -3.7875    1.8702 C   0  0  0  0  0  0  0  0  0  0  0  0
    2.2302   -3.4798    2.2992 O   0  0  0  0  0  1  0  0  0  0  0  0
    0.9111   -4.3072    0.7486 O   0  0  0  0  0  0  0  0  0  0  0  0
   -0.0183    2.8893   -0.0100 C   0  0  0  0  0  0  0  0  0  0  0  0
    0.9070    3.2103    0.1047 H   0  0  0  0  0  0  0  0  0  0  0  0
   -0.6062    3.1997    0.7191 H   0  0  0  0  0  0  0  0  0  0  0  0
   -0.4000    3.3023   -0.9437 H   0  0  0  0  0  0  0  0  0  0  0  0
   -0.0010    1.3930    0.0055 C   0  0  0  0  0  0  0  0  0  0  0  0
   -1.1895    0.6854   -0.0015 C   0  0  0  0  0  0  0  0  0  0  0  0
   -2.0596    1.1792   -0.0087 H   0  0  0  0  0  0  0  0  0  0  0  0
   -1.1960   -0.6942    0.0000 C   0  0  0  0  0  0  0  0  0  0  0  0
   -2.0745   -1.1897    0.0035 H   0  0  0  0  0  0  0  0  0  0  0  0
   -0.0028   -1.3824   -0.0016 C   0  0  0  0  0  0  0  0  0  0  0  0
   -0.0044   -2.3854   -0.0044 H   0  0  0  0  0  0  0  0  0  0  0  0
    1.1960   -0.6919   -0.0000 C   0  0  0  0  0  0  0  0  0  0  0  0
    2.0771   -1.1938    0.0045 H   0  0  0  0  0  0  0  0  0  0  0  0
    1.1933    0.6901   -0.0024 C   0  0  0  0  0  0  0  0  0  0  0  0
    2.0604    1.1891   -0.0112 H   0  0  0  0  0  0  0  0  0  0  0  0
  1  5  1  0
  5  6  1  0
  5  7  2  0
  1  2  1  0
  1  3  1  0
  1  4  1  0
  8 12  1  0
 12 13  2  0
 13 15  1  0
 15 17  2  0
 17 19  1  0
 19 21  2  0
 21 12  1  0
  8  9  1  0
  8 10  1  0
  8 11  1  0
 13 14  1  0
 15 16  1  0
 17 18  1  0
 19 20  1  0
 21 22  1  0
M  CHG  1   6  -1
M  END
>  <PDB_ID>  (2231) 
pdb5crv

>  <RESIDUE_NAME>  (2231) 
GLU   PHE

>  <FRAG_NAME>  (2231) 
ACET   MBZ

>  <FRAG_ATOM_NUM>  (2231) 
fragi: 7  fragj: 15

>  <atom.prop.CHAIN_ID>  (2231) 
A A A A A A A Z Z Z Z Z Z Z Z Z Z Z Z Z Z Z

>  <atom.prop.IS_HEAVY_ATOM>  (2231) 
1 0 0 0 1 1 1 1 0 0 0 1 1 0 1 0 1 0 1 0 1 0

>  <DIFUSE_FUNC_ATOM>  (2231) 
atom 6   atom 7   

>  <FINAL_SINGLE_POINT_ENERGY>  (2231) 
0

>  <NONCOV_INTER_ENERGY_QM>  (2231) 
0

>  <FF_Energy>  (2231) 
-0.64

>  <QM_Energy>  (2231) 
-5.74

>  <source>  (2231) 
ACET_MBZ_02

>  <Index>  (2231) 
21810

$$$$
ACET-pdb6cqd-B-GLU-111:MBZ-pdb6cqd-B-PHE-247
     RDKit          3D

 22 21  0  0  0  0  0  0  0  0999 V2000
    2.5702    2.0791   -3.0975 C   0  0  0  0  0  0  0  0  0  0  0  0
    2.1517    2.3261   -3.9507 H   0  0  0  0  0  0  0  0  0  0  0  0
    2.0056    1.4769   -2.5645 H   0  0  0  0  0  0  0  0  0  0  0  0
    3.5084    1.5679   -3.3135 H   0  0  0  0  0  0  0  0  0  0  0  0
    2.7756    3.3441   -2.2999 C   0  0  0  0  0  0  0  0  0  0  0  0
    3.8072    3.4404   -1.6020 O   0  0  0  0  0  1  0  0  0  0  0  0
    1.9104    4.2435   -2.3791 O   0  0  0  0  0  0  0  0  0  0  0  0
    0.0139    2.9116    0.0038 C   0  0  0  0  0  0  0  0  0  0  0  0
    0.3349    3.2152   -0.8820 H   0  0  0  0  0  0  0  0  0  0  0  0
    0.6222    3.2077    0.7262 H   0  0  0  0  0  0  0  0  0  0  0  0
   -0.9597    3.3689    0.1797 H   0  0  0  0  0  0  0  0  0  0  0  0
    0.0003    1.4005   -0.0005 C   0  0  0  0  0  0  0  0  0  0  0  0
   -1.1934    0.6893   -0.0041 C   0  0  0  0  0  0  0  0  0  0  0  0
   -2.0617    1.1806   -0.0116 H   0  0  0  0  0  0  0  0  0  0  0  0
   -1.1973   -0.6967    0.0000 C   0  0  0  0  0  0  0  0  0  0  0  0
   -2.0749   -1.1912    0.0019 H   0  0  0  0  0  0  0  0  0  0  0  0
   -0.0002   -1.3888    0.0038 C   0  0  0  0  0  0  0  0  0  0  0  0
   -0.0029   -2.3897    0.0086 H   0  0  0  0  0  0  0  0  0  0  0  0
    1.1973   -0.6951    0.0000 C   0  0  0  0  0  0  0  0  0  0  0  0
    2.0797   -1.1944   -0.0019 H   0  0  0  0  0  0  0  0  0  0  0  0
    1.1933    0.6908    0.0007 C   0  0  0  0  0  0  0  0  0  0  0  0
    2.0629    1.1882    0.0010 H   0  0  0  0  0  0  0  0  0  0  0  0
  1  5  1  0
  5  6  1  0
  5  7  2  0
  1  2  1  0
  1  3  1  0
  1  4  1  0
  8 12  1  0
 12 13  2  0
 13 15  1  0
 15 17  2  0
 17 19  1  0
 19 21  2  0
 21 12  1  0
  8  9  1  0
  8 10  1  0
  8 11  1  0
 13 14  1  0
 15 16  1  0
 17 18  1  0
 19 20  1  0
 21 22  1  0
M  CHG  1   6  -1
M  END
>  <PDB_ID>  (2232) 
pdb6cqd

>  <RESIDUE_NAME>  (2232) 
GLU   PHE

>  <FRAG_NAME>  (2232) 
ACET   MBZ

>  <FRAG_ATOM_NUM>  (2232) 
fragi: 7  fragj: 15

>  <atom.prop.CHAIN_ID>  (2232) 
A A A A A A A Z Z Z Z Z Z Z Z Z Z Z Z Z Z Z

>  <atom.prop.IS_HEAVY_ATOM>  (2232) 
1 0 0 0 1 1 1 1 0 0 0 1 1 0 1 0 1 0 1 0 1 0

>  <DIFUSE_FUNC_ATOM>  (2232) 
atom 6   atom 7   

>  <FINAL_SINGLE_POINT_ENERGY>  (2232) 
0

>  <NONCOV_INTER_ENERGY_QM>  (2232) 
0

>  <FF_Energy>  (2232) 
-1.89

>  <QM_Energy>  (2232) 
-6.97

>  <source>  (2232) 
ACET_MBZ_02

>  <Index>  (2232) 
21818

$$$$
ACET-pdb6cxo-B-GLU-144:MBZ-pdb6cxo-B-PHE-250
     RDKit          3D

 22 21  0  0  0  0  0  0  0  0999 V2000
   -1.9989    3.8366    4.0452 C   0  0  0  0  0  0  0  0  0  0  0  0
   -2.6864    4.4083    4.4994 H   0  0  0  0  0  0  0  0  0  0  0  0
   -1.1482    4.3608    3.9538 H   0  0  0  0  0  0  0  0  0  0  0  0
   -1.7987    2.9796    4.6883 H   0  0  0  0  0  0  0  0  0  0  0  0
   -2.5046    3.5568    2.6420 C   0  0  0  0  0  0  0  0  0  0  0  0
   -3.0327    2.4486    2.3900 O   0  0  0  0  0  1  0  0  0  0  0  0
   -2.3930    4.4757    1.7958 O   0  0  0  0  0  0  0  0  0  0  0  0
   -0.0077    2.9248    0.0323 C   0  0  0  0  0  0  0  0  0  0  0  0
   -0.5350    3.2108    0.8445 H   0  0  0  0  0  0  0  0  0  0  0  0
   -0.5077    3.2358   -0.7877 H   0  0  0  0  0  0  0  0  0  0  0  0
    0.9397    3.4633    0.0564 H   0  0  0  0  0  0  0  0  0  0  0  0
   -0.0007    1.4070    0.0086 C   0  0  0  0  0  0  0  0  0  0  0  0
   -1.1978    0.6908    0.0080 C   0  0  0  0  0  0  0  0  0  0  0  0
   -2.0651    1.1780    0.0121 H   0  0  0  0  0  0  0  0  0  0  0  0
   -1.1968   -0.7015    0.0000 C   0  0  0  0  0  0  0  0  0  0  0  0
   -2.0736   -1.1957   -0.0094 H   0  0  0  0  0  0  0  0  0  0  0  0
    0.0016   -1.3880    0.0067 C   0  0  0  0  0  0  0  0  0  0  0  0
   -0.0035   -2.3942    0.0161 H   0  0  0  0  0  0  0  0  0  0  0  0
    1.1968   -0.7028   -0.0000 C   0  0  0  0  0  0  0  0  0  0  0  0
    2.0797   -1.1967    0.0135 H   0  0  0  0  0  0  0  0  0  0  0  0
    1.1969    0.6945   -0.0234 C   0  0  0  0  0  0  0  0  0  0  0  0
    2.0645    1.1862   -0.0642 H   0  0  0  0  0  0  0  0  0  0  0  0
  1  5  1  0
  5  6  1  0
  5  7  2  0
  1  2  1  0
  1  3  1  0
  1  4  1  0
  8 12  1  0
 12 13  2  0
 13 15  1  0
 15 17  2  0
 17 19  1  0
 19 21  2  0
 21 12  1  0
  8  9  1  0
  8 10  1  0
  8 11  1  0
 13 14  1  0
 15 16  1  0
 17 18  1  0
 19 20  1  0
 21 22  1  0
M  CHG  1   6  -1
M  END
>  <PDB_ID>  (2233) 
pdb6cxo

>  <RESIDUE_NAME>  (2233) 
GLU   PHE

>  <FRAG_NAME>  (2233) 
ACET   MBZ

>  <FRAG_ATOM_NUM>  (2233) 
fragi: 7  fragj: 15

>  <atom.prop.CHAIN_ID>  (2233) 
A A A A A A A Z Z Z Z Z Z Z Z Z Z Z Z Z Z Z

>  <atom.prop.IS_HEAVY_ATOM>  (2233) 
1 0 0 0 1 1 1 1 0 0 0 1 1 0 1 0 1 0 1 0 1 0

>  <DIFUSE_FUNC_ATOM>  (2233) 
atom 6   atom 7   

>  <FINAL_SINGLE_POINT_ENERGY>  (2233) 
0

>  <NONCOV_INTER_ENERGY_QM>  (2233) 
0

>  <FF_Energy>  (2233) 
-1.37

>  <QM_Energy>  (2233) 
-6.87

>  <source>  (2233) 
ACET_MBZ_02

>  <Index>  (2233) 
22030

$$$$
ACET-pdb5crv-B-GLU-322:MBZ-pdb5crv-B-PHE-266
     RDKit          3D

 22 21  0  0  0  0  0  0  0  0999 V2000
    4.1823    5.3562   -0.4310 C   0  0  0  0  0  0  0  0  0  0  0  0
    5.1048    5.4746   -0.7500 H   0  0  0  0  0  0  0  0  0  0  0  0
    4.1476    5.0880    0.5147 H   0  0  0  0  0  0  0  0  0  0  0  0
    3.6602    6.3071   -0.5374 H   0  0  0  0  0  0  0  0  0  0  0  0
    3.5533    4.2443   -1.2461 C   0  0  0  0  0  0  0  0  0  0  0  0
    3.4430    4.3959   -2.4802 O   0  0  0  0  0  1  0  0  0  0  0  0
    3.1653    3.2185   -0.6492 O   0  0  0  0  0  0  0  0  0  0  0  0
   -0.0048    2.8986   -0.0050 C   0  0  0  0  0  0  0  0  0  0  0  0
    0.9169    3.2089    0.1669 H   0  0  0  0  0  0  0  0  0  0  0  0
   -0.6288    3.2059    0.6956 H   0  0  0  0  0  0  0  0  0  0  0  0
   -0.3299    3.3276   -0.9529 H   0  0  0  0  0  0  0  0  0  0  0  0
   -0.0002    1.3961    0.0015 C   0  0  0  0  0  0  0  0  0  0  0  0
   -1.1932    0.6898    0.0008 C   0  0  0  0  0  0  0  0  0  0  0  0
   -2.0611    1.1831   -0.0004 H   0  0  0  0  0  0  0  0  0  0  0  0
   -1.1985   -0.6935    0.0000 C   0  0  0  0  0  0  0  0  0  0  0  0
   -2.0751   -1.1891    0.0008 H   0  0  0  0  0  0  0  0  0  0  0  0
   -0.0003   -1.3876   -0.0003 C   0  0  0  0  0  0  0  0  0  0  0  0
   -0.0055   -2.3883   -0.0009 H   0  0  0  0  0  0  0  0  0  0  0  0
    1.1985   -0.6952    0.0000 C   0  0  0  0  0  0  0  0  0  0  0  0
    2.0796   -1.1940    0.0032 H   0  0  0  0  0  0  0  0  0  0  0  0
    1.1937    0.6904   -0.0020 C   0  0  0  0  0  0  0  0  0  0  0  0
    2.0624    1.1885   -0.0076 H   0  0  0  0  0  0  0  0  0  0  0  0
  1  5  1  0
  5  6  1  0
  5  7  2  0
  1  2  1  0
  1  3  1  0
  1  4  1  0
  8 12  1  0
 12 13  2  0
 13 15  1  0
 15 17  2  0
 17 19  1  0
 19 21  2  0
 21 12  1  0
  8  9  1  0
  8 10  1  0
  8 11  1  0
 13 14  1  0
 15 16  1  0
 17 18  1  0
 19 20  1  0
 21 22  1  0
M  CHG  1   6  -1
M  END
>  <PDB_ID>  (2234) 
pdb5crv

>  <RESIDUE_NAME>  (2234) 
GLU   PHE

>  <FRAG_NAME>  (2234) 
ACET   MBZ

>  <FRAG_ATOM_NUM>  (2234) 
fragi: 7  fragj: 15

>  <atom.prop.CHAIN_ID>  (2234) 
A A A A A A A Z Z Z Z Z Z Z Z Z Z Z Z Z Z Z

>  <atom.prop.IS_HEAVY_ATOM>  (2234) 
1 0 0 0 1 1 1 1 0 0 0 1 1 0 1 0 1 0 1 0 1 0

>  <DIFUSE_FUNC_ATOM>  (2234) 
atom 6   atom 7   

>  <FINAL_SINGLE_POINT_ENERGY>  (2234) 
0

>  <NONCOV_INTER_ENERGY_QM>  (2234) 
0

>  <FF_Energy>  (2234) 
-1.21

>  <QM_Energy>  (2234) 
-7.79

>  <source>  (2234) 
ACET_MBZ_02

>  <Index>  (2234) 
22221

$$$$
ACET-pdb6d2y-A-GLU-141:MBZ-pdb6d2y-A-PHE-214
     RDKit          3D

 22 21  0  0  0  0  0  0  0  0999 V2000
   -0.0576    2.9234   -4.0901 C   0  0  0  0  0  0  0  0  0  0  0  0
   -0.4471    2.2056   -3.5396 H   0  0  0  0  0  0  0  0  0  0  0  0
    0.5491    2.5675   -4.7807 H   0  0  0  0  0  0  0  0  0  0  0  0
   -0.8705    3.4539   -4.5860 H   0  0  0  0  0  0  0  0  0  0  0  0
    0.7604    3.8079   -3.1759 C   0  0  0  0  0  0  0  0  0  0  0  0
    0.3882    4.9863   -2.9903 O   0  0  0  0  0  1  0  0  0  0  0  0
    1.7810    3.3258   -2.6461 O   0  0  0  0  0  0  0  0  0  0  0  0
    0.0061    2.9033    0.0009 C   0  0  0  0  0  0  0  0  0  0  0  0
   -0.6170    3.2103   -0.7029 H   0  0  0  0  0  0  0  0  0  0  0  0
    0.9300    3.2049   -0.1807 H   0  0  0  0  0  0  0  0  0  0  0  0
   -0.3099    3.3489    0.9441 H   0  0  0  0  0  0  0  0  0  0  0  0
    0.0007    1.3967    0.0010 C   0  0  0  0  0  0  0  0  0  0  0  0
   -1.1920    0.6885   -0.0000 C   0  0  0  0  0  0  0  0  0  0  0  0
   -2.0602    1.1803   -0.0023 H   0  0  0  0  0  0  0  0  0  0  0  0
   -1.1946   -0.6945    0.0000 C   0  0  0  0  0  0  0  0  0  0  0  0
   -2.0736   -1.1907    0.0020 H   0  0  0  0  0  0  0  0  0  0  0  0
   -0.0005   -1.3851   -0.0007 C   0  0  0  0  0  0  0  0  0  0  0  0
   -0.0033   -2.3871   -0.0021 H   0  0  0  0  0  0  0  0  0  0  0  0
    1.1946   -0.6939    0.0000 C   0  0  0  0  0  0  0  0  0  0  0  0
    2.0770   -1.1946    0.0018 H   0  0  0  0  0  0  0  0  0  0  0  0
    1.1918    0.6883   -0.0003 C   0  0  0  0  0  0  0  0  0  0  0  0
    2.0620    1.1866   -0.0021 H   0  0  0  0  0  0  0  0  0  0  0  0
  1  5  1  0
  5  6  1  0
  5  7  2  0
  1  2  1  0
  1  3  1  0
  1  4  1  0
  8 12  1  0
 12 13  2  0
 13 15  1  0
 15 17  2  0
 17 19  1  0
 19 21  2  0
 21 12  1  0
  8  9  1  0
  8 10  1  0
  8 11  1  0
 13 14  1  0
 15 16  1  0
 17 18  1  0
 19 20  1  0
 21 22  1  0
M  CHG  1   6  -1
M  END
>  <PDB_ID>  (2235) 
pdb6d2y

>  <RESIDUE_NAME>  (2235) 
GLU   PHE

>  <FRAG_NAME>  (2235) 
ACET   MBZ

>  <FRAG_ATOM_NUM>  (2235) 
fragi: 7  fragj: 15

>  <atom.prop.CHAIN_ID>  (2235) 
A A A A A A A Z Z Z Z Z Z Z Z Z Z Z Z Z Z Z

>  <atom.prop.IS_HEAVY_ATOM>  (2235) 
1 0 0 0 1 1 1 1 0 0 0 1 1 0 1 0 1 0 1 0 1 0

>  <DIFUSE_FUNC_ATOM>  (2235) 
atom 6   atom 7   

>  <FINAL_SINGLE_POINT_ENERGY>  (2235) 
0

>  <NONCOV_INTER_ENERGY_QM>  (2235) 
0

>  <FF_Energy>  (2235) 
-0.64

>  <QM_Energy>  (2235) 
-5.85

>  <source>  (2235) 
ACET_MBZ_02

>  <Index>  (2235) 
22288

$$$$
ACET-pdb6d63-K-GLU-51:MBZ-pdb6d63-K-PHE-62
     RDKit          3D

 22 21  0  0  0  0  0  0  0  0999 V2000
    3.0098   -0.3578    3.9827 C   0  0  0  0  0  0  0  0  0  0  0  0
    2.3156   -0.5789    4.6705 H   0  0  0  0  0  0  0  0  0  0  0  0
    2.8977    0.5967    3.6992 H   0  0  0  0  0  0  0  0  0  0  0  0
    3.9891   -0.4574    4.4508 H   0  0  0  0  0  0  0  0  0  0  0  0
    2.7508   -1.2173    2.7860 C   0  0  0  0  0  0  0  0  0  0  0  0
    3.7047   -1.6278    2.0806 O   0  0  0  0  0  1  0  0  0  0  0  0
    1.5257   -1.3380    2.4384 O   0  0  0  0  0  0  0  0  0  0  0  0
   -0.0038    2.8962   -0.0302 C   0  0  0  0  0  0  0  0  0  0  0  0
    0.8082    3.2127    0.4372 H   0  0  0  0  0  0  0  0  0  0  0  0
   -0.8248    3.2054    0.4249 H   0  0  0  0  0  0  0  0  0  0  0  0
    0.0016    3.3265   -1.0316 H   0  0  0  0  0  0  0  0  0  0  0  0
    0.0026    1.3933   -0.0122 C   0  0  0  0  0  0  0  0  0  0  0  0
   -1.1912    0.6915   -0.0279 C   0  0  0  0  0  0  0  0  0  0  0  0
   -2.0578    1.1813   -0.0619 H   0  0  0  0  0  0  0  0  0  0  0  0
   -1.1938   -0.6945   -0.0000 C   0  0  0  0  0  0  0  0  0  0  0  0
   -2.0743   -1.1882    0.0159 H   0  0  0  0  0  0  0  0  0  0  0  0
   -0.0003   -1.3898    0.0087 C   0  0  0  0  0  0  0  0  0  0  0  0
   -0.0027   -2.3883    0.0209 H   0  0  0  0  0  0  0  0  0  0  0  0
    1.1938   -0.6929   -0.0000 C   0  0  0  0  0  0  0  0  0  0  0  0
    2.0786   -1.1900   -0.0267 H   0  0  0  0  0  0  0  0  0  0  0  0
    1.1889    0.6924    0.0315 C   0  0  0  0  0  0  0  0  0  0  0  0
    2.0589    1.1869    0.0850 H   0  0  0  0  0  0  0  0  0  0  0  0
  1  5  1  0
  5  6  1  0
  5  7  2  0
  1  2  1  0
  1  3  1  0
  1  4  1  0
  8 12  1  0
 12 13  2  0
 13 15  1  0
 15 17  2  0
 17 19  1  0
 19 21  2  0
 21 12  1  0
  8  9  1  0
  8 10  1  0
  8 11  1  0
 13 14  1  0
 15 16  1  0
 17 18  1  0
 19 20  1  0
 21 22  1  0
M  CHG  1   6  -1
M  END
>  <PDB_ID>  (2236) 
pdb6d63

>  <RESIDUE_NAME>  (2236) 
GLU   PHE

>  <FRAG_NAME>  (2236) 
ACET   MBZ

>  <FRAG_ATOM_NUM>  (2236) 
fragi: 7  fragj: 15

>  <atom.prop.CHAIN_ID>  (2236) 
A A A A A A A Z Z Z Z Z Z Z Z Z Z Z Z Z Z Z

>  <atom.prop.IS_HEAVY_ATOM>  (2236) 
1 0 0 0 1 1 1 1 0 0 0 1 1 0 1 0 1 0 1 0 1 0

>  <DIFUSE_FUNC_ATOM>  (2236) 
atom 6   atom 7   

>  <FINAL_SINGLE_POINT_ENERGY>  (2236) 
0

>  <NONCOV_INTER_ENERGY_QM>  (2236) 
0

>  <FF_Energy>  (2236) 
9.75

>  <QM_Energy>  (2236) 
-0.47

>  <source>  (2236) 
ACET_MBZ_02

>  <Index>  (2236) 
22360

$$$$
ACET-pdb5czy-A-ASP-448:MBZ-pdb5czy-A-PHE-452
     RDKit          3D

 22 21  0  0  0  0  0  0  0  0999 V2000
   -2.4667    5.2394    3.9957 C   0  0  0  0  0  0  0  0  0  0  0  0
   -3.2190    5.0163    4.6097 H   0  0  0  0  0  0  0  0  0  0  0  0
   -2.7133    6.0146    3.4222 H   0  0  0  0  0  0  0  0  0  0  0  0
   -1.6107    5.5304    4.6045 H   0  0  0  0  0  0  0  0  0  0  0  0
   -2.1932    4.0426    3.1064 C   0  0  0  0  0  0  0  0  0  0  0  0
   -3.0515    3.8054    2.2113 O   0  0  0  0  0  1  0  0  0  0  0  0
   -1.1705    3.3206    3.2750 O   0  0  0  0  0  0  0  0  0  0  0  0
   -0.0096    2.9133    0.0172 C   0  0  0  0  0  0  0  0  0  0  0  0
   -0.7967    3.2119    0.5351 H   0  0  0  0  0  0  0  0  0  0  0  0
   -0.0523    3.2264   -0.9190 H   0  0  0  0  0  0  0  0  0  0  0  0
    0.8759    3.3544    0.4746 H   0  0  0  0  0  0  0  0  0  0  0  0
   -0.0045    1.4060    0.0043 C   0  0  0  0  0  0  0  0  0  0  0  0
   -1.1981    0.6948   -0.0038 C   0  0  0  0  0  0  0  0  0  0  0  0
   -2.0671    1.1808   -0.0133 H   0  0  0  0  0  0  0  0  0  0  0  0
   -1.1985   -0.6982   -0.0000 C   0  0  0  0  0  0  0  0  0  0  0  0
   -2.0723   -1.1949    0.0060 H   0  0  0  0  0  0  0  0  0  0  0  0
    0.0096   -1.3955   -0.0025 C   0  0  0  0  0  0  0  0  0  0  0  0
   -0.0014   -2.3955   -0.0062 H   0  0  0  0  0  0  0  0  0  0  0  0
    1.1985   -0.7029    0.0000 C   0  0  0  0  0  0  0  0  0  0  0  0
    2.0860   -1.1914    0.0018 H   0  0  0  0  0  0  0  0  0  0  0  0
    1.1930    0.6959    0.0020 C   0  0  0  0  0  0  0  0  0  0  0  0
    2.0621    1.1891    0.0010 H   0  0  0  0  0  0  0  0  0  0  0  0
  1  5  1  0
  5  6  1  0
  5  7  2  0
  1  2  1  0
  1  3  1  0
  1  4  1  0
  8 12  1  0
 12 13  2  0
 13 15  1  0
 15 17  2  0
 17 19  1  0
 19 21  2  0
 21 12  1  0
  8  9  1  0
  8 10  1  0
  8 11  1  0
 13 14  1  0
 15 16  1  0
 17 18  1  0
 19 20  1  0
 21 22  1  0
M  CHG  1   6  -1
M  END
>  <PDB_ID>  (2237) 
pdb5czy

>  <RESIDUE_NAME>  (2237) 
ASP   PHE

>  <FRAG_NAME>  (2237) 
ACET   MBZ

>  <FRAG_ATOM_NUM>  (2237) 
fragi: 7  fragj: 15

>  <atom.prop.CHAIN_ID>  (2237) 
A A A A A A A Z Z Z Z Z Z Z Z Z Z Z Z Z Z Z

>  <atom.prop.IS_HEAVY_ATOM>  (2237) 
1 0 0 0 1 1 1 1 0 0 0 1 1 0 1 0 1 0 1 0 1 0

>  <DIFUSE_FUNC_ATOM>  (2237) 
atom 6   atom 7   

>  <FINAL_SINGLE_POINT_ENERGY>  (2237) 
0

>  <NONCOV_INTER_ENERGY_QM>  (2237) 
0

>  <FF_Energy>  (2237) 
-0.43

>  <QM_Energy>  (2237) 
-5.84

>  <source>  (2237) 
ACET_MBZ_02

>  <Index>  (2237) 
22394

$$$$
ACET-pdb6d8w-E-GLU-461:MBZ-pdb6d8w-E-PHE-467
     RDKit          3D

 22 21  0  0  0  0  0  0  0  0999 V2000
   -3.9124   -1.1276   -1.8695 C   0  0  0  0  0  0  0  0  0  0  0  0
   -2.9935   -0.9624   -1.5096 H   0  0  0  0  0  0  0  0  0  0  0  0
   -4.5875   -0.7290   -1.2468 H   0  0  0  0  0  0  0  0  0  0  0  0
   -3.9920   -0.6046   -2.8226 H   0  0  0  0  0  0  0  0  0  0  0  0
   -4.1351   -2.6068   -1.8966 C   0  0  0  0  0  0  0  0  0  0  0  0
   -4.3930   -3.2382   -2.9125 O   0  0  0  0  0  1  0  0  0  0  0  0
   -4.0390   -3.1232   -0.7651 O   0  0  0  0  0  0  0  0  0  0  0  0
    0.0044    2.8851    0.0086 C   0  0  0  0  0  0  0  0  0  0  0  0
    0.8652    3.1898    0.3892 H   0  0  0  0  0  0  0  0  0  0  0  0
   -0.7585    3.1900    0.5619 H   0  0  0  0  0  0  0  0  0  0  0  0
   -0.1005    3.3332   -0.9794 H   0  0  0  0  0  0  0  0  0  0  0  0
    0.0034    1.3870   -0.0000 C   0  0  0  0  0  0  0  0  0  0  0  0
   -1.1863    0.6770    0.0016 C   0  0  0  0  0  0  0  0  0  0  0  0
   -2.0555    1.1687    0.0031 H   0  0  0  0  0  0  0  0  0  0  0  0
   -1.1872   -0.7013    0.0000 C   0  0  0  0  0  0  0  0  0  0  0  0
   -2.0696   -1.1954    0.0007 H   0  0  0  0  0  0  0  0  0  0  0  0
   -0.0057   -1.3734   -0.0011 C   0  0  0  0  0  0  0  0  0  0  0  0
    0.0057   -2.3803   -0.0032 H   0  0  0  0  0  0  0  0  0  0  0  0
    1.1872   -0.6786   -0.0000 C   0  0  0  0  0  0  0  0  0  0  0  0
    2.0711   -1.1876    0.0027 H   0  0  0  0  0  0  0  0  0  0  0  0
    1.1886    0.6892   -0.0004 C   0  0  0  0  0  0  0  0  0  0  0  0
    2.0589    1.1896   -0.0023 H   0  0  0  0  0  0  0  0  0  0  0  0
  1  5  1  0
  5  6  1  0
  5  7  2  0
  1  2  1  0
  1  3  1  0
  1  4  1  0
  8 12  1  0
 12 13  2  0
 13 15  1  0
 15 17  2  0
 17 19  1  0
 19 21  2  0
 21 12  1  0
  8  9  1  0
  8 10  1  0
  8 11  1  0
 13 14  1  0
 15 16  1  0
 17 18  1  0
 19 20  1  0
 21 22  1  0
M  CHG  1   6  -1
M  END
>  <PDB_ID>  (2238) 
pdb6d8w

>  <RESIDUE_NAME>  (2238) 
GLU   PHE

>  <FRAG_NAME>  (2238) 
ACET   MBZ

>  <FRAG_ATOM_NUM>  (2238) 
fragi: 7  fragj: 15

>  <atom.prop.CHAIN_ID>  (2238) 
A A A A A A A Z Z Z Z Z Z Z Z Z Z Z Z Z Z Z

>  <atom.prop.IS_HEAVY_ATOM>  (2238) 
1 0 0 0 1 1 1 1 0 0 0 1 1 0 1 0 1 0 1 0 1 0

>  <DIFUSE_FUNC_ATOM>  (2238) 
atom 6   atom 7   

>  <FINAL_SINGLE_POINT_ENERGY>  (2238) 
0

>  <NONCOV_INTER_ENERGY_QM>  (2238) 
0

>  <FF_Energy>  (2238) 
3.4

>  <QM_Energy>  (2238) 
-1.81

>  <source>  (2238) 
ACET_MBZ_02

>  <Index>  (2238) 
22457

$$$$
ACET-pdb6d8w-F-GLU-461:MBZ-pdb6d8w-F-PHE-467
     RDKit          3D

 22 21  0  0  0  0  0  0  0  0999 V2000
   -4.1316   -1.7171   -1.2204 C   0  0  0  0  0  0  0  0  0  0  0  0
   -3.2094   -1.5910   -0.8522 H   0  0  0  0  0  0  0  0  0  0  0  0
   -4.7944   -1.2855   -0.6068 H   0  0  0  0  0  0  0  0  0  0  0  0
   -4.1780   -1.1957   -2.1765 H   0  0  0  0  0  0  0  0  0  0  0  0
   -4.4185   -3.1859   -1.2424 C   0  0  0  0  0  0  0  0  0  0  0  0
   -4.6942   -3.8099   -2.2587 O   0  0  0  0  0  1  0  0  0  0  0  0
   -4.3573   -3.6997   -0.1080 O   0  0  0  0  0  0  0  0  0  0  0  0
   -0.0035    2.8781   -0.0070 C   0  0  0  0  0  0  0  0  0  0  0  0
    0.8601    3.1932    0.3612 H   0  0  0  0  0  0  0  0  0  0  0  0
   -0.7619    3.1888    0.5502 H   0  0  0  0  0  0  0  0  0  0  0  0
   -0.1200    3.3224   -0.9954 H   0  0  0  0  0  0  0  0  0  0  0  0
    0.0011    1.3870   -0.0062 C   0  0  0  0  0  0  0  0  0  0  0  0
   -1.1858    0.6804   -0.0037 C   0  0  0  0  0  0  0  0  0  0  0  0
   -2.0564    1.1765   -0.0063 H   0  0  0  0  0  0  0  0  0  0  0  0
   -1.1932   -0.6937    0.0000 C   0  0  0  0  0  0  0  0  0  0  0  0
   -2.0730   -1.1887   -0.0027 H   0  0  0  0  0  0  0  0  0  0  0  0
   -0.0057   -1.3782    0.0096 C   0  0  0  0  0  0  0  0  0  0  0  0
   -0.0028   -2.3821    0.0230 H   0  0  0  0  0  0  0  0  0  0  0  0
    1.1932   -0.6858   -0.0000 C   0  0  0  0  0  0  0  0  0  0  0  0
    2.0739   -1.1910   -0.0056 H   0  0  0  0  0  0  0  0  0  0  0  0
    1.1905    0.6903    0.0002 C   0  0  0  0  0  0  0  0  0  0  0  0
    2.0593    1.1905    0.0044 H   0  0  0  0  0  0  0  0  0  0  0  0
  1  5  1  0
  5  6  1  0
  5  7  2  0
  1  2  1  0
  1  3  1  0
  1  4  1  0
  8 12  1  0
 12 13  2  0
 13 15  1  0
 15 17  2  0
 17 19  1  0
 19 21  2  0
 21 12  1  0
  8  9  1  0
  8 10  1  0
  8 11  1  0
 13 14  1  0
 15 16  1  0
 17 18  1  0
 19 20  1  0
 21 22  1  0
M  CHG  1   6  -1
M  END
>  <PDB_ID>  (2239) 
pdb6d8w

>  <RESIDUE_NAME>  (2239) 
GLU   PHE

>  <FRAG_NAME>  (2239) 
ACET   MBZ

>  <FRAG_ATOM_NUM>  (2239) 
fragi: 7  fragj: 15

>  <atom.prop.CHAIN_ID>  (2239) 
A A A A A A A Z Z Z Z Z Z Z Z Z Z Z Z Z Z Z

>  <atom.prop.IS_HEAVY_ATOM>  (2239) 
1 0 0 0 1 1 1 1 0 0 0 1 1 0 1 0 1 0 1 0 1 0

>  <DIFUSE_FUNC_ATOM>  (2239) 
atom 6   atom 7   

>  <FINAL_SINGLE_POINT_ENERGY>  (2239) 
0

>  <NONCOV_INTER_ENERGY_QM>  (2239) 
0

>  <FF_Energy>  (2239) 
37.91

>  <QM_Energy>  (2239) 
2.62

>  <source>  (2239) 
ACET_MBZ_02

>  <Index>  (2239) 
22467

$$$$
ACET-pdb6d97-D-GLU-150:MBZ-pdb6d97-D-PHE-202
     RDKit          3D

 22 21  0  0  0  0  0  0  0  0999 V2000
   -4.5027    1.8905    0.0353 C   0  0  0  0  0  0  0  0  0  0  0  0
   -4.5244    2.3722    0.8923 H   0  0  0  0  0  0  0  0  0  0  0  0
   -3.9926    1.0517    0.0927 H   0  0  0  0  0  0  0  0  0  0  0  0
   -5.5275    1.6513   -0.2490 H   0  0  0  0  0  0  0  0  0  0  0  0
   -3.8033    2.7824   -0.9741 C   0  0  0  0  0  0  0  0  0  0  0  0
   -3.4707    3.9367   -0.6195 O   0  0  0  0  0  1  0  0  0  0  0  0
   -3.5951    2.3305   -2.1225 O   0  0  0  0  0  0  0  0  0  0  0  0
   -0.0010    2.9019   -0.0069 C   0  0  0  0  0  0  0  0  0  0  0  0
    0.8569    3.2087    0.3751 H   0  0  0  0  0  0  0  0  0  0  0  0
   -0.7677    3.2083    0.5364 H   0  0  0  0  0  0  0  0  0  0  0  0
   -0.1001    3.3364   -1.0016 H   0  0  0  0  0  0  0  0  0  0  0  0
    0.0002    1.3957   -0.0002 C   0  0  0  0  0  0  0  0  0  0  0  0
   -1.1925    0.6865   -0.0005 C   0  0  0  0  0  0  0  0  0  0  0  0
   -2.0609    1.1800   -0.0020 H   0  0  0  0  0  0  0  0  0  0  0  0
   -1.1967   -0.6940    0.0000 C   0  0  0  0  0  0  0  0  0  0  0  0
   -2.0742   -1.1905    0.0024 H   0  0  0  0  0  0  0  0  0  0  0  0
   -0.0004   -1.3863   -0.0009 C   0  0  0  0  0  0  0  0  0  0  0  0
   -0.0035   -2.3876   -0.0025 H   0  0  0  0  0  0  0  0  0  0  0  0
    1.1967   -0.6927    0.0000 C   0  0  0  0  0  0  0  0  0  0  0  0
    2.0792   -1.1928    0.0010 H   0  0  0  0  0  0  0  0  0  0  0  0
    1.1926    0.6907    0.0016 C   0  0  0  0  0  0  0  0  0  0  0  0
    2.0612    1.1891    0.0031 H   0  0  0  0  0  0  0  0  0  0  0  0
  1  5  1  0
  5  6  1  0
  5  7  2  0
  1  2  1  0
  1  3  1  0
  1  4  1  0
  8 12  1  0
 12 13  2  0
 13 15  1  0
 15 17  2  0
 17 19  1  0
 19 21  2  0
 21 12  1  0
  8  9  1  0
  8 10  1  0
  8 11  1  0
 13 14  1  0
 15 16  1  0
 17 18  1  0
 19 20  1  0
 21 22  1  0
M  CHG  1   6  -1
M  END
>  <PDB_ID>  (2240) 
pdb6d97

>  <RESIDUE_NAME>  (2240) 
GLU   PHE

>  <FRAG_NAME>  (2240) 
ACET   MBZ

>  <FRAG_ATOM_NUM>  (2240) 
fragi: 7  fragj: 15

>  <atom.prop.CHAIN_ID>  (2240) 
A A A A A A A Z Z Z Z Z Z Z Z Z Z Z Z Z Z Z

>  <atom.prop.IS_HEAVY_ATOM>  (2240) 
1 0 0 0 1 1 1 1 0 0 0 1 1 0 1 0 1 0 1 0 1 0

>  <DIFUSE_FUNC_ATOM>  (2240) 
atom 6   atom 7   

>  <FINAL_SINGLE_POINT_ENERGY>  (2240) 
0

>  <NONCOV_INTER_ENERGY_QM>  (2240) 
0

>  <FF_Energy>  (2240) 
0.84

>  <QM_Energy>  (2240) 
-5.03

>  <source>  (2240) 
ACET_MBZ_02

>  <Index>  (2240) 
22499

$$$$
ACET-pdb5d50-G-GLU-79:MBZ-pdb5d50-C-PHE-190
     RDKit          3D

 22 21  0  0  0  0  0  0  0  0999 V2000
   -4.2310   -1.3353   -1.8200 C   0  0  0  0  0  0  0  0  0  0  0  0
   -5.1158   -1.4686   -2.2348 H   0  0  0  0  0  0  0  0  0  0  0  0
   -4.1856   -1.7397   -0.9212 H   0  0  0  0  0  0  0  0  0  0  0  0
   -3.4841   -1.8187   -2.4499 H   0  0  0  0  0  0  0  0  0  0  0  0
   -4.0242    0.1652   -1.6558 C   0  0  0  0  0  0  0  0  0  0  0  0
   -3.3005    0.7826   -2.4732 O   0  0  0  0  0  1  0  0  0  0  0  0
   -4.6006    0.7407   -0.7022 O   0  0  0  0  0  0  0  0  0  0  0  0
    0.0071    2.9127   -0.0056 C   0  0  0  0  0  0  0  0  0  0  0  0
   -0.7255    3.2165   -0.5951 H   0  0  0  0  0  0  0  0  0  0  0  0
    0.8875    3.2115   -0.3418 H   0  0  0  0  0  0  0  0  0  0  0  0
   -0.1451    3.3648    0.9745 H   0  0  0  0  0  0  0  0  0  0  0  0
    0.0004    1.4030    0.0036 C   0  0  0  0  0  0  0  0  0  0  0  0
   -1.1931    0.6952   -0.0010 C   0  0  0  0  0  0  0  0  0  0  0  0
   -2.0613    1.1853   -0.0068 H   0  0  0  0  0  0  0  0  0  0  0  0
   -1.1976   -0.6936   -0.0000 C   0  0  0  0  0  0  0  0  0  0  0  0
   -2.0779   -1.1863    0.0030 H   0  0  0  0  0  0  0  0  0  0  0  0
   -0.0023   -1.3916   -0.0013 C   0  0  0  0  0  0  0  0  0  0  0  0
   -0.0079   -2.3904   -0.0040 H   0  0  0  0  0  0  0  0  0  0  0  0
    1.1976   -0.6987    0.0000 C   0  0  0  0  0  0  0  0  0  0  0  0
    2.0779   -1.1997    0.0029 H   0  0  0  0  0  0  0  0  0  0  0  0
    1.1950    0.6857   -0.0012 C   0  0  0  0  0  0  0  0  0  0  0  0
    2.0653    1.1833   -0.0067 H   0  0  0  0  0  0  0  0  0  0  0  0
  1  5  1  0
  5  6  1  0
  5  7  2  0
  1  2  1  0
  1  3  1  0
  1  4  1  0
  8 12  1  0
 12 13  2  0
 13 15  1  0
 15 17  2  0
 17 19  1  0
 19 21  2  0
 21 12  1  0
  8  9  1  0
  8 10  1  0
  8 11  1  0
 13 14  1  0
 15 16  1  0
 17 18  1  0
 19 20  1  0
 21 22  1  0
M  CHG  1   6  -1
M  END
>  <PDB_ID>  (2241) 
pdb5d50

>  <RESIDUE_NAME>  (2241) 
GLU   PHE

>  <FRAG_NAME>  (2241) 
ACET   MBZ

>  <FRAG_ATOM_NUM>  (2241) 
fragi: 7  fragj: 15

>  <atom.prop.CHAIN_ID>  (2241) 
A A A A A A A Z Z Z Z Z Z Z Z Z Z Z Z Z Z Z

>  <atom.prop.IS_HEAVY_ATOM>  (2241) 
1 0 0 0 1 1 1 1 0 0 0 1 1 0 1 0 1 0 1 0 1 0

>  <DIFUSE_FUNC_ATOM>  (2241) 
atom 6   atom 7   

>  <FINAL_SINGLE_POINT_ENERGY>  (2241) 
0

>  <NONCOV_INTER_ENERGY_QM>  (2241) 
0

>  <FF_Energy>  (2241) 
-0.93

>  <QM_Energy>  (2241) 
-6.13

>  <source>  (2241) 
ACET_MBZ_02

>  <Index>  (2241) 
22502

$$$$
ACET-pdb6dcd-A-ASP-163:MBZ-pdb6dcd-A-PHE-128
     RDKit          3D

 22 21  0  0  0  0  0  0  0  0999 V2000
    1.4727   -0.5676   -3.4353 C   0  0  0  0  0  0  0  0  0  0  0  0
    1.0529   -1.2299   -2.8277 H   0  0  0  0  0  0  0  0  0  0  0  0
    2.3858   -0.3357   -3.1262 H   0  0  0  0  0  0  0  0  0  0  0  0
    1.5520   -1.0167   -4.4253 H   0  0  0  0  0  0  0  0  0  0  0  0
    0.6256    0.6919   -3.4408 C   0  0  0  0  0  0  0  0  0  0  0  0
   -0.6157    0.5703   -3.4527 O   0  0  0  0  0  1  0  0  0  0  0  0
    1.2025    1.7985   -3.4509 O   0  0  0  0  0  0  0  0  0  0  0  0
    0.0006    2.9007   -0.0033 C   0  0  0  0  0  0  0  0  0  0  0  0
   -0.7714    3.2053   -0.5403 H   0  0  0  0  0  0  0  0  0  0  0  0
    0.8555    3.2051   -0.3979 H   0  0  0  0  0  0  0  0  0  0  0  0
   -0.0862    3.3467    0.9875 H   0  0  0  0  0  0  0  0  0  0  0  0
   -0.0001    1.3968    0.0019 C   0  0  0  0  0  0  0  0  0  0  0  0
   -1.1918    0.6919   -0.0017 C   0  0  0  0  0  0  0  0  0  0  0  0
   -2.0593    1.1828   -0.0067 H   0  0  0  0  0  0  0  0  0  0  0  0
   -1.1940   -0.6905    0.0000 C   0  0  0  0  0  0  0  0  0  0  0  0
   -2.0744   -1.1859    0.0024 H   0  0  0  0  0  0  0  0  0  0  0  0
   -0.0015   -1.3840    0.0001 C   0  0  0  0  0  0  0  0  0  0  0  0
   -0.0091   -2.3872   -0.0003 H   0  0  0  0  0  0  0  0  0  0  0  0
    1.1940   -0.6984   -0.0000 C   0  0  0  0  0  0  0  0  0  0  0  0
    2.0762   -1.1999    0.0015 H   0  0  0  0  0  0  0  0  0  0  0  0
    1.1935    0.6842   -0.0004 C   0  0  0  0  0  0  0  0  0  0  0  0
    2.0628    1.1814   -0.0030 H   0  0  0  0  0  0  0  0  0  0  0  0
  1  5  1  0
  5  6  1  0
  5  7  2  0
  1  2  1  0
  1  3  1  0
  1  4  1  0
  8 12  1  0
 12 13  2  0
 13 15  1  0
 15 17  2  0
 17 19  1  0
 19 21  2  0
 21 12  1  0
  8  9  1  0
  8 10  1  0
  8 11  1  0
 13 14  1  0
 15 16  1  0
 17 18  1  0
 19 20  1  0
 21 22  1  0
M  CHG  1   6  -1
M  END
>  <PDB_ID>  (2242) 
pdb6dcd

>  <RESIDUE_NAME>  (2242) 
ASP   PHE

>  <FRAG_NAME>  (2242) 
ACET   MBZ

>  <FRAG_ATOM_NUM>  (2242) 
fragi: 7  fragj: 15

>  <atom.prop.CHAIN_ID>  (2242) 
A A A A A A A Z Z Z Z Z Z Z Z Z Z Z Z Z Z Z

>  <atom.prop.IS_HEAVY_ATOM>  (2242) 
1 0 0 0 1 1 1 1 0 0 0 1 1 0 1 0 1 0 1 0 1 0

>  <DIFUSE_FUNC_ATOM>  (2242) 
atom 6   atom 7   

>  <FINAL_SINGLE_POINT_ENERGY>  (2242) 
0

>  <NONCOV_INTER_ENERGY_QM>  (2242) 
0

>  <FF_Energy>  (2242) 
2.33

>  <QM_Energy>  (2242) 
-2.75

>  <source>  (2242) 
ACET_MBZ_02

>  <Index>  (2242) 
22569

$$$$
ACET-pdb6dd9-D-GLU-126:MBZ-pdb6dd9-C-PHE-215
     RDKit          3D

 22 21  0  0  0  0  0  0  0  0999 V2000
   -2.6656    3.5050   -2.4290 C   0  0  0  0  0  0  0  0  0  0  0  0
   -2.3774    2.9786   -3.2089 H   0  0  0  0  0  0  0  0  0  0  0  0
   -1.9103    3.7471   -1.8463 H   0  0  0  0  0  0  0  0  0  0  0  0
   -3.1251    4.4247   -2.7911 H   0  0  0  0  0  0  0  0  0  0  0  0
   -3.6123    2.6315   -1.6117 C   0  0  0  0  0  0  0  0  0  0  0  0
   -4.0355    1.5633   -2.1150 O   0  0  0  0  0  1  0  0  0  0  0  0
   -3.9370    3.0183   -0.4699 O   0  0  0  0  0  0  0  0  0  0  0  0
   -0.0072    2.8962   -0.0244 C   0  0  0  0  0  0  0  0  0  0  0  0
   -0.8205    3.1928   -0.5240 H   0  0  0  0  0  0  0  0  0  0  0  0
    0.8118    3.2030   -0.5085 H   0  0  0  0  0  0  0  0  0  0  0  0
   -0.0195    3.3891    0.9476 H   0  0  0  0  0  0  0  0  0  0  0  0
    0.0021    1.3990   -0.0075 C   0  0  0  0  0  0  0  0  0  0  0  0
   -1.1990    0.6913   -0.0086 C   0  0  0  0  0  0  0  0  0  0  0  0
   -2.0641    1.1942   -0.0166 H   0  0  0  0  0  0  0  0  0  0  0  0
   -1.2189   -0.6920   -0.0000 C   0  0  0  0  0  0  0  0  0  0  0  0
   -2.0880   -1.1861   -0.0105 H   0  0  0  0  0  0  0  0  0  0  0  0
   -0.0065   -1.3908    0.0250 C   0  0  0  0  0  0  0  0  0  0  0  0
   -0.0122   -2.3896    0.0614 H   0  0  0  0  0  0  0  0  0  0  0  0
    1.2189   -0.7008   -0.0000 C   0  0  0  0  0  0  0  0  0  0  0  0
    2.0849   -1.2005   -0.0093 H   0  0  0  0  0  0  0  0  0  0  0  0
    1.2033    0.6932   -0.0090 C   0  0  0  0  0  0  0  0  0  0  0  0
    2.0694    1.1947   -0.0184 H   0  0  0  0  0  0  0  0  0  0  0  0
  1  5  1  0
  5  6  1  0
  5  7  2  0
  1  2  1  0
  1  3  1  0
  1  4  1  0
  8 12  1  0
 12 13  2  0
 13 15  1  0
 15 17  2  0
 17 19  1  0
 19 21  2  0
 21 12  1  0
  8  9  1  0
  8 10  1  0
  8 11  1  0
 13 14  1  0
 15 16  1  0
 17 18  1  0
 19 20  1  0
 21 22  1  0
M  CHG  1   6  -1
M  END
>  <PDB_ID>  (2243) 
pdb6dd9

>  <RESIDUE_NAME>  (2243) 
GLU   PHE

>  <FRAG_NAME>  (2243) 
ACET   MBZ

>  <FRAG_ATOM_NUM>  (2243) 
fragi: 7  fragj: 15

>  <atom.prop.CHAIN_ID>  (2243) 
A A A A A A A Z Z Z Z Z Z Z Z Z Z Z Z Z Z Z

>  <atom.prop.IS_HEAVY_ATOM>  (2243) 
1 0 0 0 1 1 1 1 0 0 0 1 1 0 1 0 1 0 1 0 1 0

>  <DIFUSE_FUNC_ATOM>  (2243) 
atom 6   atom 7   

>  <FINAL_SINGLE_POINT_ENERGY>  (2243) 
0

>  <NONCOV_INTER_ENERGY_QM>  (2243) 
0

>  <FF_Energy>  (2243) 
0.51

>  <QM_Energy>  (2243) 
-5.57

>  <source>  (2243) 
ACET_MBZ_02

>  <Index>  (2243) 
22612

$$$$
ACET-pdb5dac-A-GLU-45:MBZ-pdb5dac-A-PHE-65
     RDKit          3D

 22 21  0  0  0  0  0  0  0  0999 V2000
   -4.7243   -2.7294   -2.1705 C   0  0  0  0  0  0  0  0  0  0  0  0
   -4.6855   -2.4221   -3.1009 H   0  0  0  0  0  0  0  0  0  0  0  0
   -5.4392   -3.3827   -2.0178 H   0  0  0  0  0  0  0  0  0  0  0  0
   -3.7666   -3.1737   -1.8992 H   0  0  0  0  0  0  0  0  0  0  0  0
   -5.0232   -1.5290   -1.3129 C   0  0  0  0  0  0  0  0  0  0  0  0
   -4.1942   -1.2213   -0.4287 O   0  0  0  0  0  1  0  0  0  0  0  0
   -6.0731   -0.8915   -1.5205 O   0  0  0  0  0  0  0  0  0  0  0  0
    0.0122    2.9123   -0.0329 C   0  0  0  0  0  0  0  0  0  0  0  0
   -0.3877    3.1925   -0.8941 H   0  0  0  0  0  0  0  0  0  0  0  0
    0.9558    3.2058    0.0350 H   0  0  0  0  0  0  0  0  0  0  0  0
   -0.5489    3.3881    0.7714 H   0  0  0  0  0  0  0  0  0  0  0  0
   -0.0003    1.3965    0.0067 C   0  0  0  0  0  0  0  0  0  0  0  0
   -1.1869    0.6942   -0.0088 C   0  0  0  0  0  0  0  0  0  0  0  0
   -2.0561    1.1825   -0.0280 H   0  0  0  0  0  0  0  0  0  0  0  0
   -1.1868   -0.6877    0.0000 C   0  0  0  0  0  0  0  0  0  0  0  0
   -2.0690   -1.1829    0.0043 H   0  0  0  0  0  0  0  0  0  0  0  0
    0.0017   -1.3818    0.0046 C   0  0  0  0  0  0  0  0  0  0  0  0
   -0.0109   -2.3865    0.0105 H   0  0  0  0  0  0  0  0  0  0  0  0
    1.1868   -0.7014    0.0000 C   0  0  0  0  0  0  0  0  0  0  0  0
    2.0732   -1.1985    0.0002 H   0  0  0  0  0  0  0  0  0  0  0  0
    1.1854    0.6802   -0.0025 C   0  0  0  0  0  0  0  0  0  0  0  0
    2.0596    1.1764   -0.0122 H   0  0  0  0  0  0  0  0  0  0  0  0
  1  5  1  0
  5  6  1  0
  5  7  2  0
  1  2  1  0
  1  3  1  0
  1  4  1  0
  8 12  1  0
 12 13  2  0
 13 15  1  0
 15 17  2  0
 17 19  1  0
 19 21  2  0
 21 12  1  0
  8  9  1  0
  8 10  1  0
  8 11  1  0
 13 14  1  0
 15 16  1  0
 17 18  1  0
 19 20  1  0
 21 22  1  0
M  CHG  1   6  -1
M  END
>  <PDB_ID>  (2244) 
pdb5dac

>  <RESIDUE_NAME>  (2244) 
GLU   PHE

>  <FRAG_NAME>  (2244) 
ACET   MBZ

>  <FRAG_ATOM_NUM>  (2244) 
fragi: 7  fragj: 15

>  <atom.prop.CHAIN_ID>  (2244) 
A A A A A A A Z Z Z Z Z Z Z Z Z Z Z Z Z Z Z

>  <atom.prop.IS_HEAVY_ATOM>  (2244) 
1 0 0 0 1 1 1 1 0 0 0 1 1 0 1 0 1 0 1 0 1 0

>  <DIFUSE_FUNC_ATOM>  (2244) 
atom 6   atom 7   

>  <FINAL_SINGLE_POINT_ENERGY>  (2244) 
0

>  <NONCOV_INTER_ENERGY_QM>  (2244) 
0

>  <FF_Energy>  (2244) 
-0.36

>  <QM_Energy>  (2244) 
-6.32

>  <source>  (2244) 
ACET_MBZ_02

>  <Index>  (2244) 
22671

$$$$
ACET-pdb6dei-B-ASP-99:MBZ-pdb6dei-D-PHE-77
     RDKit          3D

 22 21  0  0  0  0  0  0  0  0999 V2000
   -0.4214    0.3900    3.4894 C   0  0  0  0  0  0  0  0  0  0  0  0
    0.3012    0.3797    4.1371 H   0  0  0  0  0  0  0  0  0  0  0  0
   -0.1164    0.0177    2.6477 H   0  0  0  0  0  0  0  0  0  0  0  0
   -1.2445   -0.2161    3.8677 H   0  0  0  0  0  0  0  0  0  0  0  0
   -0.8122    1.8469    3.2453 C   0  0  0  0  0  0  0  0  0  0  0  0
   -2.0114    2.1426    3.0861 O   0  0  0  0  0  1  0  0  0  0  0  0
    0.0960    2.6949    3.1947 O   0  0  0  0  0  0  0  0  0  0  0  0
   -0.0081    2.8923   -0.0018 C   0  0  0  0  0  0  0  0  0  0  0  0
    0.8545    3.1924    0.3245 H   0  0  0  0  0  0  0  0  0  0  0  0
   -0.7106    3.1871    0.5992 H   0  0  0  0  0  0  0  0  0  0  0  0
   -0.1829    3.3262   -0.9864 H   0  0  0  0  0  0  0  0  0  0  0  0
   -0.0041    1.3969   -0.0021 C   0  0  0  0  0  0  0  0  0  0  0  0
   -1.1981    0.6827    0.0001 C   0  0  0  0  0  0  0  0  0  0  0  0
   -2.0080    1.1410    0.0007 H   0  0  0  0  0  0  0  0  0  0  0  0
   -1.1953   -0.6939   -0.0000 C   0  0  0  0  0  0  0  0  0  0  0  0
   -1.9992   -1.1601   -0.0029 H   0  0  0  0  0  0  0  0  0  0  0  0
    0.0073   -1.3843    0.0031 C   0  0  0  0  0  0  0  0  0  0  0  0
    0.0091   -2.3145    0.0074 H   0  0  0  0  0  0  0  0  0  0  0  0
    1.1953   -0.6954   -0.0000 C   0  0  0  0  0  0  0  0  0  0  0  0
    2.0019   -1.1598   -0.0020 H   0  0  0  0  0  0  0  0  0  0  0  0
    1.1949    0.6940   -0.0010 C   0  0  0  0  0  0  0  0  0  0  0  0
    2.0022    1.1566   -0.0016 H   0  0  0  0  0  0  0  0  0  0  0  0
  1  5  1  0
  5  6  1  0
  5  7  2  0
  1  2  1  0
  1  3  1  0
  1  4  1  0
  8 12  1  0
 12 13  2  0
 13 15  1  0
 15 17  2  0
 17 19  1  0
 19 21  2  0
 21 12  1  0
  8  9  1  0
  8 10  1  0
  8 11  1  0
 13 14  1  0
 15 16  1  0
 17 18  1  0
 19 20  1  0
 21 22  1  0
M  CHG  1   6  -1
M  END
>  <PDB_ID>  (2245) 
pdb6dei

>  <RESIDUE_NAME>  (2245) 
ASP   PHE

>  <FRAG_NAME>  (2245) 
ACET   MBZ

>  <FRAG_ATOM_NUM>  (2245) 
fragi: 7  fragj: 15

>  <atom.prop.CHAIN_ID>  (2245) 
A A A A A A A Z Z Z Z Z Z Z Z Z Z Z Z Z Z Z

>  <atom.prop.IS_HEAVY_ATOM>  (2245) 
1 0 0 0 1 1 1 1 0 0 0 1 1 0 1 0 1 0 1 0 1 0

>  <DIFUSE_FUNC_ATOM>  (2245) 
atom 6   atom 7   

>  <FINAL_SINGLE_POINT_ENERGY>  (2245) 
0

>  <NONCOV_INTER_ENERGY_QM>  (2245) 
0

>  <FF_Energy>  (2245) 
0.11

>  <QM_Energy>  (2245) 
-7.02

>  <source>  (2245) 
ACET_MBZ_02

>  <Index>  (2245) 
22698

$$$$
ACET-pdb6dex-A-GLU-156:MBZ-pdb6dex-A-PHE-142
     RDKit          3D

 22 21  0  0  0  0  0  0  0  0999 V2000
    2.9957    1.4587    3.6045 C   0  0  0  0  0  0  0  0  0  0  0  0
    3.9549    1.4497    3.7463 H   0  0  0  0  0  0  0  0  0  0  0  0
    2.7294    0.6812    3.0893 H   0  0  0  0  0  0  0  0  0  0  0  0
    2.4887    1.4408    4.5693 H   0  0  0  0  0  0  0  0  0  0  0  0
    2.6435    2.7012    2.8085 C   0  0  0  0  0  0  0  0  0  0  0  0
    1.5488    3.2586    3.0380 O   0  0  0  0  0  1  0  0  0  0  0  0
    3.4638    3.1382    1.9754 O   0  0  0  0  0  0  0  0  0  0  0  0
   -0.0027    2.9049   -0.0290 C   0  0  0  0  0  0  0  0  0  0  0  0
    0.7281    3.2123    0.5286 H   0  0  0  0  0  0  0  0  0  0  0  0
   -0.8492    3.2064    0.3365 H   0  0  0  0  0  0  0  0  0  0  0  0
    0.1176    3.3242   -1.0279 H   0  0  0  0  0  0  0  0  0  0  0  0
   -0.0004    1.3930   -0.0039 C   0  0  0  0  0  0  0  0  0  0  0  0
   -1.1943    0.6803   -0.0052 C   0  0  0  0  0  0  0  0  0  0  0  0
   -2.0038    1.1391   -0.0109 H   0  0  0  0  0  0  0  0  0  0  0  0
   -1.1937   -0.6903   -0.0000 C   0  0  0  0  0  0  0  0  0  0  0  0
   -1.9980   -1.1554   -0.0033 H   0  0  0  0  0  0  0  0  0  0  0  0
    0.0031   -1.3800    0.0118 C   0  0  0  0  0  0  0  0  0  0  0  0
    0.0035   -2.3092    0.0278 H   0  0  0  0  0  0  0  0  0  0  0  0
    1.1937   -0.6909   -0.0000 C   0  0  0  0  0  0  0  0  0  0  0  0
    1.9992   -1.1553   -0.0074 H   0  0  0  0  0  0  0  0  0  0  0  0
    1.1916    0.6879   -0.0026 C   0  0  0  0  0  0  0  0  0  0  0  0
    1.9985    1.1493   -0.0038 H   0  0  0  0  0  0  0  0  0  0  0  0
  1  5  1  0
  5  6  1  0
  5  7  2  0
  1  2  1  0
  1  3  1  0
  1  4  1  0
  8 12  1  0
 12 13  2  0
 13 15  1  0
 15 17  2  0
 17 19  1  0
 19 21  2  0
 21 12  1  0
  8  9  1  0
  8 10  1  0
  8 11  1  0
 13 14  1  0
 15 16  1  0
 17 18  1  0
 19 20  1  0
 21 22  1  0
M  CHG  1   6  -1
M  END
>  <PDB_ID>  (2246) 
pdb6dex

>  <RESIDUE_NAME>  (2246) 
GLU   PHE

>  <FRAG_NAME>  (2246) 
ACET   MBZ

>  <FRAG_ATOM_NUM>  (2246) 
fragi: 7  fragj: 15

>  <atom.prop.CHAIN_ID>  (2246) 
A A A A A A A Z Z Z Z Z Z Z Z Z Z Z Z Z Z Z

>  <atom.prop.IS_HEAVY_ATOM>  (2246) 
1 0 0 0 1 1 1 1 0 0 0 1 1 0 1 0 1 0 1 0 1 0

>  <DIFUSE_FUNC_ATOM>  (2246) 
atom 6   atom 7   

>  <FINAL_SINGLE_POINT_ENERGY>  (2246) 
0

>  <NONCOV_INTER_ENERGY_QM>  (2246) 
0

>  <FF_Energy>  (2246) 
-1.59

>  <QM_Energy>  (2246) 
-6.83

>  <source>  (2246) 
ACET_MBZ_02

>  <Index>  (2246) 
22714

$$$$
ACET-pdb5de0-A-ASP-94:MBZ-pdb5de0-A-PHE-63
     RDKit          3D

 22 21  0  0  0  0  0  0  0  0999 V2000
   -1.5556    2.2117   -3.2040 C   0  0  0  0  0  0  0  0  0  0  0  0
   -1.8208    1.7531   -4.0433 H   0  0  0  0  0  0  0  0  0  0  0  0
   -0.9787    1.6237   -2.6510 H   0  0  0  0  0  0  0  0  0  0  0  0
   -0.9778    3.0964   -3.4713 H   0  0  0  0  0  0  0  0  0  0  0  0
   -2.8078    2.5504   -2.4163 C   0  0  0  0  0  0  0  0  0  0  0  0
   -2.8548    3.6482   -1.8200 O   0  0  0  0  0  1  0  0  0  0  0  0
   -3.7417    1.7206   -2.3896 O   0  0  0  0  0  0  0  0  0  0  0  0
   -0.0029    2.8987    0.0022 C   0  0  0  0  0  0  0  0  0  0  0  0
   -0.6835    3.2043   -0.6459 H   0  0  0  0  0  0  0  0  0  0  0  0
    0.9013    3.2072   -0.2515 H   0  0  0  0  0  0  0  0  0  0  0  0
   -0.2444    3.3359    0.9710 H   0  0  0  0  0  0  0  0  0  0  0  0
   -0.0000    1.3953   -0.0002 C   0  0  0  0  0  0  0  0  0  0  0  0
   -1.1915    0.6885   -0.0004 C   0  0  0  0  0  0  0  0  0  0  0  0
   -2.0600    1.1807   -0.0017 H   0  0  0  0  0  0  0  0  0  0  0  0
   -1.1949   -0.6926    0.0000 C   0  0  0  0  0  0  0  0  0  0  0  0
   -2.0740   -1.1894    0.0016 H   0  0  0  0  0  0  0  0  0  0  0  0
   -0.0006   -1.3856    0.0005 C   0  0  0  0  0  0  0  0  0  0  0  0
   -0.0051   -2.3872    0.0011 H   0  0  0  0  0  0  0  0  0  0  0  0
    1.1949   -0.6940   -0.0000 C   0  0  0  0  0  0  0  0  0  0  0  0
    2.0775   -1.1945    0.0008 H   0  0  0  0  0  0  0  0  0  0  0  0
    1.1921    0.6884    0.0001 C   0  0  0  0  0  0  0  0  0  0  0  0
    2.0618    1.1863   -0.0007 H   0  0  0  0  0  0  0  0  0  0  0  0
  1  5  1  0
  5  6  1  0
  5  7  2  0
  1  2  1  0
  1  3  1  0
  1  4  1  0
  8 12  1  0
 12 13  2  0
 13 15  1  0
 15 17  2  0
 17 19  1  0
 19 21  2  0
 21 12  1  0
  8  9  1  0
  8 10  1  0
  8 11  1  0
 13 14  1  0
 15 16  1  0
 17 18  1  0
 19 20  1  0
 21 22  1  0
M  CHG  1   6  -1
M  END
>  <PDB_ID>  (2247) 
pdb5de0

>  <RESIDUE_NAME>  (2247) 
ASP   PHE

>  <FRAG_NAME>  (2247) 
ACET   MBZ

>  <FRAG_ATOM_NUM>  (2247) 
fragi: 7  fragj: 15

>  <atom.prop.CHAIN_ID>  (2247) 
A A A A A A A Z Z Z Z Z Z Z Z Z Z Z Z Z Z Z

>  <atom.prop.IS_HEAVY_ATOM>  (2247) 
1 0 0 0 1 1 1 1 0 0 0 1 1 0 1 0 1 0 1 0 1 0

>  <DIFUSE_FUNC_ATOM>  (2247) 
atom 6   atom 7   

>  <FINAL_SINGLE_POINT_ENERGY>  (2247) 
0

>  <NONCOV_INTER_ENERGY_QM>  (2247) 
0

>  <FF_Energy>  (2247) 
-2.04

>  <QM_Energy>  (2247) 
-7.46

>  <source>  (2247) 
ACET_MBZ_02

>  <Index>  (2247) 
22790

$$$$
ACET-pdb6dfz-B-GLU-95:MBZ-pdb6dfz-B-PHE-100
     RDKit          3D

 22 21  0  0  0  0  0  0  0  0999 V2000
    3.4833    4.8290    0.5106 C   0  0  0  0  0  0  0  0  0  0  0  0
    2.6254    4.8894    0.9895 H   0  0  0  0  0  0  0  0  0  0  0  0
    3.4517    5.2816   -0.3629 H   0  0  0  0  0  0  0  0  0  0  0  0
    4.2500    5.3085    1.1193 H   0  0  0  0  0  0  0  0  0  0  0  0
    3.7591    3.3567    0.2517 C   0  0  0  0  0  0  0  0  0  0  0  0
    3.7705    2.5627    1.2305 O   0  0  0  0  0  1  0  0  0  0  0  0
    3.9575    2.9859   -0.9293 O   0  0  0  0  0  0  0  0  0  0  0  0
   -0.0005    2.9062   -0.0003 C   0  0  0  0  0  0  0  0  0  0  0  0
    0.9396    3.2141    0.0022 H   0  0  0  0  0  0  0  0  0  0  0  0
   -0.4798    3.2115    0.8098 H   0  0  0  0  0  0  0  0  0  0  0  0
   -0.4933    3.3505   -0.8651 H   0  0  0  0  0  0  0  0  0  0  0  0
    0.0012    1.4019   -0.0011 C   0  0  0  0  0  0  0  0  0  0  0  0
   -1.1963    0.6910    0.0137 C   0  0  0  0  0  0  0  0  0  0  0  0
   -2.0626    1.1830    0.0331 H   0  0  0  0  0  0  0  0  0  0  0  0
   -1.1979   -0.6935    0.0000 C   0  0  0  0  0  0  0  0  0  0  0  0
   -2.0752   -1.1899   -0.0062 H   0  0  0  0  0  0  0  0  0  0  0  0
   -0.0004   -1.3873   -0.0030 C   0  0  0  0  0  0  0  0  0  0  0  0
   -0.0085   -2.3901   -0.0077 H   0  0  0  0  0  0  0  0  0  0  0  0
    1.1979   -0.7021    0.0000 C   0  0  0  0  0  0  0  0  0  0  0  0
    2.0782   -1.1989    0.0104 H   0  0  0  0  0  0  0  0  0  0  0  0
    1.1955    0.6899   -0.0095 C   0  0  0  0  0  0  0  0  0  0  0  0
    2.0658    1.1842   -0.0235 H   0  0  0  0  0  0  0  0  0  0  0  0
  1  5  1  0
  5  6  1  0
  5  7  2  0
  1  2  1  0
  1  3  1  0
  1  4  1  0
  8 12  1  0
 12 13  2  0
 13 15  1  0
 15 17  2  0
 17 19  1  0
 19 21  2  0
 21 12  1  0
  8  9  1  0
  8 10  1  0
  8 11  1  0
 13 14  1  0
 15 16  1  0
 17 18  1  0
 19 20  1  0
 21 22  1  0
M  CHG  1   6  -1
M  END
>  <PDB_ID>  (2248) 
pdb6dfz

>  <RESIDUE_NAME>  (2248) 
GLU   PHE

>  <FRAG_NAME>  (2248) 
ACET   MBZ

>  <FRAG_ATOM_NUM>  (2248) 
fragi: 7  fragj: 15

>  <atom.prop.CHAIN_ID>  (2248) 
A A A A A A A Z Z Z Z Z Z Z Z Z Z Z Z Z Z Z

>  <atom.prop.IS_HEAVY_ATOM>  (2248) 
1 0 0 0 1 1 1 1 0 0 0 1 1 0 1 0 1 0 1 0 1 0

>  <DIFUSE_FUNC_ATOM>  (2248) 
atom 6   atom 7   

>  <FINAL_SINGLE_POINT_ENERGY>  (2248) 
0

>  <NONCOV_INTER_ENERGY_QM>  (2248) 
0

>  <FF_Energy>  (2248) 
-2.58

>  <QM_Energy>  (2248) 
-7.99

>  <source>  (2248) 
ACET_MBZ_02

>  <Index>  (2248) 
22815

$$$$
ACET-pdb6dfz-C-GLU-95:MBZ-pdb6dfz-C-PHE-100
     RDKit          3D

 22 21  0  0  0  0  0  0  0  0999 V2000
    3.4620    4.8474    0.5308 C   0  0  0  0  0  0  0  0  0  0  0  0
    2.5876    4.9029    0.9867 H   0  0  0  0  0  0  0  0  0  0  0  0
    3.4394    5.2942   -0.3494 H   0  0  0  0  0  0  0  0  0  0  0  0
    4.2067    5.3444    1.1525 H   0  0  0  0  0  0  0  0  0  0  0  0
    3.7521    3.3770    0.2840 C   0  0  0  0  0  0  0  0  0  0  0  0
    3.7486    2.5888    1.2559 O   0  0  0  0  0  1  0  0  0  0  0  0
    3.9687    3.0079   -0.8856 O   0  0  0  0  0  0  0  0  0  0  0  0
   -0.0034    2.9062   -0.0066 C   0  0  0  0  0  0  0  0  0  0  0  0
    0.9363    3.2122    0.0044 H   0  0  0  0  0  0  0  0  0  0  0  0
   -0.4918    3.2148    0.7957 H   0  0  0  0  0  0  0  0  0  0  0  0
   -0.4873    3.3433   -0.8800 H   0  0  0  0  0  0  0  0  0  0  0  0
   -0.0019    1.3996    0.0002 C   0  0  0  0  0  0  0  0  0  0  0  0
   -1.1978    0.6865    0.0083 C   0  0  0  0  0  0  0  0  0  0  0  0
   -2.0651    1.1809    0.0188 H   0  0  0  0  0  0  0  0  0  0  0  0
   -1.2008   -0.6946    0.0000 C   0  0  0  0  0  0  0  0  0  0  0  0
   -2.0761   -1.1933   -0.0063 H   0  0  0  0  0  0  0  0  0  0  0  0
    0.0001   -1.3858    0.0022 C   0  0  0  0  0  0  0  0  0  0  0  0
   -0.0047   -2.3889    0.0048 H   0  0  0  0  0  0  0  0  0  0  0  0
    1.2008   -0.6965   -0.0000 C   0  0  0  0  0  0  0  0  0  0  0  0
    2.0809   -1.1973    0.0080 H   0  0  0  0  0  0  0  0  0  0  0  0
    1.1995    0.6908   -0.0107 C   0  0  0  0  0  0  0  0  0  0  0  0
    2.0644    1.1890   -0.0268 H   0  0  0  0  0  0  0  0  0  0  0  0
  1  5  1  0
  5  6  1  0
  5  7  2  0
  1  2  1  0
  1  3  1  0
  1  4  1  0
  8 12  1  0
 12 13  2  0
 13 15  1  0
 15 17  2  0
 17 19  1  0
 19 21  2  0
 21 12  1  0
  8  9  1  0
  8 10  1  0
  8 11  1  0
 13 14  1  0
 15 16  1  0
 17 18  1  0
 19 20  1  0
 21 22  1  0
M  CHG  1   6  -1
M  END
>  <PDB_ID>  (2249) 
pdb6dfz

>  <RESIDUE_NAME>  (2249) 
GLU   PHE

>  <FRAG_NAME>  (2249) 
ACET   MBZ

>  <FRAG_ATOM_NUM>  (2249) 
fragi: 7  fragj: 15

>  <atom.prop.CHAIN_ID>  (2249) 
A A A A A A A Z Z Z Z Z Z Z Z Z Z Z Z Z Z Z

>  <atom.prop.IS_HEAVY_ATOM>  (2249) 
1 0 0 0 1 1 1 1 0 0 0 1 1 0 1 0 1 0 1 0 1 0

>  <DIFUSE_FUNC_ATOM>  (2249) 
atom 6   atom 7   

>  <FINAL_SINGLE_POINT_ENERGY>  (2249) 
0

>  <NONCOV_INTER_ENERGY_QM>  (2249) 
0

>  <FF_Energy>  (2249) 
-2.1

>  <QM_Energy>  (2249) 
-8.0

>  <source>  (2249) 
ACET_MBZ_02

>  <Index>  (2249) 
22822

$$$$
ACET-pdb6dmf-A-GLU-231:MBZ-pdb6dmf-A-PHE-175
     RDKit          3D

 22 21  0  0  0  0  0  0  0  0999 V2000
   -0.2516    0.4603    3.8554 C   0  0  0  0  0  0  0  0  0  0  0  0
    0.1433    0.3666    4.7626 H   0  0  0  0  0  0  0  0  0  0  0  0
    0.3408    0.0412    3.1751 H   0  0  0  0  0  0  0  0  0  0  0  0
   -1.2066   -0.0651    3.8452 H   0  0  0  0  0  0  0  0  0  0  0  0
   -0.3163    1.9471    3.5424 C   0  0  0  0  0  0  0  0  0  0  0  0
   -1.3932    2.4195    3.1117 O   0  0  0  0  0  1  0  0  0  0  0  0
    0.7100    2.6322    3.7382 O   0  0  0  0  0  0  0  0  0  0  0  0
    0.0009    2.9107    0.0014 C   0  0  0  0  0  0  0  0  0  0  0  0
    0.9404    3.2128    0.1045 H   0  0  0  0  0  0  0  0  0  0  0  0
   -0.5521    3.2125    0.7683 H   0  0  0  0  0  0  0  0  0  0  0  0
   -0.4011    3.3712   -0.9010 H   0  0  0  0  0  0  0  0  0  0  0  0
   -0.0002    1.4019   -0.0022 C   0  0  0  0  0  0  0  0  0  0  0  0
   -1.1923    0.6919   -0.0012 C   0  0  0  0  0  0  0  0  0  0  0  0
   -2.0609    1.1783   -0.0024 H   0  0  0  0  0  0  0  0  0  0  0  0
   -1.1905   -0.6970   -0.0000 C   0  0  0  0  0  0  0  0  0  0  0  0
   -2.0714   -1.1912    0.0029 H   0  0  0  0  0  0  0  0  0  0  0  0
    0.0014   -1.3881   -0.0012 C   0  0  0  0  0  0  0  0  0  0  0  0
   -0.0032   -2.3901   -0.0036 H   0  0  0  0  0  0  0  0  0  0  0  0
    1.1905   -0.6976    0.0000 C   0  0  0  0  0  0  0  0  0  0  0  0
    2.0773   -1.1957   -0.0011 H   0  0  0  0  0  0  0  0  0  0  0  0
    1.1911    0.6889    0.0046 C   0  0  0  0  0  0  0  0  0  0  0  0
    2.0624    1.1828    0.0122 H   0  0  0  0  0  0  0  0  0  0  0  0
  1  5  1  0
  5  6  1  0
  5  7  2  0
  1  2  1  0
  1  3  1  0
  1  4  1  0
  8 12  1  0
 12 13  2  0
 13 15  1  0
 15 17  2  0
 17 19  1  0
 19 21  2  0
 21 12  1  0
  8  9  1  0
  8 10  1  0
  8 11  1  0
 13 14  1  0
 15 16  1  0
 17 18  1  0
 19 20  1  0
 21 22  1  0
M  CHG  1   6  -1
M  END
>  <PDB_ID>  (2250) 
pdb6dmf

>  <RESIDUE_NAME>  (2250) 
GLU   PHE

>  <FRAG_NAME>  (2250) 
ACET   MBZ

>  <FRAG_ATOM_NUM>  (2250) 
fragi: 7  fragj: 15

>  <atom.prop.CHAIN_ID>  (2250) 
A A A A A A A Z Z Z Z Z Z Z Z Z Z Z Z Z Z Z

>  <atom.prop.IS_HEAVY_ATOM>  (2250) 
1 0 0 0 1 1 1 1 0 0 0 1 1 0 1 0 1 0 1 0 1 0

>  <DIFUSE_FUNC_ATOM>  (2250) 
atom 6   atom 7   

>  <FINAL_SINGLE_POINT_ENERGY>  (2250) 
0

>  <NONCOV_INTER_ENERGY_QM>  (2250) 
0

>  <FF_Energy>  (2250) 
-0.24

>  <QM_Energy>  (2250) 
-6.19

>  <source>  (2250) 
ACET_MBZ_02

>  <Index>  (2250) 
23173

$$$$
ACET-pdb5dmy-B-ASP-626:MBZ-pdb5dmy-B-PHE-630
     RDKit          3D

 22 21  0  0  0  0  0  0  0  0999 V2000
    3.1992    5.4374   -3.2336 C   0  0  0  0  0  0  0  0  0  0  0  0
    4.0704    5.1802   -3.6418 H   0  0  0  0  0  0  0  0  0  0  0  0
    3.3410    6.1300   -2.5330 H   0  0  0  0  0  0  0  0  0  0  0  0
    2.5839    5.8794   -4.0172 H   0  0  0  0  0  0  0  0  0  0  0  0
    2.5834    4.1953   -2.5758 C   0  0  0  0  0  0  0  0  0  0  0  0
    1.5882    3.6095   -3.0819 O   0  0  0  0  0  1  0  0  0  0  0  0
    3.1428    3.7726   -1.5294 O   0  0  0  0  0  0  0  0  0  0  0  0
    0.0170    2.9085   -0.0073 C   0  0  0  0  0  0  0  0  0  0  0  0
    0.8720    3.2015   -0.4093 H   0  0  0  0  0  0  0  0  0  0  0  0
   -0.0621    3.2145    0.9298 H   0  0  0  0  0  0  0  0  0  0  0  0
   -0.7928    3.3655   -0.5763 H   0  0  0  0  0  0  0  0  0  0  0  0
    0.0011    1.3964   -0.0036 C   0  0  0  0  0  0  0  0  0  0  0  0
   -1.1890    0.6926   -0.0022 C   0  0  0  0  0  0  0  0  0  0  0  0
   -2.0581    1.1809   -0.0038 H   0  0  0  0  0  0  0  0  0  0  0  0
   -1.1951   -0.6975   -0.0000 C   0  0  0  0  0  0  0  0  0  0  0  0
   -2.0743   -1.1886    0.0015 H   0  0  0  0  0  0  0  0  0  0  0  0
   -0.0008   -1.3906    0.0023 C   0  0  0  0  0  0  0  0  0  0  0  0
   -0.0015   -2.3893    0.0054 H   0  0  0  0  0  0  0  0  0  0  0  0
    1.1951   -0.6920    0.0000 C   0  0  0  0  0  0  0  0  0  0  0  0
    2.0789   -1.1903   -0.0030 H   0  0  0  0  0  0  0  0  0  0  0  0
    1.1887    0.6910    0.0035 C   0  0  0  0  0  0  0  0  0  0  0  0
    2.0604    1.1888    0.0103 H   0  0  0  0  0  0  0  0  0  0  0  0
  1  5  1  0
  5  6  1  0
  5  7  2  0
  1  2  1  0
  1  3  1  0
  1  4  1  0
  8 12  1  0
 12 13  2  0
 13 15  1  0
 15 17  2  0
 17 19  1  0
 19 21  2  0
 21 12  1  0
  8  9  1  0
  8 10  1  0
  8 11  1  0
 13 14  1  0
 15 16  1  0
 17 18  1  0
 19 20  1  0
 21 22  1  0
M  CHG  1   6  -1
M  END
>  <PDB_ID>  (2251) 
pdb5dmy

>  <RESIDUE_NAME>  (2251) 
ASP   PHE

>  <FRAG_NAME>  (2251) 
ACET   MBZ

>  <FRAG_ATOM_NUM>  (2251) 
fragi: 7  fragj: 15

>  <atom.prop.CHAIN_ID>  (2251) 
A A A A A A A Z Z Z Z Z Z Z Z Z Z Z Z Z Z Z

>  <atom.prop.IS_HEAVY_ATOM>  (2251) 
1 0 0 0 1 1 1 1 0 0 0 1 1 0 1 0 1 0 1 0 1 0

>  <DIFUSE_FUNC_ATOM>  (2251) 
atom 6   atom 7   

>  <FINAL_SINGLE_POINT_ENERGY>  (2251) 
0

>  <NONCOV_INTER_ENERGY_QM>  (2251) 
0

>  <FF_Energy>  (2251) 
-1.09

>  <QM_Energy>  (2251) 
-6.98

>  <source>  (2251) 
ACET_MBZ_02

>  <Index>  (2251) 
23212

$$$$
ACET-pdb5dmy-C-ASP-626:MBZ-pdb5dmy-C-PHE-630
     RDKit          3D

 22 21  0  0  0  0  0  0  0  0999 V2000
    3.3761    5.2950   -3.0755 C   0  0  0  0  0  0  0  0  0  0  0  0
    4.2804    5.0739   -3.4317 H   0  0  0  0  0  0  0  0  0  0  0  0
    3.4500    5.9941   -2.3693 H   0  0  0  0  0  0  0  0  0  0  0  0
    2.7860    5.7075   -3.8939 H   0  0  0  0  0  0  0  0  0  0  0  0
    2.7854    4.0197   -2.4332 C   0  0  0  0  0  0  0  0  0  0  0  0
    1.9056    3.3297   -3.0007 O   0  0  0  0  0  1  0  0  0  0  0  0
    3.2734    3.6815   -1.3238 O   0  0  0  0  0  0  0  0  0  0  0  0
    0.0065    2.9219   -0.0001 C   0  0  0  0  0  0  0  0  0  0  0  0
    0.8623    3.2194   -0.3922 H   0  0  0  0  0  0  0  0  0  0  0  0
   -0.0914    3.2275    0.9335 H   0  0  0  0  0  0  0  0  0  0  0  0
   -0.7986    3.3702   -0.5824 H   0  0  0  0  0  0  0  0  0  0  0  0
   -0.0023    1.4057    0.0034 C   0  0  0  0  0  0  0  0  0  0  0  0
   -1.1890    0.7072   -0.0027 C   0  0  0  0  0  0  0  0  0  0  0  0
   -2.0597    1.1872   -0.0104 H   0  0  0  0  0  0  0  0  0  0  0  0
   -1.1921   -0.6951   -0.0000 C   0  0  0  0  0  0  0  0  0  0  0  0
   -2.0741   -1.1810    0.0041 H   0  0  0  0  0  0  0  0  0  0  0  0
    0.0009   -1.3920   -0.0014 C   0  0  0  0  0  0  0  0  0  0  0  0
   -0.0127   -2.3954   -0.0042 H   0  0  0  0  0  0  0  0  0  0  0  0
    1.1921   -0.7109    0.0000 C   0  0  0  0  0  0  0  0  0  0  0  0
    2.0765   -1.2036    0.0023 H   0  0  0  0  0  0  0  0  0  0  0  0
    1.1905    0.6851    0.0007 C   0  0  0  0  0  0  0  0  0  0  0  0
    2.0631    1.1769   -0.0011 H   0  0  0  0  0  0  0  0  0  0  0  0
  1  5  1  0
  5  6  1  0
  5  7  2  0
  1  2  1  0
  1  3  1  0
  1  4  1  0
  8 12  1  0
 12 13  2  0
 13 15  1  0
 15 17  2  0
 17 19  1  0
 19 21  2  0
 21 12  1  0
  8  9  1  0
  8 10  1  0
  8 11  1  0
 13 14  1  0
 15 16  1  0
 17 18  1  0
 19 20  1  0
 21 22  1  0
M  CHG  1   6  -1
M  END
>  <PDB_ID>  (2252) 
pdb5dmy

>  <RESIDUE_NAME>  (2252) 
ASP   PHE

>  <FRAG_NAME>  (2252) 
ACET   MBZ

>  <FRAG_ATOM_NUM>  (2252) 
fragi: 7  fragj: 15

>  <atom.prop.CHAIN_ID>  (2252) 
A A A A A A A Z Z Z Z Z Z Z Z Z Z Z Z Z Z Z

>  <atom.prop.IS_HEAVY_ATOM>  (2252) 
1 0 0 0 1 1 1 1 0 0 0 1 1 0 1 0 1 0 1 0 1 0

>  <DIFUSE_FUNC_ATOM>  (2252) 
atom 6   atom 7   

>  <FINAL_SINGLE_POINT_ENERGY>  (2252) 
0

>  <NONCOV_INTER_ENERGY_QM>  (2252) 
0

>  <FF_Energy>  (2252) 
-1.18

>  <QM_Energy>  (2252) 
-7.15

>  <source>  (2252) 
ACET_MBZ_02

>  <Index>  (2252) 
23214

$$$$
ACET-pdb6dnz-B-ASP-214:MBZ-pdb6dnz-B-PHE-217
     RDKit          3D

 22 21  0  0  0  0  0  0  0  0999 V2000
    0.9817    5.0704   -2.9725 C   0  0  0  0  0  0  0  0  0  0  0  0
    0.8673    4.8909   -3.9187 H   0  0  0  0  0  0  0  0  0  0  0  0
    1.4962    4.3603   -2.5596 H   0  0  0  0  0  0  0  0  0  0  0  0
    1.5136    6.0139   -2.8500 H   0  0  0  0  0  0  0  0  0  0  0  0
   -0.3881    5.0912   -2.3305 C   0  0  0  0  0  0  0  0  0  0  0  0
   -0.5943    5.8947   -1.3950 O   0  0  0  0  0  1  0  0  0  0  0  0
   -1.2596    4.3064   -2.7615 O   0  0  0  0  0  0  0  0  0  0  0  0
   -0.0017    2.9003    0.0030 C   0  0  0  0  0  0  0  0  0  0  0  0
   -0.8029    3.1961   -0.4556 H   0  0  0  0  0  0  0  0  0  0  0  0
    0.7859    3.1977   -0.4782 H   0  0  0  0  0  0  0  0  0  0  0  0
    0.0122    3.3349    1.0025 H   0  0  0  0  0  0  0  0  0  0  0  0
    0.0004    1.3968    0.0004 C   0  0  0  0  0  0  0  0  0  0  0  0
   -1.1909    0.6894    0.0013 C   0  0  0  0  0  0  0  0  0  0  0  0
   -1.9980    1.1507    0.0035 H   0  0  0  0  0  0  0  0  0  0  0  0
   -1.1940   -0.6954   -0.0000 C   0  0  0  0  0  0  0  0  0  0  0  0
   -2.0004   -1.1589    0.0002 H   0  0  0  0  0  0  0  0  0  0  0  0
   -0.0001   -1.3861   -0.0023 C   0  0  0  0  0  0  0  0  0  0  0  0
    0.0001   -2.3159   -0.0051 H   0  0  0  0  0  0  0  0  0  0  0  0
    1.1940   -0.6952    0.0000 C   0  0  0  0  0  0  0  0  0  0  0  0
    2.0010   -1.1583    0.0002 H   0  0  0  0  0  0  0  0  0  0  0  0
    1.1907    0.6905    0.0006 C   0  0  0  0  0  0  0  0  0  0  0  0
    1.9985    1.1517    0.0012 H   0  0  0  0  0  0  0  0  0  0  0  0
  1  5  1  0
  5  6  1  0
  5  7  2  0
  1  2  1  0
  1  3  1  0
  1  4  1  0
  8 12  1  0
 12 13  2  0
 13 15  1  0
 15 17  2  0
 17 19  1  0
 19 21  2  0
 21 12  1  0
  8  9  1  0
  8 10  1  0
  8 11  1  0
 13 14  1  0
 15 16  1  0
 17 18  1  0
 19 20  1  0
 21 22  1  0
M  CHG  1   6  -1
M  END
>  <PDB_ID>  (2253) 
pdb6dnz

>  <RESIDUE_NAME>  (2253) 
ASP   PHE

>  <FRAG_NAME>  (2253) 
ACET   MBZ

>  <FRAG_ATOM_NUM>  (2253) 
fragi: 7  fragj: 15

>  <atom.prop.CHAIN_ID>  (2253) 
A A A A A A A Z Z Z Z Z Z Z Z Z Z Z Z Z Z Z

>  <atom.prop.IS_HEAVY_ATOM>  (2253) 
1 0 0 0 1 1 1 1 0 0 0 1 1 0 1 0 1 0 1 0 1 0

>  <DIFUSE_FUNC_ATOM>  (2253) 
atom 6   atom 7   

>  <FINAL_SINGLE_POINT_ENERGY>  (2253) 
0

>  <NONCOV_INTER_ENERGY_QM>  (2253) 
0

>  <FF_Energy>  (2253) 
-0.38

>  <QM_Energy>  (2253) 
-5.56

>  <source>  (2253) 
ACET_MBZ_02

>  <Index>  (2253) 
23217

$$$$
ACET-pdb6dt7-A-GLU-11:MBZ-pdb6dt7-A-PHE-142
     RDKit          3D

 22 21  0  0  0  0  0  0  0  0999 V2000
    5.4414    4.2650   -0.3813 C   0  0  0  0  0  0  0  0  0  0  0  0
    5.9690    4.3561   -1.2077 H   0  0  0  0  0  0  0  0  0  0  0  0
    5.7743    3.5327    0.1889 H   0  0  0  0  0  0  0  0  0  0  0  0
    5.5349    5.1954    0.1787 H   0  0  0  0  0  0  0  0  0  0  0  0
    4.0219    3.9416   -0.7697 C   0  0  0  0  0  0  0  0  0  0  0  0
    3.2008    4.8649   -1.0080 O   0  0  0  0  0  1  0  0  0  0  0  0
    3.7099    2.7437   -0.7664 O   0  0  0  0  0  0  0  0  0  0  0  0
    0.0129    2.8558   -0.0392 C   0  0  0  0  0  0  0  0  0  0  0  0
    0.8672    3.1748    0.3363 H   0  0  0  0  0  0  0  0  0  0  0  0
   -0.7603    3.1923    0.4704 H   0  0  0  0  0  0  0  0  0  0  0  0
   -0.0672    3.2451   -1.0541 H   0  0  0  0  0  0  0  0  0  0  0  0
   -0.0005    1.3817   -0.0050 C   0  0  0  0  0  0  0  0  0  0  0  0
   -1.1911    0.6861    0.0073 C   0  0  0  0  0  0  0  0  0  0  0  0
   -2.0575    1.1806    0.0200 H   0  0  0  0  0  0  0  0  0  0  0  0
   -1.1941   -0.6886   -0.0000 C   0  0  0  0  0  0  0  0  0  0  0  0
   -2.0690   -1.1899   -0.0071 H   0  0  0  0  0  0  0  0  0  0  0  0
    0.0058   -1.3771    0.0048 C   0  0  0  0  0  0  0  0  0  0  0  0
    0.0014   -2.3795    0.0113 H   0  0  0  0  0  0  0  0  0  0  0  0
    1.1941   -0.6843    0.0000 C   0  0  0  0  0  0  0  0  0  0  0  0
    2.0792   -1.1876    0.0028 H   0  0  0  0  0  0  0  0  0  0  0  0
    1.1858    0.6822   -0.0071 C   0  0  0  0  0  0  0  0  0  0  0  0
    2.0557    1.1883   -0.0147 H   0  0  0  0  0  0  0  0  0  0  0  0
  1  5  1  0
  5  6  1  0
  5  7  2  0
  1  2  1  0
  1  3  1  0
  1  4  1  0
  8 12  1  0
 12 13  2  0
 13 15  1  0
 15 17  2  0
 17 19  1  0
 19 21  2  0
 21 12  1  0
  8  9  1  0
  8 10  1  0
  8 11  1  0
 13 14  1  0
 15 16  1  0
 17 18  1  0
 19 20  1  0
 21 22  1  0
M  CHG  1   6  -1
M  END
>  <PDB_ID>  (2254) 
pdb6dt7

>  <RESIDUE_NAME>  (2254) 
GLU   PHE

>  <FRAG_NAME>  (2254) 
ACET   MBZ

>  <FRAG_ATOM_NUM>  (2254) 
fragi: 7  fragj: 15

>  <atom.prop.CHAIN_ID>  (2254) 
A A A A A A A Z Z Z Z Z Z Z Z Z Z Z Z Z Z Z

>  <atom.prop.IS_HEAVY_ATOM>  (2254) 
1 0 0 0 1 1 1 1 0 0 0 1 1 0 1 0 1 0 1 0 1 0

>  <DIFUSE_FUNC_ATOM>  (2254) 
atom 6   atom 7   

>  <FINAL_SINGLE_POINT_ENERGY>  (2254) 
0

>  <NONCOV_INTER_ENERGY_QM>  (2254) 
0

>  <FF_Energy>  (2254) 
-2.29

>  <QM_Energy>  (2254) 
-8.05

>  <source>  (2254) 
ACET_MBZ_02

>  <Index>  (2254) 
23295

$$$$
ACET-pdb6dte-A-ASP-65:MBZ-pdb6dte-A-PHE-123
     RDKit          3D

 22 21  0  0  0  0  0  0  0  0999 V2000
    4.7713    4.7380    0.1162 C   0  0  0  0  0  0  0  0  0  0  0  0
    5.7392    4.6967    0.0669 H   0  0  0  0  0  0  0  0  0  0  0  0
    4.4926    5.6024    0.4559 H   0  0  0  0  0  0  0  0  0  0  0  0
    4.3593    4.5995   -0.8834 H   0  0  0  0  0  0  0  0  0  0  0  0
    4.3076    3.6805    1.0913 C   0  0  0  0  0  0  0  0  0  0  0  0
    3.1018    3.3516    1.0852 O   0  0  0  0  0  1  0  0  0  0  0  0
    5.1538    3.1829    1.8675 O   0  0  0  0  0  0  0  0  0  0  0  0
   -0.0027    2.9058    0.0132 C   0  0  0  0  0  0  0  0  0  0  0  0
    0.9202    3.2027   -0.0193 H   0  0  0  0  0  0  0  0  0  0  0  0
   -0.4151    3.1932    0.8422 H   0  0  0  0  0  0  0  0  0  0  0  0
   -0.5437    3.3524   -0.8211 H   0  0  0  0  0  0  0  0  0  0  0  0
   -0.0010    1.3974   -0.0008 C   0  0  0  0  0  0  0  0  0  0  0  0
   -1.1915    0.6900    0.0006 C   0  0  0  0  0  0  0  0  0  0  0  0
   -1.9988    1.1508    0.0022 H   0  0  0  0  0  0  0  0  0  0  0  0
   -1.1946   -0.6947    0.0000 C   0  0  0  0  0  0  0  0  0  0  0  0
   -2.0007   -1.1582    0.0019 H   0  0  0  0  0  0  0  0  0  0  0  0
    0.0014   -1.3872   -0.0039 C   0  0  0  0  0  0  0  0  0  0  0  0
    0.0006   -2.3171   -0.0102 H   0  0  0  0  0  0  0  0  0  0  0  0
    1.1946   -0.6958   -0.0000 C   0  0  0  0  0  0  0  0  0  0  0  0
    2.0016   -1.1592   -0.0001 H   0  0  0  0  0  0  0  0  0  0  0  0
    1.1912    0.6902    0.0040 C   0  0  0  0  0  0  0  0  0  0  0  0
    1.9984    1.1514    0.0102 H   0  0  0  0  0  0  0  0  0  0  0  0
  1  5  1  0
  5  6  1  0
  5  7  2  0
  1  2  1  0
  1  3  1  0
  1  4  1  0
  8 12  1  0
 12 13  2  0
 13 15  1  0
 15 17  2  0
 17 19  1  0
 19 21  2  0
 21 12  1  0
  8  9  1  0
  8 10  1  0
  8 11  1  0
 13 14  1  0
 15 16  1  0
 17 18  1  0
 19 20  1  0
 21 22  1  0
M  CHG  1   6  -1
M  END
>  <PDB_ID>  (2255) 
pdb6dte

>  <RESIDUE_NAME>  (2255) 
ASP   PHE

>  <FRAG_NAME>  (2255) 
ACET   MBZ

>  <FRAG_ATOM_NUM>  (2255) 
fragi: 7  fragj: 15

>  <atom.prop.CHAIN_ID>  (2255) 
A A A A A A A Z Z Z Z Z Z Z Z Z Z Z Z Z Z Z

>  <atom.prop.IS_HEAVY_ATOM>  (2255) 
1 0 0 0 1 1 1 1 0 0 0 1 1 0 1 0 1 0 1 0 1 0

>  <DIFUSE_FUNC_ATOM>  (2255) 
atom 6   atom 7   

>  <FINAL_SINGLE_POINT_ENERGY>  (2255) 
0

>  <NONCOV_INTER_ENERGY_QM>  (2255) 
0

>  <FF_Energy>  (2255) 
-1.57

>  <QM_Energy>  (2255) 
-7.07

>  <source>  (2255) 
ACET_MBZ_02

>  <Index>  (2255) 
23313

$$$$
ACET-pdb6dte-B-ASP-65:MBZ-pdb6dte-B-PHE-123
     RDKit          3D

 22 21  0  0  0  0  0  0  0  0999 V2000
    4.8018    4.7354    0.3978 C   0  0  0  0  0  0  0  0  0  0  0  0
    5.7713    4.7015    0.4030 H   0  0  0  0  0  0  0  0  0  0  0  0
    4.4983    5.5949    0.7296 H   0  0  0  0  0  0  0  0  0  0  0  0
    4.4462    4.6028   -0.6240 H   0  0  0  0  0  0  0  0  0  0  0  0
    4.2924    3.6679    1.3320 C   0  0  0  0  0  0  0  0  0  0  0  0
    3.0788    3.3852    1.2962 O   0  0  0  0  0  1  0  0  0  0  0  0
    5.1066    3.1093    2.0971 O   0  0  0  0  0  0  0  0  0  0  0  0
   -0.0014    2.8996   -0.0070 C   0  0  0  0  0  0  0  0  0  0  0  0
    0.9198    3.1977    0.0351 H   0  0  0  0  0  0  0  0  0  0  0  0
   -0.4841    3.1991    0.7797 H   0  0  0  0  0  0  0  0  0  0  0  0
   -0.4706    3.3307   -0.8915 H   0  0  0  0  0  0  0  0  0  0  0  0
   -0.0001    1.3962   -0.0002 C   0  0  0  0  0  0  0  0  0  0  0  0
   -1.1910    0.6909    0.0018 C   0  0  0  0  0  0  0  0  0  0  0  0
   -1.9983    1.1525    0.0050 H   0  0  0  0  0  0  0  0  0  0  0  0
   -1.1937   -0.6929    0.0000 C   0  0  0  0  0  0  0  0  0  0  0  0
   -2.0000   -1.1558   -0.0012 H   0  0  0  0  0  0  0  0  0  0  0  0
   -0.0007   -1.3865    0.0006 C   0  0  0  0  0  0  0  0  0  0  0  0
   -0.0016   -2.3161    0.0010 H   0  0  0  0  0  0  0  0  0  0  0  0
    1.1937   -0.6948   -0.0000 C   0  0  0  0  0  0  0  0  0  0  0  0
    1.9996   -1.1586    0.0027 H   0  0  0  0  0  0  0  0  0  0  0  0
    1.1917    0.6870   -0.0021 C   0  0  0  0  0  0  0  0  0  0  0  0
    1.9992    1.1471   -0.0053 H   0  0  0  0  0  0  0  0  0  0  0  0
  1  5  1  0
  5  6  1  0
  5  7  2  0
  1  2  1  0
  1  3  1  0
  1  4  1  0
  8 12  1  0
 12 13  2  0
 13 15  1  0
 15 17  2  0
 17 19  1  0
 19 21  2  0
 21 12  1  0
  8  9  1  0
  8 10  1  0
  8 11  1  0
 13 14  1  0
 15 16  1  0
 17 18  1  0
 19 20  1  0
 21 22  1  0
M  CHG  1   6  -1
M  END
>  <PDB_ID>  (2256) 
pdb6dte

>  <RESIDUE_NAME>  (2256) 
ASP   PHE

>  <FRAG_NAME>  (2256) 
ACET   MBZ

>  <FRAG_ATOM_NUM>  (2256) 
fragi: 7  fragj: 15

>  <atom.prop.CHAIN_ID>  (2256) 
A A A A A A A Z Z Z Z Z Z Z Z Z Z Z Z Z Z Z

>  <atom.prop.IS_HEAVY_ATOM>  (2256) 
1 0 0 0 1 1 1 1 0 0 0 1 1 0 1 0 1 0 1 0 1 0

>  <DIFUSE_FUNC_ATOM>  (2256) 
atom 6   atom 7   

>  <FINAL_SINGLE_POINT_ENERGY>  (2256) 
0

>  <NONCOV_INTER_ENERGY_QM>  (2256) 
0

>  <FF_Energy>  (2256) 
-1.54

>  <QM_Energy>  (2256) 
-6.63

>  <source>  (2256) 
ACET_MBZ_02

>  <Index>  (2256) 
23319

$$$$
ACET-pdb6dtm-A-ASP-165:MBZ-pdb6dtm-A-PHE-185
     RDKit          3D

 22 21  0  0  0  0  0  0  0  0999 V2000
   -5.3693    4.1021   -0.0977 C   0  0  0  0  0  0  0  0  0  0  0  0
   -6.3620    4.0219   -0.1623 H   0  0  0  0  0  0  0  0  0  0  0  0
   -5.0984    5.0523   -0.2344 H   0  0  0  0  0  0  0  0  0  0  0  0
   -5.0864    3.8260    0.9181 H   0  0  0  0  0  0  0  0  0  0  0  0
   -4.7322    3.2471   -1.1429 C   0  0  0  0  0  0  0  0  0  0  0  0
   -3.7116    2.5945   -0.8340 O   0  0  0  0  0  1  0  0  0  0  0  0
   -5.2409    3.2546   -2.2815 O   0  0  0  0  0  0  0  0  0  0  0  0
   -0.0020    2.9388    0.0223 C   0  0  0  0  0  0  0  0  0  0  0  0
   -0.5842    3.2505   -0.7093 H   0  0  0  0  0  0  0  0  0  0  0  0
    0.9294    3.2387   -0.0969 H   0  0  0  0  0  0  0  0  0  0  0  0
   -0.3771    3.3570    0.9564 H   0  0  0  0  0  0  0  0  0  0  0  0
   -0.0045    1.4231   -0.0011 C   0  0  0  0  0  0  0  0  0  0  0  0
   -1.2079    0.7064    0.0172 C   0  0  0  0  0  0  0  0  0  0  0  0
   -2.0742    1.1888    0.0414 H   0  0  0  0  0  0  0  0  0  0  0  0
   -1.2152   -0.7088    0.0000 C   0  0  0  0  0  0  0  0  0  0  0  0
   -2.0810   -1.1997    0.0019 H   0  0  0  0  0  0  0  0  0  0  0  0
    0.0152   -1.4230   -0.0179 C   0  0  0  0  0  0  0  0  0  0  0  0
    0.0038   -2.4095   -0.0430 H   0  0  0  0  0  0  0  0  0  0  0  0
    1.2152   -0.7087    0.0000 C   0  0  0  0  0  0  0  0  0  0  0  0
    2.1017   -1.1866    0.0130 H   0  0  0  0  0  0  0  0  0  0  0  0
    1.1972    0.7110    0.0019 C   0  0  0  0  0  0  0  0  0  0  0  0
    2.0674    1.2017    0.0045 H   0  0  0  0  0  0  0  0  0  0  0  0
  1  5  1  0
  5  6  1  0
  5  7  2  0
  1  2  1  0
  1  3  1  0
  1  4  1  0
  8 12  1  0
 12 13  2  0
 13 15  1  0
 15 17  2  0
 17 19  1  0
 19 21  2  0
 21 12  1  0
  8  9  1  0
  8 10  1  0
  8 11  1  0
 13 14  1  0
 15 16  1  0
 17 18  1  0
 19 20  1  0
 21 22  1  0
M  CHG  1   6  -1
M  END
>  <PDB_ID>  (2257) 
pdb6dtm

>  <RESIDUE_NAME>  (2257) 
ASP   PHE

>  <FRAG_NAME>  (2257) 
ACET   MBZ

>  <FRAG_ATOM_NUM>  (2257) 
fragi: 7  fragj: 15

>  <atom.prop.CHAIN_ID>  (2257) 
A A A A A A A Z Z Z Z Z Z Z Z Z Z Z Z Z Z Z

>  <atom.prop.IS_HEAVY_ATOM>  (2257) 
1 0 0 0 1 1 1 1 0 0 0 1 1 0 1 0 1 0 1 0 1 0

>  <DIFUSE_FUNC_ATOM>  (2257) 
atom 6   atom 7   

>  <FINAL_SINGLE_POINT_ENERGY>  (2257) 
0

>  <NONCOV_INTER_ENERGY_QM>  (2257) 
0

>  <FF_Energy>  (2257) 
-1.27

>  <QM_Energy>  (2257) 
-6.97

>  <source>  (2257) 
ACET_MBZ_02

>  <Index>  (2257) 
23337

$$$$
ACET-pdb6du2-A-ASP-167:MBZ-pdb6du2-A-PHE-172
     RDKit          3D

 22 21  0  0  0  0  0  0  0  0999 V2000
    3.9821    0.8121   -2.3570 C   0  0  0  0  0  0  0  0  0  0  0  0
    3.6131    0.3351   -1.5671 H   0  0  0  0  0  0  0  0  0  0  0  0
    4.6910    1.4497   -2.0781 H   0  0  0  0  0  0  0  0  0  0  0  0
    4.4368    0.0708   -3.0142 H   0  0  0  0  0  0  0  0  0  0  0  0
    2.8640    1.5856   -3.0267 C   0  0  0  0  0  0  0  0  0  0  0  0
    2.6188    1.3784   -4.2382 O   0  0  0  0  0  1  0  0  0  0  0  0
    2.2284    2.4072   -2.3324 O   0  0  0  0  0  0  0  0  0  0  0  0
    0.0010    2.8839   -0.0003 C   0  0  0  0  0  0  0  0  0  0  0  0
    0.9357    3.1951   -0.1040 H   0  0  0  0  0  0  0  0  0  0  0  0
   -0.3839    3.1927    0.8579 H   0  0  0  0  0  0  0  0  0  0  0  0
   -0.5866    3.3267   -0.8045 H   0  0  0  0  0  0  0  0  0  0  0  0
    0.0004    1.3931   -0.0037 C   0  0  0  0  0  0  0  0  0  0  0  0
   -1.1933    0.6917   -0.0001 C   0  0  0  0  0  0  0  0  0  0  0  0
   -2.0595    1.1853    0.0008 H   0  0  0  0  0  0  0  0  0  0  0  0
   -1.1976   -0.6895    0.0000 C   0  0  0  0  0  0  0  0  0  0  0  0
   -2.0766   -1.1862    0.0005 H   0  0  0  0  0  0  0  0  0  0  0  0
   -0.0015   -1.3880    0.0008 C   0  0  0  0  0  0  0  0  0  0  0  0
   -0.0079   -2.3870    0.0016 H   0  0  0  0  0  0  0  0  0  0  0  0
    1.1976   -0.6955   -0.0000 C   0  0  0  0  0  0  0  0  0  0  0  0
    2.0787   -1.1965   -0.0016 H   0  0  0  0  0  0  0  0  0  0  0  0
    1.1944    0.6882    0.0030 C   0  0  0  0  0  0  0  0  0  0  0  0
    2.0622    1.1864    0.0091 H   0  0  0  0  0  0  0  0  0  0  0  0
  1  5  1  0
  5  6  1  0
  5  7  2  0
  1  2  1  0
  1  3  1  0
  1  4  1  0
  8 12  1  0
 12 13  2  0
 13 15  1  0
 15 17  2  0
 17 19  1  0
 19 21  2  0
 21 12  1  0
  8  9  1  0
  8 10  1  0
  8 11  1  0
 13 14  1  0
 15 16  1  0
 17 18  1  0
 19 20  1  0
 21 22  1  0
M  CHG  1   6  -1
M  END
>  <PDB_ID>  (2258) 
pdb6du2

>  <RESIDUE_NAME>  (2258) 
ASP   PHE

>  <FRAG_NAME>  (2258) 
ACET   MBZ

>  <FRAG_ATOM_NUM>  (2258) 
fragi: 7  fragj: 15

>  <atom.prop.CHAIN_ID>  (2258) 
A A A A A A A Z Z Z Z Z Z Z Z Z Z Z Z Z Z Z

>  <atom.prop.IS_HEAVY_ATOM>  (2258) 
1 0 0 0 1 1 1 1 0 0 0 1 1 0 1 0 1 0 1 0 1 0

>  <DIFUSE_FUNC_ATOM>  (2258) 
atom 6   atom 7   

>  <FINAL_SINGLE_POINT_ENERGY>  (2258) 
0

>  <NONCOV_INTER_ENERGY_QM>  (2258) 
0

>  <FF_Energy>  (2258) 
0.89

>  <QM_Energy>  (2258) 
-4.72

>  <source>  (2258) 
ACET_MBZ_02

>  <Index>  (2258) 
23354

$$$$
ACET-pdb6dvh-A-ASP-328:MBZ-pdb6dvh-A-PHE-62
     RDKit          3D

 22 21  0  0  0  0  0  0  0  0999 V2000
   -1.2729    0.4173    3.5897 C   0  0  0  0  0  0  0  0  0  0  0  0
   -1.1978   -0.1391    4.4243 H   0  0  0  0  0  0  0  0  0  0  0  0
   -0.8967   -0.1084    2.8198 H   0  0  0  0  0  0  0  0  0  0  0  0
   -2.3371    0.5466    3.3925 H   0  0  0  0  0  0  0  0  0  0  0  0
   -0.5190    1.6737    3.7561 C   0  0  0  0  0  0  0  0  0  0  0  0
   -0.8123    2.6535    3.1002 O   0  0  0  0  0  1  0  0  0  0  0  0
    0.4727    1.6500    4.4933 O   0  0  0  0  0  0  0  0  0  0  0  0
    0.0236    2.8899   -0.0619 C   0  0  0  0  0  0  0  0  0  0  0  0
    0.8864    3.2131    0.3002 H   0  0  0  0  0  0  0  0  0  0  0  0
   -0.7378    3.2356    0.4675 H   0  0  0  0  0  0  0  0  0  0  0  0
   -0.0764    3.2699   -1.0786 H   0  0  0  0  0  0  0  0  0  0  0  0
    0.0107    1.4069    0.0159 C   0  0  0  0  0  0  0  0  0  0  0  0
   -1.1912    0.6987   -0.0392 C   0  0  0  0  0  0  0  0  0  0  0  0
   -2.0531    1.1784   -0.1072 H   0  0  0  0  0  0  0  0  0  0  0  0
   -1.1910   -0.7105    0.0000 C   0  0  0  0  0  0  0  0  0  0  0  0
   -2.0710   -1.1910    0.0198 H   0  0  0  0  0  0  0  0  0  0  0  0
   -0.0042   -1.3681    0.0118 C   0  0  0  0  0  0  0  0  0  0  0  0
   -0.0026   -2.3901    0.0298 H   0  0  0  0  0  0  0  0  0  0  0  0
    1.1910   -0.7041   -0.0000 C   0  0  0  0  0  0  0  0  0  0  0  0
    2.0681   -1.2032   -0.0147 H   0  0  0  0  0  0  0  0  0  0  0  0
    1.1847    0.6771    0.0115 C   0  0  0  0  0  0  0  0  0  0  0  0
    2.0687    1.1711    0.0158 H   0  0  0  0  0  0  0  0  0  0  0  0
  1  5  1  0
  5  6  1  0
  5  7  2  0
  1  2  1  0
  1  3  1  0
  1  4  1  0
  8 12  1  0
 12 13  2  0
 13 15  1  0
 15 17  2  0
 17 19  1  0
 19 21  2  0
 21 12  1  0
  8  9  1  0
  8 10  1  0
  8 11  1  0
 13 14  1  0
 15 16  1  0
 17 18  1  0
 19 20  1  0
 21 22  1  0
M  CHG  1   6  -1
M  END
>  <PDB_ID>  (2259) 
pdb6dvh

>  <RESIDUE_NAME>  (2259) 
ASP   PHE

>  <FRAG_NAME>  (2259) 
ACET   MBZ

>  <FRAG_ATOM_NUM>  (2259) 
fragi: 7  fragj: 15

>  <atom.prop.CHAIN_ID>  (2259) 
A A A A A A A Z Z Z Z Z Z Z Z Z Z Z Z Z Z Z

>  <atom.prop.IS_HEAVY_ATOM>  (2259) 
1 0 0 0 1 1 1 1 0 0 0 1 1 0 1 0 1 0 1 0 1 0

>  <DIFUSE_FUNC_ATOM>  (2259) 
atom 6   atom 7   

>  <FINAL_SINGLE_POINT_ENERGY>  (2259) 
0

>  <NONCOV_INTER_ENERGY_QM>  (2259) 
0

>  <FF_Energy>  (2259) 
0.88

>  <QM_Energy>  (2259) 
-4.29

>  <source>  (2259) 
ACET_MBZ_02

>  <Index>  (2259) 
23390

$$$$
ACET-pdb6dvh-E-ASP-328:MBZ-pdb6dvh-E-PHE-62
     RDKit          3D

 22 21  0  0  0  0  0  0  0  0999 V2000
   -1.3385    0.5518    3.7430 C   0  0  0  0  0  0  0  0  0  0  0  0
   -1.3422    0.1496    4.6498 H   0  0  0  0  0  0  0  0  0  0  0  0
   -0.9605   -0.0809    3.0800 H   0  0  0  0  0  0  0  0  0  0  0  0
   -2.3687    0.7688    3.4606 H   0  0  0  0  0  0  0  0  0  0  0  0
   -0.4547    1.8045    3.7744 C   0  0  0  0  0  0  0  0  0  0  0  0
   -0.7783    2.7772    3.0540 O   0  0  0  0  0  1  0  0  0  0  0  0
    0.5620    1.8054    4.5125 O   0  0  0  0  0  0  0  0  0  0  0  0
   -0.0106    2.9001   -0.0158 C   0  0  0  0  0  0  0  0  0  0  0  0
    0.8346    3.2180    0.3809 H   0  0  0  0  0  0  0  0  0  0  0  0
   -0.7940    3.2080    0.4983 H   0  0  0  0  0  0  0  0  0  0  0  0
   -0.0863    3.3173   -1.0199 H   0  0  0  0  0  0  0  0  0  0  0  0
    0.0008    1.3963    0.0050 C   0  0  0  0  0  0  0  0  0  0  0  0
   -1.1919    0.6861    0.0019 C   0  0  0  0  0  0  0  0  0  0  0  0
   -2.0597    1.1781   -0.0000 H   0  0  0  0  0  0  0  0  0  0  0  0
   -1.1951   -0.6965    0.0000 C   0  0  0  0  0  0  0  0  0  0  0  0
   -2.0740   -1.1923    0.0016 H   0  0  0  0  0  0  0  0  0  0  0  0
    0.0002   -1.3890   -0.0027 C   0  0  0  0  0  0  0  0  0  0  0  0
   -0.0003   -2.3879   -0.0070 H   0  0  0  0  0  0  0  0  0  0  0  0
    1.1951   -0.6899   -0.0000 C   0  0  0  0  0  0  0  0  0  0  0  0
    2.0792   -1.1894    0.0067 H   0  0  0  0  0  0  0  0  0  0  0  0
    1.1909    0.6930   -0.0043 C   0  0  0  0  0  0  0  0  0  0  0  0
    2.0609    1.1902   -0.0153 H   0  0  0  0  0  0  0  0  0  0  0  0
  1  5  1  0
  5  6  1  0
  5  7  2  0
  1  2  1  0
  1  3  1  0
  1  4  1  0
  8 12  1  0
 12 13  2  0
 13 15  1  0
 15 17  2  0
 17 19  1  0
 19 21  2  0
 21 12  1  0
  8  9  1  0
  8 10  1  0
  8 11  1  0
 13 14  1  0
 15 16  1  0
 17 18  1  0
 19 20  1  0
 21 22  1  0
M  CHG  1   6  -1
M  END
>  <PDB_ID>  (2260) 
pdb6dvh

>  <RESIDUE_NAME>  (2260) 
ASP   PHE

>  <FRAG_NAME>  (2260) 
ACET   MBZ

>  <FRAG_ATOM_NUM>  (2260) 
fragi: 7  fragj: 15

>  <atom.prop.CHAIN_ID>  (2260) 
A A A A A A A Z Z Z Z Z Z Z Z Z Z Z Z Z Z Z

>  <atom.prop.IS_HEAVY_ATOM>  (2260) 
1 0 0 0 1 1 1 1 0 0 0 1 1 0 1 0 1 0 1 0 1 0

>  <DIFUSE_FUNC_ATOM>  (2260) 
atom 6   atom 7   

>  <FINAL_SINGLE_POINT_ENERGY>  (2260) 
0

>  <NONCOV_INTER_ENERGY_QM>  (2260) 
0

>  <FF_Energy>  (2260) 
0.74

>  <QM_Energy>  (2260) 
-4.63

>  <source>  (2260) 
ACET_MBZ_02

>  <Index>  (2260) 
23398

$$$$
ACET-pdb5dxi-B-GLU-235:MBZ-pdb5dxi-B-PHE-238
     RDKit          3D

 22 21  0  0  0  0  0  0  0  0999 V2000
    4.9946    1.2554   -2.5933 C   0  0  0  0  0  0  0  0  0  0  0  0
    4.8386    0.3442   -2.9152 H   0  0  0  0  0  0  0  0  0  0  0  0
    5.9300    1.5333   -2.6725 H   0  0  0  0  0  0  0  0  0  0  0  0
    4.3861    1.9346   -3.1905 H   0  0  0  0  0  0  0  0  0  0  0  0
    4.6250    1.2938   -1.1164 C   0  0  0  0  0  0  0  0  0  0  0  0
    4.5317    2.4084   -0.5495 O   0  0  0  0  0  1  0  0  0  0  0  0
    4.4269    0.2019   -0.5221 O   0  0  0  0  0  0  0  0  0  0  0  0
    0.0276    2.9083   -0.0103 C   0  0  0  0  0  0  0  0  0  0  0  0
    0.8396    3.2025   -0.4936 H   0  0  0  0  0  0  0  0  0  0  0  0
    0.0393    3.2157    0.9300 H   0  0  0  0  0  0  0  0  0  0  0  0
   -0.8342    3.3629   -0.4990 H   0  0  0  0  0  0  0  0  0  0  0  0
    0.0085    1.4034   -0.0063 C   0  0  0  0  0  0  0  0  0  0  0  0
   -1.2012    0.6982   -0.0007 C   0  0  0  0  0  0  0  0  0  0  0  0
   -2.0606    1.1908    0.0012 H   0  0  0  0  0  0  0  0  0  0  0  0
   -1.2062   -0.6982   -0.0000 C   0  0  0  0  0  0  0  0  0  0  0  0
   -2.0867   -1.1877   -0.0045 H   0  0  0  0  0  0  0  0  0  0  0  0
   -0.0093   -1.3994    0.0086 C   0  0  0  0  0  0  0  0  0  0  0  0
   -0.0063   -2.3936    0.0200 H   0  0  0  0  0  0  0  0  0  0  0  0
    1.2062   -0.6942   -0.0000 C   0  0  0  0  0  0  0  0  0  0  0  0
    2.0806   -1.2012   -0.0032 H   0  0  0  0  0  0  0  0  0  0  0  0
    1.2020    0.6903   -0.0017 C   0  0  0  0  0  0  0  0  0  0  0  0
    2.0723    1.1890   -0.0003 H   0  0  0  0  0  0  0  0  0  0  0  0
  1  5  1  0
  5  6  1  0
  5  7  2  0
  1  2  1  0
  1  3  1  0
  1  4  1  0
  8 12  1  0
 12 13  2  0
 13 15  1  0
 15 17  2  0
 17 19  1  0
 19 21  2  0
 21 12  1  0
  8  9  1  0
  8 10  1  0
  8 11  1  0
 13 14  1  0
 15 16  1  0
 17 18  1  0
 19 20  1  0
 21 22  1  0
M  CHG  1   6  -1
M  END
>  <PDB_ID>  (2261) 
pdb5dxi

>  <RESIDUE_NAME>  (2261) 
GLU   PHE

>  <FRAG_NAME>  (2261) 
ACET   MBZ

>  <FRAG_ATOM_NUM>  (2261) 
fragi: 7  fragj: 15

>  <atom.prop.CHAIN_ID>  (2261) 
A A A A A A A Z Z Z Z Z Z Z Z Z Z Z Z Z Z Z

>  <atom.prop.IS_HEAVY_ATOM>  (2261) 
1 0 0 0 1 1 1 1 0 0 0 1 1 0 1 0 1 0 1 0 1 0

>  <DIFUSE_FUNC_ATOM>  (2261) 
atom 6   atom 7   

>  <FINAL_SINGLE_POINT_ENERGY>  (2261) 
0

>  <NONCOV_INTER_ENERGY_QM>  (2261) 
0

>  <FF_Energy>  (2261) 
-3.15

>  <QM_Energy>  (2261) 
-8.3

>  <source>  (2261) 
ACET_MBZ_02

>  <Index>  (2261) 
23659

$$$$
ACET-pdb5e09-A-ASP-456:MBZ-pdb5e09-A-PHE-516
     RDKit          3D

 22 21  0  0  0  0  0  0  0  0999 V2000
    3.5269    1.8562   -2.8292 C   0  0  0  0  0  0  0  0  0  0  0  0
    3.4743    1.6933   -3.8083 H   0  0  0  0  0  0  0  0  0  0  0  0
    3.1939    1.0653   -2.3277 H   0  0  0  0  0  0  0  0  0  0  0  0
    4.5751    2.0024   -2.5685 H   0  0  0  0  0  0  0  0  0  0  0  0
    2.6695    3.0514   -2.4858 C   0  0  0  0  0  0  0  0  0  0  0  0
    3.0914    3.8667   -1.6356 O   0  0  0  0  0  1  0  0  0  0  0  0
    1.5666    3.1661   -3.0621 O   0  0  0  0  0  0  0  0  0  0  0  0
    0.0015    2.8873    0.0015 C   0  0  0  0  0  0  0  0  0  0  0  0
   -0.7237    3.2000   -0.5954 H   0  0  0  0  0  0  0  0  0  0  0  0
    0.8855    3.1971   -0.3175 H   0  0  0  0  0  0  0  0  0  0  0  0
   -0.1671    3.3265    0.9848 H   0  0  0  0  0  0  0  0  0  0  0  0
   -0.0006    1.3941   -0.0007 C   0  0  0  0  0  0  0  0  0  0  0  0
   -1.1934    0.6889   -0.0044 C   0  0  0  0  0  0  0  0  0  0  0  0
   -2.0605    1.1806   -0.0114 H   0  0  0  0  0  0  0  0  0  0  0  0
   -1.1952   -0.6936    0.0000 C   0  0  0  0  0  0  0  0  0  0  0  0
   -2.0733   -1.1906    0.0013 H   0  0  0  0  0  0  0  0  0  0  0  0
    0.0012   -1.3846    0.0045 C   0  0  0  0  0  0  0  0  0  0  0  0
   -0.0037   -2.3868    0.0110 H   0  0  0  0  0  0  0  0  0  0  0  0
    1.1952   -0.6947    0.0000 C   0  0  0  0  0  0  0  0  0  0  0  0
    2.0786   -1.1941   -0.0021 H   0  0  0  0  0  0  0  0  0  0  0  0
    1.1928    0.6899    0.0006 C   0  0  0  0  0  0  0  0  0  0  0  0
    2.0612    1.1875    0.0014 H   0  0  0  0  0  0  0  0  0  0  0  0
  1  5  1  0
  5  6  1  0
  5  7  2  0
  1  2  1  0
  1  3  1  0
  1  4  1  0
  8 12  1  0
 12 13  2  0
 13 15  1  0
 15 17  2  0
 17 19  1  0
 19 21  2  0
 21 12  1  0
  8  9  1  0
  8 10  1  0
  8 11  1  0
 13 14  1  0
 15 16  1  0
 17 18  1  0
 19 20  1  0
 21 22  1  0
M  CHG  1   6  -1
M  END
>  <PDB_ID>  (2262) 
pdb5e09

>  <RESIDUE_NAME>  (2262) 
ASP   PHE

>  <FRAG_NAME>  (2262) 
ACET   MBZ

>  <FRAG_ATOM_NUM>  (2262) 
fragi: 7  fragj: 15

>  <atom.prop.CHAIN_ID>  (2262) 
A A A A A A A Z Z Z Z Z Z Z Z Z Z Z Z Z Z Z

>  <atom.prop.IS_HEAVY_ATOM>  (2262) 
1 0 0 0 1 1 1 1 0 0 0 1 1 0 1 0 1 0 1 0 1 0

>  <DIFUSE_FUNC_ATOM>  (2262) 
atom 6   atom 7   

>  <FINAL_SINGLE_POINT_ENERGY>  (2262) 
0

>  <NONCOV_INTER_ENERGY_QM>  (2262) 
0

>  <FF_Energy>  (2262) 
-1.25

>  <QM_Energy>  (2262) 
-6.83

>  <source>  (2262) 
ACET_MBZ_02

>  <Index>  (2262) 
23800

$$$$
ACET-pdb5dx5-B-ASP-21:MBZ-pdb5dx5-B-PHE-24
     RDKit          3D

 22 21  0  0  0  0  0  0  0  0999 V2000
    4.0527    5.5630   -2.3008 C   0  0  0  0  0  0  0  0  0  0  0  0
    4.9635    5.4567   -1.9145 H   0  0  0  0  0  0  0  0  0  0  0  0
    3.6289    6.3949   -1.9584 H   0  0  0  0  0  0  0  0  0  0  0  0
    4.1533    5.6553   -3.3822 H   0  0  0  0  0  0  0  0  0  0  0  0
    3.2026    4.3721   -1.8724 C   0  0  0  0  0  0  0  0  0  0  0  0
    2.9655    3.4512   -2.6745 O   0  0  0  0  0  1  0  0  0  0  0  0
    2.7995    4.3359   -0.6940 O   0  0  0  0  0  0  0  0  0  0  0  0
   -0.0018    2.9109    0.0067 C   0  0  0  0  0  0  0  0  0  0  0  0
    0.9328    3.2161    0.0915 H   0  0  0  0  0  0  0  0  0  0  0  0
   -0.5532    3.2115    0.7678 H   0  0  0  0  0  0  0  0  0  0  0  0
   -0.4165    3.3514   -0.9000 H   0  0  0  0  0  0  0  0  0  0  0  0
    0.0012    1.3987    0.0031 C   0  0  0  0  0  0  0  0  0  0  0  0
   -1.1997    0.6837    0.0008 C   0  0  0  0  0  0  0  0  0  0  0  0
   -2.0644    1.1809   -0.0021 H   0  0  0  0  0  0  0  0  0  0  0  0
   -1.2048   -0.6967   -0.0000 C   0  0  0  0  0  0  0  0  0  0  0  0
   -2.0774   -1.1964    0.0038 H   0  0  0  0  0  0  0  0  0  0  0  0
   -0.0004   -1.3868   -0.0051 C   0  0  0  0  0  0  0  0  0  0  0  0
   -0.0008   -2.3878   -0.0125 H   0  0  0  0  0  0  0  0  0  0  0  0
    1.2048   -0.6910   -0.0000 C   0  0  0  0  0  0  0  0  0  0  0  0
    2.0830   -1.1930    0.0042 H   0  0  0  0  0  0  0  0  0  0  0  0
    1.1989    0.6922    0.0013 C   0  0  0  0  0  0  0  0  0  0  0  0
    2.0650    1.1932   -0.0002 H   0  0  0  0  0  0  0  0  0  0  0  0
  1  5  1  0
  5  6  1  0
  5  7  2  0
  1  2  1  0
  1  3  1  0
  1  4  1  0
  8 12  1  0
 12 13  2  0
 13 15  1  0
 15 17  2  0
 17 19  1  0
 19 21  2  0
 21 12  1  0
  8  9  1  0
  8 10  1  0
  8 11  1  0
 13 14  1  0
 15 16  1  0
 17 18  1  0
 19 20  1  0
 21 22  1  0
M  CHG  1   6  -1
M  END
>  <PDB_ID>  (2263) 
pdb5dx5

>  <RESIDUE_NAME>  (2263) 
ASP   PHE

>  <FRAG_NAME>  (2263) 
ACET   MBZ

>  <FRAG_ATOM_NUM>  (2263) 
fragi: 7  fragj: 15

>  <atom.prop.CHAIN_ID>  (2263) 
A A A A A A A Z Z Z Z Z Z Z Z Z Z Z Z Z Z Z

>  <atom.prop.IS_HEAVY_ATOM>  (2263) 
1 0 0 0 1 1 1 1 0 0 0 1 1 0 1 0 1 0 1 0 1 0

>  <DIFUSE_FUNC_ATOM>  (2263) 
atom 6   atom 7   

>  <FINAL_SINGLE_POINT_ENERGY>  (2263) 
0

>  <NONCOV_INTER_ENERGY_QM>  (2263) 
0

>  <FF_Energy>  (2263) 
-0.82

>  <QM_Energy>  (2263) 
-6.78

>  <source>  (2263) 
ACET_MBZ_02

>  <Index>  (2263) 
23801

$$$$
ACET-pdb6e6t-B-ASP-24:MBZ-pdb6e6t-B-PHE-88
     RDKit          3D

 22 21  0  0  0  0  0  0  0  0999 V2000
    3.6433    4.8793   -1.6231 C   0  0  0  0  0  0  0  0  0  0  0  0
    2.6948    5.1936   -1.6764 H   0  0  0  0  0  0  0  0  0  0  0  0
    4.1071    5.0746   -2.4866 H   0  0  0  0  0  0  0  0  0  0  0  0
    4.1352    5.4727   -0.8525 H   0  0  0  0  0  0  0  0  0  0  0  0
    3.6531    3.3778   -1.3847 C   0  0  0  0  0  0  0  0  0  0  0  0
    4.1621    2.8861   -0.3498 O   0  0  0  0  0  1  0  0  0  0  0  0
    3.0811    2.6746   -2.2863 O   0  0  0  0  0  0  0  0  0  0  0  0
   -0.0364    2.9076   -0.0966 C   0  0  0  0  0  0  0  0  0  0  0  0
   -0.6187    3.1833   -0.8433 H   0  0  0  0  0  0  0  0  0  0  0  0
    0.8855    3.2385   -0.2106 H   0  0  0  0  0  0  0  0  0  0  0  0
   -0.4361    3.3534    0.8142 H   0  0  0  0  0  0  0  0  0  0  0  0
   -0.0010    1.4173   -0.0504 C   0  0  0  0  0  0  0  0  0  0  0  0
   -1.1794    0.6697   -0.0127 C   0  0  0  0  0  0  0  0  0  0  0  0
   -2.0639    1.1433    0.0046 H   0  0  0  0  0  0  0  0  0  0  0  0
   -1.1796   -0.7400    0.0000 C   0  0  0  0  0  0  0  0  0  0  0  0
   -2.0619   -1.2195   -0.0099 H   0  0  0  0  0  0  0  0  0  0  0  0
    0.0027   -1.3994    0.0272 C   0  0  0  0  0  0  0  0  0  0  0  0
    0.0277   -2.4032    0.0664 H   0  0  0  0  0  0  0  0  0  0  0  0
    1.1796   -0.6855    0.0000 C   0  0  0  0  0  0  0  0  0  0  0  0
    2.0790   -1.1593   -0.0450 H   0  0  0  0  0  0  0  0  0  0  0  0
    1.1776    0.7379    0.0360 C   0  0  0  0  0  0  0  0  0  0  0  0
    2.0474    1.2099    0.1236 H   0  0  0  0  0  0  0  0  0  0  0  0
  1  5  1  0
  5  6  1  0
  5  7  2  0
  1  2  1  0
  1  3  1  0
  1  4  1  0
  8 12  1  0
 12 13  2  0
 13 15  1  0
 15 17  2  0
 17 19  1  0
 19 21  2  0
 21 12  1  0
  8  9  1  0
  8 10  1  0
  8 11  1  0
 13 14  1  0
 15 16  1  0
 17 18  1  0
 19 20  1  0
 21 22  1  0
M  CHG  1   6  -1
M  END
>  <PDB_ID>  (2264) 
pdb6e6t

>  <RESIDUE_NAME>  (2264) 
ASP   PHE

>  <FRAG_NAME>  (2264) 
ACET   MBZ

>  <FRAG_ATOM_NUM>  (2264) 
fragi: 7  fragj: 15

>  <atom.prop.CHAIN_ID>  (2264) 
A A A A A A A Z Z Z Z Z Z Z Z Z Z Z Z Z Z Z

>  <atom.prop.IS_HEAVY_ATOM>  (2264) 
1 0 0 0 1 1 1 1 0 0 0 1 1 0 1 0 1 0 1 0 1 0

>  <DIFUSE_FUNC_ATOM>  (2264) 
atom 6   atom 7   

>  <FINAL_SINGLE_POINT_ENERGY>  (2264) 
0

>  <NONCOV_INTER_ENERGY_QM>  (2264) 
0

>  <FF_Energy>  (2264) 
-2.04

>  <QM_Energy>  (2264) 
-7.18

>  <source>  (2264) 
ACET_MBZ_02

>  <Index>  (2264) 
23876

$$$$
ACET-pdb5e31-A-GLU-494:MBZ-pdb5e31-A-PHE-527
     RDKit          3D

 22 21  0  0  0  0  0  0  0  0999 V2000
    4.4451    0.9302   -1.3687 C   0  0  0  0  0  0  0  0  0  0  0  0
    4.9506    0.6285   -2.1644 H   0  0  0  0  0  0  0  0  0  0  0  0
    3.8339    0.2223   -1.0444 H   0  0  0  0  0  0  0  0  0  0  0  0
    5.1590    1.1553   -0.5763 H   0  0  0  0  0  0  0  0  0  0  0  0
    3.5829    2.1103   -1.8007 C   0  0  0  0  0  0  0  0  0  0  0  0
    3.8590    3.2674   -1.4247 O   0  0  0  0  0  1  0  0  0  0  0  0
    2.6239    1.8625   -2.5559 O   0  0  0  0  0  0  0  0  0  0  0  0
    0.0154    2.9104    0.0289 C   0  0  0  0  0  0  0  0  0  0  0  0
    0.9579    3.2009    0.1304 H   0  0  0  0  0  0  0  0  0  0  0  0
   -0.5265    3.1908    0.8112 H   0  0  0  0  0  0  0  0  0  0  0  0
   -0.3923    3.4055   -0.8524 H   0  0  0  0  0  0  0  0  0  0  0  0
    0.0010    1.3980   -0.0249 C   0  0  0  0  0  0  0  0  0  0  0  0
   -1.1859    0.6974   -0.0047 C   0  0  0  0  0  0  0  0  0  0  0  0
   -2.0565    1.1852    0.0060 H   0  0  0  0  0  0  0  0  0  0  0  0
   -1.1937   -0.6937    0.0000 C   0  0  0  0  0  0  0  0  0  0  0  0
   -2.0737   -1.1823   -0.0052 H   0  0  0  0  0  0  0  0  0  0  0  0
   -0.0008   -1.3854    0.0138 C   0  0  0  0  0  0  0  0  0  0  0  0
   -0.0073   -2.3884    0.0328 H   0  0  0  0  0  0  0  0  0  0  0  0
    1.1937   -0.6989   -0.0000 C   0  0  0  0  0  0  0  0  0  0  0  0
    2.0749   -1.1969   -0.0202 H   0  0  0  0  0  0  0  0  0  0  0  0
    1.1857    0.6827    0.0159 C   0  0  0  0  0  0  0  0  0  0  0  0
    2.0593    1.1806    0.0573 H   0  0  0  0  0  0  0  0  0  0  0  0
  1  5  1  0
  5  6  1  0
  5  7  2  0
  1  2  1  0
  1  3  1  0
  1  4  1  0
  8 12  1  0
 12 13  2  0
 13 15  1  0
 15 17  2  0
 17 19  1  0
 19 21  2  0
 21 12  1  0
  8  9  1  0
  8 10  1  0
  8 11  1  0
 13 14  1  0
 15 16  1  0
 17 18  1  0
 19 20  1  0
 21 22  1  0
M  CHG  1   6  -1
M  END
>  <PDB_ID>  (2265) 
pdb5e31

>  <RESIDUE_NAME>  (2265) 
GLU   PHE

>  <FRAG_NAME>  (2265) 
ACET   MBZ

>  <FRAG_ATOM_NUM>  (2265) 
fragi: 7  fragj: 15

>  <atom.prop.CHAIN_ID>  (2265) 
A A A A A A A Z Z Z Z Z Z Z Z Z Z Z Z Z Z Z

>  <atom.prop.IS_HEAVY_ATOM>  (2265) 
1 0 0 0 1 1 1 1 0 0 0 1 1 0 1 0 1 0 1 0 1 0

>  <DIFUSE_FUNC_ATOM>  (2265) 
atom 6   atom 7   

>  <FINAL_SINGLE_POINT_ENERGY>  (2265) 
0

>  <NONCOV_INTER_ENERGY_QM>  (2265) 
0

>  <FF_Energy>  (2265) 
0.72

>  <QM_Energy>  (2265) 
-4.53

>  <source>  (2265) 
ACET_MBZ_02

>  <Index>  (2265) 
23882

$$$$
ACET-pdb6ech-C-GLU-385:MBZ-pdb6ech-C-PHE-382
     RDKit          3D

 22 21  0  0  0  0  0  0  0  0999 V2000
   -2.5952    3.5557    1.8493 C   0  0  0  0  0  0  0  0  0  0  0  0
   -1.7756    3.9558    1.4146 H   0  0  0  0  0  0  0  0  0  0  0  0
   -2.3482    2.6333    2.1804 H   0  0  0  0  0  0  0  0  0  0  0  0
   -2.8520    4.1684    2.7134 H   0  0  0  0  0  0  0  0  0  0  0  0
   -3.6248    3.3599    0.7421 C   0  0  0  0  0  0  0  0  0  0  0  0
   -3.3701    3.8376   -0.3993 O   0  0  0  0  0  1  0  0  0  0  0  0
   -4.6587    2.7320    1.0154 O   0  0  0  0  0  0  0  0  0  0  0  0
    0.0079    2.8992   -0.0383 C   0  0  0  0  0  0  0  0  0  0  0  0
    0.9433    3.2042    0.1005 H   0  0  0  0  0  0  0  0  0  0  0  0
   -0.5764    3.2204    0.6987 H   0  0  0  0  0  0  0  0  0  0  0  0
   -0.3520    3.3444   -0.9659 H   0  0  0  0  0  0  0  0  0  0  0  0
    0.0013    1.3985   -0.0128 C   0  0  0  0  0  0  0  0  0  0  0  0
   -1.1924    0.6950   -0.0094 C   0  0  0  0  0  0  0  0  0  0  0  0
   -2.0589    1.1804   -0.0153 H   0  0  0  0  0  0  0  0  0  0  0  0
   -1.1877   -0.6951   -0.0000 C   0  0  0  0  0  0  0  0  0  0  0  0
   -2.0716   -1.1890    0.0010 H   0  0  0  0  0  0  0  0  0  0  0  0
    0.0007   -1.3900    0.0097 C   0  0  0  0  0  0  0  0  0  0  0  0
   -0.0062   -2.3912    0.0232 H   0  0  0  0  0  0  0  0  0  0  0  0
    1.1877   -0.6994    0.0000 C   0  0  0  0  0  0  0  0  0  0  0  0
    2.0763   -1.1950   -0.0144 H   0  0  0  0  0  0  0  0  0  0  0  0
    1.1904    0.6910    0.0124 C   0  0  0  0  0  0  0  0  0  0  0  0
    2.0613    1.1811    0.0395 H   0  0  0  0  0  0  0  0  0  0  0  0
  1  5  1  0
  5  6  1  0
  5  7  2  0
  1  2  1  0
  1  3  1  0
  1  4  1  0
  8 12  1  0
 12 13  2  0
 13 15  1  0
 15 17  2  0
 17 19  1  0
 19 21  2  0
 21 12  1  0
  8  9  1  0
  8 10  1  0
  8 11  1  0
 13 14  1  0
 15 16  1  0
 17 18  1  0
 19 20  1  0
 21 22  1  0
M  CHG  1   6  -1
M  END
>  <PDB_ID>  (2266) 
pdb6ech

>  <RESIDUE_NAME>  (2266) 
GLU   PHE

>  <FRAG_NAME>  (2266) 
ACET   MBZ

>  <FRAG_ATOM_NUM>  (2266) 
fragi: 7  fragj: 15

>  <atom.prop.CHAIN_ID>  (2266) 
A A A A A A A Z Z Z Z Z Z Z Z Z Z Z Z Z Z Z

>  <atom.prop.IS_HEAVY_ATOM>  (2266) 
1 0 0 0 1 1 1 1 0 0 0 1 1 0 1 0 1 0 1 0 1 0

>  <DIFUSE_FUNC_ATOM>  (2266) 
atom 6   atom 7   

>  <FINAL_SINGLE_POINT_ENERGY>  (2266) 
0

>  <NONCOV_INTER_ENERGY_QM>  (2266) 
0

>  <FF_Energy>  (2266) 
13.92

>  <QM_Energy>  (2266) 
-2.49

>  <source>  (2266) 
ACET_MBZ_02

>  <Index>  (2266) 
24119

$$$$
ACET-pdb5e7q-A-ASP-25:MBZ-pdb5e7q-A-PHE-65
     RDKit          3D

 22 21  0  0  0  0  0  0  0  0999 V2000
    3.1231    2.7763   -2.2298 C   0  0  0  0  0  0  0  0  0  0  0  0
    2.4740    3.4825   -1.9992 H   0  0  0  0  0  0  0  0  0  0  0  0
    2.6964    1.8884   -2.2716 H   0  0  0  0  0  0  0  0  0  0  0  0
    3.5247    3.0013   -3.2178 H   0  0  0  0  0  0  0  0  0  0  0  0
    4.2192    2.7425   -1.1347 C   0  0  0  0  0  0  0  0  0  0  0  0
    5.4037    2.9179   -1.5029 O   0  0  0  0  0  1  0  0  0  0  0  0
    3.9106    2.5675    0.0815 O   0  0  0  0  0  0  0  0  0  0  0  0
   -0.0068    2.8882   -0.0540 C   0  0  0  0  0  0  0  0  0  0  0  0
   -0.8794    3.1773   -0.4319 H   0  0  0  0  0  0  0  0  0  0  0  0
    0.7396    3.1754   -0.6436 H   0  0  0  0  0  0  0  0  0  0  0  0
    0.1199    3.3795    0.9107 H   0  0  0  0  0  0  0  0  0  0  0  0
   -0.0012    1.3944    0.0031 C   0  0  0  0  0  0  0  0  0  0  0  0
   -1.1881    0.6979    0.0041 C   0  0  0  0  0  0  0  0  0  0  0  0
   -2.0583    1.1810    0.0067 H   0  0  0  0  0  0  0  0  0  0  0  0
   -1.1924   -0.7001   -0.0000 C   0  0  0  0  0  0  0  0  0  0  0  0
   -2.0721   -1.1877   -0.0100 H   0  0  0  0  0  0  0  0  0  0  0  0
    0.0022   -1.3930    0.0117 C   0  0  0  0  0  0  0  0  0  0  0  0
    0.0048   -2.3891    0.0283 H   0  0  0  0  0  0  0  0  0  0  0  0
    1.1924   -0.6861    0.0000 C   0  0  0  0  0  0  0  0  0  0  0  0
    2.0795   -1.1881    0.0067 H   0  0  0  0  0  0  0  0  0  0  0  0
    1.1870    0.6869   -0.0189 C   0  0  0  0  0  0  0  0  0  0  0  0
    2.0580    1.1888   -0.0498 H   0  0  0  0  0  0  0  0  0  0  0  0
  1  5  1  0
  5  6  1  0
  5  7  2  0
  1  2  1  0
  1  3  1  0
  1  4  1  0
  8 12  1  0
 12 13  2  0
 13 15  1  0
 15 17  2  0
 17 19  1  0
 19 21  2  0
 21 12  1  0
  8  9  1  0
  8 10  1  0
  8 11  1  0
 13 14  1  0
 15 16  1  0
 17 18  1  0
 19 20  1  0
 21 22  1  0
M  CHG  1   6  -1
M  END
>  <PDB_ID>  (2267) 
pdb5e7q

>  <RESIDUE_NAME>  (2267) 
ASP   PHE

>  <FRAG_NAME>  (2267) 
ACET   MBZ

>  <FRAG_ATOM_NUM>  (2267) 
fragi: 7  fragj: 15

>  <atom.prop.CHAIN_ID>  (2267) 
A A A A A A A Z Z Z Z Z Z Z Z Z Z Z Z Z Z Z

>  <atom.prop.IS_HEAVY_ATOM>  (2267) 
1 0 0 0 1 1 1 1 0 0 0 1 1 0 1 0 1 0 1 0 1 0

>  <DIFUSE_FUNC_ATOM>  (2267) 
atom 6   atom 7   

>  <FINAL_SINGLE_POINT_ENERGY>  (2267) 
0

>  <NONCOV_INTER_ENERGY_QM>  (2267) 
0

>  <FF_Energy>  (2267) 
-1.83

>  <QM_Energy>  (2267) 
-7.01

>  <source>  (2267) 
ACET_MBZ_02

>  <Index>  (2267) 
24161

$$$$
ACET-pdb5e7q-B-ASP-25:MBZ-pdb5e7q-B-PHE-65
     RDKit          3D

 22 21  0  0  0  0  0  0  0  0999 V2000
    3.0845    2.8568   -2.2238 C   0  0  0  0  0  0  0  0  0  0  0  0
    2.4400    3.5603   -1.9646 H   0  0  0  0  0  0  0  0  0  0  0  0
    2.6456    1.9749   -2.2967 H   0  0  0  0  0  0  0  0  0  0  0  0
    3.4843    3.1146   -3.2046 H   0  0  0  0  0  0  0  0  0  0  0  0
    4.1784    2.7722   -1.1409 C   0  0  0  0  0  0  0  0  0  0  0  0
    5.3853    2.7958   -1.5052 O   0  0  0  0  0  1  0  0  0  0  0  0
    3.8347    2.6903    0.0743 O   0  0  0  0  0  0  0  0  0  0  0  0
   -0.0146    2.8984   -0.0411 C   0  0  0  0  0  0  0  0  0  0  0  0
   -0.8923    3.1874   -0.4005 H   0  0  0  0  0  0  0  0  0  0  0  0
    0.7241    3.1930   -0.6330 H   0  0  0  0  0  0  0  0  0  0  0  0
    0.1237    3.3761    0.9289 H   0  0  0  0  0  0  0  0  0  0  0  0
   -0.0032    1.3989    0.0036 C   0  0  0  0  0  0  0  0  0  0  0  0
   -1.1856    0.6976    0.0035 C   0  0  0  0  0  0  0  0  0  0  0  0
   -2.0592    1.1804    0.0046 H   0  0  0  0  0  0  0  0  0  0  0  0
   -1.1926   -0.6995    0.0000 C   0  0  0  0  0  0  0  0  0  0  0  0
   -2.0764   -1.1838   -0.0031 H   0  0  0  0  0  0  0  0  0  0  0  0
   -0.0036   -1.3955    0.0024 C   0  0  0  0  0  0  0  0  0  0  0  0
   -0.0016   -2.3915    0.0050 H   0  0  0  0  0  0  0  0  0  0  0  0
    1.1926   -0.6918    0.0000 C   0  0  0  0  0  0  0  0  0  0  0  0
    2.0779   -1.1938    0.0071 H   0  0  0  0  0  0  0  0  0  0  0  0
    1.1924    0.6904   -0.0095 C   0  0  0  0  0  0  0  0  0  0  0  0
    2.0600    1.1885   -0.0264 H   0  0  0  0  0  0  0  0  0  0  0  0
  1  5  1  0
  5  6  1  0
  5  7  2  0
  1  2  1  0
  1  3  1  0
  1  4  1  0
  8 12  1  0
 12 13  2  0
 13 15  1  0
 15 17  2  0
 17 19  1  0
 19 21  2  0
 21 12  1  0
  8  9  1  0
  8 10  1  0
  8 11  1  0
 13 14  1  0
 15 16  1  0
 17 18  1  0
 19 20  1  0
 21 22  1  0
M  CHG  1   6  -1
M  END
>  <PDB_ID>  (2268) 
pdb5e7q

>  <RESIDUE_NAME>  (2268) 
ASP   PHE

>  <FRAG_NAME>  (2268) 
ACET   MBZ

>  <FRAG_ATOM_NUM>  (2268) 
fragi: 7  fragj: 15

>  <atom.prop.CHAIN_ID>  (2268) 
A A A A A A A Z Z Z Z Z Z Z Z Z Z Z Z Z Z Z

>  <atom.prop.IS_HEAVY_ATOM>  (2268) 
1 0 0 0 1 1 1 1 0 0 0 1 1 0 1 0 1 0 1 0 1 0

>  <DIFUSE_FUNC_ATOM>  (2268) 
atom 6   atom 7   

>  <FINAL_SINGLE_POINT_ENERGY>  (2268) 
0

>  <NONCOV_INTER_ENERGY_QM>  (2268) 
0

>  <FF_Energy>  (2268) 
-1.91

>  <QM_Energy>  (2268) 
-7.06

>  <source>  (2268) 
ACET_MBZ_02

>  <Index>  (2268) 
24167

$$$$
ACET-pdb6efw-A-GLU-232:MBZ-pdb6efw-A-PHE-222
     RDKit          3D

 22 21  0  0  0  0  0  0  0  0999 V2000
    1.4124    0.7794    4.6946 C   0  0  0  0  0  0  0  0  0  0  0  0
    1.1904    1.7302    4.6805 H   0  0  0  0  0  0  0  0  0  0  0  0
    2.3721    0.6054    4.7466 H   0  0  0  0  0  0  0  0  0  0  0  0
    0.9616    0.3600    5.5940 H   0  0  0  0  0  0  0  0  0  0  0  0
    0.8772    0.1414    3.4257 C   0  0  0  0  0  0  0  0  0  0  0  0
   -0.0897   -0.6505    3.5353 O   0  0  0  0  0  1  0  0  0  0  0  0
    1.4195    0.4243    2.3268 O   0  0  0  0  0  0  0  0  0  0  0  0
   -0.0093    2.8927   -0.0249 C   0  0  0  0  0  0  0  0  0  0  0  0
   -0.8204    3.1913   -0.5311 H   0  0  0  0  0  0  0  0  0  0  0  0
    0.8121    3.2037   -0.5062 H   0  0  0  0  0  0  0  0  0  0  0  0
   -0.0278    3.3954    0.9422 H   0  0  0  0  0  0  0  0  0  0  0  0
    0.0015    1.3988   -0.0073 C   0  0  0  0  0  0  0  0  0  0  0  0
   -1.1980    0.6923   -0.0085 C   0  0  0  0  0  0  0  0  0  0  0  0
   -2.0638    1.1936   -0.0167 H   0  0  0  0  0  0  0  0  0  0  0  0
   -1.2189   -0.6931   -0.0000 C   0  0  0  0  0  0  0  0  0  0  0  0
   -2.0880   -1.1860   -0.0106 H   0  0  0  0  0  0  0  0  0  0  0  0
   -0.0066   -1.3902    0.0257 C   0  0  0  0  0  0  0  0  0  0  0  0
   -0.0110   -2.3900    0.0615 H   0  0  0  0  0  0  0  0  0  0  0  0
    1.2189   -0.7006    0.0000 C   0  0  0  0  0  0  0  0  0  0  0  0
    2.0851   -1.2006   -0.0097 H   0  0  0  0  0  0  0  0  0  0  0  0
    1.2030    0.6928   -0.0099 C   0  0  0  0  0  0  0  0  0  0  0  0
    2.0698    1.1945   -0.0189 H   0  0  0  0  0  0  0  0  0  0  0  0
  1  5  1  0
  5  6  1  0
  5  7  2  0
  1  2  1  0
  1  3  1  0
  1  4  1  0
  8 12  1  0
 12 13  2  0
 13 15  1  0
 15 17  2  0
 17 19  1  0
 19 21  2  0
 21 12  1  0
  8  9  1  0
  8 10  1  0
  8 11  1  0
 13 14  1  0
 15 16  1  0
 17 18  1  0
 19 20  1  0
 21 22  1  0
M  CHG  1   6  -1
M  END
>  <PDB_ID>  (2269) 
pdb6efw

>  <RESIDUE_NAME>  (2269) 
GLU   PHE

>  <FRAG_NAME>  (2269) 
ACET   MBZ

>  <FRAG_ATOM_NUM>  (2269) 
fragi: 7  fragj: 15

>  <atom.prop.CHAIN_ID>  (2269) 
A A A A A A A Z Z Z Z Z Z Z Z Z Z Z Z Z Z Z

>  <atom.prop.IS_HEAVY_ATOM>  (2269) 
1 0 0 0 1 1 1 1 0 0 0 1 1 0 1 0 1 0 1 0 1 0

>  <DIFUSE_FUNC_ATOM>  (2269) 
atom 6   atom 7   

>  <FINAL_SINGLE_POINT_ENERGY>  (2269) 
0

>  <NONCOV_INTER_ENERGY_QM>  (2269) 
0

>  <FF_Energy>  (2269) 
29.97

>  <QM_Energy>  (2269) 
9.56

>  <source>  (2269) 
ACET_MBZ_02

>  <Index>  (2269) 
24237

$$$$
ACET-pdb6ehn-A-ASP-336:MBZ-pdb6ehn-A-PHE-279
     RDKit          3D

 22 21  0  0  0  0  0  0  0  0999 V2000
   -3.1227    2.3979    2.6123 C   0  0  0  0  0  0  0  0  0  0  0  0
   -3.1705    2.6202    1.6451 H   0  0  0  0  0  0  0  0  0  0  0  0
   -3.6630    3.0407    3.1440 H   0  0  0  0  0  0  0  0  0  0  0  0
   -3.5510    1.4050    2.7491 H   0  0  0  0  0  0  0  0  0  0  0  0
   -1.6723    2.4882    3.0631 C   0  0  0  0  0  0  0  0  0  0  0  0
   -1.0751    1.4174    3.3028 O   0  0  0  0  0  1  0  0  0  0  0  0
   -1.1533    3.6289    3.1734 O   0  0  0  0  0  0  0  0  0  0  0  0
    0.0078    2.9425    0.0477 C   0  0  0  0  0  0  0  0  0  0  0  0
    0.9538    3.2282    0.1745 H   0  0  0  0  0  0  0  0  0  0  0  0
   -0.5427    3.2201    0.8294 H   0  0  0  0  0  0  0  0  0  0  0  0
   -0.3807    3.4533   -0.8333 H   0  0  0  0  0  0  0  0  0  0  0  0
   -0.0044    1.4173    0.0009 C   0  0  0  0  0  0  0  0  0  0  0  0
   -1.2049    0.6751    0.0237 C   0  0  0  0  0  0  0  0  0  0  0  0
   -2.0752    1.1525    0.0562 H   0  0  0  0  0  0  0  0  0  0  0  0
   -1.1955   -0.7327    0.0000 C   0  0  0  0  0  0  0  0  0  0  0  0
   -2.0611   -1.2301   -0.0169 H   0  0  0  0  0  0  0  0  0  0  0  0
    0.0237   -1.4059    0.0030 C   0  0  0  0  0  0  0  0  0  0  0  0
    0.0454   -2.3973    0.0069 H   0  0  0  0  0  0  0  0  0  0  0  0
    1.1955   -0.6666    0.0000 C   0  0  0  0  0  0  0  0  0  0  0  0
    2.0992   -1.1561    0.0203 H   0  0  0  0  0  0  0  0  0  0  0  0
    1.1856    0.7128   -0.0276 C   0  0  0  0  0  0  0  0  0  0  0  0
    2.0549    1.2140   -0.0701 H   0  0  0  0  0  0  0  0  0  0  0  0
  1  5  1  0
  5  6  1  0
  5  7  2  0
  1  2  1  0
  1  3  1  0
  1  4  1  0
  8 12  1  0
 12 13  2  0
 13 15  1  0
 15 17  2  0
 17 19  1  0
 19 21  2  0
 21 12  1  0
  8  9  1  0
  8 10  1  0
  8 11  1  0
 13 14  1  0
 15 16  1  0
 17 18  1  0
 19 20  1  0
 21 22  1  0
M  CHG  1   6  -1
M  END
>  <PDB_ID>  (2270) 
pdb6ehn

>  <RESIDUE_NAME>  (2270) 
ASP   PHE

>  <FRAG_NAME>  (2270) 
ACET   MBZ

>  <FRAG_ATOM_NUM>  (2270) 
fragi: 7  fragj: 15

>  <atom.prop.CHAIN_ID>  (2270) 
A A A A A A A Z Z Z Z Z Z Z Z Z Z Z Z Z Z Z

>  <atom.prop.IS_HEAVY_ATOM>  (2270) 
1 0 0 0 1 1 1 1 0 0 0 1 1 0 1 0 1 0 1 0 1 0

>  <DIFUSE_FUNC_ATOM>  (2270) 
atom 6   atom 7   

>  <FINAL_SINGLE_POINT_ENERGY>  (2270) 
0

>  <NONCOV_INTER_ENERGY_QM>  (2270) 
0

>  <FF_Energy>  (2270) 
2.06

>  <QM_Energy>  (2270) 
-3.61

>  <source>  (2270) 
ACET_MBZ_02

>  <Index>  (2270) 
24263

$$$$
ACET-pdb5ech-A-ASP-190:MBZ-pdb5ech-A-PHE-194
     RDKit          3D

 22 21  0  0  0  0  0  0  0  0999 V2000
    5.7084    0.5672   -0.6171 C   0  0  0  0  0  0  0  0  0  0  0  0
    6.5457    0.0604   -0.7778 H   0  0  0  0  0  0  0  0  0  0  0  0
    5.8857    1.3728   -0.0659 H   0  0  0  0  0  0  0  0  0  0  0  0
    5.3227    0.8962   -1.5820 H   0  0  0  0  0  0  0  0  0  0  0  0
    4.7311   -0.3262    0.1221 C   0  0  0  0  0  0  0  0  0  0  0  0
    4.0124   -1.0944   -0.5541 O   0  0  0  0  0  1  0  0  0  0  0  0
    4.6825   -0.2584    1.3714 O   0  0  0  0  0  0  0  0  0  0  0  0
   -0.0073    2.8926   -0.0251 C   0  0  0  0  0  0  0  0  0  0  0  0
    0.9280    3.2048    0.0045 H   0  0  0  0  0  0  0  0  0  0  0  0
   -0.5244    3.2107    0.7522 H   0  0  0  0  0  0  0  0  0  0  0  0
   -0.4678    3.3052   -0.9227 H   0  0  0  0  0  0  0  0  0  0  0  0
   -0.0018    1.3932   -0.0027 C   0  0  0  0  0  0  0  0  0  0  0  0
   -1.1868    0.6885   -0.0020 C   0  0  0  0  0  0  0  0  0  0  0  0
   -2.0571    1.1764   -0.0043 H   0  0  0  0  0  0  0  0  0  0  0  0
   -1.1826   -0.6899   -0.0000 C   0  0  0  0  0  0  0  0  0  0  0  0
   -2.0657   -1.1883   -0.0047 H   0  0  0  0  0  0  0  0  0  0  0  0
    0.0041   -1.3792    0.0097 C   0  0  0  0  0  0  0  0  0  0  0  0
   -0.0048   -2.3844    0.0235 H   0  0  0  0  0  0  0  0  0  0  0  0
    1.1826   -0.6964    0.0000 C   0  0  0  0  0  0  0  0  0  0  0  0
    2.0727   -1.1933   -0.0023 H   0  0  0  0  0  0  0  0  0  0  0  0
    1.1845    0.6838   -0.0049 C   0  0  0  0  0  0  0  0  0  0  0  0
    2.0573    1.1791   -0.0113 H   0  0  0  0  0  0  0  0  0  0  0  0
  1  5  1  0
  5  6  1  0
  5  7  2  0
  1  2  1  0
  1  3  1  0
  1  4  1  0
  8 12  1  0
 12 13  2  0
 13 15  1  0
 15 17  2  0
 17 19  1  0
 19 21  2  0
 21 12  1  0
  8  9  1  0
  8 10  1  0
  8 11  1  0
 13 14  1  0
 15 16  1  0
 17 18  1  0
 19 20  1  0
 21 22  1  0
M  CHG  1   6  -1
M  END
>  <PDB_ID>  (2271) 
pdb5ech

>  <RESIDUE_NAME>  (2271) 
ASP   PHE

>  <FRAG_NAME>  (2271) 
ACET   MBZ

>  <FRAG_ATOM_NUM>  (2271) 
fragi: 7  fragj: 15

>  <atom.prop.CHAIN_ID>  (2271) 
A A A A A A A Z Z Z Z Z Z Z Z Z Z Z Z Z Z Z

>  <atom.prop.IS_HEAVY_ATOM>  (2271) 
1 0 0 0 1 1 1 1 0 0 0 1 1 0 1 0 1 0 1 0 1 0

>  <DIFUSE_FUNC_ATOM>  (2271) 
atom 6   atom 7   

>  <FINAL_SINGLE_POINT_ENERGY>  (2271) 
0

>  <NONCOV_INTER_ENERGY_QM>  (2271) 
0

>  <FF_Energy>  (2271) 
4.39

>  <QM_Energy>  (2271) 
-6.29

>  <source>  (2271) 
ACET_MBZ_02

>  <Index>  (2271) 
24321

$$$$
ACET-pdb5ech-A-GLU-480:MBZ-pdb5ech-A-PHE-528
     RDKit          3D

 22 21  0  0  0  0  0  0  0  0999 V2000
   -5.0680    2.5361   -1.1060 C   0  0  0  0  0  0  0  0  0  0  0  0
   -5.3433    3.0274   -1.9119 H   0  0  0  0  0  0  0  0  0  0  0  0
   -5.8309    2.3087   -0.5289 H   0  0  0  0  0  0  0  0  0  0  0  0
   -4.5877    1.6093   -1.4199 H   0  0  0  0  0  0  0  0  0  0  0  0
   -4.1439    3.4363   -0.3112 C   0  0  0  0  0  0  0  0  0  0  0  0
   -3.0710    2.9620    0.0880 O   0  0  0  0  0  1  0  0  0  0  0  0
   -4.4877    4.6190   -0.0808 O   0  0  0  0  0  0  0  0  0  0  0  0
   -0.0031    2.8907    0.0095 C   0  0  0  0  0  0  0  0  0  0  0  0
   -0.8100    3.1995   -0.4668 H   0  0  0  0  0  0  0  0  0  0  0  0
    0.8233    3.2018   -0.4310 H   0  0  0  0  0  0  0  0  0  0  0  0
   -0.0254    3.3074    1.0165 H   0  0  0  0  0  0  0  0  0  0  0  0
   -0.0006    1.3894   -0.0065 C   0  0  0  0  0  0  0  0  0  0  0  0
   -1.1881    0.6799    0.0017 C   0  0  0  0  0  0  0  0  0  0  0  0
   -2.0593    1.1740    0.0077 H   0  0  0  0  0  0  0  0  0  0  0  0
   -1.1932   -0.6965   -0.0000 C   0  0  0  0  0  0  0  0  0  0  0  0
   -2.0717   -1.1929   -0.0022 H   0  0  0  0  0  0  0  0  0  0  0  0
   -0.0022   -1.3788    0.0029 C   0  0  0  0  0  0  0  0  0  0  0  0
    0.0012   -2.3829    0.0064 H   0  0  0  0  0  0  0  0  0  0  0  0
    1.1932   -0.6848   -0.0000 C   0  0  0  0  0  0  0  0  0  0  0  0
    2.0757   -1.1892   -0.0022 H   0  0  0  0  0  0  0  0  0  0  0  0
    1.1910    0.6907    0.0019 C   0  0  0  0  0  0  0  0  0  0  0  0
    2.0582    1.1919    0.0088 H   0  0  0  0  0  0  0  0  0  0  0  0
  1  5  1  0
  5  6  1  0
  5  7  2  0
  1  2  1  0
  1  3  1  0
  1  4  1  0
  8 12  1  0
 12 13  2  0
 13 15  1  0
 15 17  2  0
 17 19  1  0
 19 21  2  0
 21 12  1  0
  8  9  1  0
  8 10  1  0
  8 11  1  0
 13 14  1  0
 15 16  1  0
 17 18  1  0
 19 20  1  0
 21 22  1  0
M  CHG  1   6  -1
M  END
>  <PDB_ID>  (2272) 
pdb5ech

>  <RESIDUE_NAME>  (2272) 
GLU   PHE

>  <FRAG_NAME>  (2272) 
ACET   MBZ

>  <FRAG_ATOM_NUM>  (2272) 
fragi: 7  fragj: 15

>  <atom.prop.CHAIN_ID>  (2272) 
A A A A A A A Z Z Z Z Z Z Z Z Z Z Z Z Z Z Z

>  <atom.prop.IS_HEAVY_ATOM>  (2272) 
1 0 0 0 1 1 1 1 0 0 0 1 1 0 1 0 1 0 1 0 1 0

>  <DIFUSE_FUNC_ATOM>  (2272) 
atom 6   atom 7   

>  <FINAL_SINGLE_POINT_ENERGY>  (2272) 
0

>  <NONCOV_INTER_ENERGY_QM>  (2272) 
0

>  <FF_Energy>  (2272) 
4.24

>  <QM_Energy>  (2272) 
-7.59

>  <source>  (2272) 
ACET_MBZ_02

>  <Index>  (2272) 
24324

$$$$
ACET-pdb5ech-C-GLU-25:MBZ-pdb5ech-C-PHE-150
     RDKit          3D

 22 21  0  0  0  0  0  0  0  0999 V2000
    3.6576    1.2939   -2.6126 C   0  0  0  0  0  0  0  0  0  0  0  0
    3.7005    1.2429   -1.6314 H   0  0  0  0  0  0  0  0  0  0  0  0
    4.0975    2.1005   -2.9632 H   0  0  0  0  0  0  0  0  0  0  0  0
    4.1706    0.4226   -3.0198 H   0  0  0  0  0  0  0  0  0  0  0  0
    2.1886    1.3649   -3.0058 C   0  0  0  0  0  0  0  0  0  0  0  0
    1.6596    0.3784   -3.5664 O   0  0  0  0  0  1  0  0  0  0  0  0
    1.5565    2.4119   -2.7449 O   0  0  0  0  0  0  0  0  0  0  0  0
    0.0025    2.8905   -0.0044 C   0  0  0  0  0  0  0  0  0  0  0  0
   -0.7046    3.1979   -0.6231 H   0  0  0  0  0  0  0  0  0  0  0  0
    0.8960    3.1966   -0.2988 H   0  0  0  0  0  0  0  0  0  0  0  0
   -0.1944    3.3325    0.9723 H   0  0  0  0  0  0  0  0  0  0  0  0
   -0.0000    1.3921   -0.0012 C   0  0  0  0  0  0  0  0  0  0  0  0
   -1.1925    0.6869   -0.0019 C   0  0  0  0  0  0  0  0  0  0  0  0
   -2.0599    1.1789   -0.0057 H   0  0  0  0  0  0  0  0  0  0  0  0
   -1.1944   -0.6941   -0.0000 C   0  0  0  0  0  0  0  0  0  0  0  0
   -2.0716   -1.1923    0.0038 H   0  0  0  0  0  0  0  0  0  0  0  0
    0.0024   -1.3824   -0.0010 C   0  0  0  0  0  0  0  0  0  0  0  0
    0.0000   -2.3848   -0.0037 H   0  0  0  0  0  0  0  0  0  0  0  0
    1.1944   -0.6888   -0.0000 C   0  0  0  0  0  0  0  0  0  0  0  0
    2.0786   -1.1908   -0.0012 H   0  0  0  0  0  0  0  0  0  0  0  0
    1.1902    0.6862    0.0041 C   0  0  0  0  0  0  0  0  0  0  0  0
    2.0598    1.1878    0.0102 H   0  0  0  0  0  0  0  0  0  0  0  0
  1  5  1  0
  5  6  1  0
  5  7  2  0
  1  2  1  0
  1  3  1  0
  1  4  1  0
  8 12  1  0
 12 13  2  0
 13 15  1  0
 15 17  2  0
 17 19  1  0
 19 21  2  0
 21 12  1  0
  8  9  1  0
  8 10  1  0
  8 11  1  0
 13 14  1  0
 15 16  1  0
 17 18  1  0
 19 20  1  0
 21 22  1  0
M  CHG  1   6  -1
M  END
>  <PDB_ID>  (2273) 
pdb5ech

>  <RESIDUE_NAME>  (2273) 
GLU   PHE

>  <FRAG_NAME>  (2273) 
ACET   MBZ

>  <FRAG_ATOM_NUM>  (2273) 
fragi: 7  fragj: 15

>  <atom.prop.CHAIN_ID>  (2273) 
A A A A A A A Z Z Z Z Z Z Z Z Z Z Z Z Z Z Z

>  <atom.prop.IS_HEAVY_ATOM>  (2273) 
1 0 0 0 1 1 1 1 0 0 0 1 1 0 1 0 1 0 1 0 1 0

>  <DIFUSE_FUNC_ATOM>  (2273) 
atom 6   atom 7   

>  <FINAL_SINGLE_POINT_ENERGY>  (2273) 
0

>  <NONCOV_INTER_ENERGY_QM>  (2273) 
0

>  <FF_Energy>  (2273) 
2.81

>  <QM_Energy>  (2273) 
-3.55

>  <source>  (2273) 
ACET_MBZ_02

>  <Index>  (2273) 
24331

$$$$
ACET-pdb5ech-F-GLU-168:MBZ-pdb5ech-F-PHE-164
     RDKit          3D

 22 21  0  0  0  0  0  0  0  0999 V2000
   -0.9712    4.6563    4.5677 C   0  0  0  0  0  0  0  0  0  0  0  0
   -1.0738    4.1665    5.4067 H   0  0  0  0  0  0  0  0  0  0  0  0
   -1.5411    4.3159    3.8495 H   0  0  0  0  0  0  0  0  0  0  0  0
   -1.2152    5.7041    4.7429 H   0  0  0  0  0  0  0  0  0  0  0  0
    0.4742    4.4911    4.1175 C   0  0  0  0  0  0  0  0  0  0  0  0
    0.6749    3.8258    3.0989 O   0  0  0  0  0  1  0  0  0  0  0  0
    1.4279    4.9746    4.7829 O   0  0  0  0  0  0  0  0  0  0  0  0
   -0.0126    2.9175   -0.0000 C   0  0  0  0  0  0  0  0  0  0  0  0
    0.5402    3.2230   -0.7557 H   0  0  0  0  0  0  0  0  0  0  0  0
    0.3473    3.2216    0.8657 H   0  0  0  0  0  0  0  0  0  0  0  0
   -1.0098    3.3413   -0.1187 H   0  0  0  0  0  0  0  0  0  0  0  0
   -0.0011    1.4036    0.0000 C   0  0  0  0  0  0  0  0  0  0  0  0
   -1.1928    0.6887   -0.0012 C   0  0  0  0  0  0  0  0  0  0  0  0
   -2.0630    1.1781   -0.0039 H   0  0  0  0  0  0  0  0  0  0  0  0
   -1.1978   -0.7006    0.0000 C   0  0  0  0  0  0  0  0  0  0  0  0
   -2.0750   -1.1941    0.0030 H   0  0  0  0  0  0  0  0  0  0  0  0
    0.0010   -1.3939   -0.0018 C   0  0  0  0  0  0  0  0  0  0  0  0
   -0.0004   -2.3925   -0.0046 H   0  0  0  0  0  0  0  0  0  0  0  0
    1.1978   -0.6946   -0.0000 C   0  0  0  0  0  0  0  0  0  0  0  0
    2.0824   -1.1896    0.0004 H   0  0  0  0  0  0  0  0  0  0  0  0
    1.1929    0.6969    0.0030 C   0  0  0  0  0  0  0  0  0  0  0  0
    2.0624    1.1918    0.0069 H   0  0  0  0  0  0  0  0  0  0  0  0
  1  5  1  0
  5  6  1  0
  5  7  2  0
  1  2  1  0
  1  3  1  0
  1  4  1  0
  8 12  1  0
 12 13  2  0
 13 15  1  0
 15 17  2  0
 17 19  1  0
 19 21  2  0
 21 12  1  0
  8  9  1  0
  8 10  1  0
  8 11  1  0
 13 14  1  0
 15 16  1  0
 17 18  1  0
 19 20  1  0
 21 22  1  0
M  CHG  1   6  -1
M  END
>  <PDB_ID>  (2274) 
pdb5ech

>  <RESIDUE_NAME>  (2274) 
GLU   PHE

>  <FRAG_NAME>  (2274) 
ACET   MBZ

>  <FRAG_ATOM_NUM>  (2274) 
fragi: 7  fragj: 15

>  <atom.prop.CHAIN_ID>  (2274) 
A A A A A A A Z Z Z Z Z Z Z Z Z Z Z Z Z Z Z

>  <atom.prop.IS_HEAVY_ATOM>  (2274) 
1 0 0 0 1 1 1 1 0 0 0 1 1 0 1 0 1 0 1 0 1 0

>  <DIFUSE_FUNC_ATOM>  (2274) 
atom 6   atom 7   

>  <FINAL_SINGLE_POINT_ENERGY>  (2274) 
0

>  <NONCOV_INTER_ENERGY_QM>  (2274) 
0

>  <FF_Energy>  (2274) 
0.5

>  <QM_Energy>  (2274) 
-4.79

>  <source>  (2274) 
ACET_MBZ_02

>  <Index>  (2274) 
24352

$$$$
ACET-pdb6efn-A-ASP-294:MBZ-pdb6efn-A-PHE-297
     RDKit          3D

 22 21  0  0  0  0  0  0  0  0999 V2000
    5.6988    2.3721    0.0569 C   0  0  0  0  0  0  0  0  0  0  0  0
    6.4244    2.5226   -0.6092 H   0  0  0  0  0  0  0  0  0  0  0  0
    6.0702    1.9442    0.8753 H   0  0  0  0  0  0  0  0  0  0  0  0
    5.2970    3.3451    0.3395 H   0  0  0  0  0  0  0  0  0  0  0  0
    4.6643    1.4303   -0.5569 C   0  0  0  0  0  0  0  0  0  0  0  0
    3.6955    1.8824   -1.2032 O   0  0  0  0  0  1  0  0  0  0  0  0
    4.8370    0.2047   -0.3979 O   0  0  0  0  0  0  0  0  0  0  0  0
   -0.0021    2.8911   -0.0040 C   0  0  0  0  0  0  0  0  0  0  0  0
    0.8809    3.2017    0.3134 H   0  0  0  0  0  0  0  0  0  0  0  0
   -0.7273    3.1999    0.5929 H   0  0  0  0  0  0  0  0  0  0  0  0
   -0.1740    3.3235   -0.9897 H   0  0  0  0  0  0  0  0  0  0  0  0
    0.0007    1.3940    0.0021 C   0  0  0  0  0  0  0  0  0  0  0  0
   -1.1905    0.6901   -0.0040 C   0  0  0  0  0  0  0  0  0  0  0  0
   -2.0581    1.1837   -0.0124 H   0  0  0  0  0  0  0  0  0  0  0  0
   -1.1944   -0.6896   -0.0000 C   0  0  0  0  0  0  0  0  0  0  0  0
   -2.0759   -1.1857    0.0043 H   0  0  0  0  0  0  0  0  0  0  0  0
   -0.0026   -1.3860    0.0001 C   0  0  0  0  0  0  0  0  0  0  0  0
   -0.0086   -2.3874   -0.0004 H   0  0  0  0  0  0  0  0  0  0  0  0
    1.1944   -0.6965    0.0000 C   0  0  0  0  0  0  0  0  0  0  0  0
    2.0763   -1.1972    0.0004 H   0  0  0  0  0  0  0  0  0  0  0  0
    1.1925    0.6879    0.0018 C   0  0  0  0  0  0  0  0  0  0  0  0
    2.0619    1.1845    0.0017 H   0  0  0  0  0  0  0  0  0  0  0  0
  1  5  1  0
  5  6  1  0
  5  7  2  0
  1  2  1  0
  1  3  1  0
  1  4  1  0
  8 12  1  0
 12 13  2  0
 13 15  1  0
 15 17  2  0
 17 19  1  0
 19 21  2  0
 21 12  1  0
  8  9  1  0
  8 10  1  0
  8 11  1  0
 13 14  1  0
 15 16  1  0
 17 18  1  0
 19 20  1  0
 21 22  1  0
M  CHG  1   6  -1
M  END
>  <PDB_ID>  (2275) 
pdb6efn

>  <RESIDUE_NAME>  (2275) 
ASP   PHE

>  <FRAG_NAME>  (2275) 
ACET   MBZ

>  <FRAG_ATOM_NUM>  (2275) 
fragi: 7  fragj: 15

>  <atom.prop.CHAIN_ID>  (2275) 
A A A A A A A Z Z Z Z Z Z Z Z Z Z Z Z Z Z Z

>  <atom.prop.IS_HEAVY_ATOM>  (2275) 
1 0 0 0 1 1 1 1 0 0 0 1 1 0 1 0 1 0 1 0 1 0

>  <DIFUSE_FUNC_ATOM>  (2275) 
atom 6   atom 7   

>  <FINAL_SINGLE_POINT_ENERGY>  (2275) 
0

>  <NONCOV_INTER_ENERGY_QM>  (2275) 
0

>  <FF_Energy>  (2275) 
0.55

>  <QM_Energy>  (2275) 
-7.13

>  <source>  (2275) 
ACET_MBZ_02

>  <Index>  (2275) 
24367

$$$$
ACET-pdb6erk-B-GLU-248:MBZ-pdb6erk-B-PHE-260
     RDKit          3D

 22 21  0  0  0  0  0  0  0  0999 V2000
   -4.7898    3.2887    1.3547 C   0  0  0  0  0  0  0  0  0  0  0  0
   -5.5380    3.9365    1.3191 H   0  0  0  0  0  0  0  0  0  0  0  0
   -4.4235    3.2199    2.2723 H   0  0  0  0  0  0  0  0  0  0  0  0
   -5.1790    2.3104    1.0728 H   0  0  0  0  0  0  0  0  0  0  0  0
   -3.6778    3.8269    0.4591 C   0  0  0  0  0  0  0  0  0  0  0  0
   -3.6528    3.5316   -0.7864 O   0  0  0  0  0  1  0  0  0  0  0  0
   -2.8386    4.6527    0.9622 O   0  0  0  0  0  0  0  0  0  0  0  0
   -0.0341    2.9005   -0.1985 C   0  0  0  0  0  0  0  0  0  0  0  0
    0.8369    3.2497    0.0722 H   0  0  0  0  0  0  0  0  0  0  0  0
   -0.7739    3.2382    0.3432 H   0  0  0  0  0  0  0  0  0  0  0  0
   -0.2111    3.1835   -1.2362 H   0  0  0  0  0  0  0  0  0  0  0  0
    0.0007    1.4043   -0.0577 C   0  0  0  0  0  0  0  0  0  0  0  0
   -1.2097    0.6792   -0.0270 C   0  0  0  0  0  0  0  0  0  0  0  0
   -2.0711    1.1670   -0.0262 H   0  0  0  0  0  0  0  0  0  0  0  0
   -1.2004   -0.7159    0.0000 C   0  0  0  0  0  0  0  0  0  0  0  0
   -2.0631   -1.2210   -0.0399 H   0  0  0  0  0  0  0  0  0  0  0  0
    0.0185   -1.3925    0.0846 C   0  0  0  0  0  0  0  0  0  0  0  0
    0.0180   -2.3863    0.2068 H   0  0  0  0  0  0  0  0  0  0  0  0
    1.2004   -0.6939    0.0000 C   0  0  0  0  0  0  0  0  0  0  0  0
    2.0907   -1.1728   -0.0617 H   0  0  0  0  0  0  0  0  0  0  0  0
    1.1904    0.7188    0.0001 C   0  0  0  0  0  0  0  0  0  0  0  0
    2.0589    1.2046    0.0417 H   0  0  0  0  0  0  0  0  0  0  0  0
  1  5  1  0
  5  6  1  0
  5  7  2  0
  1  2  1  0
  1  3  1  0
  1  4  1  0
  8 12  1  0
 12 13  2  0
 13 15  1  0
 15 17  2  0
 17 19  1  0
 19 21  2  0
 21 12  1  0
  8  9  1  0
  8 10  1  0
  8 11  1  0
 13 14  1  0
 15 16  1  0
 17 18  1  0
 19 20  1  0
 21 22  1  0
M  CHG  1   6  -1
M  END
>  <PDB_ID>  (2276) 
pdb6erk

>  <RESIDUE_NAME>  (2276) 
GLU   PHE

>  <FRAG_NAME>  (2276) 
ACET   MBZ

>  <FRAG_ATOM_NUM>  (2276) 
fragi: 7  fragj: 15

>  <atom.prop.CHAIN_ID>  (2276) 
A A A A A A A Z Z Z Z Z Z Z Z Z Z Z Z Z Z Z

>  <atom.prop.IS_HEAVY_ATOM>  (2276) 
1 0 0 0 1 1 1 1 0 0 0 1 1 0 1 0 1 0 1 0 1 0

>  <DIFUSE_FUNC_ATOM>  (2276) 
atom 6   atom 7   

>  <FINAL_SINGLE_POINT_ENERGY>  (2276) 
0

>  <NONCOV_INTER_ENERGY_QM>  (2276) 
0

>  <FF_Energy>  (2276) 
-2.42

>  <QM_Energy>  (2276) 
-7.83

>  <source>  (2276) 
ACET_MBZ_02

>  <Index>  (2276) 
24733

$$$$
ACET-pdb6eom-A-GLU-428:MBZ-pdb6eom-A-PHE-425
     RDKit          3D

 22 21  0  0  0  0  0  0  0  0999 V2000
   -5.3867    2.5591    2.0820 C   0  0  0  0  0  0  0  0  0  0  0  0
   -6.1912    2.0053    1.9800 H   0  0  0  0  0  0  0  0  0  0  0  0
   -5.5771    3.4231    2.5084 H   0  0  0  0  0  0  0  0  0  0  0  0
   -4.6712    2.0176    2.7008 H   0  0  0  0  0  0  0  0  0  0  0  0
   -4.8539    2.8502    0.6826 C   0  0  0  0  0  0  0  0  0  0  0  0
   -3.7805    2.3077    0.3359 O   0  0  0  0  0  1  0  0  0  0  0  0
   -5.5059    3.6182   -0.0676 O   0  0  0  0  0  0  0  0  0  0  0  0
    0.0048    2.9008   -0.0096 C   0  0  0  0  0  0  0  0  0  0  0  0
   -0.3001    3.1978   -0.9032 H   0  0  0  0  0  0  0  0  0  0  0  0
    0.9291    3.2056    0.1710 H   0  0  0  0  0  0  0  0  0  0  0  0
   -0.6481    3.3580    0.7339 H   0  0  0  0  0  0  0  0  0  0  0  0
    0.0002    1.3960    0.0071 C   0  0  0  0  0  0  0  0  0  0  0  0
   -1.1912    0.6902   -0.0047 C   0  0  0  0  0  0  0  0  0  0  0  0
   -2.0590    1.1815   -0.0175 H   0  0  0  0  0  0  0  0  0  0  0  0
   -1.1950   -0.6925   -0.0000 C   0  0  0  0  0  0  0  0  0  0  0  0
   -2.0740   -1.1885    0.0043 H   0  0  0  0  0  0  0  0  0  0  0  0
    0.0004   -1.3868    0.0003 C   0  0  0  0  0  0  0  0  0  0  0  0
   -0.0057   -2.3880    0.0007 H   0  0  0  0  0  0  0  0  0  0  0  0
    1.1950   -0.6956    0.0000 C   0  0  0  0  0  0  0  0  0  0  0  0
    2.0781   -1.1939    0.0028 H   0  0  0  0  0  0  0  0  0  0  0  0
    1.1906    0.6888   -0.0027 C   0  0  0  0  0  0  0  0  0  0  0  0
    2.0615    1.1862   -0.0126 H   0  0  0  0  0  0  0  0  0  0  0  0
  1  5  1  0
  5  6  1  0
  5  7  2  0
  1  2  1  0
  1  3  1  0
  1  4  1  0
  8 12  1  0
 12 13  2  0
 13 15  1  0
 15 17  2  0
 17 19  1  0
 19 21  2  0
 21 12  1  0
  8  9  1  0
  8 10  1  0
  8 11  1  0
 13 14  1  0
 15 16  1  0
 17 18  1  0
 19 20  1  0
 21 22  1  0
M  CHG  1   6  -1
M  END
>  <PDB_ID>  (2277) 
pdb6eom

>  <RESIDUE_NAME>  (2277) 
GLU   PHE

>  <FRAG_NAME>  (2277) 
ACET   MBZ

>  <FRAG_ATOM_NUM>  (2277) 
fragi: 7  fragj: 15

>  <atom.prop.CHAIN_ID>  (2277) 
A A A A A A A Z Z Z Z Z Z Z Z Z Z Z Z Z Z Z

>  <atom.prop.IS_HEAVY_ATOM>  (2277) 
1 0 0 0 1 1 1 1 0 0 0 1 1 0 1 0 1 0 1 0 1 0

>  <DIFUSE_FUNC_ATOM>  (2277) 
atom 6   atom 7   

>  <FINAL_SINGLE_POINT_ENERGY>  (2277) 
0

>  <NONCOV_INTER_ENERGY_QM>  (2277) 
0

>  <FF_Energy>  (2277) 
1.72

>  <QM_Energy>  (2277) 
-7.14

>  <source>  (2277) 
ACET_MBZ_02

>  <Index>  (2277) 
24896

$$$$
ACET-pdb6eys-A-GLU-371:MBZ-pdb6eys-A-PHE-267
     RDKit          3D

 22 21  0  0  0  0  0  0  0  0999 V2000
   -1.9626    0.0069   -3.3626 C   0  0  0  0  0  0  0  0  0  0  0  0
   -2.4514   -0.1998   -4.1738 H   0  0  0  0  0  0  0  0  0  0  0  0
   -2.1786   -0.6385   -2.6718 H   0  0  0  0  0  0  0  0  0  0  0  0
   -0.8935   -0.0389   -3.5701 H   0  0  0  0  0  0  0  0  0  0  0  0
   -2.4055    1.3757   -2.8811 C   0  0  0  0  0  0  0  0  0  0  0  0
   -1.6099    2.3350   -2.9911 O   0  0  0  0  0  1  0  0  0  0  0  0
   -3.5541    1.4926   -2.4026 O   0  0  0  0  0  0  0  0  0  0  0  0
    0.0002    2.8979   -0.0049 C   0  0  0  0  0  0  0  0  0  0  0  0
   -0.6871    3.1904   -0.6238 H   0  0  0  0  0  0  0  0  0  0  0  0
    0.8717    3.1917   -0.3140 H   0  0  0  0  0  0  0  0  0  0  0  0
   -0.1944    3.3432    0.9707 H   0  0  0  0  0  0  0  0  0  0  0  0
   -0.0005    1.3953    0.0005 C   0  0  0  0  0  0  0  0  0  0  0  0
   -1.1912    0.6893   -0.0010 C   0  0  0  0  0  0  0  0  0  0  0  0
   -1.9990    1.1510   -0.0018 H   0  0  0  0  0  0  0  0  0  0  0  0
   -1.1944   -0.6939   -0.0000 C   0  0  0  0  0  0  0  0  0  0  0  0
   -2.0002   -1.1577    0.0001 H   0  0  0  0  0  0  0  0  0  0  0  0
    0.0009   -1.3857    0.0028 C   0  0  0  0  0  0  0  0  0  0  0  0
    0.0017   -2.3148    0.0060 H   0  0  0  0  0  0  0  0  0  0  0  0
    1.1944   -0.6927    0.0000 C   0  0  0  0  0  0  0  0  0  0  0  0
    2.0008   -1.1561   -0.0005 H   0  0  0  0  0  0  0  0  0  0  0  0
    1.1908    0.6878   -0.0022 C   0  0  0  0  0  0  0  0  0  0  0  0
    1.9981    1.1493   -0.0058 H   0  0  0  0  0  0  0  0  0  0  0  0
  1  5  1  0
  5  6  1  0
  5  7  2  0
  1  2  1  0
  1  3  1  0
  1  4  1  0
  8 12  1  0
 12 13  2  0
 13 15  1  0
 15 17  2  0
 17 19  1  0
 19 21  2  0
 21 12  1  0
  8  9  1  0
  8 10  1  0
  8 11  1  0
 13 14  1  0
 15 16  1  0
 17 18  1  0
 19 20  1  0
 21 22  1  0
M  CHG  1   6  -1
M  END
>  <PDB_ID>  (2278) 
pdb6eys

>  <RESIDUE_NAME>  (2278) 
GLU   PHE

>  <FRAG_NAME>  (2278) 
ACET   MBZ

>  <FRAG_ATOM_NUM>  (2278) 
fragi: 7  fragj: 15

>  <atom.prop.CHAIN_ID>  (2278) 
A A A A A A A Z Z Z Z Z Z Z Z Z Z Z Z Z Z Z

>  <atom.prop.IS_HEAVY_ATOM>  (2278) 
1 0 0 0 1 1 1 1 0 0 0 1 1 0 1 0 1 0 1 0 1 0

>  <DIFUSE_FUNC_ATOM>  (2278) 
atom 6   atom 7   

>  <FINAL_SINGLE_POINT_ENERGY>  (2278) 
0

>  <NONCOV_INTER_ENERGY_QM>  (2278) 
0

>  <FF_Energy>  (2278) 
-0.53

>  <QM_Energy>  (2278) 
-6.73

>  <source>  (2278) 
ACET_MBZ_02

>  <Index>  (2278) 
25141

$$$$
ACET-pdb5es6-A-ASP-169:MBZ-pdb5es6-A-PHE-166
     RDKit          3D

 22 21  0  0  0  0  0  0  0  0999 V2000
    4.5345    4.6970   -1.8028 C   0  0  0  0  0  0  0  0  0  0  0  0
    3.8895    5.0385   -2.4415 H   0  0  0  0  0  0  0  0  0  0  0  0
    5.3326    4.3961   -2.2647 H   0  0  0  0  0  0  0  0  0  0  0  0
    4.8049    5.4941   -1.1102 H   0  0  0  0  0  0  0  0  0  0  0  0
    3.9153    3.4993   -1.1052 C   0  0  0  0  0  0  0  0  0  0  0  0
    4.0418    3.3930    0.1322 O   0  0  0  0  0  1  0  0  0  0  0  0
    3.3082    2.6581   -1.8009 O   0  0  0  0  0  0  0  0  0  0  0  0
    0.0039    2.9015   -0.0051 C   0  0  0  0  0  0  0  0  0  0  0  0
    0.8459    3.1975    0.3729 H   0  0  0  0  0  0  0  0  0  0  0  0
   -0.7316    3.2025    0.5509 H   0  0  0  0  0  0  0  0  0  0  0  0
   -0.1074    3.3317   -1.0004 H   0  0  0  0  0  0  0  0  0  0  0  0
    0.0006    1.3963    0.0018 C   0  0  0  0  0  0  0  0  0  0  0  0
   -1.1921    0.6900   -0.0010 C   0  0  0  0  0  0  0  0  0  0  0  0
   -1.9995    1.1509   -0.0015 H   0  0  0  0  0  0  0  0  0  0  0  0
   -1.1948   -0.6947    0.0000 C   0  0  0  0  0  0  0  0  0  0  0  0
   -2.0012   -1.1581    0.0001 H   0  0  0  0  0  0  0  0  0  0  0  0
    0.0002   -1.3861   -0.0001 C   0  0  0  0  0  0  0  0  0  0  0  0
    0.0007   -2.3161    0.0010 H   0  0  0  0  0  0  0  0  0  0  0  0
    1.1948   -0.6942   -0.0000 C   0  0  0  0  0  0  0  0  0  0  0  0
    2.0014   -1.1566    0.0007 H   0  0  0  0  0  0  0  0  0  0  0  0
    1.1913    0.6887   -0.0007 C   0  0  0  0  0  0  0  0  0  0  0  0
    1.9985    1.1503   -0.0007 H   0  0  0  0  0  0  0  0  0  0  0  0
  1  5  1  0
  5  6  1  0
  5  7  2  0
  1  2  1  0
  1  3  1  0
  1  4  1  0
  8 12  1  0
 12 13  2  0
 13 15  1  0
 15 17  2  0
 17 19  1  0
 19 21  2  0
 21 12  1  0
  8  9  1  0
  8 10  1  0
  8 11  1  0
 13 14  1  0
 15 16  1  0
 17 18  1  0
 19 20  1  0
 21 22  1  0
M  CHG  1   6  -1
M  END
>  <PDB_ID>  (2279) 
pdb5es6

>  <RESIDUE_NAME>  (2279) 
ASP   PHE

>  <FRAG_NAME>  (2279) 
ACET   MBZ

>  <FRAG_ATOM_NUM>  (2279) 
fragi: 7  fragj: 15

>  <atom.prop.CHAIN_ID>  (2279) 
A A A A A A A Z Z Z Z Z Z Z Z Z Z Z Z Z Z Z

>  <atom.prop.IS_HEAVY_ATOM>  (2279) 
1 0 0 0 1 1 1 1 0 0 0 1 1 0 1 0 1 0 1 0 1 0

>  <DIFUSE_FUNC_ATOM>  (2279) 
atom 6   atom 7   

>  <FINAL_SINGLE_POINT_ENERGY>  (2279) 
0

>  <NONCOV_INTER_ENERGY_QM>  (2279) 
0

>  <FF_Energy>  (2279) 
-2.22

>  <QM_Energy>  (2279) 
-7.42

>  <source>  (2279) 
ACET_MBZ_02

>  <Index>  (2279) 
25167

$$$$
ACET-pdb5eln-B-ASP-522:MBZ-pdb5eln-B-PHE-307
     RDKit          3D

 22 21  0  0  0  0  0  0  0  0999 V2000
    3.7881    5.7125    1.9995 C   0  0  0  0  0  0  0  0  0  0  0  0
    3.4244    4.9222    2.4734 H   0  0  0  0  0  0  0  0  0  0  0  0
    3.5075    6.5519    2.4443 H   0  0  0  0  0  0  0  0  0  0  0  0
    4.8763    5.6574    2.0272 H   0  0  0  0  0  0  0  0  0  0  0  0
    3.2291    5.7147    0.5664 C   0  0  0  0  0  0  0  0  0  0  0  0
    3.4309    6.6978   -0.1773 O   0  0  0  0  0  1  0  0  0  0  0  0
    2.5665    4.7325    0.1858 O   0  0  0  0  0  0  0  0  0  0  0  0
    0.0059    2.9037    0.0032 C   0  0  0  0  0  0  0  0  0  0  0  0
    0.8754    3.2071    0.3656 H   0  0  0  0  0  0  0  0  0  0  0  0
   -0.7452    3.2140    0.5676 H   0  0  0  0  0  0  0  0  0  0  0  0
   -0.1150    3.3528   -0.9827 H   0  0  0  0  0  0  0  0  0  0  0  0
   -0.0020    1.4047   -0.0040 C   0  0  0  0  0  0  0  0  0  0  0  0
   -1.1990    0.7016    0.0071 C   0  0  0  0  0  0  0  0  0  0  0  0
   -2.0646    1.1903    0.0186 H   0  0  0  0  0  0  0  0  0  0  0  0
   -1.2020   -0.6913    0.0000 C   0  0  0  0  0  0  0  0  0  0  0  0
   -2.0781   -1.1863   -0.0020 H   0  0  0  0  0  0  0  0  0  0  0  0
    0.0042   -1.3983   -0.0023 C   0  0  0  0  0  0  0  0  0  0  0  0
   -0.0109   -2.3950   -0.0064 H   0  0  0  0  0  0  0  0  0  0  0  0
    1.2020   -0.7081   -0.0000 C   0  0  0  0  0  0  0  0  0  0  0  0
    2.0849   -1.2000    0.0032 H   0  0  0  0  0  0  0  0  0  0  0  0
    1.1968    0.6913   -0.0008 C   0  0  0  0  0  0  0  0  0  0  0  0
    2.0653    1.1848    0.0005 H   0  0  0  0  0  0  0  0  0  0  0  0
  1  5  1  0
  5  6  1  0
  5  7  2  0
  1  2  1  0
  1  3  1  0
  1  4  1  0
  8 12  1  0
 12 13  2  0
 13 15  1  0
 15 17  2  0
 17 19  1  0
 19 21  2  0
 21 12  1  0
  8  9  1  0
  8 10  1  0
  8 11  1  0
 13 14  1  0
 15 16  1  0
 17 18  1  0
 19 20  1  0
 21 22  1  0
M  CHG  1   6  -1
M  END
>  <PDB_ID>  (2280) 
pdb5eln

>  <RESIDUE_NAME>  (2280) 
ASP   PHE

>  <FRAG_NAME>  (2280) 
ACET   MBZ

>  <FRAG_ATOM_NUM>  (2280) 
fragi: 7  fragj: 15

>  <atom.prop.CHAIN_ID>  (2280) 
A A A A A A A Z Z Z Z Z Z Z Z Z Z Z Z Z Z Z

>  <atom.prop.IS_HEAVY_ATOM>  (2280) 
1 0 0 0 1 1 1 1 0 0 0 1 1 0 1 0 1 0 1 0 1 0

>  <DIFUSE_FUNC_ATOM>  (2280) 
atom 6   atom 7   

>  <FINAL_SINGLE_POINT_ENERGY>  (2280) 
0

>  <NONCOV_INTER_ENERGY_QM>  (2280) 
0

>  <FF_Energy>  (2280) 
-0.61

>  <QM_Energy>  (2280) 
-5.85

>  <source>  (2280) 
ACET_MBZ_02

>  <Index>  (2280) 
25185

$$$$
ACET-pdb5euv-A-ASP-134:MBZ-pdb5euv-A-PHE-500
     RDKit          3D

 22 21  0  0  0  0  0  0  0  0999 V2000
   -0.4683    0.4083   -3.5717 C   0  0  0  0  0  0  0  0  0  0  0  0
   -0.0121   -0.0448   -2.8210 H   0  0  0  0  0  0  0  0  0  0  0  0
   -0.2726   -0.0347   -4.4323 H   0  0  0  0  0  0  0  0  0  0  0  0
   -1.5425    0.3434   -3.3985 H   0  0  0  0  0  0  0  0  0  0  0  0
    0.0312    1.8614   -3.6430 C   0  0  0  0  0  0  0  0  0  0  0  0
   -0.5991    2.7371   -3.0213 O   0  0  0  0  0  1  0  0  0  0  0  0
    1.0006    2.1518   -4.3686 O   0  0  0  0  0  0  0  0  0  0  0  0
   -0.0013    2.8945    0.0865 C   0  0  0  0  0  0  0  0  0  0  0  0
   -0.8455    3.2307   -0.2852 H   0  0  0  0  0  0  0  0  0  0  0  0
    0.7844    3.2390   -0.3899 H   0  0  0  0  0  0  0  0  0  0  0  0
    0.0636    3.2348    1.1200 H   0  0  0  0  0  0  0  0  0  0  0  0
    0.0001    1.4017   -0.0145 C   0  0  0  0  0  0  0  0  0  0  0  0
   -1.1948    0.6877    0.0288 C   0  0  0  0  0  0  0  0  0  0  0  0
   -2.0614    1.1758    0.0798 H   0  0  0  0  0  0  0  0  0  0  0  0
   -1.1977   -0.7039   -0.0000 C   0  0  0  0  0  0  0  0  0  0  0  0
   -2.0732   -1.1962    0.0010 H   0  0  0  0  0  0  0  0  0  0  0  0
    0.0004   -1.3860   -0.0276 C   0  0  0  0  0  0  0  0  0  0  0  0
    0.0036   -2.3881   -0.0684 H   0  0  0  0  0  0  0  0  0  0  0  0
    1.1977   -0.6906    0.0000 C   0  0  0  0  0  0  0  0  0  0  0  0
    2.0801   -1.1923    0.0118 H   0  0  0  0  0  0  0  0  0  0  0  0
    1.1943    0.6911    0.0133 C   0  0  0  0  0  0  0  0  0  0  0  0
    2.0621    1.1910    0.0426 H   0  0  0  0  0  0  0  0  0  0  0  0
  1  5  1  0
  5  6  1  0
  5  7  2  0
  1  2  1  0
  1  3  1  0
  1  4  1  0
  8 12  1  0
 12 13  2  0
 13 15  1  0
 15 17  2  0
 17 19  1  0
 19 21  2  0
 21 12  1  0
  8  9  1  0
  8 10  1  0
  8 11  1  0
 13 14  1  0
 15 16  1  0
 17 18  1  0
 19 20  1  0
 21 22  1  0
M  CHG  1   6  -1
M  END
>  <PDB_ID>  (2281) 
pdb5euv

>  <RESIDUE_NAME>  (2281) 
ASP   PHE

>  <FRAG_NAME>  (2281) 
ACET   MBZ

>  <FRAG_ATOM_NUM>  (2281) 
fragi: 7  fragj: 15

>  <atom.prop.CHAIN_ID>  (2281) 
A A A A A A A Z Z Z Z Z Z Z Z Z Z Z Z Z Z Z

>  <atom.prop.IS_HEAVY_ATOM>  (2281) 
1 0 0 0 1 1 1 1 0 0 0 1 1 0 1 0 1 0 1 0 1 0

>  <DIFUSE_FUNC_ATOM>  (2281) 
atom 6   atom 7   

>  <FINAL_SINGLE_POINT_ENERGY>  (2281) 
0

>  <NONCOV_INTER_ENERGY_QM>  (2281) 
0

>  <FF_Energy>  (2281) 
0.79

>  <QM_Energy>  (2281) 
-4.83

>  <source>  (2281) 
ACET_MBZ_02

>  <Index>  (2281) 
25229

$$$$
ACET-pdb5evi-A-GLU-219:MBZ-pdb5evi-A-PHE-169
     RDKit          3D

 22 21  0  0  0  0  0  0  0  0999 V2000
    0.1541    0.2483   -3.5792 C   0  0  0  0  0  0  0  0  0  0  0  0
   -0.6913    0.5903   -3.9870 H   0  0  0  0  0  0  0  0  0  0  0  0
    0.0207    0.1105   -2.5991 H   0  0  0  0  0  0  0  0  0  0  0  0
    0.3625   -0.7248   -4.0236 H   0  0  0  0  0  0  0  0  0  0  0  0
    1.2111    1.3296   -3.7468 C   0  0  0  0  0  0  0  0  0  0  0  0
    2.1130    1.2599   -4.5974 O   0  0  0  0  0  1  0  0  0  0  0  0
    1.1324    2.3294   -3.0191 O   0  0  0  0  0  0  0  0  0  0  0  0
    0.0124    2.9172   -0.0292 C   0  0  0  0  0  0  0  0  0  0  0  0
   -0.7155    3.2212   -0.6188 H   0  0  0  0  0  0  0  0  0  0  0  0
    0.8950    3.2114   -0.3525 H   0  0  0  0  0  0  0  0  0  0  0  0
   -0.1471    3.3667    0.9509 H   0  0  0  0  0  0  0  0  0  0  0  0
   -0.0000    1.4056   -0.0090 C   0  0  0  0  0  0  0  0  0  0  0  0
   -1.1993    0.7010   -0.0183 C   0  0  0  0  0  0  0  0  0  0  0  0
   -2.0634    1.1819   -0.0393 H   0  0  0  0  0  0  0  0  0  0  0  0
   -1.1911   -0.6991    0.0000 C   0  0  0  0  0  0  0  0  0  0  0  0
   -2.0685   -1.1936    0.0054 H   0  0  0  0  0  0  0  0  0  0  0  0
    0.0105   -1.3917    0.0124 C   0  0  0  0  0  0  0  0  0  0  0  0
    0.0008   -2.3940    0.0300 H   0  0  0  0  0  0  0  0  0  0  0  0
    1.1911   -0.7017   -0.0000 C   0  0  0  0  0  0  0  0  0  0  0  0
    2.0820   -1.1946   -0.0182 H   0  0  0  0  0  0  0  0  0  0  0  0
    1.1888    0.6859    0.0149 C   0  0  0  0  0  0  0  0  0  0  0  0
    2.0618    1.1806    0.0424 H   0  0  0  0  0  0  0  0  0  0  0  0
  1  5  1  0
  5  6  1  0
  5  7  2  0
  1  2  1  0
  1  3  1  0
  1  4  1  0
  8 12  1  0
 12 13  2  0
 13 15  1  0
 15 17  2  0
 17 19  1  0
 19 21  2  0
 21 12  1  0
  8  9  1  0
  8 10  1  0
  8 11  1  0
 13 14  1  0
 15 16  1  0
 17 18  1  0
 19 20  1  0
 21 22  1  0
M  CHG  1   6  -1
M  END
>  <PDB_ID>  (2282) 
pdb5evi

>  <RESIDUE_NAME>  (2282) 
GLU   PHE

>  <FRAG_NAME>  (2282) 
ACET   MBZ

>  <FRAG_ATOM_NUM>  (2282) 
fragi: 7  fragj: 15

>  <atom.prop.CHAIN_ID>  (2282) 
A A A A A A A Z Z Z Z Z Z Z Z Z Z Z Z Z Z Z

>  <atom.prop.IS_HEAVY_ATOM>  (2282) 
1 0 0 0 1 1 1 1 0 0 0 1 1 0 1 0 1 0 1 0 1 0

>  <DIFUSE_FUNC_ATOM>  (2282) 
atom 6   atom 7   

>  <FINAL_SINGLE_POINT_ENERGY>  (2282) 
0

>  <NONCOV_INTER_ENERGY_QM>  (2282) 
0

>  <FF_Energy>  (2282) 
6.13

>  <QM_Energy>  (2282) 
-4.59

>  <source>  (2282) 
ACET_MBZ_02

>  <Index>  (2282) 
25254

$$$$
ACET-pdb5ey7-B-GLU-178:MBZ-pdb5ey7-B-PHE-115
     RDKit          3D

 22 21  0  0  0  0  0  0  0  0999 V2000
    5.7266    1.2529   -0.1756 C   0  0  0  0  0  0  0  0  0  0  0  0
    6.5477    1.7666   -0.0259 H   0  0  0  0  0  0  0  0  0  0  0  0
    5.7446    0.7451   -1.0142 H   0  0  0  0  0  0  0  0  0  0  0  0
    5.6025    0.5532    0.6509 H   0  0  0  0  0  0  0  0  0  0  0  0
    4.5782    2.2367   -0.2614 C   0  0  0  0  0  0  0  0  0  0  0  0
    4.4323    3.0575    0.6729 O   0  0  0  0  0  1  0  0  0  0  0  0
    3.8218    2.1820   -1.2551 O   0  0  0  0  0  0  0  0  0  0  0  0
    0.0073    2.8878    0.0050 C   0  0  0  0  0  0  0  0  0  0  0  0
    0.9189    3.1916   -0.2327 H   0  0  0  0  0  0  0  0  0  0  0  0
   -0.2451    3.1950    0.9116 H   0  0  0  0  0  0  0  0  0  0  0  0
   -0.6894    3.3339   -0.7047 H   0  0  0  0  0  0  0  0  0  0  0  0
    0.0008    1.3916    0.0027 C   0  0  0  0  0  0  0  0  0  0  0  0
   -1.1900    0.6887   -0.0011 C   0  0  0  0  0  0  0  0  0  0  0  0
   -2.0583    1.1822   -0.0062 H   0  0  0  0  0  0  0  0  0  0  0  0
   -1.1948   -0.6904    0.0000 C   0  0  0  0  0  0  0  0  0  0  0  0
   -2.0734   -1.1866    0.0032 H   0  0  0  0  0  0  0  0  0  0  0  0
   -0.0010   -1.3827   -0.0020 C   0  0  0  0  0  0  0  0  0  0  0  0
   -0.0058   -2.3852   -0.0056 H   0  0  0  0  0  0  0  0  0  0  0  0
    1.1948   -0.6929   -0.0000 C   0  0  0  0  0  0  0  0  0  0  0  0
    2.0766   -1.1947    0.0025 H   0  0  0  0  0  0  0  0  0  0  0  0
    1.1901    0.6857    0.0004 C   0  0  0  0  0  0  0  0  0  0  0  0
    2.0604    1.1854   -0.0012 H   0  0  0  0  0  0  0  0  0  0  0  0
  1  5  1  0
  5  6  1  0
  5  7  2  0
  1  2  1  0
  1  3  1  0
  1  4  1  0
  8 12  1  0
 12 13  2  0
 13 15  1  0
 15 17  2  0
 17 19  1  0
 19 21  2  0
 21 12  1  0
  8  9  1  0
  8 10  1  0
  8 11  1  0
 13 14  1  0
 15 16  1  0
 17 18  1  0
 19 20  1  0
 21 22  1  0
M  CHG  1   6  -1
M  END
>  <PDB_ID>  (2283) 
pdb5ey7

>  <RESIDUE_NAME>  (2283) 
GLU   PHE

>  <FRAG_NAME>  (2283) 
ACET   MBZ

>  <FRAG_ATOM_NUM>  (2283) 
fragi: 7  fragj: 15

>  <atom.prop.CHAIN_ID>  (2283) 
A A A A A A A Z Z Z Z Z Z Z Z Z Z Z Z Z Z Z

>  <atom.prop.IS_HEAVY_ATOM>  (2283) 
1 0 0 0 1 1 1 1 0 0 0 1 1 0 1 0 1 0 1 0 1 0

>  <DIFUSE_FUNC_ATOM>  (2283) 
atom 6   atom 7   

>  <FINAL_SINGLE_POINT_ENERGY>  (2283) 
0

>  <NONCOV_INTER_ENERGY_QM>  (2283) 
0

>  <FF_Energy>  (2283) 
-1.87

>  <QM_Energy>  (2283) 
-7.28

>  <source>  (2283) 
ACET_MBZ_02

>  <Index>  (2283) 
25338

$$$$
ACET-pdb5ey9-A-GLU-314:MBZ-pdb5ey9-A-PHE-283
     RDKit          3D

 22 21  0  0  0  0  0  0  0  0999 V2000
    5.5727    2.8566    1.9843 C   0  0  0  0  0  0  0  0  0  0  0  0
    5.5741    2.0528    2.5495 H   0  0  0  0  0  0  0  0  0  0  0  0
    5.3589    3.6706    2.4915 H   0  0  0  0  0  0  0  0  0  0  0  0
    6.5606    2.9712    1.5383 H   0  0  0  0  0  0  0  0  0  0  0  0
    4.4709    2.6727    0.9409 C   0  0  0  0  0  0  0  0  0  0  0  0
    4.7875    2.5221   -0.2604 O   0  0  0  0  0  1  0  0  0  0  0  0
    3.2822    2.6785    1.3244 O   0  0  0  0  0  0  0  0  0  0  0  0
    0.0070    2.9118   -0.0172 C   0  0  0  0  0  0  0  0  0  0  0  0
   -0.7052    3.2091   -0.6380 H   0  0  0  0  0  0  0  0  0  0  0  0
    0.8991    3.2068   -0.3301 H   0  0  0  0  0  0  0  0  0  0  0  0
   -0.1776    3.3824    0.9485 H   0  0  0  0  0  0  0  0  0  0  0  0
    0.0003    1.3994    0.0078 C   0  0  0  0  0  0  0  0  0  0  0  0
   -1.1932    0.6859   -0.0119 C   0  0  0  0  0  0  0  0  0  0  0  0
   -2.0614    1.1770   -0.0361 H   0  0  0  0  0  0  0  0  0  0  0  0
   -1.1954   -0.6974   -0.0000 C   0  0  0  0  0  0  0  0  0  0  0  0
   -2.0720   -1.1943    0.0069 H   0  0  0  0  0  0  0  0  0  0  0  0
    0.0018   -1.3866    0.0044 C   0  0  0  0  0  0  0  0  0  0  0  0
   -0.0001   -2.3884    0.0107 H   0  0  0  0  0  0  0  0  0  0  0  0
    1.1954   -0.6929   -0.0000 C   0  0  0  0  0  0  0  0  0  0  0  0
    2.0796   -1.1913   -0.0013 H   0  0  0  0  0  0  0  0  0  0  0  0
    1.1911    0.6916   -0.0003 C   0  0  0  0  0  0  0  0  0  0  0  0
    2.0616    1.1888   -0.0075 H   0  0  0  0  0  0  0  0  0  0  0  0
  1  5  1  0
  5  6  1  0
  5  7  2  0
  1  2  1  0
  1  3  1  0
  1  4  1  0
  8 12  1  0
 12 13  2  0
 13 15  1  0
 15 17  2  0
 17 19  1  0
 19 21  2  0
 21 12  1  0
  8  9  1  0
  8 10  1  0
  8 11  1  0
 13 14  1  0
 15 16  1  0
 17 18  1  0
 19 20  1  0
 21 22  1  0
M  CHG  1   6  -1
M  END
>  <PDB_ID>  (2284) 
pdb5ey9

>  <RESIDUE_NAME>  (2284) 
GLU   PHE

>  <FRAG_NAME>  (2284) 
ACET   MBZ

>  <FRAG_ATOM_NUM>  (2284) 
fragi: 7  fragj: 15

>  <atom.prop.CHAIN_ID>  (2284) 
A A A A A A A Z Z Z Z Z Z Z Z Z Z Z Z Z Z Z

>  <atom.prop.IS_HEAVY_ATOM>  (2284) 
1 0 0 0 1 1 1 1 0 0 0 1 1 0 1 0 1 0 1 0 1 0

>  <DIFUSE_FUNC_ATOM>  (2284) 
atom 6   atom 7   

>  <FINAL_SINGLE_POINT_ENERGY>  (2284) 
0

>  <NONCOV_INTER_ENERGY_QM>  (2284) 
0

>  <FF_Energy>  (2284) 
-1.6

>  <QM_Energy>  (2284) 
-7.83

>  <source>  (2284) 
ACET_MBZ_02

>  <Index>  (2284) 
25344

$$$$
ACET-pdb5ey9-B-GLU-314:MBZ-pdb5ey9-B-PHE-283
     RDKit          3D

 22 21  0  0  0  0  0  0  0  0999 V2000
    5.6304    2.9197    1.7705 C   0  0  0  0  0  0  0  0  0  0  0  0
    5.6416    2.1288    2.3536 H   0  0  0  0  0  0  0  0  0  0  0  0
    5.4371    3.7458    2.2652 H   0  0  0  0  0  0  0  0  0  0  0  0
    6.6081    3.0171    1.2984 H   0  0  0  0  0  0  0  0  0  0  0  0
    4.5005    2.7220    0.7611 C   0  0  0  0  0  0  0  0  0  0  0  0
    4.7815    2.5322   -0.4416 O   0  0  0  0  0  1  0  0  0  0  0  0
    3.3244    2.7625    1.1725 O   0  0  0  0  0  0  0  0  0  0  0  0
    0.0069    2.9107   -0.0147 C   0  0  0  0  0  0  0  0  0  0  0  0
   -0.7103    3.2101   -0.6276 H   0  0  0  0  0  0  0  0  0  0  0  0
    0.8955    3.2069   -0.3331 H   0  0  0  0  0  0  0  0  0  0  0  0
   -0.1699    3.3790    0.9536 H   0  0  0  0  0  0  0  0  0  0  0  0
    0.0010    1.3986    0.0072 C   0  0  0  0  0  0  0  0  0  0  0  0
   -1.1959    0.6852   -0.0105 C   0  0  0  0  0  0  0  0  0  0  0  0
   -2.0615    1.1788   -0.0321 H   0  0  0  0  0  0  0  0  0  0  0  0
   -1.1975   -0.6964   -0.0000 C   0  0  0  0  0  0  0  0  0  0  0  0
   -2.0733   -1.1954    0.0053 H   0  0  0  0  0  0  0  0  0  0  0  0
    0.0024   -1.3863    0.0056 C   0  0  0  0  0  0  0  0  0  0  0  0
   -0.0004   -2.3877    0.0128 H   0  0  0  0  0  0  0  0  0  0  0  0
    1.1975   -0.6919    0.0000 C   0  0  0  0  0  0  0  0  0  0  0  0
    2.0809   -1.1907   -0.0009 H   0  0  0  0  0  0  0  0  0  0  0  0
    1.1925    0.6908   -0.0023 C   0  0  0  0  0  0  0  0  0  0  0  0
    2.0629    1.1892   -0.0123 H   0  0  0  0  0  0  0  0  0  0  0  0
  1  5  1  0
  5  6  1  0
  5  7  2  0
  1  2  1  0
  1  3  1  0
  1  4  1  0
  8 12  1  0
 12 13  2  0
 13 15  1  0
 15 17  2  0
 17 19  1  0
 19 21  2  0
 21 12  1  0
  8  9  1  0
  8 10  1  0
  8 11  1  0
 13 14  1  0
 15 16  1  0
 17 18  1  0
 19 20  1  0
 21 22  1  0
M  CHG  1   6  -1
M  END
>  <PDB_ID>  (2285) 
pdb5ey9

>  <RESIDUE_NAME>  (2285) 
GLU   PHE

>  <FRAG_NAME>  (2285) 
ACET   MBZ

>  <FRAG_ATOM_NUM>  (2285) 
fragi: 7  fragj: 15

>  <atom.prop.CHAIN_ID>  (2285) 
A A A A A A A Z Z Z Z Z Z Z Z Z Z Z Z Z Z Z

>  <atom.prop.IS_HEAVY_ATOM>  (2285) 
1 0 0 0 1 1 1 1 0 0 0 1 1 0 1 0 1 0 1 0 1 0

>  <DIFUSE_FUNC_ATOM>  (2285) 
atom 6   atom 7   

>  <FINAL_SINGLE_POINT_ENERGY>  (2285) 
0

>  <NONCOV_INTER_ENERGY_QM>  (2285) 
0

>  <FF_Energy>  (2285) 
-1.71

>  <QM_Energy>  (2285) 
-8.01

>  <source>  (2285) 
ACET_MBZ_02

>  <Index>  (2285) 
25351

$$$$
ACET-pdb5eyx-A-GLU-14:MBZ-pdb5eyx-A-PHE-7
     RDKit          3D

 22 21  0  0  0  0  0  0  0  0999 V2000
    4.3959   -2.9735   -1.1580 C   0  0  0  0  0  0  0  0  0  0  0  0
    3.6905   -2.5264   -1.7025 H   0  0  0  0  0  0  0  0  0  0  0  0
    4.2281   -3.9556   -1.1255 H   0  0  0  0  0  0  0  0  0  0  0  0
    5.3666   -2.7935   -1.6200 H   0  0  0  0  0  0  0  0  0  0  0  0
    4.2299   -2.4567    0.2775 C   0  0  0  0  0  0  0  0  0  0  0  0
    4.2882   -1.2554    0.4429 O   0  0  0  0  0  1  0  0  0  0  0  0
    4.0063   -3.2465    1.1915 O   0  0  0  0  0  0  0  0  0  0  0  0
   -0.0007    2.9164   -0.0187 C   0  0  0  0  0  0  0  0  0  0  0  0
   -0.7515    3.2108   -0.5952 H   0  0  0  0  0  0  0  0  0  0  0  0
    0.8684    3.2115   -0.3926 H   0  0  0  0  0  0  0  0  0  0  0  0
   -0.1223    3.3953    0.9529 H   0  0  0  0  0  0  0  0  0  0  0  0
   -0.0030    1.4017    0.0085 C   0  0  0  0  0  0  0  0  0  0  0  0
   -1.1990    0.6915   -0.0001 C   0  0  0  0  0  0  0  0  0  0  0  0
   -2.0668    1.1809   -0.0077 H   0  0  0  0  0  0  0  0  0  0  0  0
   -1.2019   -0.6990    0.0000 C   0  0  0  0  0  0  0  0  0  0  0  0
   -2.0722   -1.1977   -0.0016 H   0  0  0  0  0  0  0  0  0  0  0  0
    0.0102   -1.3948    0.0044 C   0  0  0  0  0  0  0  0  0  0  0  0
    0.0058   -2.3909    0.0099 H   0  0  0  0  0  0  0  0  0  0  0  0
    1.2019   -0.6913   -0.0000 C   0  0  0  0  0  0  0  0  0  0  0  0
    2.0885   -1.1866    0.0070 H   0  0  0  0  0  0  0  0  0  0  0  0
    1.1919    0.6919   -0.0128 C   0  0  0  0  0  0  0  0  0  0  0  0
    2.0607    1.1939   -0.0386 H   0  0  0  0  0  0  0  0  0  0  0  0
  1  5  1  0
  5  6  1  0
  5  7  2  0
  1  2  1  0
  1  3  1  0
  1  4  1  0
  8 12  1  0
 12 13  2  0
 13 15  1  0
 15 17  2  0
 17 19  1  0
 19 21  2  0
 21 12  1  0
  8  9  1  0
  8 10  1  0
  8 11  1  0
 13 14  1  0
 15 16  1  0
 17 18  1  0
 19 20  1  0
 21 22  1  0
M  CHG  1   6  -1
M  END
>  <PDB_ID>  (2286) 
pdb5eyx

>  <RESIDUE_NAME>  (2286) 
GLU   PHE

>  <FRAG_NAME>  (2286) 
ACET   MBZ

>  <FRAG_ATOM_NUM>  (2286) 
fragi: 7  fragj: 15

>  <atom.prop.CHAIN_ID>  (2286) 
A A A A A A A Z Z Z Z Z Z Z Z Z Z Z Z Z Z Z

>  <atom.prop.IS_HEAVY_ATOM>  (2286) 
1 0 0 0 1 1 1 1 0 0 0 1 1 0 1 0 1 0 1 0 1 0

>  <DIFUSE_FUNC_ATOM>  (2286) 
atom 6   atom 7   

>  <FINAL_SINGLE_POINT_ENERGY>  (2286) 
0

>  <NONCOV_INTER_ENERGY_QM>  (2286) 
0

>  <FF_Energy>  (2286) 
-0.55

>  <QM_Energy>  (2286) 
-5.67

>  <source>  (2286) 
ACET_MBZ_02

>  <Index>  (2286) 
25386

$$$$
ACET-pdb6f8s-B-ASP-44:MBZ-pdb6f8s-A-PHE-69
     RDKit          3D

 22 21  0  0  0  0  0  0  0  0999 V2000
   -1.8723    1.3482   -3.6248 C   0  0  0  0  0  0  0  0  0  0  0  0
   -2.8204    1.3965   -3.9066 H   0  0  0  0  0  0  0  0  0  0  0  0
   -1.7711    0.8071   -2.8032 H   0  0  0  0  0  0  0  0  0  0  0  0
   -1.3000    0.8745   -4.4224 H   0  0  0  0  0  0  0  0  0  0  0  0
   -1.3851    2.7751   -3.3262 C   0  0  0  0  0  0  0  0  0  0  0  0
   -0.1789    3.0476   -3.5461 O   0  0  0  0  0  1  0  0  0  0  0  0
   -2.1975    3.6138   -2.8570 O   0  0  0  0  0  0  0  0  0  0  0  0
    0.0057    2.9048   -0.0082 C   0  0  0  0  0  0  0  0  0  0  0  0
   -0.5828    3.2003   -0.7450 H   0  0  0  0  0  0  0  0  0  0  0  0
    0.9381    3.2025   -0.1503 H   0  0  0  0  0  0  0  0  0  0  0  0
   -0.3550    3.3617    0.9134 H   0  0  0  0  0  0  0  0  0  0  0  0
    0.0011    1.3919    0.0091 C   0  0  0  0  0  0  0  0  0  0  0  0
   -1.1949    0.6933   -0.0060 C   0  0  0  0  0  0  0  0  0  0  0  0
   -2.0600    1.1900   -0.0227 H   0  0  0  0  0  0  0  0  0  0  0  0
   -1.2063   -0.6904   -0.0000 C   0  0  0  0  0  0  0  0  0  0  0  0
   -2.0825   -1.1842    0.0065 H   0  0  0  0  0  0  0  0  0  0  0  0
   -0.0057   -1.3899   -0.0016 C   0  0  0  0  0  0  0  0  0  0  0  0
   -0.0053   -2.3859   -0.0047 H   0  0  0  0  0  0  0  0  0  0  0  0
    1.2063   -0.6879   -0.0000 C   0  0  0  0  0  0  0  0  0  0  0  0
    2.0806   -1.1979    0.0040 H   0  0  0  0  0  0  0  0  0  0  0  0
    1.1995    0.6831   -0.0014 C   0  0  0  0  0  0  0  0  0  0  0  0
    2.0649    1.1905   -0.0107 H   0  0  0  0  0  0  0  0  0  0  0  0
  1  5  1  0
  5  6  1  0
  5  7  2  0
  1  2  1  0
  1  3  1  0
  1  4  1  0
  8 12  1  0
 12 13  2  0
 13 15  1  0
 15 17  2  0
 17 19  1  0
 19 21  2  0
 21 12  1  0
  8  9  1  0
  8 10  1  0
  8 11  1  0
 13 14  1  0
 15 16  1  0
 17 18  1  0
 19 20  1  0
 21 22  1  0
M  CHG  1   6  -1
M  END
>  <PDB_ID>  (2287) 
pdb6f8s

>  <RESIDUE_NAME>  (2287) 
ASP   PHE

>  <FRAG_NAME>  (2287) 
ACET   MBZ

>  <FRAG_ATOM_NUM>  (2287) 
fragi: 7  fragj: 15

>  <atom.prop.CHAIN_ID>  (2287) 
A A A A A A A Z Z Z Z Z Z Z Z Z Z Z Z Z Z Z

>  <atom.prop.IS_HEAVY_ATOM>  (2287) 
1 0 0 0 1 1 1 1 0 0 0 1 1 0 1 0 1 0 1 0 1 0

>  <DIFUSE_FUNC_ATOM>  (2287) 
atom 6   atom 7   

>  <FINAL_SINGLE_POINT_ENERGY>  (2287) 
0

>  <NONCOV_INTER_ENERGY_QM>  (2287) 
0

>  <FF_Energy>  (2287) 
-0.83

>  <QM_Energy>  (2287) 
-6.01

>  <source>  (2287) 
ACET_MBZ_02

>  <Index>  (2287) 
25606

$$$$
ACET-pdb6f8s-D-ASP-44:MBZ-pdb6f8s-C-PHE-69
     RDKit          3D

 22 21  0  0  0  0  0  0  0  0999 V2000
   -1.6504    1.4110   -3.6517 C   0  0  0  0  0  0  0  0  0  0  0  0
   -2.5948    1.5027   -3.9340 H   0  0  0  0  0  0  0  0  0  0  0  0
   -1.5746    0.8618   -2.8323 H   0  0  0  0  0  0  0  0  0  0  0  0
   -1.0985    0.9162   -4.4509 H   0  0  0  0  0  0  0  0  0  0  0  0
   -1.1041    2.8194   -3.3397 C   0  0  0  0  0  0  0  0  0  0  0  0
    0.1195    3.0551   -3.5454 O   0  0  0  0  0  1  0  0  0  0  0  0
   -1.8981    3.6864   -2.8864 O   0  0  0  0  0  0  0  0  0  0  0  0
   -0.0030    2.9143   -0.0087 C   0  0  0  0  0  0  0  0  0  0  0  0
   -0.6537    3.2038   -0.6938 H   0  0  0  0  0  0  0  0  0  0  0  0
    0.9136    3.2085   -0.2344 H   0  0  0  0  0  0  0  0  0  0  0  0
   -0.2819    3.3759    0.9385 H   0  0  0  0  0  0  0  0  0  0  0  0
   -0.0039    1.3912    0.0102 C   0  0  0  0  0  0  0  0  0  0  0  0
   -1.1941    0.6858    0.0028 C   0  0  0  0  0  0  0  0  0  0  0  0
   -2.0609    1.1866   -0.0014 H   0  0  0  0  0  0  0  0  0  0  0  0
   -1.1986   -0.6782   -0.0000 C   0  0  0  0  0  0  0  0  0  0  0  0
   -2.0754   -1.1841    0.0029 H   0  0  0  0  0  0  0  0  0  0  0  0
    0.0010   -1.3822   -0.0052 C   0  0  0  0  0  0  0  0  0  0  0  0
   -0.0128   -2.3812   -0.0126 H   0  0  0  0  0  0  0  0  0  0  0  0
    1.1986   -0.6953    0.0000 C   0  0  0  0  0  0  0  0  0  0  0  0
    2.0783   -1.2010    0.0109 H   0  0  0  0  0  0  0  0  0  0  0  0
    1.1971    0.6788   -0.0078 C   0  0  0  0  0  0  0  0  0  0  0  0
    2.0620    1.1839   -0.0276 H   0  0  0  0  0  0  0  0  0  0  0  0
  1  5  1  0
  5  6  1  0
  5  7  2  0
  1  2  1  0
  1  3  1  0
  1  4  1  0
  8 12  1  0
 12 13  2  0
 13 15  1  0
 15 17  2  0
 17 19  1  0
 19 21  2  0
 21 12  1  0
  8  9  1  0
  8 10  1  0
  8 11  1  0
 13 14  1  0
 15 16  1  0
 17 18  1  0
 19 20  1  0
 21 22  1  0
M  CHG  1   6  -1
M  END
>  <PDB_ID>  (2288) 
pdb6f8s

>  <RESIDUE_NAME>  (2288) 
ASP   PHE

>  <FRAG_NAME>  (2288) 
ACET   MBZ

>  <FRAG_ATOM_NUM>  (2288) 
fragi: 7  fragj: 15

>  <atom.prop.CHAIN_ID>  (2288) 
A A A A A A A Z Z Z Z Z Z Z Z Z Z Z Z Z Z Z

>  <atom.prop.IS_HEAVY_ATOM>  (2288) 
1 0 0 0 1 1 1 1 0 0 0 1 1 0 1 0 1 0 1 0 1 0

>  <DIFUSE_FUNC_ATOM>  (2288) 
atom 6   atom 7   

>  <FINAL_SINGLE_POINT_ENERGY>  (2288) 
0

>  <NONCOV_INTER_ENERGY_QM>  (2288) 
0

>  <FF_Energy>  (2288) 
-0.66

>  <QM_Energy>  (2288) 
-6.02

>  <source>  (2288) 
ACET_MBZ_02

>  <Index>  (2288) 
25607

$$$$
ACET-pdb5f1b-C-GLU-19:MBZ-pdb5f1b-C-PHE-23
     RDKit          3D

 22 21  0  0  0  0  0  0  0  0999 V2000
    4.2855   -1.0773    0.9113 C   0  0  0  0  0  0  0  0  0  0  0  0
    4.6058   -0.6148    1.7087 H   0  0  0  0  0  0  0  0  0  0  0  0
    3.5643   -0.6080    0.4510 H   0  0  0  0  0  0  0  0  0  0  0  0
    5.1215   -1.1813    0.2195 H   0  0  0  0  0  0  0  0  0  0  0  0
    3.7495   -2.4364    1.3481 C   0  0  0  0  0  0  0  0  0  0  0  0
    4.3869   -3.4538    0.9981 O   0  0  0  0  0  1  0  0  0  0  0  0
    2.6833   -2.4953    1.9995 O   0  0  0  0  0  0  0  0  0  0  0  0
    0.0019    2.8890   -0.0463 C   0  0  0  0  0  0  0  0  0  0  0  0
    0.8516    3.2089    0.3313 H   0  0  0  0  0  0  0  0  0  0  0  0
   -0.7774    3.2179    0.4555 H   0  0  0  0  0  0  0  0  0  0  0  0
   -0.0737    3.2745   -1.0630 H   0  0  0  0  0  0  0  0  0  0  0  0
   -0.0022    1.3904    0.0029 C   0  0  0  0  0  0  0  0  0  0  0  0
   -1.1845    0.6810   -0.0061 C   0  0  0  0  0  0  0  0  0  0  0  0
   -2.0576    1.1690   -0.0191 H   0  0  0  0  0  0  0  0  0  0  0  0
   -1.1845   -0.6994   -0.0000 C   0  0  0  0  0  0  0  0  0  0  0  0
   -2.0629   -1.1973    0.0019 H   0  0  0  0  0  0  0  0  0  0  0  0
    0.0078   -1.3804    0.0052 C   0  0  0  0  0  0  0  0  0  0  0  0
    0.0098   -2.3841    0.0122 H   0  0  0  0  0  0  0  0  0  0  0  0
    1.1845   -0.6823    0.0000 C   0  0  0  0  0  0  0  0  0  0  0  0
    2.0779   -1.1792   -0.0015 H   0  0  0  0  0  0  0  0  0  0  0  0
    1.1790    0.6906   -0.0020 C   0  0  0  0  0  0  0  0  0  0  0  0
    2.0525    1.1905   -0.0085 H   0  0  0  0  0  0  0  0  0  0  0  0
  1  5  1  0
  5  6  1  0
  5  7  2  0
  1  2  1  0
  1  3  1  0
  1  4  1  0
  8 12  1  0
 12 13  2  0
 13 15  1  0
 15 17  2  0
 17 19  1  0
 19 21  2  0
 21 12  1  0
  8  9  1  0
  8 10  1  0
  8 11  1  0
 13 14  1  0
 15 16  1  0
 17 18  1  0
 19 20  1  0
 21 22  1  0
M  CHG  1   6  -1
M  END
>  <PDB_ID>  (2289) 
pdb5f1b

>  <RESIDUE_NAME>  (2289) 
GLU   PHE

>  <FRAG_NAME>  (2289) 
ACET   MBZ

>  <FRAG_ATOM_NUM>  (2289) 
fragi: 7  fragj: 15

>  <atom.prop.CHAIN_ID>  (2289) 
A A A A A A A Z Z Z Z Z Z Z Z Z Z Z Z Z Z Z

>  <atom.prop.IS_HEAVY_ATOM>  (2289) 
1 0 0 0 1 1 1 1 0 0 0 1 1 0 1 0 1 0 1 0 1 0

>  <DIFUSE_FUNC_ATOM>  (2289) 
atom 6   atom 7   

>  <FINAL_SINGLE_POINT_ENERGY>  (2289) 
0

>  <NONCOV_INTER_ENERGY_QM>  (2289) 
0

>  <FF_Energy>  (2289) 
13.0

>  <QM_Energy>  (2289) 
-0.02

>  <source>  (2289) 
ACET_MBZ_02

>  <Index>  (2289) 
25634

$$$$
ACET-pdb6euo-C-ASP-356:MBZ-pdb6euo-C-PHE-359
     RDKit          3D

 22 21  0  0  0  0  0  0  0  0999 V2000
    2.6378    5.1031    2.1174 C   0  0  0  0  0  0  0  0  0  0  0  0
    3.3913    4.8075    2.7053 H   0  0  0  0  0  0  0  0  0  0  0  0
    1.8332    4.5373    2.2984 H   0  0  0  0  0  0  0  0  0  0  0  0
    2.3894    6.1291    2.3893 H   0  0  0  0  0  0  0  0  0  0  0  0
    3.0549    4.8987    0.6555 C   0  0  0  0  0  0  0  0  0  0  0  0
    3.1557    5.9085   -0.0969 O   0  0  0  0  0  1  0  0  0  0  0  0
    3.2880    3.7353    0.2654 O   0  0  0  0  0  0  0  0  0  0  0  0
   -0.0018    2.9198    0.0059 C   0  0  0  0  0  0  0  0  0  0  0  0
    0.9366    3.2298   -0.1203 H   0  0  0  0  0  0  0  0  0  0  0  0
   -0.3424    3.2096    0.8956 H   0  0  0  0  0  0  0  0  0  0  0  0
   -0.6117    3.4108   -0.7525 H   0  0  0  0  0  0  0  0  0  0  0  0
    0.0003    1.4100   -0.0204 C   0  0  0  0  0  0  0  0  0  0  0  0
   -1.1969    0.6883    0.0185 C   0  0  0  0  0  0  0  0  0  0  0  0
   -2.0645    1.1735    0.0589 H   0  0  0  0  0  0  0  0  0  0  0  0
   -1.1952   -0.7074    0.0000 C   0  0  0  0  0  0  0  0  0  0  0  0
   -2.0734   -1.1992   -0.0246 H   0  0  0  0  0  0  0  0  0  0  0  0
    0.0003   -1.3909    0.0181 C   0  0  0  0  0  0  0  0  0  0  0  0
   -0.0004   -2.3959    0.0445 H   0  0  0  0  0  0  0  0  0  0  0  0
    1.1952   -0.7014    0.0000 C   0  0  0  0  0  0  0  0  0  0  0  0
    2.0802   -1.1937   -0.0000 H   0  0  0  0  0  0  0  0  0  0  0  0
    1.1963    0.7013   -0.0162 C   0  0  0  0  0  0  0  0  0  0  0  0
    2.0654    1.1894   -0.0254 H   0  0  0  0  0  0  0  0  0  0  0  0
  1  5  1  0
  5  6  1  0
  5  7  2  0
  1  2  1  0
  1  3  1  0
  1  4  1  0
  8 12  1  0
 12 13  2  0
 13 15  1  0
 15 17  2  0
 17 19  1  0
 19 21  2  0
 21 12  1  0
  8  9  1  0
  8 10  1  0
  8 11  1  0
 13 14  1  0
 15 16  1  0
 17 18  1  0
 19 20  1  0
 21 22  1  0
M  CHG  1   6  -1
M  END
>  <PDB_ID>  (2290) 
pdb6euo

>  <RESIDUE_NAME>  (2290) 
ASP   PHE

>  <FRAG_NAME>  (2290) 
ACET   MBZ

>  <FRAG_ATOM_NUM>  (2290) 
fragi: 7  fragj: 15

>  <atom.prop.CHAIN_ID>  (2290) 
A A A A A A A Z Z Z Z Z Z Z Z Z Z Z Z Z Z Z

>  <atom.prop.IS_HEAVY_ATOM>  (2290) 
1 0 0 0 1 1 1 1 0 0 0 1 1 0 1 0 1 0 1 0 1 0

>  <DIFUSE_FUNC_ATOM>  (2290) 
atom 6   atom 7   

>  <FINAL_SINGLE_POINT_ENERGY>  (2290) 
0

>  <NONCOV_INTER_ENERGY_QM>  (2290) 
0

>  <FF_Energy>  (2290) 
-2.26

>  <QM_Energy>  (2290) 
-7.31

>  <source>  (2290) 
ACET_MBZ_02

>  <Index>  (2290) 
25636

$$$$
ACET-pdb6f9n-A-ASP-703:MBZ-pdb6f9n-A-PHE-708
     RDKit          3D

 22 21  0  0  0  0  0  0  0  0999 V2000
   -1.5174    3.0368   -4.2216 C   0  0  0  0  0  0  0  0  0  0  0  0
   -0.8336    2.3319   -4.0716 H   0  0  0  0  0  0  0  0  0  0  0  0
   -1.1056    3.9385   -4.1678 H   0  0  0  0  0  0  0  0  0  0  0  0
   -1.9231    2.9074   -5.2249 H   0  0  0  0  0  0  0  0  0  0  0  0
   -2.5796    2.9210   -3.1441 C   0  0  0  0  0  0  0  0  0  0  0  0
   -3.6221    2.2837   -3.4030 O   0  0  0  0  0  1  0  0  0  0  0  0
   -2.3789    3.4759   -2.0438 O   0  0  0  0  0  0  0  0  0  0  0  0
    0.0029    2.8990   -0.0012 C   0  0  0  0  0  0  0  0  0  0  0  0
   -0.5606    3.2036   -0.7545 H   0  0  0  0  0  0  0  0  0  0  0  0
    0.9377    3.2031   -0.1048 H   0  0  0  0  0  0  0  0  0  0  0  0
   -0.3930    3.3419    0.9127 H   0  0  0  0  0  0  0  0  0  0  0  0
    0.0006    1.3950    0.0025 C   0  0  0  0  0  0  0  0  0  0  0  0
   -1.1918    0.6883   -0.0014 C   0  0  0  0  0  0  0  0  0  0  0  0
   -2.0597    1.1805   -0.0060 H   0  0  0  0  0  0  0  0  0  0  0  0
   -1.1952   -0.6936    0.0000 C   0  0  0  0  0  0  0  0  0  0  0  0
   -2.0741   -1.1903    0.0028 H   0  0  0  0  0  0  0  0  0  0  0  0
   -0.0001   -1.3855   -0.0004 C   0  0  0  0  0  0  0  0  0  0  0  0
   -0.0037   -2.3873   -0.0021 H   0  0  0  0  0  0  0  0  0  0  0  0
    1.1952   -0.6934   -0.0000 C   0  0  0  0  0  0  0  0  0  0  0  0
    2.0780   -1.1928    0.0026 H   0  0  0  0  0  0  0  0  0  0  0  0
    1.1913    0.6892   -0.0007 C   0  0  0  0  0  0  0  0  0  0  0  0
    2.0617    1.1872   -0.0044 H   0  0  0  0  0  0  0  0  0  0  0  0
  1  5  1  0
  5  6  1  0
  5  7  2  0
  1  2  1  0
  1  3  1  0
  1  4  1  0
  8 12  1  0
 12 13  2  0
 13 15  1  0
 15 17  2  0
 17 19  1  0
 19 21  2  0
 21 12  1  0
  8  9  1  0
  8 10  1  0
  8 11  1  0
 13 14  1  0
 15 16  1  0
 17 18  1  0
 19 20  1  0
 21 22  1  0
M  CHG  1   6  -1
M  END
>  <PDB_ID>  (2291) 
pdb6f9n

>  <RESIDUE_NAME>  (2291) 
ASP   PHE

>  <FRAG_NAME>  (2291) 
ACET   MBZ

>  <FRAG_ATOM_NUM>  (2291) 
fragi: 7  fragj: 15

>  <atom.prop.CHAIN_ID>  (2291) 
A A A A A A A Z Z Z Z Z Z Z Z Z Z Z Z Z Z Z

>  <atom.prop.IS_HEAVY_ATOM>  (2291) 
1 0 0 0 1 1 1 1 0 0 0 1 1 0 1 0 1 0 1 0 1 0

>  <DIFUSE_FUNC_ATOM>  (2291) 
atom 6   atom 7   

>  <FINAL_SINGLE_POINT_ENERGY>  (2291) 
0

>  <NONCOV_INTER_ENERGY_QM>  (2291) 
0

>  <FF_Energy>  (2291) 
-0.23

>  <QM_Energy>  (2291) 
-6.68

>  <source>  (2291) 
ACET_MBZ_02

>  <Index>  (2291) 
25643

$$$$
ACET-pdb5f2t-A-ASP-282:MBZ-pdb5f2t-A-PHE-241
     RDKit          3D

 22 21  0  0  0  0  0  0  0  0999 V2000
    3.7595    2.1653   -3.5405 C   0  0  0  0  0  0  0  0  0  0  0  0
    3.9223    2.7461   -4.3280 H   0  0  0  0  0  0  0  0  0  0  0  0
    3.0509    1.4999   -3.7345 H   0  0  0  0  0  0  0  0  0  0  0  0
    4.6806    1.6220   -3.3295 H   0  0  0  0  0  0  0  0  0  0  0  0
    3.3179    3.0286   -2.3759 C   0  0  0  0  0  0  0  0  0  0  0  0
    3.6705    2.6935   -1.2245 O   0  0  0  0  0  1  0  0  0  0  0  0
    2.6247    4.0396   -2.6064 O   0  0  0  0  0  0  0  0  0  0  0  0
    0.0146    2.8938    0.0017 C   0  0  0  0  0  0  0  0  0  0  0  0
    0.9412    3.1929   -0.1737 H   0  0  0  0  0  0  0  0  0  0  0  0
   -0.3013    3.2030    0.8870 H   0  0  0  0  0  0  0  0  0  0  0  0
   -0.6293    3.3383   -0.7572 H   0  0  0  0  0  0  0  0  0  0  0  0
    0.0020    1.3945    0.0013 C   0  0  0  0  0  0  0  0  0  0  0  0
   -1.1904    0.6883   -0.0013 C   0  0  0  0  0  0  0  0  0  0  0  0
   -2.0580    1.1797   -0.0059 H   0  0  0  0  0  0  0  0  0  0  0  0
   -1.1958   -0.6968   -0.0000 C   0  0  0  0  0  0  0  0  0  0  0  0
   -2.0734   -1.1914    0.0025 H   0  0  0  0  0  0  0  0  0  0  0  0
    0.0021   -1.3903   -0.0003 C   0  0  0  0  0  0  0  0  0  0  0  0
    0.0011   -2.3887   -0.0008 H   0  0  0  0  0  0  0  0  0  0  0  0
    1.1958   -0.6903   -0.0000 C   0  0  0  0  0  0  0  0  0  0  0  0
    2.0811   -1.1859    0.0015 H   0  0  0  0  0  0  0  0  0  0  0  0
    1.1863    0.6946    0.0003 C   0  0  0  0  0  0  0  0  0  0  0  0
    2.0596    1.1919   -0.0015 H   0  0  0  0  0  0  0  0  0  0  0  0
  1  5  1  0
  5  6  1  0
  5  7  2  0
  1  2  1  0
  1  3  1  0
  1  4  1  0
  8 12  1  0
 12 13  2  0
 13 15  1  0
 15 17  2  0
 17 19  1  0
 19 21  2  0
 21 12  1  0
  8  9  1  0
  8 10  1  0
  8 11  1  0
 13 14  1  0
 15 16  1  0
 17 18  1  0
 19 20  1  0
 21 22  1  0
M  CHG  1   6  -1
M  END
>  <PDB_ID>  (2292) 
pdb5f2t

>  <RESIDUE_NAME>  (2292) 
ASP   PHE

>  <FRAG_NAME>  (2292) 
ACET   MBZ

>  <FRAG_ATOM_NUM>  (2292) 
fragi: 7  fragj: 15

>  <atom.prop.CHAIN_ID>  (2292) 
A A A A A A A Z Z Z Z Z Z Z Z Z Z Z Z Z Z Z

>  <atom.prop.IS_HEAVY_ATOM>  (2292) 
1 0 0 0 1 1 1 1 0 0 0 1 1 0 1 0 1 0 1 0 1 0

>  <DIFUSE_FUNC_ATOM>  (2292) 
atom 6   atom 7   

>  <FINAL_SINGLE_POINT_ENERGY>  (2292) 
0

>  <NONCOV_INTER_ENERGY_QM>  (2292) 
0

>  <FF_Energy>  (2292) 
-2.53

>  <QM_Energy>  (2292) 
-7.9

>  <source>  (2292) 
ACET_MBZ_02

>  <Index>  (2292) 
25664

$$$$
ACET-pdb5f46-A-GLU-65:MBZ-pdb5f46-A-PHE-10
     RDKit          3D

 22 21  0  0  0  0  0  0  0  0999 V2000
   -1.5405   -4.2486    0.4467 C   0  0  0  0  0  0  0  0  0  0  0  0
   -1.2725   -3.3074    0.3280 H   0  0  0  0  0  0  0  0  0  0  0  0
   -0.9831   -4.8578   -0.0910 H   0  0  0  0  0  0  0  0  0  0  0  0
   -1.4197   -4.5090    1.4982 H   0  0  0  0  0  0  0  0  0  0  0  0
   -2.9685   -4.3825   -0.0479 C   0  0  0  0  0  0  0  0  0  0  0  0
   -3.2966   -3.7496   -1.0734 O   0  0  0  0  0  1  0  0  0  0  0  0
   -3.7595   -5.1203    0.5769 O   0  0  0  0  0  0  0  0  0  0  0  0
    0.0365    2.8860   -0.0064 C   0  0  0  0  0  0  0  0  0  0  0  0
    0.1197    3.1874   -0.9498 H   0  0  0  0  0  0  0  0  0  0  0  0
    0.8256    3.1794    0.5222 H   0  0  0  0  0  0  0  0  0  0  0  0
   -0.8424    3.3716    0.4176 H   0  0  0  0  0  0  0  0  0  0  0  0
    0.0000    1.3887    0.0034 C   0  0  0  0  0  0  0  0  0  0  0  0
   -1.1940    0.6896   -0.0030 C   0  0  0  0  0  0  0  0  0  0  0  0
   -2.0591    1.1823   -0.0109 H   0  0  0  0  0  0  0  0  0  0  0  0
   -1.1946   -0.6890   -0.0000 C   0  0  0  0  0  0  0  0  0  0  0  0
   -2.0691   -1.1900    0.0043 H   0  0  0  0  0  0  0  0  0  0  0  0
    0.0058   -1.3763   -0.0004 C   0  0  0  0  0  0  0  0  0  0  0  0
   -0.0026   -2.3814   -0.0014 H   0  0  0  0  0  0  0  0  0  0  0  0
    1.1946   -0.6917   -0.0000 C   0  0  0  0  0  0  0  0  0  0  0  0
    2.0786   -1.1933    0.0015 H   0  0  0  0  0  0  0  0  0  0  0  0
    1.1882    0.6787    0.0000 C   0  0  0  0  0  0  0  0  0  0  0  0
    2.0599    1.1830   -0.0029 H   0  0  0  0  0  0  0  0  0  0  0  0
  1  5  1  0
  5  6  1  0
  5  7  2  0
  1  2  1  0
  1  3  1  0
  1  4  1  0
  8 12  1  0
 12 13  2  0
 13 15  1  0
 15 17  2  0
 17 19  1  0
 19 21  2  0
 21 12  1  0
  8  9  1  0
  8 10  1  0
  8 11  1  0
 13 14  1  0
 15 16  1  0
 17 18  1  0
 19 20  1  0
 21 22  1  0
M  CHG  1   6  -1
M  END
>  <PDB_ID>  (2293) 
pdb5f46

>  <RESIDUE_NAME>  (2293) 
GLU   PHE

>  <FRAG_NAME>  (2293) 
ACET   MBZ

>  <FRAG_ATOM_NUM>  (2293) 
fragi: 7  fragj: 15

>  <atom.prop.CHAIN_ID>  (2293) 
A A A A A A A Z Z Z Z Z Z Z Z Z Z Z Z Z Z Z

>  <atom.prop.IS_HEAVY_ATOM>  (2293) 
1 0 0 0 1 1 1 1 0 0 0 1 1 0 1 0 1 0 1 0 1 0

>  <DIFUSE_FUNC_ATOM>  (2293) 
atom 6   atom 7   

>  <FINAL_SINGLE_POINT_ENERGY>  (2293) 
0

>  <NONCOV_INTER_ENERGY_QM>  (2293) 
0

>  <FF_Energy>  (2293) 
14.73

>  <QM_Energy>  (2293) 
0.48

>  <source>  (2293) 
ACET_MBZ_02

>  <Index>  (2293) 
25723

$$$$
ACET-pdb6f70-B-ASP-165:MBZ-pdb6f70-B-PHE-155
     RDKit          3D

 22 21  0  0  0  0  0  0  0  0999 V2000
   -4.3352    2.8862    2.6702 C   0  0  0  0  0  0  0  0  0  0  0  0
   -4.0168    2.6173    3.5467 H   0  0  0  0  0  0  0  0  0  0  0  0
   -4.6740    2.1166    2.1862 H   0  0  0  0  0  0  0  0  0  0  0  0
   -5.1343    3.6184    2.7866 H   0  0  0  0  0  0  0  0  0  0  0  0
   -3.1536    3.4627    1.8874 C   0  0  0  0  0  0  0  0  0  0  0  0
   -3.3166    3.8151    0.6895 O   0  0  0  0  0  1  0  0  0  0  0  0
   -2.0779    3.6349    2.4834 O   0  0  0  0  0  0  0  0  0  0  0  0
   -0.0256    2.8957   -0.0658 C   0  0  0  0  0  0  0  0  0  0  0  0
    0.8083    3.2246    0.3039 H   0  0  0  0  0  0  0  0  0  0  0  0
   -0.7715    3.2035    0.4716 H   0  0  0  0  0  0  0  0  0  0  0  0
   -0.1384    3.2765   -1.0809 H   0  0  0  0  0  0  0  0  0  0  0  0
    0.0006    1.3957   -0.0082 C   0  0  0  0  0  0  0  0  0  0  0  0
   -1.1715    0.6971   -0.0108 C   0  0  0  0  0  0  0  0  0  0  0  0
   -1.9780    1.1610   -0.0224 H   0  0  0  0  0  0  0  0  0  0  0  0
   -1.1849   -0.7235   -0.0000 C   0  0  0  0  0  0  0  0  0  0  0  0
   -1.9917   -1.1860    0.0154 H   0  0  0  0  0  0  0  0  0  0  0  0
   -0.0099   -1.3974    0.0293 C   0  0  0  0  0  0  0  0  0  0  0  0
   -0.0020   -2.3279    0.0369 H   0  0  0  0  0  0  0  0  0  0  0  0
    1.1849   -0.6869    0.0000 C   0  0  0  0  0  0  0  0  0  0  0  0
    1.9942   -1.1443    0.0165 H   0  0  0  0  0  0  0  0  0  0  0  0
    1.1808    0.7150   -0.0104 C   0  0  0  0  0  0  0  0  0  0  0  0
    1.9857    1.1806   -0.0207 H   0  0  0  0  0  0  0  0  0  0  0  0
  1  5  1  0
  5  6  1  0
  5  7  2  0
  1  2  1  0
  1  3  1  0
  1  4  1  0
  8 12  1  0
 12 13  2  0
 13 15  1  0
 15 17  2  0
 17 19  1  0
 19 21  2  0
 21 12  1  0
  8  9  1  0
  8 10  1  0
  8 11  1  0
 13 14  1  0
 15 16  1  0
 17 18  1  0
 19 20  1  0
 21 22  1  0
M  CHG  1   6  -1
M  END
>  <PDB_ID>  (2294) 
pdb6f70

>  <RESIDUE_NAME>  (2294) 
ASP   PHE

>  <FRAG_NAME>  (2294) 
ACET   MBZ

>  <FRAG_ATOM_NUM>  (2294) 
fragi: 7  fragj: 15

>  <atom.prop.CHAIN_ID>  (2294) 
A A A A A A A Z Z Z Z Z Z Z Z Z Z Z Z Z Z Z

>  <atom.prop.IS_HEAVY_ATOM>  (2294) 
1 0 0 0 1 1 1 1 0 0 0 1 1 0 1 0 1 0 1 0 1 0

>  <DIFUSE_FUNC_ATOM>  (2294) 
atom 6   atom 7   

>  <FINAL_SINGLE_POINT_ENERGY>  (2294) 
0

>  <NONCOV_INTER_ENERGY_QM>  (2294) 
0

>  <FF_Energy>  (2294) 
-1.46

>  <QM_Energy>  (2294) 
-7.78

>  <source>  (2294) 
ACET_MBZ_02

>  <Index>  (2294) 
25729

$$$$
ACET-pdb5f8c-C-GLU-6:MBZ-pdb5f8c-C-PHE-11
     RDKit          3D

 22 21  0  0  0  0  0  0  0  0999 V2000
   -3.2458    5.3822   -1.3951 C   0  0  0  0  0  0  0  0  0  0  0  0
   -2.2950    5.6147   -1.3318 H   0  0  0  0  0  0  0  0  0  0  0  0
   -3.7812    5.7848   -0.6779 H   0  0  0  0  0  0  0  0  0  0  0  0
   -3.6230    5.7461   -2.3508 H   0  0  0  0  0  0  0  0  0  0  0  0
   -3.3585    3.8666   -1.2544 C   0  0  0  0  0  0  0  0  0  0  0  0
   -2.9361    3.1311   -2.1672 O   0  0  0  0  0  1  0  0  0  0  0  0
   -3.8581    3.3986   -0.2146 O   0  0  0  0  0  0  0  0  0  0  0  0
   -0.0200    2.9049    0.0397 C   0  0  0  0  0  0  0  0  0  0  0  0
   -0.5863    3.2248   -0.6970 H   0  0  0  0  0  0  0  0  0  0  0  0
    0.9071    3.2234   -0.0368 H   0  0  0  0  0  0  0  0  0  0  0  0
   -0.4335    3.2820    0.9752 H   0  0  0  0  0  0  0  0  0  0  0  0
    0.0001    1.4022   -0.0091 C   0  0  0  0  0  0  0  0  0  0  0  0
   -1.1982    0.6889    0.0069 C   0  0  0  0  0  0  0  0  0  0  0  0
   -2.0646    1.1772    0.0224 H   0  0  0  0  0  0  0  0  0  0  0  0
   -1.1994   -0.7033    0.0000 C   0  0  0  0  0  0  0  0  0  0  0  0
   -2.0765   -1.1962   -0.0024 H   0  0  0  0  0  0  0  0  0  0  0  0
   -0.0016   -1.3913   -0.0016 C   0  0  0  0  0  0  0  0  0  0  0  0
    0.0014   -2.3922   -0.0045 H   0  0  0  0  0  0  0  0  0  0  0  0
    1.1994   -0.6924    0.0000 C   0  0  0  0  0  0  0  0  0  0  0  0
    2.0818   -1.1934   -0.0005 H   0  0  0  0  0  0  0  0  0  0  0  0
    1.1997    0.6958    0.0039 C   0  0  0  0  0  0  0  0  0  0  0  0
    2.0650    1.1918    0.0154 H   0  0  0  0  0  0  0  0  0  0  0  0
  1  5  1  0
  5  6  1  0
  5  7  2  0
  1  2  1  0
  1  3  1  0
  1  4  1  0
  8 12  1  0
 12 13  2  0
 13 15  1  0
 15 17  2  0
 17 19  1  0
 19 21  2  0
 21 12  1  0
  8  9  1  0
  8 10  1  0
  8 11  1  0
 13 14  1  0
 15 16  1  0
 17 18  1  0
 19 20  1  0
 21 22  1  0
M  CHG  1   6  -1
M  END
>  <PDB_ID>  (2295) 
pdb5f8c

>  <RESIDUE_NAME>  (2295) 
GLU   PHE

>  <FRAG_NAME>  (2295) 
ACET   MBZ

>  <FRAG_ATOM_NUM>  (2295) 
fragi: 7  fragj: 15

>  <atom.prop.CHAIN_ID>  (2295) 
A A A A A A A Z Z Z Z Z Z Z Z Z Z Z Z Z Z Z

>  <atom.prop.IS_HEAVY_ATOM>  (2295) 
1 0 0 0 1 1 1 1 0 0 0 1 1 0 1 0 1 0 1 0 1 0

>  <DIFUSE_FUNC_ATOM>  (2295) 
atom 6   atom 7   

>  <FINAL_SINGLE_POINT_ENERGY>  (2295) 
0

>  <NONCOV_INTER_ENERGY_QM>  (2295) 
0

>  <FF_Energy>  (2295) 
-2.27

>  <QM_Energy>  (2295) 
-7.93

>  <source>  (2295) 
ACET_MBZ_02

>  <Index>  (2295) 
25897

$$$$
ACET-pdb5f9z-A-GLU-633:MBZ-pdb5f9z-A-PHE-603
     RDKit          3D

 22 21  0  0  0  0  0  0  0  0999 V2000
    1.4689   -2.9999   -2.4997 C   0  0  0  0  0  0  0  0  0  0  0  0
    1.2137   -3.1507   -1.5428 H   0  0  0  0  0  0  0  0  0  0  0  0
    2.3865   -3.3701   -2.6570 H   0  0  0  0  0  0  0  0  0  0  0  0
    0.7739   -3.5679   -3.1182 H   0  0  0  0  0  0  0  0  0  0  0  0
    1.5240   -1.5248   -2.7318 C   0  0  0  0  0  0  0  0  0  0  0  0
    0.8415   -0.9408   -3.5628 O   0  0  0  0  0  1  0  0  0  0  0  0
    2.3527   -0.9562   -1.9931 O   0  0  0  0  0  0  0  0  0  0  0  0
   -0.0019    2.8976    0.0017 C   0  0  0  0  0  0  0  0  0  0  0  0
   -0.6988    3.2033   -0.6289 H   0  0  0  0  0  0  0  0  0  0  0  0
    0.8959    3.2053   -0.2758 H   0  0  0  0  0  0  0  0  0  0  0  0
   -0.2187    3.3354    0.9761 H   0  0  0  0  0  0  0  0  0  0  0  0
    0.0005    1.3950   -0.0000 C   0  0  0  0  0  0  0  0  0  0  0  0
   -1.1908    0.6889    0.0002 C   0  0  0  0  0  0  0  0  0  0  0  0
   -2.0590    1.1817   -0.0011 H   0  0  0  0  0  0  0  0  0  0  0  0
   -1.1950   -0.6927   -0.0000 C   0  0  0  0  0  0  0  0  0  0  0  0
   -2.0748   -1.1880    0.0011 H   0  0  0  0  0  0  0  0  0  0  0  0
   -0.0012   -1.3861   -0.0002 C   0  0  0  0  0  0  0  0  0  0  0  0
   -0.0055   -2.3875   -0.0012 H   0  0  0  0  0  0  0  0  0  0  0  0
    1.1950   -0.6941   -0.0000 C   0  0  0  0  0  0  0  0  0  0  0  0
    2.0773   -1.1948    0.0014 H   0  0  0  0  0  0  0  0  0  0  0  0
    1.1915    0.6891   -0.0000 C   0  0  0  0  0  0  0  0  0  0  0  0
    2.0616    1.1867   -0.0004 H   0  0  0  0  0  0  0  0  0  0  0  0
  1  5  1  0
  5  6  1  0
  5  7  2  0
  1  2  1  0
  1  3  1  0
  1  4  1  0
  8 12  1  0
 12 13  2  0
 13 15  1  0
 15 17  2  0
 17 19  1  0
 19 21  2  0
 21 12  1  0
  8  9  1  0
  8 10  1  0
  8 11  1  0
 13 14  1  0
 15 16  1  0
 17 18  1  0
 19 20  1  0
 21 22  1  0
M  CHG  1   6  -1
M  END
>  <PDB_ID>  (2296) 
pdb5f9z

>  <RESIDUE_NAME>  (2296) 
GLU   PHE

>  <FRAG_NAME>  (2296) 
ACET   MBZ

>  <FRAG_ATOM_NUM>  (2296) 
fragi: 7  fragj: 15

>  <atom.prop.CHAIN_ID>  (2296) 
A A A A A A A Z Z Z Z Z Z Z Z Z Z Z Z Z Z Z

>  <atom.prop.IS_HEAVY_ATOM>  (2296) 
1 0 0 0 1 1 1 1 0 0 0 1 1 0 1 0 1 0 1 0 1 0

>  <DIFUSE_FUNC_ATOM>  (2296) 
atom 6   atom 7   

>  <FINAL_SINGLE_POINT_ENERGY>  (2296) 
0

>  <NONCOV_INTER_ENERGY_QM>  (2296) 
0

>  <FF_Energy>  (2296) 
36.27

>  <QM_Energy>  (2296) 
6.69

>  <source>  (2296) 
ACET_MBZ_02

>  <Index>  (2296) 
25948

$$$$
ACET-pdb5far-E-GLU-65:MBZ-pdb5far-E-PHE-11
     RDKit          3D

 22 21  0  0  0  0  0  0  0  0999 V2000
   -2.5546    2.9226    3.2903 C   0  0  0  0  0  0  0  0  0  0  0  0
   -2.6425    3.8892    3.2349 H   0  0  0  0  0  0  0  0  0  0  0  0
   -1.7506    2.5727    2.8693 H   0  0  0  0  0  0  0  0  0  0  0  0
   -2.5387    2.6427    4.3436 H   0  0  0  0  0  0  0  0  0  0  0  0
   -3.7618    2.3054    2.5655 C   0  0  0  0  0  0  0  0  0  0  0  0
   -4.7992    2.0855    3.1926 O   0  0  0  0  0  1  0  0  0  0  0  0
   -3.6557    1.9463    1.3879 O   0  0  0  0  0  0  0  0  0  0  0  0
   -0.0246    2.9110    0.0252 C   0  0  0  0  0  0  0  0  0  0  0  0
    0.9142    3.2217    0.0227 H   0  0  0  0  0  0  0  0  0  0  0  0
   -0.4958    3.1967    0.8459 H   0  0  0  0  0  0  0  0  0  0  0  0
   -0.5312    3.3602   -0.8290 H   0  0  0  0  0  0  0  0  0  0  0  0
   -0.0120    1.4050    0.0015 C   0  0  0  0  0  0  0  0  0  0  0  0
   -1.1963    0.6767    0.0097 C   0  0  0  0  0  0  0  0  0  0  0  0
   -2.0729    1.1601    0.0215 H   0  0  0  0  0  0  0  0  0  0  0  0
   -1.1983   -0.7172    0.0000 C   0  0  0  0  0  0  0  0  0  0  0  0
   -2.0615   -1.2174   -0.0051 H   0  0  0  0  0  0  0  0  0  0  0  0
    0.0239   -1.3997   -0.0003 C   0  0  0  0  0  0  0  0  0  0  0  0
    0.0291   -2.3954   -0.0007 H   0  0  0  0  0  0  0  0  0  0  0  0
    1.1983   -0.6806    0.0000 C   0  0  0  0  0  0  0  0  0  0  0  0
    2.0974   -1.1615    0.0100 H   0  0  0  0  0  0  0  0  0  0  0  0
    1.1844    0.7158   -0.0110 C   0  0  0  0  0  0  0  0  0  0  0  0
    2.0500    1.2138   -0.0285 H   0  0  0  0  0  0  0  0  0  0  0  0
  1  5  1  0
  5  6  1  0
  5  7  2  0
  1  2  1  0
  1  3  1  0
  1  4  1  0
  8 12  1  0
 12 13  2  0
 13 15  1  0
 15 17  2  0
 17 19  1  0
 19 21  2  0
 21 12  1  0
  8  9  1  0
  8 10  1  0
  8 11  1  0
 13 14  1  0
 15 16  1  0
 17 18  1  0
 19 20  1  0
 21 22  1  0
M  CHG  1   6  -1
M  END
>  <PDB_ID>  (2297) 
pdb5far

>  <RESIDUE_NAME>  (2297) 
GLU   PHE

>  <FRAG_NAME>  (2297) 
ACET   MBZ

>  <FRAG_ATOM_NUM>  (2297) 
fragi: 7  fragj: 15

>  <atom.prop.CHAIN_ID>  (2297) 
A A A A A A A Z Z Z Z Z Z Z Z Z Z Z Z Z Z Z

>  <atom.prop.IS_HEAVY_ATOM>  (2297) 
1 0 0 0 1 1 1 1 0 0 0 1 1 0 1 0 1 0 1 0 1 0

>  <DIFUSE_FUNC_ATOM>  (2297) 
atom 6   atom 7   

>  <FINAL_SINGLE_POINT_ENERGY>  (2297) 
0

>  <NONCOV_INTER_ENERGY_QM>  (2297) 
0

>  <FF_Energy>  (2297) 
-0.83

>  <QM_Energy>  (2297) 
-6.35

>  <source>  (2297) 
ACET_MBZ_02

>  <Index>  (2297) 
26019

$$$$
ACET-pdb5fc1-A-ASP-222:MBZ-pdb5fc1-A-PHE-227
     RDKit          3D

 22 21  0  0  0  0  0  0  0  0999 V2000
    4.5590    2.8369   -1.1048 C   0  0  0  0  0  0  0  0  0  0  0  0
    4.5577    2.7888   -0.1352 H   0  0  0  0  0  0  0  0  0  0  0  0
    5.2860    3.4030   -1.4064 H   0  0  0  0  0  0  0  0  0  0  0  0
    4.6989    1.8343   -1.5089 H   0  0  0  0  0  0  0  0  0  0  0  0
    3.2557    3.4788   -1.5425 C   0  0  0  0  0  0  0  0  0  0  0  0
    2.4504    2.7574   -2.1843 O   0  0  0  0  0  1  0  0  0  0  0  0
    3.0288    4.6785   -1.2087 O   0  0  0  0  0  0  0  0  0  0  0  0
    0.0060    2.9164    0.0376 C   0  0  0  0  0  0  0  0  0  0  0  0
    0.9243    3.2121   -0.0638 H   0  0  0  0  0  0  0  0  0  0  0  0
   -0.3306    3.1953    0.9029 H   0  0  0  0  0  0  0  0  0  0  0  0
   -0.5968    3.3899   -0.7375 H   0  0  0  0  0  0  0  0  0  0  0  0
    0.0076    1.3974    0.0147 C   0  0  0  0  0  0  0  0  0  0  0  0
   -1.1711    0.7141   -0.0139 C   0  0  0  0  0  0  0  0  0  0  0  0
   -1.9738    1.1844    0.0053 H   0  0  0  0  0  0  0  0  0  0  0  0
   -1.1916   -0.6907   -0.0000 C   0  0  0  0  0  0  0  0  0  0  0  0
   -2.0040   -1.1430   -0.0125 H   0  0  0  0  0  0  0  0  0  0  0  0
   -0.0257   -1.3920   -0.0004 C   0  0  0  0  0  0  0  0  0  0  0  0
   -0.0419   -2.3224   -0.0142 H   0  0  0  0  0  0  0  0  0  0  0  0
    1.1916   -0.7134   -0.0000 C   0  0  0  0  0  0  0  0  0  0  0  0
    1.9942   -1.1836   -0.0024 H   0  0  0  0  0  0  0  0  0  0  0  0
    1.1891    0.6848   -0.0004 C   0  0  0  0  0  0  0  0  0  0  0  0
    1.9981    1.1425    0.0162 H   0  0  0  0  0  0  0  0  0  0  0  0
  1  5  1  0
  5  6  1  0
  5  7  2  0
  1  2  1  0
  1  3  1  0
  1  4  1  0
  8 12  1  0
 12 13  2  0
 13 15  1  0
 15 17  2  0
 17 19  1  0
 19 21  2  0
 21 12  1  0
  8  9  1  0
  8 10  1  0
  8 11  1  0
 13 14  1  0
 15 16  1  0
 17 18  1  0
 19 20  1  0
 21 22  1  0
M  CHG  1   6  -1
M  END
>  <PDB_ID>  (2298) 
pdb5fc1

>  <RESIDUE_NAME>  (2298) 
ASP   PHE

>  <FRAG_NAME>  (2298) 
ACET   MBZ

>  <FRAG_ATOM_NUM>  (2298) 
fragi: 7  fragj: 15

>  <atom.prop.CHAIN_ID>  (2298) 
A A A A A A A Z Z Z Z Z Z Z Z Z Z Z Z Z Z Z

>  <atom.prop.IS_HEAVY_ATOM>  (2298) 
1 0 0 0 1 1 1 1 0 0 0 1 1 0 1 0 1 0 1 0 1 0

>  <DIFUSE_FUNC_ATOM>  (2298) 
atom 6   atom 7   

>  <FINAL_SINGLE_POINT_ENERGY>  (2298) 
0

>  <NONCOV_INTER_ENERGY_QM>  (2298) 
0

>  <FF_Energy>  (2298) 
-0.84

>  <QM_Energy>  (2298) 
-6.12

>  <source>  (2298) 
ACET_MBZ_02

>  <Index>  (2298) 
26096

$$$$
ACET-pdb6fjy-A-GLU-85:MBZ-pdb6fjy-A-PHE-172
     RDKit          3D

 22 21  0  0  0  0  0  0  0  0999 V2000
   -5.7066    1.9972    0.8325 C   0  0  0  0  0  0  0  0  0  0  0  0
   -5.4420    2.4002    1.6903 H   0  0  0  0  0  0  0  0  0  0  0  0
   -6.1442    1.1240    0.9513 H   0  0  0  0  0  0  0  0  0  0  0  0
   -6.4210    2.6679    0.3550 H   0  0  0  0  0  0  0  0  0  0  0  0
   -4.4771    1.7965    0.0100 C   0  0  0  0  0  0  0  0  0  0  0  0
   -3.6691    2.7533   -0.0817 O   0  0  0  0  0  1  0  0  0  0  0  0
   -4.3156    0.6904   -0.5648 O   0  0  0  0  0  0  0  0  0  0  0  0
   -0.0038    2.9202    0.0052 C   0  0  0  0  0  0  0  0  0  0  0  0
    0.8653    3.2251    0.3618 H   0  0  0  0  0  0  0  0  0  0  0  0
   -0.7536    3.2213    0.5738 H   0  0  0  0  0  0  0  0  0  0  0  0
   -0.1348    3.3599   -0.9836 H   0  0  0  0  0  0  0  0  0  0  0  0
    0.0008    1.4077    0.0082 C   0  0  0  0  0  0  0  0  0  0  0  0
   -1.1935    0.6954   -0.0039 C   0  0  0  0  0  0  0  0  0  0  0  0
   -2.0626    1.1828   -0.0168 H   0  0  0  0  0  0  0  0  0  0  0  0
   -1.1992   -0.6998    0.0000 C   0  0  0  0  0  0  0  0  0  0  0  0
   -2.0794   -1.1899    0.0068 H   0  0  0  0  0  0  0  0  0  0  0  0
   -0.0012   -1.4020   -0.0040 C   0  0  0  0  0  0  0  0  0  0  0  0
   -0.0054   -2.3968   -0.0102 H   0  0  0  0  0  0  0  0  0  0  0  0
    1.1992   -0.7013    0.0000 C   0  0  0  0  0  0  0  0  0  0  0  0
    2.0824   -1.1931    0.0045 H   0  0  0  0  0  0  0  0  0  0  0  0
    1.1940    0.6999   -0.0003 C   0  0  0  0  0  0  0  0  0  0  0  0
    2.0650    1.1906   -0.0072 H   0  0  0  0  0  0  0  0  0  0  0  0
  1  5  1  0
  5  6  1  0
  5  7  2  0
  1  2  1  0
  1  3  1  0
  1  4  1  0
  8 12  1  0
 12 13  2  0
 13 15  1  0
 15 17  2  0
 17 19  1  0
 19 21  2  0
 21 12  1  0
  8  9  1  0
  8 10  1  0
  8 11  1  0
 13 14  1  0
 15 16  1  0
 17 18  1  0
 19 20  1  0
 21 22  1  0
M  CHG  1   6  -1
M  END
>  <PDB_ID>  (2299) 
pdb6fjy

>  <RESIDUE_NAME>  (2299) 
GLU   PHE

>  <FRAG_NAME>  (2299) 
ACET   MBZ

>  <FRAG_ATOM_NUM>  (2299) 
fragi: 7  fragj: 15

>  <atom.prop.CHAIN_ID>  (2299) 
A A A A A A A Z Z Z Z Z Z Z Z Z Z Z Z Z Z Z

>  <atom.prop.IS_HEAVY_ATOM>  (2299) 
1 0 0 0 1 1 1 1 0 0 0 1 1 0 1 0 1 0 1 0 1 0

>  <DIFUSE_FUNC_ATOM>  (2299) 
atom 6   atom 7   

>  <FINAL_SINGLE_POINT_ENERGY>  (2299) 
0

>  <NONCOV_INTER_ENERGY_QM>  (2299) 
0

>  <FF_Energy>  (2299) 
-0.15

>  <QM_Energy>  (2299) 
-9.25

>  <source>  (2299) 
ACET_MBZ_02

>  <Index>  (2299) 
26133

$$$$
ACET-pdb5fdn-B-GLU-320:MBZ-pdb5fdn-B-PHE-357
     RDKit          3D

 22 21  0  0  0  0  0  0  0  0999 V2000
    4.1433    5.6550   -0.6106 C   0  0  0  0  0  0  0  0  0  0  0  0
    4.3228    6.0547    0.2703 H   0  0  0  0  0  0  0  0  0  0  0  0
    4.3785    6.2630   -1.3479 H   0  0  0  0  0  0  0  0  0  0  0  0
    4.7317    4.7426   -0.7072 H   0  0  0  0  0  0  0  0  0  0  0  0
    2.6637    5.3900   -0.6963 C   0  0  0  0  0  0  0  0  0  0  0  0
    2.2919    4.2916   -1.1439 O   0  0  0  0  0  1  0  0  0  0  0  0
    1.8817    6.2845   -0.3317 O   0  0  0  0  0  0  0  0  0  0  0  0
    0.0121    2.8752   -0.0185 C   0  0  0  0  0  0  0  0  0  0  0  0
   -0.2880    3.1674   -0.9212 H   0  0  0  0  0  0  0  0  0  0  0  0
    0.9442    3.1802    0.1504 H   0  0  0  0  0  0  0  0  0  0  0  0
   -0.6330    3.3543    0.7179 H   0  0  0  0  0  0  0  0  0  0  0  0
   -0.0004    1.3842    0.0127 C   0  0  0  0  0  0  0  0  0  0  0  0
   -1.1905    0.6912   -0.0037 C   0  0  0  0  0  0  0  0  0  0  0  0
   -2.0563    1.1857   -0.0198 H   0  0  0  0  0  0  0  0  0  0  0  0
   -1.1919   -0.6829    0.0000 C   0  0  0  0  0  0  0  0  0  0  0  0
   -2.0709   -1.1817    0.0112 H   0  0  0  0  0  0  0  0  0  0  0  0
   -0.0030   -1.3649   -0.0096 C   0  0  0  0  0  0  0  0  0  0  0  0
   -0.0147   -2.3789   -0.0245 H   0  0  0  0  0  0  0  0  0  0  0  0
    1.1919   -0.6996   -0.0000 C   0  0  0  0  0  0  0  0  0  0  0  0
    2.0689   -1.2076    0.0080 H   0  0  0  0  0  0  0  0  0  0  0  0
    1.1939    0.6721    0.0005 C   0  0  0  0  0  0  0  0  0  0  0  0
    2.0614    1.1744   -0.0083 H   0  0  0  0  0  0  0  0  0  0  0  0
  1  5  1  0
  5  6  1  0
  5  7  2  0
  1  2  1  0
  1  3  1  0
  1  4  1  0
  8 12  1  0
 12 13  2  0
 13 15  1  0
 15 17  2  0
 17 19  1  0
 19 21  2  0
 21 12  1  0
  8  9  1  0
  8 10  1  0
  8 11  1  0
 13 14  1  0
 15 16  1  0
 17 18  1  0
 19 20  1  0
 21 22  1  0
M  CHG  1   6  -1
M  END
>  <PDB_ID>  (2300) 
pdb5fdn

>  <RESIDUE_NAME>  (2300) 
GLU   PHE

>  <FRAG_NAME>  (2300) 
ACET   MBZ

>  <FRAG_ATOM_NUM>  (2300) 
fragi: 7  fragj: 15

>  <atom.prop.CHAIN_ID>  (2300) 
A A A A A A A Z Z Z Z Z Z Z Z Z Z Z Z Z Z Z

>  <atom.prop.IS_HEAVY_ATOM>  (2300) 
1 0 0 0 1 1 1 1 0 0 0 1 1 0 1 0 1 0 1 0 1 0

>  <DIFUSE_FUNC_ATOM>  (2300) 
atom 6   atom 7   

>  <FINAL_SINGLE_POINT_ENERGY>  (2300) 
0

>  <NONCOV_INTER_ENERGY_QM>  (2300) 
0

>  <FF_Energy>  (2300) 
1.43

>  <QM_Energy>  (2300) 
-4.95

>  <source>  (2300) 
ACET_MBZ_02

>  <Index>  (2300) 
26175

$$$$
ACET-pdb5ffq-B-GLU-169:MBZ-pdb5ffq-B-PHE-115
     RDKit          3D

 22 21  0  0  0  0  0  0  0  0999 V2000
   -0.4886    1.7274    3.5700 C   0  0  0  0  0  0  0  0  0  0  0  0
   -0.4193    2.1611    4.4479 H   0  0  0  0  0  0  0  0  0  0  0  0
    0.0584    2.1732    2.8872 H   0  0  0  0  0  0  0  0  0  0  0  0
   -0.1426    0.6985    3.6688 H   0  0  0  0  0  0  0  0  0  0  0  0
   -1.9359    1.8139    3.1278 C   0  0  0  0  0  0  0  0  0  0  0  0
   -2.6475    0.7914    3.2103 O   0  0  0  0  0  1  0  0  0  0  0  0
   -2.3624    2.9060    2.6962 O   0  0  0  0  0  0  0  0  0  0  0  0
    0.0034    2.8934    0.0071 C   0  0  0  0  0  0  0  0  0  0  0  0
    0.9425    3.1979    0.0766 H   0  0  0  0  0  0  0  0  0  0  0  0
   -0.5280    3.1946    0.7858 H   0  0  0  0  0  0  0  0  0  0  0  0
   -0.4287    3.3442   -0.8863 H   0  0  0  0  0  0  0  0  0  0  0  0
    0.0005    1.3942   -0.0063 C   0  0  0  0  0  0  0  0  0  0  0  0
   -1.1895    0.6924    0.0001 C   0  0  0  0  0  0  0  0  0  0  0  0
   -2.0585    1.1839    0.0032 H   0  0  0  0  0  0  0  0  0  0  0  0
   -1.1965   -0.6925   -0.0000 C   0  0  0  0  0  0  0  0  0  0  0  0
   -2.0761   -1.1848    0.0003 H   0  0  0  0  0  0  0  0  0  0  0  0
   -0.0030   -1.3861    0.0019 C   0  0  0  0  0  0  0  0  0  0  0  0
   -0.0071   -2.3872    0.0042 H   0  0  0  0  0  0  0  0  0  0  0  0
    1.1965   -0.6952    0.0000 C   0  0  0  0  0  0  0  0  0  0  0  0
    2.0771   -1.1965   -0.0032 H   0  0  0  0  0  0  0  0  0  0  0  0
    1.1920    0.6872    0.0042 C   0  0  0  0  0  0  0  0  0  0  0  0
    2.0616    1.1861    0.0140 H   0  0  0  0  0  0  0  0  0  0  0  0
  1  5  1  0
  5  6  1  0
  5  7  2  0
  1  2  1  0
  1  3  1  0
  1  4  1  0
  8 12  1  0
 12 13  2  0
 13 15  1  0
 15 17  2  0
 17 19  1  0
 19 21  2  0
 21 12  1  0
  8  9  1  0
  8 10  1  0
  8 11  1  0
 13 14  1  0
 15 16  1  0
 17 18  1  0
 19 20  1  0
 21 22  1  0
M  CHG  1   6  -1
M  END
>  <PDB_ID>  (2301) 
pdb5ffq

>  <RESIDUE_NAME>  (2301) 
GLU   PHE

>  <FRAG_NAME>  (2301) 
ACET   MBZ

>  <FRAG_ATOM_NUM>  (2301) 
fragi: 7  fragj: 15

>  <atom.prop.CHAIN_ID>  (2301) 
A A A A A A A Z Z Z Z Z Z Z Z Z Z Z Z Z Z Z

>  <atom.prop.IS_HEAVY_ATOM>  (2301) 
1 0 0 0 1 1 1 1 0 0 0 1 1 0 1 0 1 0 1 0 1 0

>  <DIFUSE_FUNC_ATOM>  (2301) 
atom 6   atom 7   

>  <FINAL_SINGLE_POINT_ENERGY>  (2301) 
0

>  <NONCOV_INTER_ENERGY_QM>  (2301) 
0

>  <FF_Energy>  (2301) 
-1.07

>  <QM_Energy>  (2301) 
-6.18

>  <source>  (2301) 
ACET_MBZ_02

>  <Index>  (2301) 
26261

$$$$
ACET-pdb5fg0-B-GLU-80:MBZ-pdb5fg0-B-PHE-76
     RDKit          3D

 22 21  0  0  0  0  0  0  0  0999 V2000
   -0.2915   -2.7957    4.4571 C   0  0  0  0  0  0  0  0  0  0  0  0
    0.6293   -3.0230    4.7140 H   0  0  0  0  0  0  0  0  0  0  0  0
   -0.9485   -3.4299    4.8212 H   0  0  0  0  0  0  0  0  0  0  0  0
   -0.5188   -1.8054    4.8517 H   0  0  0  0  0  0  0  0  0  0  0  0
   -0.3779   -2.8619    2.9441 C   0  0  0  0  0  0  0  0  0  0  0  0
   -1.4975   -2.7398    2.4049 O   0  0  0  0  0  1  0  0  0  0  0  0
    0.6753   -3.0360    2.2951 O   0  0  0  0  0  0  0  0  0  0  0  0
   -0.0011    2.8901    0.0003 C   0  0  0  0  0  0  0  0  0  0  0  0
   -0.6300    3.1981   -0.6980 H   0  0  0  0  0  0  0  0  0  0  0  0
    0.9195    3.1987   -0.1833 H   0  0  0  0  0  0  0  0  0  0  0  0
   -0.3154    3.3296    0.9470 H   0  0  0  0  0  0  0  0  0  0  0  0
   -0.0006    1.3922    0.0018 C   0  0  0  0  0  0  0  0  0  0  0  0
   -1.1912    0.6877   -0.0014 C   0  0  0  0  0  0  0  0  0  0  0  0
   -2.0590    1.1806   -0.0065 H   0  0  0  0  0  0  0  0  0  0  0  0
   -1.1946   -0.6915    0.0000 C   0  0  0  0  0  0  0  0  0  0  0  0
   -2.0725   -1.1890    0.0028 H   0  0  0  0  0  0  0  0  0  0  0  0
    0.0003   -1.3827   -0.0013 C   0  0  0  0  0  0  0  0  0  0  0  0
   -0.0047   -2.3853   -0.0033 H   0  0  0  0  0  0  0  0  0  0  0  0
    1.1946   -0.6931   -0.0000 C   0  0  0  0  0  0  0  0  0  0  0  0
    2.0776   -1.1938    0.0013 H   0  0  0  0  0  0  0  0  0  0  0  0
    1.1916    0.6874    0.0009 C   0  0  0  0  0  0  0  0  0  0  0  0
    2.0607    1.1864    0.0004 H   0  0  0  0  0  0  0  0  0  0  0  0
  1  5  1  0
  5  6  1  0
  5  7  2  0
  1  2  1  0
  1  3  1  0
  1  4  1  0
  8 12  1  0
 12 13  2  0
 13 15  1  0
 15 17  2  0
 17 19  1  0
 19 21  2  0
 21 12  1  0
  8  9  1  0
  8 10  1  0
  8 11  1  0
 13 14  1  0
 15 16  1  0
 17 18  1  0
 19 20  1  0
 21 22  1  0
M  CHG  1   6  -1
M  END
>  <PDB_ID>  (2302) 
pdb5fg0

>  <RESIDUE_NAME>  (2302) 
GLU   PHE

>  <FRAG_NAME>  (2302) 
ACET   MBZ

>  <FRAG_ATOM_NUM>  (2302) 
fragi: 7  fragj: 15

>  <atom.prop.CHAIN_ID>  (2302) 
A A A A A A A Z Z Z Z Z Z Z Z Z Z Z Z Z Z Z

>  <atom.prop.IS_HEAVY_ATOM>  (2302) 
1 0 0 0 1 1 1 1 0 0 0 1 1 0 1 0 1 0 1 0 1 0

>  <DIFUSE_FUNC_ATOM>  (2302) 
atom 6   atom 7   

>  <FINAL_SINGLE_POINT_ENERGY>  (2302) 
0

>  <NONCOV_INTER_ENERGY_QM>  (2302) 
0

>  <FF_Energy>  (2302) 
1.2

>  <QM_Energy>  (2302) 
-3.94

>  <source>  (2302) 
ACET_MBZ_02

>  <Index>  (2302) 
26282

$$$$
ACET-pdb6fpf-C-ASP-246:MBZ-pdb6fpf-C-PHE-243
     RDKit          3D

 22 21  0  0  0  0  0  0  0  0999 V2000
   -4.2433    5.1782    0.8055 C   0  0  0  0  0  0  0  0  0  0  0  0
   -3.6680    5.0467    1.6022 H   0  0  0  0  0  0  0  0  0  0  0  0
   -5.1626    4.8487    0.9746 H   0  0  0  0  0  0  0  0  0  0  0  0
   -4.3010    6.2485    0.6073 H   0  0  0  0  0  0  0  0  0  0  0  0
   -3.6400    4.3476   -0.3691 C   0  0  0  0  0  0  0  0  0  0  0  0
   -3.4710    4.8128   -1.4965 O   0  0  0  0  0  1  0  0  0  0  0  0
   -3.4040    3.1913   -0.1263 O   0  0  0  0  0  0  0  0  0  0  0  0
   -0.0334    2.8591    0.1513 C   0  0  0  0  0  0  0  0  0  0  0  0
   -0.7914    3.2178   -0.3477 H   0  0  0  0  0  0  0  0  0  0  0  0
    0.8259    3.2306   -0.1257 H   0  0  0  0  0  0  0  0  0  0  0  0
   -0.1789    3.1470    1.1925 H   0  0  0  0  0  0  0  0  0  0  0  0
   -0.0004    1.3792   -0.0008 C   0  0  0  0  0  0  0  0  0  0  0  0
   -1.1816    0.6216    0.0179 C   0  0  0  0  0  0  0  0  0  0  0  0
   -2.0640    1.1133    0.0445 H   0  0  0  0  0  0  0  0  0  0  0  0
   -1.1916   -0.7602   -0.0000 C   0  0  0  0  0  0  0  0  0  0  0  0
   -2.0400   -1.2620    0.0139 H   0  0  0  0  0  0  0  0  0  0  0  0
    0.0272   -1.3670   -0.0361 C   0  0  0  0  0  0  0  0  0  0  0  0
    0.0970   -2.3688   -0.0892 H   0  0  0  0  0  0  0  0  0  0  0  0
    1.1916   -0.6038   -0.0000 C   0  0  0  0  0  0  0  0  0  0  0  0
    2.0971   -1.1015    0.0137 H   0  0  0  0  0  0  0  0  0  0  0  0
    1.1548    0.7304    0.0190 C   0  0  0  0  0  0  0  0  0  0  0  0
    2.0309    1.2537    0.0480 H   0  0  0  0  0  0  0  0  0  0  0  0
  1  5  1  0
  5  6  1  0
  5  7  2  0
  1  2  1  0
  1  3  1  0
  1  4  1  0
  8 12  1  0
 12 13  2  0
 13 15  1  0
 15 17  2  0
 17 19  1  0
 19 21  2  0
 21 12  1  0
  8  9  1  0
  8 10  1  0
  8 11  1  0
 13 14  1  0
 15 16  1  0
 17 18  1  0
 19 20  1  0
 21 22  1  0
M  CHG  1   6  -1
M  END
>  <PDB_ID>  (2303) 
pdb6fpf

>  <RESIDUE_NAME>  (2303) 
ASP   PHE

>  <FRAG_NAME>  (2303) 
ACET   MBZ

>  <FRAG_ATOM_NUM>  (2303) 
fragi: 7  fragj: 15

>  <atom.prop.CHAIN_ID>  (2303) 
A A A A A A A Z Z Z Z Z Z Z Z Z Z Z Z Z Z Z

>  <atom.prop.IS_HEAVY_ATOM>  (2303) 
1 0 0 0 1 1 1 1 0 0 0 1 1 0 1 0 1 0 1 0 1 0

>  <DIFUSE_FUNC_ATOM>  (2303) 
atom 6   atom 7   

>  <FINAL_SINGLE_POINT_ENERGY>  (2303) 
0

>  <NONCOV_INTER_ENERGY_QM>  (2303) 
0

>  <FF_Energy>  (2303) 
-2.09

>  <QM_Energy>  (2303) 
-7.65

>  <source>  (2303) 
ACET_MBZ_02

>  <Index>  (2303) 
26339

$$$$
ACET-pdb6fpf-D-ASP-246:MBZ-pdb6fpf-D-PHE-243
     RDKit          3D

 22 21  0  0  0  0  0  0  0  0999 V2000
    3.6432    4.9606   -2.7671 C   0  0  0  0  0  0  0  0  0  0  0  0
    2.9159    5.2880   -3.3503 H   0  0  0  0  0  0  0  0  0  0  0  0
    4.4263    4.6724   -3.2944 H   0  0  0  0  0  0  0  0  0  0  0  0
    3.9342    5.7387   -2.0613 H   0  0  0  0  0  0  0  0  0  0  0  0
    3.1098    3.7223   -2.0191 C   0  0  0  0  0  0  0  0  0  0  0  0
    3.1902    3.7026   -0.7554 O   0  0  0  0  0  1  0  0  0  0  0  0
    2.5538    2.8380   -2.6801 O   0  0  0  0  0  0  0  0  0  0  0  0
   -0.1338    2.8284   -0.1346 C   0  0  0  0  0  0  0  0  0  0  0  0
    0.7620    3.2559   -0.1411 H   0  0  0  0  0  0  0  0  0  0  0  0
   -0.6957    3.2008    0.5944 H   0  0  0  0  0  0  0  0  0  0  0  0
   -0.6154    3.1265   -1.0659 H   0  0  0  0  0  0  0  0  0  0  0  0
   -0.0057    1.4083    0.0120 C   0  0  0  0  0  0  0  0  0  0  0  0
   -1.1195    0.6203    0.0741 C   0  0  0  0  0  0  0  0  0  0  0  0
   -2.0380    1.0742    0.1825 H   0  0  0  0  0  0  0  0  0  0  0  0
   -1.1292   -0.7816   -0.0000 C   0  0  0  0  0  0  0  0  0  0  0  0
   -2.0347   -1.2341   -0.0571 H   0  0  0  0  0  0  0  0  0  0  0  0
   -0.0060   -1.4062    0.0103 C   0  0  0  0  0  0  0  0  0  0  0  0
    0.0813   -2.3996    0.0249 H   0  0  0  0  0  0  0  0  0  0  0  0
    1.1292   -0.6287    0.0000 C   0  0  0  0  0  0  0  0  0  0  0  0
    2.0610   -1.0894    0.0682 H   0  0  0  0  0  0  0  0  0  0  0  0
    1.1312    0.7879   -0.0965 C   0  0  0  0  0  0  0  0  0  0  0  0
    2.0038    1.2382   -0.2437 H   0  0  0  0  0  0  0  0  0  0  0  0
  1  5  1  0
  5  6  1  0
  5  7  2  0
  1  2  1  0
  1  3  1  0
  1  4  1  0
  8 12  1  0
 12 13  2  0
 13 15  1  0
 15 17  2  0
 17 19  1  0
 19 21  2  0
 21 12  1  0
  8  9  1  0
  8 10  1  0
  8 11  1  0
 13 14  1  0
 15 16  1  0
 17 18  1  0
 19 20  1  0
 21 22  1  0
M  CHG  1   6  -1
M  END
>  <PDB_ID>  (2304) 
pdb6fpf

>  <RESIDUE_NAME>  (2304) 
ASP   PHE

>  <FRAG_NAME>  (2304) 
ACET   MBZ

>  <FRAG_ATOM_NUM>  (2304) 
fragi: 7  fragj: 15

>  <atom.prop.CHAIN_ID>  (2304) 
A A A A A A A Z Z Z Z Z Z Z Z Z Z Z Z Z Z Z

>  <atom.prop.IS_HEAVY_ATOM>  (2304) 
1 0 0 0 1 1 1 1 0 0 0 1 1 0 1 0 1 0 1 0 1 0

>  <DIFUSE_FUNC_ATOM>  (2304) 
atom 6   atom 7   

>  <FINAL_SINGLE_POINT_ENERGY>  (2304) 
0

>  <NONCOV_INTER_ENERGY_QM>  (2304) 
0

>  <FF_Energy>  (2304) 
-1.94

>  <QM_Energy>  (2304) 
-8.76

>  <source>  (2304) 
ACET_MBZ_02

>  <Index>  (2304) 
26340

$$$$
ACET-pdb5fjj-C-ASP-425:MBZ-pdb5fjj-C-PHE-503
     RDKit          3D

 22 21  0  0  0  0  0  0  0  0999 V2000
    1.9353    5.6801   -1.4801 C   0  0  0  0  0  0  0  0  0  0  0  0
    2.1872    6.6043   -1.2070 H   0  0  0  0  0  0  0  0  0  0  0  0
    1.2792    5.2995   -0.8358 H   0  0  0  0  0  0  0  0  0  0  0  0
    1.4772    5.7177   -2.4685 H   0  0  0  0  0  0  0  0  0  0  0  0
    3.1878    4.8187   -1.4479 C   0  0  0  0  0  0  0  0  0  0  0  0
    4.1877    5.2136   -2.0653 O   0  0  0  0  0  1  0  0  0  0  0  0
    3.1386    3.7318   -0.8099 O   0  0  0  0  0  0  0  0  0  0  0  0
    0.0162    2.8893    0.0364 C   0  0  0  0  0  0  0  0  0  0  0  0
   -0.7251    3.2179   -0.5217 H   0  0  0  0  0  0  0  0  0  0  0  0
    0.8903    3.2074   -0.2855 H   0  0  0  0  0  0  0  0  0  0  0  0
   -0.1280    3.2838    1.0423 H   0  0  0  0  0  0  0  0  0  0  0  0
    0.0125    1.3933   -0.0075 C   0  0  0  0  0  0  0  0  0  0  0  0
   -1.1917    0.6952   -0.0376 C   0  0  0  0  0  0  0  0  0  0  0  0
   -2.0505    1.1802   -0.0861 H   0  0  0  0  0  0  0  0  0  0  0  0
   -1.1839   -0.6974    0.0000 C   0  0  0  0  0  0  0  0  0  0  0  0
   -2.0716   -1.1870    0.0172 H   0  0  0  0  0  0  0  0  0  0  0  0
   -0.0058   -1.3808    0.0144 C   0  0  0  0  0  0  0  0  0  0  0  0
   -0.0092   -2.3890    0.0351 H   0  0  0  0  0  0  0  0  0  0  0  0
    1.1839   -0.7016   -0.0000 C   0  0  0  0  0  0  0  0  0  0  0  0
    2.0684   -1.1962   -0.0310 H   0  0  0  0  0  0  0  0  0  0  0  0
    1.1851    0.6912    0.0306 C   0  0  0  0  0  0  0  0  0  0  0  0
    2.0625    1.1743    0.0803 H   0  0  0  0  0  0  0  0  0  0  0  0
  1  5  1  0
  5  6  1  0
  5  7  2  0
  1  2  1  0
  1  3  1  0
  1  4  1  0
  8 12  1  0
 12 13  2  0
 13 15  1  0
 15 17  2  0
 17 19  1  0
 19 21  2  0
 21 12  1  0
  8  9  1  0
  8 10  1  0
  8 11  1  0
 13 14  1  0
 15 16  1  0
 17 18  1  0
 19 20  1  0
 21 22  1  0
M  CHG  1   6  -1
M  END
>  <PDB_ID>  (2305) 
pdb5fjj

>  <RESIDUE_NAME>  (2305) 
ASP   PHE

>  <FRAG_NAME>  (2305) 
ACET   MBZ

>  <FRAG_ATOM_NUM>  (2305) 
fragi: 7  fragj: 15

>  <atom.prop.CHAIN_ID>  (2305) 
A A A A A A A Z Z Z Z Z Z Z Z Z Z Z Z Z Z Z

>  <atom.prop.IS_HEAVY_ATOM>  (2305) 
1 0 0 0 1 1 1 1 0 0 0 1 1 0 1 0 1 0 1 0 1 0

>  <DIFUSE_FUNC_ATOM>  (2305) 
atom 6   atom 7   

>  <FINAL_SINGLE_POINT_ENERGY>  (2305) 
0

>  <NONCOV_INTER_ENERGY_QM>  (2305) 
0

>  <FF_Energy>  (2305) 
-1.37

>  <QM_Energy>  (2305) 
-6.78

>  <source>  (2305) 
ACET_MBZ_02

>  <Index>  (2305) 
26491

$$$$
ACET-pdb5fig-D-GLU-44:MBZ-pdb5fig-B-PHE-62
     RDKit          3D

 22 21  0  0  0  0  0  0  0  0999 V2000
   -3.0867    4.5308   -2.8297 C   0  0  0  0  0  0  0  0  0  0  0  0
   -2.3789    3.9844   -3.2610 H   0  0  0  0  0  0  0  0  0  0  0  0
   -3.0453    5.4707   -3.1474 H   0  0  0  0  0  0  0  0  0  0  0  0
   -4.0539    4.1174   -3.1159 H   0  0  0  0  0  0  0  0  0  0  0  0
   -2.7989    4.5467   -1.3335 C   0  0  0  0  0  0  0  0  0  0  0  0
   -3.1287    3.5519   -0.6019 O   0  0  0  0  0  1  0  0  0  0  0  0
   -2.1949    5.5556   -0.8557 O   0  0  0  0  0  0  0  0  0  0  0  0
   -0.0216    2.9435    0.0139 C   0  0  0  0  0  0  0  0  0  0  0  0
   -0.7617    3.2366   -0.5537 H   0  0  0  0  0  0  0  0  0  0  0  0
    0.8506    3.2545   -0.2992 H   0  0  0  0  0  0  0  0  0  0  0  0
   -0.1847    3.3150    1.0257 H   0  0  0  0  0  0  0  0  0  0  0  0
    0.0002    1.4201   -0.0182 C   0  0  0  0  0  0  0  0  0  0  0  0
   -1.1927    0.6983   -0.0154 C   0  0  0  0  0  0  0  0  0  0  0  0
   -2.0636    1.1910   -0.0260 H   0  0  0  0  0  0  0  0  0  0  0  0
   -1.1994   -0.6871   -0.0000 C   0  0  0  0  0  0  0  0  0  0  0  0
   -2.0817   -1.1809   -0.0022 H   0  0  0  0  0  0  0  0  0  0  0  0
   -0.0033   -1.4033    0.0198 C   0  0  0  0  0  0  0  0  0  0  0  0
   -0.0259   -2.4005    0.0473 H   0  0  0  0  0  0  0  0  0  0  0  0
    1.1994   -0.7244    0.0000 C   0  0  0  0  0  0  0  0  0  0  0  0
    2.0788   -1.2078   -0.0226 H   0  0  0  0  0  0  0  0  0  0  0  0
    1.1958    0.6963    0.0138 C   0  0  0  0  0  0  0  0  0  0  0  0
    2.0685    1.1780    0.0465 H   0  0  0  0  0  0  0  0  0  0  0  0
  1  5  1  0
  5  6  1  0
  5  7  2  0
  1  2  1  0
  1  3  1  0
  1  4  1  0
  8 12  1  0
 12 13  2  0
 13 15  1  0
 15 17  2  0
 17 19  1  0
 19 21  2  0
 21 12  1  0
  8  9  1  0
  8 10  1  0
  8 11  1  0
 13 14  1  0
 15 16  1  0
 17 18  1  0
 19 20  1  0
 21 22  1  0
M  CHG  1   6  -1
M  END
>  <PDB_ID>  (2306) 
pdb5fig

>  <RESIDUE_NAME>  (2306) 
GLU   PHE

>  <FRAG_NAME>  (2306) 
ACET   MBZ

>  <FRAG_ATOM_NUM>  (2306) 
fragi: 7  fragj: 15

>  <atom.prop.CHAIN_ID>  (2306) 
A A A A A A A Z Z Z Z Z Z Z Z Z Z Z Z Z Z Z

>  <atom.prop.IS_HEAVY_ATOM>  (2306) 
1 0 0 0 1 1 1 1 0 0 0 1 1 0 1 0 1 0 1 0 1 0

>  <DIFUSE_FUNC_ATOM>  (2306) 
atom 6   atom 7   

>  <FINAL_SINGLE_POINT_ENERGY>  (2306) 
0

>  <NONCOV_INTER_ENERGY_QM>  (2306) 
0

>  <FF_Energy>  (2306) 
-1.21

>  <QM_Energy>  (2306) 
-8.22

>  <source>  (2306) 
ACET_MBZ_02

>  <Index>  (2306) 
26521

$$$$
ACET-pdb5fjx-C-GLU-297:MBZ-pdb5fjx-C-PHE-512
     RDKit          3D

 22 21  0  0  0  0  0  0  0  0999 V2000
    3.5964    6.6335   -0.7765 C   0  0  0  0  0  0  0  0  0  0  0  0
    4.5106    6.9960   -0.6563 H   0  0  0  0  0  0  0  0  0  0  0  0
    2.9279    7.3628   -0.8189 H   0  0  0  0  0  0  0  0  0  0  0  0
    3.5715    6.0995   -1.7264 H   0  0  0  0  0  0  0  0  0  0  0  0
    3.2736    5.7866    0.4392 C   0  0  0  0  0  0  0  0  0  0  0  0
    2.4628    4.8489    0.3412 O   0  0  0  0  0  1  0  0  0  0  0  0
    3.8425    6.0717    1.5110 O   0  0  0  0  0  0  0  0  0  0  0  0
    0.0054    2.8860   -0.0163 C   0  0  0  0  0  0  0  0  0  0  0  0
   -0.4985    3.1920   -0.8149 H   0  0  0  0  0  0  0  0  0  0  0  0
    0.9479    3.1955   -0.0564 H   0  0  0  0  0  0  0  0  0  0  0  0
   -0.4525    3.3531    0.8556 H   0  0  0  0  0  0  0  0  0  0  0  0
   -0.0014    1.3966    0.0027 C   0  0  0  0  0  0  0  0  0  0  0  0
   -1.1993    0.6980    0.0010 C   0  0  0  0  0  0  0  0  0  0  0  0
   -2.0635    1.1947   -0.0007 H   0  0  0  0  0  0  0  0  0  0  0  0
   -1.2098   -0.6864    0.0000 C   0  0  0  0  0  0  0  0  0  0  0  0
   -2.0839   -1.1829   -0.0003 H   0  0  0  0  0  0  0  0  0  0  0  0
   -0.0026   -1.3939    0.0008 C   0  0  0  0  0  0  0  0  0  0  0  0
   -0.0118   -2.3894    0.0015 H   0  0  0  0  0  0  0  0  0  0  0  0
    1.2098   -0.6994   -0.0000 C   0  0  0  0  0  0  0  0  0  0  0  0
    2.0834   -1.2028    0.0043 H   0  0  0  0  0  0  0  0  0  0  0  0
    1.2034    0.6852   -0.0045 C   0  0  0  0  0  0  0  0  0  0  0  0
    2.0676    1.1880   -0.0138 H   0  0  0  0  0  0  0  0  0  0  0  0
  1  5  1  0
  5  6  1  0
  5  7  2  0
  1  2  1  0
  1  3  1  0
  1  4  1  0
  8 12  1  0
 12 13  2  0
 13 15  1  0
 15 17  2  0
 17 19  1  0
 19 21  2  0
 21 12  1  0
  8  9  1  0
  8 10  1  0
  8 11  1  0
 13 14  1  0
 15 16  1  0
 17 18  1  0
 19 20  1  0
 21 22  1  0
M  CHG  1   6  -1
M  END
>  <PDB_ID>  (2307) 
pdb5fjx

>  <RESIDUE_NAME>  (2307) 
GLU   PHE

>  <FRAG_NAME>  (2307) 
ACET   MBZ

>  <FRAG_ATOM_NUM>  (2307) 
fragi: 7  fragj: 15

>  <atom.prop.CHAIN_ID>  (2307) 
A A A A A A A Z Z Z Z Z Z Z Z Z Z Z Z Z Z Z

>  <atom.prop.IS_HEAVY_ATOM>  (2307) 
1 0 0 0 1 1 1 1 0 0 0 1 1 0 1 0 1 0 1 0 1 0

>  <DIFUSE_FUNC_ATOM>  (2307) 
atom 6   atom 7   

>  <FINAL_SINGLE_POINT_ENERGY>  (2307) 
0

>  <NONCOV_INTER_ENERGY_QM>  (2307) 
0

>  <FF_Energy>  (2307) 
-0.5

>  <QM_Energy>  (2307) 
-5.69

>  <source>  (2307) 
ACET_MBZ_02

>  <Index>  (2307) 
26536

$$$$
ACET-pdb6fu9-C-ASP-201:MBZ-pdb6fu9-B-PHE-44
     RDKit          3D

 22 21  0  0  0  0  0  0  0  0999 V2000
   -3.6984   -0.2328    1.7979 C   0  0  0  0  0  0  0  0  0  0  0  0
   -3.0168   -0.8081    2.2476 H   0  0  0  0  0  0  0  0  0  0  0  0
   -3.3460    0.0750    0.9161 H   0  0  0  0  0  0  0  0  0  0  0  0
   -4.6052   -0.8156    1.6360 H   0  0  0  0  0  0  0  0  0  0  0  0
   -3.8990    1.0243    2.6814 C   0  0  0  0  0  0  0  0  0  0  0  0
   -5.0731    1.4865    2.7919 O   0  0  0  0  0  1  0  0  0  0  0  0
   -2.8547    1.5832    3.1958 O   0  0  0  0  0  0  0  0  0  0  0  0
   -0.0791    2.9237   -0.0212 C   0  0  0  0  0  0  0  0  0  0  0  0
   -0.7169    3.2016   -0.7160 H   0  0  0  0  0  0  0  0  0  0  0  0
    0.8257    3.2742   -0.1852 H   0  0  0  0  0  0  0  0  0  0  0  0
   -0.4257    3.3233    0.9319 H   0  0  0  0  0  0  0  0  0  0  0  0
   -0.0040    1.4141   -0.0344 C   0  0  0  0  0  0  0  0  0  0  0  0
   -1.1878    0.6932    0.0000 C   0  0  0  0  0  0  0  0  0  0  0  0
   -2.0647    1.1699    0.0244 H   0  0  0  0  0  0  0  0  0  0  0  0
   -1.1932   -0.7176    0.0000 C   0  0  0  0  0  0  0  0  0  0  0  0
   -2.0797   -1.1940   -0.0192 H   0  0  0  0  0  0  0  0  0  0  0  0
   -0.0111   -1.4039    0.0279 C   0  0  0  0  0  0  0  0  0  0  0  0
    0.0020   -2.4007    0.0676 H   0  0  0  0  0  0  0  0  0  0  0  0
    1.1932   -0.6950    0.0000 C   0  0  0  0  0  0  0  0  0  0  0  0
    2.0766   -1.1939   -0.0244 H   0  0  0  0  0  0  0  0  0  0  0  0
    1.2030    0.7093    0.0064 C   0  0  0  0  0  0  0  0  0  0  0  0
    2.0646    1.1964    0.0386 H   0  0  0  0  0  0  0  0  0  0  0  0
  1  5  1  0
  5  6  1  0
  5  7  2  0
  1  2  1  0
  1  3  1  0
  1  4  1  0
  8 12  1  0
 12 13  2  0
 13 15  1  0
 15 17  2  0
 17 19  1  0
 19 21  2  0
 21 12  1  0
  8  9  1  0
  8 10  1  0
  8 11  1  0
 13 14  1  0
 15 16  1  0
 17 18  1  0
 19 20  1  0
 21 22  1  0
M  CHG  1   6  -1
M  END
>  <PDB_ID>  (2308) 
pdb6fu9

>  <RESIDUE_NAME>  (2308) 
ASP   PHE

>  <FRAG_NAME>  (2308) 
ACET   MBZ

>  <FRAG_ATOM_NUM>  (2308) 
fragi: 7  fragj: 15

>  <atom.prop.CHAIN_ID>  (2308) 
A A A A A A A Z Z Z Z Z Z Z Z Z Z Z Z Z Z Z

>  <atom.prop.IS_HEAVY_ATOM>  (2308) 
1 0 0 0 1 1 1 1 0 0 0 1 1 0 1 0 1 0 1 0 1 0

>  <DIFUSE_FUNC_ATOM>  (2308) 
atom 6   atom 7   

>  <FINAL_SINGLE_POINT_ENERGY>  (2308) 
0

>  <NONCOV_INTER_ENERGY_QM>  (2308) 
0

>  <FF_Energy>  (2308) 
5.74

>  <QM_Energy>  (2308) 
0.38

>  <source>  (2308) 
ACET_MBZ_02

>  <Index>  (2308) 
26619

$$$$
ACET-pdb6fuv-A-ASP-449:MBZ-pdb6fuv-A-PHE-245
     RDKit          3D

 22 21  0  0  0  0  0  0  0  0999 V2000
    4.9914    4.1439   -0.2338 C   0  0  0  0  0  0  0  0  0  0  0  0
    4.9783    4.8400    0.4416 H   0  0  0  0  0  0  0  0  0  0  0  0
    5.7209    4.2965   -0.8548 H   0  0  0  0  0  0  0  0  0  0  0  0
    5.1379    3.1802    0.2541 H   0  0  0  0  0  0  0  0  0  0  0  0
    3.6838    4.2264   -1.0165 C   0  0  0  0  0  0  0  0  0  0  0  0
    2.9875    3.1879   -1.2315 O   0  0  0  0  0  1  0  0  0  0  0  0
    3.3352    5.3454   -1.3992 O   0  0  0  0  0  0  0  0  0  0  0  0
    0.0028    2.8748   -0.1307 C   0  0  0  0  0  0  0  0  0  0  0  0
    0.9004    3.1912    0.0590 H   0  0  0  0  0  0  0  0  0  0  0  0
   -0.6164    3.2175    0.5314 H   0  0  0  0  0  0  0  0  0  0  0  0
   -0.2971    3.2353   -1.1146 H   0  0  0  0  0  0  0  0  0  0  0  0
    0.0085    1.3794   -0.0279 C   0  0  0  0  0  0  0  0  0  0  0  0
   -1.1797    0.6606    0.0426 C   0  0  0  0  0  0  0  0  0  0  0  0
   -1.9842    1.1201    0.1204 H   0  0  0  0  0  0  0  0  0  0  0  0
   -1.1917   -0.6789    0.0000 C   0  0  0  0  0  0  0  0  0  0  0  0
   -1.9998   -1.1347   -0.0593 H   0  0  0  0  0  0  0  0  0  0  0  0
   -0.0133   -1.3745    0.0429 C   0  0  0  0  0  0  0  0  0  0  0  0
   -0.0213   -2.3030    0.1017 H   0  0  0  0  0  0  0  0  0  0  0  0
    1.1917   -0.6901   -0.0000 C   0  0  0  0  0  0  0  0  0  0  0  0
    1.9963   -1.1564    0.0082 H   0  0  0  0  0  0  0  0  0  0  0  0
    1.1844    0.7034   -0.0576 C   0  0  0  0  0  0  0  0  0  0  0  0
    1.9868    1.1699   -0.1154 H   0  0  0  0  0  0  0  0  0  0  0  0
  1  5  1  0
  5  6  1  0
  5  7  2  0
  1  2  1  0
  1  3  1  0
  1  4  1  0
  8 12  1  0
 12 13  2  0
 13 15  1  0
 15 17  2  0
 17 19  1  0
 19 21  2  0
 21 12  1  0
  8  9  1  0
  8 10  1  0
  8 11  1  0
 13 14  1  0
 15 16  1  0
 17 18  1  0
 19 20  1  0
 21 22  1  0
M  CHG  1   6  -1
M  END
>  <PDB_ID>  (2309) 
pdb6fuv

>  <RESIDUE_NAME>  (2309) 
ASP   PHE

>  <FRAG_NAME>  (2309) 
ACET   MBZ

>  <FRAG_ATOM_NUM>  (2309) 
fragi: 7  fragj: 15

>  <atom.prop.CHAIN_ID>  (2309) 
A A A A A A A Z Z Z Z Z Z Z Z Z Z Z Z Z Z Z

>  <atom.prop.IS_HEAVY_ATOM>  (2309) 
1 0 0 0 1 1 1 1 0 0 0 1 1 0 1 0 1 0 1 0 1 0

>  <DIFUSE_FUNC_ATOM>  (2309) 
atom 6   atom 7   

>  <FINAL_SINGLE_POINT_ENERGY>  (2309) 
0

>  <NONCOV_INTER_ENERGY_QM>  (2309) 
0

>  <FF_Energy>  (2309) 
-1.41

>  <QM_Energy>  (2309) 
-7.26

>  <source>  (2309) 
ACET_MBZ_02

>  <Index>  (2309) 
26648

$$$$
ACET-pdb5fq0-A-GLU-71:MBZ-pdb5fq0-B-PHE-6
     RDKit          3D

 22 21  0  0  0  0  0  0  0  0999 V2000
    4.0275   -2.4509    0.3344 C   0  0  0  0  0  0  0  0  0  0  0  0
    3.9096   -1.9158   -0.4932 H   0  0  0  0  0  0  0  0  0  0  0  0
    3.1534   -2.6052    0.7791 H   0  0  0  0  0  0  0  0  0  0  0  0
    4.4486   -3.4179    0.0591 H   0  0  0  0  0  0  0  0  0  0  0  0
    4.8766   -1.6230    1.2882 C   0  0  0  0  0  0  0  0  0  0  0  0
    5.3574   -2.1690    2.3108 O   0  0  0  0  0  1  0  0  0  0  0  0
    5.0415   -0.4029    1.0245 O   0  0  0  0  0  0  0  0  0  0  0  0
   -0.0119    2.9277   -0.0129 C   0  0  0  0  0  0  0  0  0  0  0  0
    0.8855    3.2358    0.2474 H   0  0  0  0  0  0  0  0  0  0  0  0
   -0.7057    3.2334    0.6137 H   0  0  0  0  0  0  0  0  0  0  0  0
   -0.2381    3.3542   -0.9902 H   0  0  0  0  0  0  0  0  0  0  0  0
   -0.0065    1.4061    0.0013 C   0  0  0  0  0  0  0  0  0  0  0  0
   -1.2027    0.6869   -0.0042 C   0  0  0  0  0  0  0  0  0  0  0  0
   -2.0716    1.1743   -0.0126 H   0  0  0  0  0  0  0  0  0  0  0  0
   -1.2042   -0.7070    0.0000 C   0  0  0  0  0  0  0  0  0  0  0  0
   -2.0729   -1.2054   -0.0036 H   0  0  0  0  0  0  0  0  0  0  0  0
    0.0107   -1.3960    0.0107 C   0  0  0  0  0  0  0  0  0  0  0  0
    0.0102   -2.3940    0.0252 H   0  0  0  0  0  0  0  0  0  0  0  0
    1.2042   -0.6911    0.0000 C   0  0  0  0  0  0  0  0  0  0  0  0
    2.0909   -1.1850   -0.0002 H   0  0  0  0  0  0  0  0  0  0  0  0
    1.1984    0.7011   -0.0078 C   0  0  0  0  0  0  0  0  0  0  0  0
    2.0617    1.2001   -0.0209 H   0  0  0  0  0  0  0  0  0  0  0  0
  1  5  1  0
  5  6  1  0
  5  7  2  0
  1  2  1  0
  1  3  1  0
  1  4  1  0
  8 12  1  0
 12 13  2  0
 13 15  1  0
 15 17  2  0
 17 19  1  0
 19 21  2  0
 21 12  1  0
  8  9  1  0
  8 10  1  0
  8 11  1  0
 13 14  1  0
 15 16  1  0
 17 18  1  0
 19 20  1  0
 21 22  1  0
M  CHG  1   6  -1
M  END
>  <PDB_ID>  (2310) 
pdb5fq0

>  <RESIDUE_NAME>  (2310) 
GLU   PHE

>  <FRAG_NAME>  (2310) 
ACET   MBZ

>  <FRAG_ATOM_NUM>  (2310) 
fragi: 7  fragj: 15

>  <atom.prop.CHAIN_ID>  (2310) 
A A A A A A A Z Z Z Z Z Z Z Z Z Z Z Z Z Z Z

>  <atom.prop.IS_HEAVY_ATOM>  (2310) 
1 0 0 0 1 1 1 1 0 0 0 1 1 0 1 0 1 0 1 0 1 0

>  <DIFUSE_FUNC_ATOM>  (2310) 
atom 6   atom 7   

>  <FINAL_SINGLE_POINT_ENERGY>  (2310) 
0

>  <NONCOV_INTER_ENERGY_QM>  (2310) 
0

>  <FF_Energy>  (2310) 
3.18

>  <QM_Energy>  (2310) 
-2.16

>  <source>  (2310) 
ACET_MBZ_02

>  <Index>  (2310) 
26729

$$$$
ACET-pdb5fru-A-GLU-96:MBZ-pdb5fru-A-PHE-92
     RDKit          3D

 22 21  0  0  0  0  0  0  0  0999 V2000
   -2.0098   -1.2131    3.3640 C   0  0  0  0  0  0  0  0  0  0  0  0
   -2.9392   -1.1961    3.0704 H   0  0  0  0  0  0  0  0  0  0  0  0
   -1.4639   -0.5019    2.9814 H   0  0  0  0  0  0  0  0  0  0  0  0
   -1.9844   -1.1307    4.4506 H   0  0  0  0  0  0  0  0  0  0  0  0
   -1.4118   -2.5416    2.9057 C   0  0  0  0  0  0  0  0  0  0  0  0
   -1.2477   -3.4285    3.7753 O   0  0  0  0  0  1  0  0  0  0  0  0
   -1.1496   -2.6839    1.7098 O   0  0  0  0  0  0  0  0  0  0  0  0
    0.0007    2.8965   -0.0001 C   0  0  0  0  0  0  0  0  0  0  0  0
   -0.3819    3.2031   -0.8586 H   0  0  0  0  0  0  0  0  0  0  0  0
    0.9350    3.2024    0.1086 H   0  0  0  0  0  0  0  0  0  0  0  0
   -0.5892    3.3368    0.8039 H   0  0  0  0  0  0  0  0  0  0  0  0
   -0.0004    1.3947   -0.0001 C   0  0  0  0  0  0  0  0  0  0  0  0
   -1.1910    0.6889   -0.0002 C   0  0  0  0  0  0  0  0  0  0  0  0
   -2.0593    1.1803   -0.0014 H   0  0  0  0  0  0  0  0  0  0  0  0
   -1.1947   -0.6936    0.0000 C   0  0  0  0  0  0  0  0  0  0  0  0
   -2.0732   -1.1894    0.0018 H   0  0  0  0  0  0  0  0  0  0  0  0
    0.0000   -1.3858    0.0004 C   0  0  0  0  0  0  0  0  0  0  0  0
   -0.0034   -2.3867    0.0003 H   0  0  0  0  0  0  0  0  0  0  0  0
    1.1947   -0.6932   -0.0000 C   0  0  0  0  0  0  0  0  0  0  0  0
    2.0780   -1.1931    0.0008 H   0  0  0  0  0  0  0  0  0  0  0  0
    1.1914    0.6890   -0.0000 C   0  0  0  0  0  0  0  0  0  0  0  0
    2.0612    1.1874   -0.0006 H   0  0  0  0  0  0  0  0  0  0  0  0
  1  5  1  0
  5  6  1  0
  5  7  2  0
  1  2  1  0
  1  3  1  0
  1  4  1  0
  8 12  1  0
 12 13  2  0
 13 15  1  0
 15 17  2  0
 17 19  1  0
 19 21  2  0
 21 12  1  0
  8  9  1  0
  8 10  1  0
  8 11  1  0
 13 14  1  0
 15 16  1  0
 17 18  1  0
 19 20  1  0
 21 22  1  0
M  CHG  1   6  -1
M  END
>  <PDB_ID>  (2311) 
pdb5fru

>  <RESIDUE_NAME>  (2311) 
GLU   PHE

>  <FRAG_NAME>  (2311) 
ACET   MBZ

>  <FRAG_ATOM_NUM>  (2311) 
fragi: 7  fragj: 15

>  <atom.prop.CHAIN_ID>  (2311) 
A A A A A A A Z Z Z Z Z Z Z Z Z Z Z Z Z Z Z

>  <atom.prop.IS_HEAVY_ATOM>  (2311) 
1 0 0 0 1 1 1 1 0 0 0 1 1 0 1 0 1 0 1 0 1 0

>  <DIFUSE_FUNC_ATOM>  (2311) 
atom 6   atom 7   

>  <FINAL_SINGLE_POINT_ENERGY>  (2311) 
0

>  <NONCOV_INTER_ENERGY_QM>  (2311) 
0

>  <FF_Energy>  (2311) 
19.76

>  <QM_Energy>  (2311) 
3.03

>  <source>  (2311) 
ACET_MBZ_02

>  <Index>  (2311) 
26830

$$$$
ACET-pdb5fvd-A-GLU-380:MBZ-pdb5fvd-A-PHE-366
     RDKit          3D

 22 21  0  0  0  0  0  0  0  0999 V2000
    0.4699    0.8193    3.9255 C   0  0  0  0  0  0  0  0  0  0  0  0
    1.1581    0.2023    3.5982 H   0  0  0  0  0  0  0  0  0  0  0  0
   -0.4190    0.6230    3.5608 H   0  0  0  0  0  0  0  0  0  0  0  0
    0.4230    0.7360    5.0113 H   0  0  0  0  0  0  0  0  0  0  0  0
    0.8524    2.2157    3.4762 C   0  0  0  0  0  0  0  0  0  0  0  0
    0.0941    3.1616    3.7878 O   0  0  0  0  0  1  0  0  0  0  0  0
    1.9024    2.3667    2.8113 O   0  0  0  0  0  0  0  0  0  0  0  0
   -0.0085    2.9009    0.0023 C   0  0  0  0  0  0  0  0  0  0  0  0
    0.8712    3.2088    0.3335 H   0  0  0  0  0  0  0  0  0  0  0  0
   -0.7403    3.2043    0.5963 H   0  0  0  0  0  0  0  0  0  0  0  0
   -0.1697    3.3474   -0.9789 H   0  0  0  0  0  0  0  0  0  0  0  0
   -0.0048    1.3990   -0.0018 C   0  0  0  0  0  0  0  0  0  0  0  0
   -1.1946    0.6880    0.0009 C   0  0  0  0  0  0  0  0  0  0  0  0
   -2.0642    1.1785    0.0021 H   0  0  0  0  0  0  0  0  0  0  0  0
   -1.1962   -0.6955   -0.0000 C   0  0  0  0  0  0  0  0  0  0  0  0
   -2.0724   -1.1936    0.0019 H   0  0  0  0  0  0  0  0  0  0  0  0
    0.0044   -1.3893   -0.0018 C   0  0  0  0  0  0  0  0  0  0  0  0
   -0.0018   -2.3894   -0.0054 H   0  0  0  0  0  0  0  0  0  0  0  0
    1.1962   -0.6962    0.0000 C   0  0  0  0  0  0  0  0  0  0  0  0
    2.0819   -1.1919    0.0005 H   0  0  0  0  0  0  0  0  0  0  0  0
    1.1949    0.6939    0.0027 C   0  0  0  0  0  0  0  0  0  0  0  0
    2.0611    1.1904    0.0072 H   0  0  0  0  0  0  0  0  0  0  0  0
  1  5  1  0
  5  6  1  0
  5  7  2  0
  1  2  1  0
  1  3  1  0
  1  4  1  0
  8 12  1  0
 12 13  2  0
 13 15  1  0
 15 17  2  0
 17 19  1  0
 19 21  2  0
 21 12  1  0
  8  9  1  0
  8 10  1  0
  8 11  1  0
 13 14  1  0
 15 16  1  0
 17 18  1  0
 19 20  1  0
 21 22  1  0
M  CHG  1   6  -1
M  END
>  <PDB_ID>  (2312) 
pdb5fvd

>  <RESIDUE_NAME>  (2312) 
GLU   PHE

>  <FRAG_NAME>  (2312) 
ACET   MBZ

>  <FRAG_ATOM_NUM>  (2312) 
fragi: 7  fragj: 15

>  <atom.prop.CHAIN_ID>  (2312) 
A A A A A A A Z Z Z Z Z Z Z Z Z Z Z Z Z Z Z

>  <atom.prop.IS_HEAVY_ATOM>  (2312) 
1 0 0 0 1 1 1 1 0 0 0 1 1 0 1 0 1 0 1 0 1 0

>  <DIFUSE_FUNC_ATOM>  (2312) 
atom 6   atom 7   

>  <FINAL_SINGLE_POINT_ENERGY>  (2312) 
0

>  <NONCOV_INTER_ENERGY_QM>  (2312) 
0

>  <FF_Energy>  (2312) 
-0.48

>  <QM_Energy>  (2312) 
-5.9

>  <source>  (2312) 
ACET_MBZ_02

>  <Index>  (2312) 
26909

$$$$
ACET-pdb6g1c-B-GLU-55:MBZ-pdb6g1c-A-PHE-59
     RDKit          3D

 22 21  0  0  0  0  0  0  0  0999 V2000
   -5.5403    3.6137    1.5475 C   0  0  0  0  0  0  0  0  0  0  0  0
   -5.8136    4.5493    1.6075 H   0  0  0  0  0  0  0  0  0  0  0  0
   -5.2817    3.2293    2.4075 H   0  0  0  0  0  0  0  0  0  0  0  0
   -6.3597    3.0303    1.1274 H   0  0  0  0  0  0  0  0  0  0  0  0
   -4.3042    3.5635    0.6434 C   0  0  0  0  0  0  0  0  0  0  0  0
   -4.4608    3.6283   -0.6035 O   0  0  0  0  0  1  0  0  0  0  0  0
   -3.1767    3.5242    1.1614 O   0  0  0  0  0  0  0  0  0  0  0  0
   -0.0241    2.8913   -0.0204 C   0  0  0  0  0  0  0  0  0  0  0  0
    0.8854    3.2120    0.1841 H   0  0  0  0  0  0  0  0  0  0  0  0
   -0.6808    3.2009    0.6468 H   0  0  0  0  0  0  0  0  0  0  0  0
   -0.3150    3.2761   -0.9978 H   0  0  0  0  0  0  0  0  0  0  0  0
   -0.0033    1.3970    0.0154 C   0  0  0  0  0  0  0  0  0  0  0  0
   -1.1997    0.6817    0.0008 C   0  0  0  0  0  0  0  0  0  0  0  0
   -2.0687    1.1705   -0.0104 H   0  0  0  0  0  0  0  0  0  0  0  0
   -1.2083   -0.7161   -0.0000 C   0  0  0  0  0  0  0  0  0  0  0  0
   -2.0741   -1.2094    0.0113 H   0  0  0  0  0  0  0  0  0  0  0  0
    0.0066   -1.3949   -0.0152 C   0  0  0  0  0  0  0  0  0  0  0  0
    0.0161   -2.3944   -0.0375 H   0  0  0  0  0  0  0  0  0  0  0  0
    1.2083   -0.6851    0.0000 C   0  0  0  0  0  0  0  0  0  0  0  0
    2.0921   -1.1740    0.0135 H   0  0  0  0  0  0  0  0  0  0  0  0
    1.1963    0.7174   -0.0010 C   0  0  0  0  0  0  0  0  0  0  0  0
    2.0587    1.2117   -0.0145 H   0  0  0  0  0  0  0  0  0  0  0  0
  1  5  1  0
  5  6  1  0
  5  7  2  0
  1  2  1  0
  1  3  1  0
  1  4  1  0
  8 12  1  0
 12 13  2  0
 13 15  1  0
 15 17  2  0
 17 19  1  0
 19 21  2  0
 21 12  1  0
  8  9  1  0
  8 10  1  0
  8 11  1  0
 13 14  1  0
 15 16  1  0
 17 18  1  0
 19 20  1  0
 21 22  1  0
M  CHG  1   6  -1
M  END
>  <PDB_ID>  (2313) 
pdb6g1c

>  <RESIDUE_NAME>  (2313) 
GLU   PHE

>  <FRAG_NAME>  (2313) 
ACET   MBZ

>  <FRAG_ATOM_NUM>  (2313) 
fragi: 7  fragj: 15

>  <atom.prop.CHAIN_ID>  (2313) 
A A A A A A A Z Z Z Z Z Z Z Z Z Z Z Z Z Z Z

>  <atom.prop.IS_HEAVY_ATOM>  (2313) 
1 0 0 0 1 1 1 1 0 0 0 1 1 0 1 0 1 0 1 0 1 0

>  <DIFUSE_FUNC_ATOM>  (2313) 
atom 6   atom 7   

>  <FINAL_SINGLE_POINT_ENERGY>  (2313) 
0

>  <NONCOV_INTER_ENERGY_QM>  (2313) 
0

>  <FF_Energy>  (2313) 
-2.14

>  <QM_Energy>  (2313) 
-7.49

>  <source>  (2313) 
ACET_MBZ_02

>  <Index>  (2313) 
26938

$$$$
ACET-pdb5fw4-A-ASP-134:MBZ-pdb5fw4-A-PHE-131
     RDKit          3D

 22 21  0  0  0  0  0  0  0  0999 V2000
    3.7671    5.8668   -0.7307 C   0  0  0  0  0  0  0  0  0  0  0  0
    3.1399    6.3061   -1.3642 H   0  0  0  0  0  0  0  0  0  0  0  0
    4.7051    5.9729   -1.0409 H   0  0  0  0  0  0  0  0  0  0  0  0
    3.6715    6.3610    0.2361 H   0  0  0  0  0  0  0  0  0  0  0  0
    3.4385    4.3626   -0.6908 C   0  0  0  0  0  0  0  0  0  0  0  0
    3.2124    3.7523    0.3615 O   0  0  0  0  0  1  0  0  0  0  0  0
    3.4069    3.7550   -1.7658 O   0  0  0  0  0  0  0  0  0  0  0  0
   -0.0167    2.9231    0.0224 C   0  0  0  0  0  0  0  0  0  0  0  0
    0.8642    3.2267    0.3534 H   0  0  0  0  0  0  0  0  0  0  0  0
   -0.7463    3.2136    0.6239 H   0  0  0  0  0  0  0  0  0  0  0  0
   -0.1853    3.3766   -0.9544 H   0  0  0  0  0  0  0  0  0  0  0  0
   -0.0062    1.4075    0.0101 C   0  0  0  0  0  0  0  0  0  0  0  0
   -1.1873    0.6991    0.0051 C   0  0  0  0  0  0  0  0  0  0  0  0
   -2.0618    1.1878    0.0041 H   0  0  0  0  0  0  0  0  0  0  0  0
   -1.1927   -0.6834    0.0000 C   0  0  0  0  0  0  0  0  0  0  0  0
   -2.0781   -1.1757    0.0077 H   0  0  0  0  0  0  0  0  0  0  0  0
   -0.0042   -1.3939   -0.0135 C   0  0  0  0  0  0  0  0  0  0  0  0
   -0.0220   -2.3919   -0.0336 H   0  0  0  0  0  0  0  0  0  0  0  0
    1.1927   -0.7113   -0.0000 C   0  0  0  0  0  0  0  0  0  0  0  0
    2.0745   -1.2098    0.0129 H   0  0  0  0  0  0  0  0  0  0  0  0
    1.1977    0.6821   -0.0016 C   0  0  0  0  0  0  0  0  0  0  0  0
    2.0643    1.1757   -0.0121 H   0  0  0  0  0  0  0  0  0  0  0  0
  1  5  1  0
  5  6  1  0
  5  7  2  0
  1  2  1  0
  1  3  1  0
  1  4  1  0
  8 12  1  0
 12 13  2  0
 13 15  1  0
 15 17  2  0
 17 19  1  0
 19 21  2  0
 21 12  1  0
  8  9  1  0
  8 10  1  0
  8 11  1  0
 13 14  1  0
 15 16  1  0
 17 18  1  0
 19 20  1  0
 21 22  1  0
M  CHG  1   6  -1
M  END
>  <PDB_ID>  (2314) 
pdb5fw4

>  <RESIDUE_NAME>  (2314) 
ASP   PHE

>  <FRAG_NAME>  (2314) 
ACET   MBZ

>  <FRAG_ATOM_NUM>  (2314) 
fragi: 7  fragj: 15

>  <atom.prop.CHAIN_ID>  (2314) 
A A A A A A A Z Z Z Z Z Z Z Z Z Z Z Z Z Z Z

>  <atom.prop.IS_HEAVY_ATOM>  (2314) 
1 0 0 0 1 1 1 1 0 0 0 1 1 0 1 0 1 0 1 0 1 0

>  <DIFUSE_FUNC_ATOM>  (2314) 
atom 6   atom 7   

>  <FINAL_SINGLE_POINT_ENERGY>  (2314) 
0

>  <NONCOV_INTER_ENERGY_QM>  (2314) 
0

>  <FF_Energy>  (2314) 
-1.98

>  <QM_Energy>  (2314) 
-8.21

>  <source>  (2314) 
ACET_MBZ_02

>  <Index>  (2314) 
26944

$$$$
ACET-pdb5fw4-B-ASP-134:MBZ-pdb5fw4-B-PHE-131
     RDKit          3D

 22 21  0  0  0  0  0  0  0  0999 V2000
    4.2933    5.4877   -0.7245 C   0  0  0  0  0  0  0  0  0  0  0  0
    3.6884    5.9723   -1.3517 H   0  0  0  0  0  0  0  0  0  0  0  0
    5.2382    5.5777   -1.0263 H   0  0  0  0  0  0  0  0  0  0  0  0
    4.2174    5.9861    0.2420 H   0  0  0  0  0  0  0  0  0  0  0  0
    3.9143    4.0228   -0.6979 C   0  0  0  0  0  0  0  0  0  0  0  0
    3.5351    3.4768    0.3419 O   0  0  0  0  0  1  0  0  0  0  0  0
    4.0442    3.3795   -1.7838 O   0  0  0  0  0  0  0  0  0  0  0  0
    0.0029    2.8982    0.0146 C   0  0  0  0  0  0  0  0  0  0  0  0
    0.8516    3.2012    0.4253 H   0  0  0  0  0  0  0  0  0  0  0  0
   -0.7767    3.2074    0.5411 H   0  0  0  0  0  0  0  0  0  0  0  0
   -0.0665    3.3448   -0.9772 H   0  0  0  0  0  0  0  0  0  0  0  0
   -0.0031    1.4023    0.0094 C   0  0  0  0  0  0  0  0  0  0  0  0
   -1.1972    0.6962    0.0041 C   0  0  0  0  0  0  0  0  0  0  0  0
   -2.0655    1.1843    0.0021 H   0  0  0  0  0  0  0  0  0  0  0  0
   -1.2029   -0.6981   -0.0000 C   0  0  0  0  0  0  0  0  0  0  0  0
   -2.0771   -1.1905    0.0044 H   0  0  0  0  0  0  0  0  0  0  0  0
    0.0021   -1.3908   -0.0083 C   0  0  0  0  0  0  0  0  0  0  0  0
   -0.0028   -2.3916   -0.0209 H   0  0  0  0  0  0  0  0  0  0  0  0
    1.2029   -0.6978    0.0000 C   0  0  0  0  0  0  0  0  0  0  0  0
    2.0830   -1.1975    0.0108 H   0  0  0  0  0  0  0  0  0  0  0  0
    1.1982    0.6882   -0.0052 C   0  0  0  0  0  0  0  0  0  0  0  0
    2.0647    1.1891   -0.0203 H   0  0  0  0  0  0  0  0  0  0  0  0
  1  5  1  0
  5  6  1  0
  5  7  2  0
  1  2  1  0
  1  3  1  0
  1  4  1  0
  8 12  1  0
 12 13  2  0
 13 15  1  0
 15 17  2  0
 17 19  1  0
 19 21  2  0
 21 12  1  0
  8  9  1  0
  8 10  1  0
  8 11  1  0
 13 14  1  0
 15 16  1  0
 17 18  1  0
 19 20  1  0
 21 22  1  0
M  CHG  1   6  -1
M  END
>  <PDB_ID>  (2315) 
pdb5fw4

>  <RESIDUE_NAME>  (2315) 
ASP   PHE

>  <FRAG_NAME>  (2315) 
ACET   MBZ

>  <FRAG_ATOM_NUM>  (2315) 
fragi: 7  fragj: 15

>  <atom.prop.CHAIN_ID>  (2315) 
A A A A A A A Z Z Z Z Z Z Z Z Z Z Z Z Z Z Z

>  <atom.prop.IS_HEAVY_ATOM>  (2315) 
1 0 0 0 1 1 1 1 0 0 0 1 1 0 1 0 1 0 1 0 1 0

>  <DIFUSE_FUNC_ATOM>  (2315) 
atom 6   atom 7   

>  <FINAL_SINGLE_POINT_ENERGY>  (2315) 
0

>  <NONCOV_INTER_ENERGY_QM>  (2315) 
0

>  <FF_Energy>  (2315) 
-2.49

>  <QM_Energy>  (2315) 
-7.67

>  <source>  (2315) 
ACET_MBZ_02

>  <Index>  (2315) 
26945

$$$$
ACET-pdb5g0a-B-GLU-270:MBZ-pdb5g0a-B-PHE-282
     RDKit          3D

 22 21  0  0  0  0  0  0  0  0999 V2000
   -3.5593    2.3888    2.4054 C   0  0  0  0  0  0  0  0  0  0  0  0
   -3.8968    2.7441    3.2568 H   0  0  0  0  0  0  0  0  0  0  0  0
   -2.7188    1.8914    2.5156 H   0  0  0  0  0  0  0  0  0  0  0  0
   -4.3079    1.7047    2.0058 H   0  0  0  0  0  0  0  0  0  0  0  0
   -3.2706    3.5813    1.4906 C   0  0  0  0  0  0  0  0  0  0  0  0
   -3.5492    3.5206    0.2649 O   0  0  0  0  0  1  0  0  0  0  0  0
   -2.7411    4.5981    1.9946 O   0  0  0  0  0  0  0  0  0  0  0  0
   -0.0110    2.8922    0.0227 C   0  0  0  0  0  0  0  0  0  0  0  0
    0.8771    3.2086    0.3194 H   0  0  0  0  0  0  0  0  0  0  0  0
   -0.7257    3.1954    0.6349 H   0  0  0  0  0  0  0  0  0  0  0  0
   -0.2078    3.3239   -0.9586 H   0  0  0  0  0  0  0  0  0  0  0  0
    0.0001    1.4013    0.0189 C   0  0  0  0  0  0  0  0  0  0  0  0
   -1.1992    0.7017    0.0057 C   0  0  0  0  0  0  0  0  0  0  0  0
   -2.0640    1.1849   -0.0015 H   0  0  0  0  0  0  0  0  0  0  0  0
   -1.2025   -0.7035   -0.0000 C   0  0  0  0  0  0  0  0  0  0  0  0
   -2.0752   -1.1939    0.0141 H   0  0  0  0  0  0  0  0  0  0  0  0
    0.0068   -1.3954   -0.0235 C   0  0  0  0  0  0  0  0  0  0  0  0
    0.0041   -2.3936   -0.0576 H   0  0  0  0  0  0  0  0  0  0  0  0
    1.2025   -0.6965    0.0000 C   0  0  0  0  0  0  0  0  0  0  0  0
    2.0865   -1.1911    0.0197 H   0  0  0  0  0  0  0  0  0  0  0  0
    1.1923    0.6925   -0.0011 C   0  0  0  0  0  0  0  0  0  0  0  0
    2.0629    1.1904   -0.0176 H   0  0  0  0  0  0  0  0  0  0  0  0
  1  5  1  0
  5  6  1  0
  5  7  2  0
  1  2  1  0
  1  3  1  0
  1  4  1  0
  8 12  1  0
 12 13  2  0
 13 15  1  0
 15 17  2  0
 17 19  1  0
 19 21  2  0
 21 12  1  0
  8  9  1  0
  8 10  1  0
  8 11  1  0
 13 14  1  0
 15 16  1  0
 17 18  1  0
 19 20  1  0
 21 22  1  0
M  CHG  1   6  -1
M  END
>  <PDB_ID>  (2316) 
pdb5g0a

>  <RESIDUE_NAME>  (2316) 
GLU   PHE

>  <FRAG_NAME>  (2316) 
ACET   MBZ

>  <FRAG_ATOM_NUM>  (2316) 
fragi: 7  fragj: 15

>  <atom.prop.CHAIN_ID>  (2316) 
A A A A A A A Z Z Z Z Z Z Z Z Z Z Z Z Z Z Z

>  <atom.prop.IS_HEAVY_ATOM>  (2316) 
1 0 0 0 1 1 1 1 0 0 0 1 1 0 1 0 1 0 1 0 1 0

>  <DIFUSE_FUNC_ATOM>  (2316) 
atom 6   atom 7   

>  <FINAL_SINGLE_POINT_ENERGY>  (2316) 
0

>  <NONCOV_INTER_ENERGY_QM>  (2316) 
0

>  <FF_Energy>  (2316) 
-2.73

>  <QM_Energy>  (2316) 
-7.93

>  <source>  (2316) 
ACET_MBZ_02

>  <Index>  (2316) 
27068

$$$$
ACET-pdb6g5z-A-ASP-165:MBZ-pdb6g5z-A-PHE-197
     RDKit          3D

 22 21  0  0  0  0  0  0  0  0999 V2000
   -4.4378    1.8305    1.5147 C   0  0  0  0  0  0  0  0  0  0  0  0
   -5.0136    2.1485    2.2275 H   0  0  0  0  0  0  0  0  0  0  0  0
   -3.8321    1.1546    1.8555 H   0  0  0  0  0  0  0  0  0  0  0  0
   -5.0543    1.3910    0.7306 H   0  0  0  0  0  0  0  0  0  0  0  0
   -3.6119    2.9925    1.0313 C   0  0  0  0  0  0  0  0  0  0  0  0
   -3.6243    3.3168   -0.1783 O   0  0  0  0  0  1  0  0  0  0  0  0
   -2.9360    3.5958    1.8821 O   0  0  0  0  0  0  0  0  0  0  0  0
    0.0039    2.9050    0.0194 C   0  0  0  0  0  0  0  0  0  0  0  0
    0.9106    3.1960    0.2067 H   0  0  0  0  0  0  0  0  0  0  0  0
   -0.5872    3.1940    0.7326 H   0  0  0  0  0  0  0  0  0  0  0  0
   -0.3245    3.3614   -0.9143 H   0  0  0  0  0  0  0  0  0  0  0  0
   -0.0008    1.4008   -0.0004 C   0  0  0  0  0  0  0  0  0  0  0  0
   -1.1924    0.6900    0.0007 C   0  0  0  0  0  0  0  0  0  0  0  0
   -2.0016    1.1493    0.0059 H   0  0  0  0  0  0  0  0  0  0  0  0
   -1.1914   -0.7045   -0.0000 C   0  0  0  0  0  0  0  0  0  0  0  0
   -1.9956   -1.1703   -0.0010 H   0  0  0  0  0  0  0  0  0  0  0  0
    0.0035   -1.3899    0.0011 C   0  0  0  0  0  0  0  0  0  0  0  0
    0.0083   -2.3201   -0.0055 H   0  0  0  0  0  0  0  0  0  0  0  0
    1.1914   -0.6917    0.0000 C   0  0  0  0  0  0  0  0  0  0  0  0
    1.9995   -1.1525   -0.0028 H   0  0  0  0  0  0  0  0  0  0  0  0
    1.1897    0.6953   -0.0014 C   0  0  0  0  0  0  0  0  0  0  0  0
    1.9971    1.1562    0.0034 H   0  0  0  0  0  0  0  0  0  0  0  0
  1  5  1  0
  5  6  1  0
  5  7  2  0
  1  2  1  0
  1  3  1  0
  1  4  1  0
  8 12  1  0
 12 13  2  0
 13 15  1  0
 15 17  2  0
 17 19  1  0
 19 21  2  0
 21 12  1  0
  8  9  1  0
  8 10  1  0
  8 11  1  0
 13 14  1  0
 15 16  1  0
 17 18  1  0
 19 20  1  0
 21 22  1  0
M  CHG  1   6  -1
M  END
>  <PDB_ID>  (2317) 
pdb6g5z

>  <RESIDUE_NAME>  (2317) 
ASP   PHE

>  <FRAG_NAME>  (2317) 
ACET   MBZ

>  <FRAG_ATOM_NUM>  (2317) 
fragi: 7  fragj: 15

>  <atom.prop.CHAIN_ID>  (2317) 
A A A A A A A Z Z Z Z Z Z Z Z Z Z Z Z Z Z Z

>  <atom.prop.IS_HEAVY_ATOM>  (2317) 
1 0 0 0 1 1 1 1 0 0 0 1 1 0 1 0 1 0 1 0 1 0

>  <DIFUSE_FUNC_ATOM>  (2317) 
atom 6   atom 7   

>  <FINAL_SINGLE_POINT_ENERGY>  (2317) 
0

>  <NONCOV_INTER_ENERGY_QM>  (2317) 
0

>  <FF_Energy>  (2317) 
-2.12

>  <QM_Energy>  (2317) 
-8.09

>  <source>  (2317) 
ACET_MBZ_02

>  <Index>  (2317) 
27128

$$$$
ACET-pdb6g5z-B-ASP-165:MBZ-pdb6g5z-B-PHE-197
     RDKit          3D

 22 21  0  0  0  0  0  0  0  0999 V2000
   -4.4373    1.9895    1.5506 C   0  0  0  0  0  0  0  0  0  0  0  0
   -5.0106    2.3360    2.2532 H   0  0  0  0  0  0  0  0  0  0  0  0
   -3.8714    1.2848    1.9021 H   0  0  0  0  0  0  0  0  0  0  0  0
   -5.0592    1.5807    0.7542 H   0  0  0  0  0  0  0  0  0  0  0  0
   -3.5357    3.1265    1.0732 C   0  0  0  0  0  0  0  0  0  0  0  0
   -3.5355    3.4357   -0.1337 O   0  0  0  0  0  1  0  0  0  0  0  0
   -2.8543    3.7338    1.9226 O   0  0  0  0  0  0  0  0  0  0  0  0
    0.0011    2.8934    0.0254 C   0  0  0  0  0  0  0  0  0  0  0  0
    0.8952    3.1827    0.2652 H   0  0  0  0  0  0  0  0  0  0  0  0
   -0.6286    3.1755    0.7069 H   0  0  0  0  0  0  0  0  0  0  0  0
   -0.2758    3.3584   -0.9207 H   0  0  0  0  0  0  0  0  0  0  0  0
    0.0002    1.3961   -0.0022 C   0  0  0  0  0  0  0  0  0  0  0  0
   -1.1961    0.6863    0.0066 C   0  0  0  0  0  0  0  0  0  0  0  0
   -2.0034    1.1476    0.0118 H   0  0  0  0  0  0  0  0  0  0  0  0
   -1.1986   -0.6917   -0.0000 C   0  0  0  0  0  0  0  0  0  0  0  0
   -2.0045   -1.1552    0.0022 H   0  0  0  0  0  0  0  0  0  0  0  0
    0.0037   -1.3877    0.0009 C   0  0  0  0  0  0  0  0  0  0  0  0
    0.0045   -2.3178   -0.0084 H   0  0  0  0  0  0  0  0  0  0  0  0
    1.1986   -0.6938    0.0000 C   0  0  0  0  0  0  0  0  0  0  0  0
    2.0055   -1.1557   -0.0075 H   0  0  0  0  0  0  0  0  0  0  0  0
    1.1922    0.6908   -0.0054 C   0  0  0  0  0  0  0  0  0  0  0  0
    1.9994    1.1535    0.0009 H   0  0  0  0  0  0  0  0  0  0  0  0
  1  5  1  0
  5  6  1  0
  5  7  2  0
  1  2  1  0
  1  3  1  0
  1  4  1  0
  8 12  1  0
 12 13  2  0
 13 15  1  0
 15 17  2  0
 17 19  1  0
 19 21  2  0
 21 12  1  0
  8  9  1  0
  8 10  1  0
  8 11  1  0
 13 14  1  0
 15 16  1  0
 17 18  1  0
 19 20  1  0
 21 22  1  0
M  CHG  1   6  -1
M  END
>  <PDB_ID>  (2318) 
pdb6g5z

>  <RESIDUE_NAME>  (2318) 
ASP   PHE

>  <FRAG_NAME>  (2318) 
ACET   MBZ

>  <FRAG_ATOM_NUM>  (2318) 
fragi: 7  fragj: 15

>  <atom.prop.CHAIN_ID>  (2318) 
A A A A A A A Z Z Z Z Z Z Z Z Z Z Z Z Z Z Z

>  <atom.prop.IS_HEAVY_ATOM>  (2318) 
1 0 0 0 1 1 1 1 0 0 0 1 1 0 1 0 1 0 1 0 1 0

>  <DIFUSE_FUNC_ATOM>  (2318) 
atom 6   atom 7   

>  <FINAL_SINGLE_POINT_ENERGY>  (2318) 
0

>  <NONCOV_INTER_ENERGY_QM>  (2318) 
0

>  <FF_Energy>  (2318) 
-2.25

>  <QM_Energy>  (2318) 
-8.17

>  <source>  (2318) 
ACET_MBZ_02

>  <Index>  (2318) 
27133

$$$$
ACET-pdb6g5z-C-ASP-165:MBZ-pdb6g5z-C-PHE-197
     RDKit          3D

 22 21  0  0  0  0  0  0  0  0999 V2000
   -4.3180    2.1089    1.7385 C   0  0  0  0  0  0  0  0  0  0  0  0
   -4.8623    2.4714    2.4552 H   0  0  0  0  0  0  0  0  0  0  0  0
   -3.7360    1.4130    2.0813 H   0  0  0  0  0  0  0  0  0  0  0  0
   -4.9717    1.6825    0.9776 H   0  0  0  0  0  0  0  0  0  0  0  0
   -3.4425    3.2318    1.1969 C   0  0  0  0  0  0  0  0  0  0  0  0
   -3.5194    3.5302   -0.0133 O   0  0  0  0  0  1  0  0  0  0  0  0
   -2.6713    3.8143    1.9848 O   0  0  0  0  0  0  0  0  0  0  0  0
    0.0059    2.8914    0.0268 C   0  0  0  0  0  0  0  0  0  0  0  0
    0.9096    3.1810    0.2243 H   0  0  0  0  0  0  0  0  0  0  0  0
   -0.5918    3.1743    0.7380 H   0  0  0  0  0  0  0  0  0  0  0  0
   -0.3153    3.3582   -0.9043 H   0  0  0  0  0  0  0  0  0  0  0  0
    0.0029    1.3936   -0.0015 C   0  0  0  0  0  0  0  0  0  0  0  0
   -1.1952    0.6859    0.0030 C   0  0  0  0  0  0  0  0  0  0  0  0
   -2.0024    1.1469    0.0065 H   0  0  0  0  0  0  0  0  0  0  0  0
   -1.1971   -0.6850   -0.0000 C   0  0  0  0  0  0  0  0  0  0  0  0
   -2.0046   -1.1474   -0.0048 H   0  0  0  0  0  0  0  0  0  0  0  0
   -0.0017   -1.3833   -0.0053 C   0  0  0  0  0  0  0  0  0  0  0  0
   -0.0045   -2.3131   -0.0110 H   0  0  0  0  0  0  0  0  0  0  0  0
    1.1971   -0.6934   -0.0000 C   0  0  0  0  0  0  0  0  0  0  0  0
    2.0026   -1.1576   -0.0037 H   0  0  0  0  0  0  0  0  0  0  0  0
    1.1940    0.6822    0.0039 C   0  0  0  0  0  0  0  0  0  0  0  0
    2.0021    1.1414    0.0083 H   0  0  0  0  0  0  0  0  0  0  0  0
  1  5  1  0
  5  6  1  0
  5  7  2  0
  1  2  1  0
  1  3  1  0
  1  4  1  0
  8 12  1  0
 12 13  2  0
 13 15  1  0
 15 17  2  0
 17 19  1  0
 19 21  2  0
 21 12  1  0
  8  9  1  0
  8 10  1  0
  8 11  1  0
 13 14  1  0
 15 16  1  0
 17 18  1  0
 19 20  1  0
 21 22  1  0
M  CHG  1   6  -1
M  END
>  <PDB_ID>  (2319) 
pdb6g5z

>  <RESIDUE_NAME>  (2319) 
ASP   PHE

>  <FRAG_NAME>  (2319) 
ACET   MBZ

>  <FRAG_ATOM_NUM>  (2319) 
fragi: 7  fragj: 15

>  <atom.prop.CHAIN_ID>  (2319) 
A A A A A A A Z Z Z Z Z Z Z Z Z Z Z Z Z Z Z

>  <atom.prop.IS_HEAVY_ATOM>  (2319) 
1 0 0 0 1 1 1 1 0 0 0 1 1 0 1 0 1 0 1 0 1 0

>  <DIFUSE_FUNC_ATOM>  (2319) 
atom 6   atom 7   

>  <FINAL_SINGLE_POINT_ENERGY>  (2319) 
0

>  <NONCOV_INTER_ENERGY_QM>  (2319) 
0

>  <FF_Energy>  (2319) 
-2.26

>  <QM_Energy>  (2319) 
-8.23

>  <source>  (2319) 
ACET_MBZ_02

>  <Index>  (2319) 
27136

$$$$
ACET-pdb5g3o-B-GLU-176:MBZ-pdb5g3o-C-PHE-297
     RDKit          3D

 22 21  0  0  0  0  0  0  0  0999 V2000
    5.9215    2.0359   -0.2105 C   0  0  0  0  0  0  0  0  0  0  0  0
    6.5100    1.6036    0.4472 H   0  0  0  0  0  0  0  0  0  0  0  0
    6.4190    2.5972   -0.8457 H   0  0  0  0  0  0  0  0  0  0  0  0
    5.4089    1.2556   -0.7730 H   0  0  0  0  0  0  0  0  0  0  0  0
    4.9662    2.9346    0.5474 C   0  0  0  0  0  0  0  0  0  0  0  0
    3.7397    2.7060    0.4706 O   0  0  0  0  0  1  0  0  0  0  0  0
    5.4411    3.8686    1.2288 O   0  0  0  0  0  0  0  0  0  0  0  0
    0.0024    2.9107   -0.0033 C   0  0  0  0  0  0  0  0  0  0  0  0
   -0.7669    3.2118   -0.5484 H   0  0  0  0  0  0  0  0  0  0  0  0
    0.8593    3.2112   -0.3975 H   0  0  0  0  0  0  0  0  0  0  0  0
   -0.0892    3.3675    0.9821 H   0  0  0  0  0  0  0  0  0  0  0  0
    0.0009    1.4005    0.0072 C   0  0  0  0  0  0  0  0  0  0  0  0
   -1.1935    0.6894   -0.0046 C   0  0  0  0  0  0  0  0  0  0  0  0
   -2.0617    1.1801   -0.0179 H   0  0  0  0  0  0  0  0  0  0  0  0
   -1.1963   -0.6968    0.0000 C   0  0  0  0  0  0  0  0  0  0  0  0
   -2.0748   -1.1914    0.0068 H   0  0  0  0  0  0  0  0  0  0  0  0
    0.0002   -1.3906   -0.0026 C   0  0  0  0  0  0  0  0  0  0  0  0
   -0.0030   -2.3903   -0.0070 H   0  0  0  0  0  0  0  0  0  0  0  0
    1.1963   -0.6954   -0.0000 C   0  0  0  0  0  0  0  0  0  0  0  0
    2.0797   -1.1929    0.0032 H   0  0  0  0  0  0  0  0  0  0  0  0
    1.1925    0.6929   -0.0000 C   0  0  0  0  0  0  0  0  0  0  0  0
    2.0634    1.1883   -0.0062 H   0  0  0  0  0  0  0  0  0  0  0  0
  1  5  1  0
  5  6  1  0
  5  7  2  0
  1  2  1  0
  1  3  1  0
  1  4  1  0
  8 12  1  0
 12 13  2  0
 13 15  1  0
 15 17  2  0
 17 19  1  0
 19 21  2  0
 21 12  1  0
  8  9  1  0
  8 10  1  0
  8 11  1  0
 13 14  1  0
 15 16  1  0
 17 18  1  0
 19 20  1  0
 21 22  1  0
M  CHG  1   6  -1
M  END
>  <PDB_ID>  (2320) 
pdb5g3o

>  <RESIDUE_NAME>  (2320) 
GLU   PHE

>  <FRAG_NAME>  (2320) 
ACET   MBZ

>  <FRAG_ATOM_NUM>  (2320) 
fragi: 7  fragj: 15

>  <atom.prop.CHAIN_ID>  (2320) 
A A A A A A A Z Z Z Z Z Z Z Z Z Z Z Z Z Z Z

>  <atom.prop.IS_HEAVY_ATOM>  (2320) 
1 0 0 0 1 1 1 1 0 0 0 1 1 0 1 0 1 0 1 0 1 0

>  <DIFUSE_FUNC_ATOM>  (2320) 
atom 6   atom 7   

>  <FINAL_SINGLE_POINT_ENERGY>  (2320) 
0

>  <NONCOV_INTER_ENERGY_QM>  (2320) 
0

>  <FF_Energy>  (2320) 
-1.55

>  <QM_Energy>  (2320) 
-7.37

>  <source>  (2320) 
ACET_MBZ_02

>  <Index>  (2320) 
27210

$$$$
ACET-pdb6g7w-A-ASP-430:MBZ-pdb6g7w-A-PHE-409
     RDKit          3D

 22 21  0  0  0  0  0  0  0  0999 V2000
    5.4154    3.1943    0.1433 C   0  0  0  0  0  0  0  0  0  0  0  0
    5.3500    2.2091    0.0330 H   0  0  0  0  0  0  0  0  0  0  0  0
    6.0550    3.4227    0.8675 H   0  0  0  0  0  0  0  0  0  0  0  0
    5.7901    3.6168   -0.7891 H   0  0  0  0  0  0  0  0  0  0  0  0
    4.0424    3.7316    0.5215 C   0  0  0  0  0  0  0  0  0  0  0  0
    3.1700    3.7606   -0.3642 O   0  0  0  0  0  1  0  0  0  0  0  0
    3.8373    4.1252    1.6974 O   0  0  0  0  0  0  0  0  0  0  0  0
    0.0125    2.8934    0.0169 C   0  0  0  0  0  0  0  0  0  0  0  0
   -0.8024    3.2092   -0.4419 H   0  0  0  0  0  0  0  0  0  0  0  0
    0.8305    3.1999   -0.4440 H   0  0  0  0  0  0  0  0  0  0  0  0
    0.0167    3.3266    1.0170 H   0  0  0  0  0  0  0  0  0  0  0  0
    0.0036    1.3959    0.0131 C   0  0  0  0  0  0  0  0  0  0  0  0
   -1.1980    0.6891    0.0012 C   0  0  0  0  0  0  0  0  0  0  0  0
   -2.0610    1.1824   -0.0074 H   0  0  0  0  0  0  0  0  0  0  0  0
   -1.1984   -0.6947   -0.0000 C   0  0  0  0  0  0  0  0  0  0  0  0
   -2.0741   -1.1939    0.0120 H   0  0  0  0  0  0  0  0  0  0  0  0
    0.0028   -1.3899   -0.0161 C   0  0  0  0  0  0  0  0  0  0  0  0
   -0.0015   -2.3886   -0.0398 H   0  0  0  0  0  0  0  0  0  0  0  0
    1.1984   -0.6939   -0.0000 C   0  0  0  0  0  0  0  0  0  0  0  0
    2.0821   -1.1905    0.0120 H   0  0  0  0  0  0  0  0  0  0  0  0
    1.1916    0.6936    0.0017 C   0  0  0  0  0  0  0  0  0  0  0  0
    2.0629    1.1893   -0.0065 H   0  0  0  0  0  0  0  0  0  0  0  0
  1  5  1  0
  5  6  1  0
  5  7  2  0
  1  2  1  0
  1  3  1  0
  1  4  1  0
  8 12  1  0
 12 13  2  0
 13 15  1  0
 15 17  2  0
 17 19  1  0
 19 21  2  0
 21 12  1  0
  8  9  1  0
  8 10  1  0
  8 11  1  0
 13 14  1  0
 15 16  1  0
 17 18  1  0
 19 20  1  0
 21 22  1  0
M  CHG  1   6  -1
M  END
>  <PDB_ID>  (2321) 
pdb6g7w

>  <RESIDUE_NAME>  (2321) 
ASP   PHE

>  <FRAG_NAME>  (2321) 
ACET   MBZ

>  <FRAG_ATOM_NUM>  (2321) 
fragi: 7  fragj: 15

>  <atom.prop.CHAIN_ID>  (2321) 
A A A A A A A Z Z Z Z Z Z Z Z Z Z Z Z Z Z Z

>  <atom.prop.IS_HEAVY_ATOM>  (2321) 
1 0 0 0 1 1 1 1 0 0 0 1 1 0 1 0 1 0 1 0 1 0

>  <DIFUSE_FUNC_ATOM>  (2321) 
atom 6   atom 7   

>  <FINAL_SINGLE_POINT_ENERGY>  (2321) 
0

>  <NONCOV_INTER_ENERGY_QM>  (2321) 
0

>  <FF_Energy>  (2321) 
-1.93

>  <QM_Energy>  (2321) 
-7.42

>  <source>  (2321) 
ACET_MBZ_02

>  <Index>  (2321) 
27233

$$$$
ACET-pdb5g4k-A-ASP-204:MBZ-pdb5g4k-A-PHE-201
     RDKit          3D

 22 21  0  0  0  0  0  0  0  0999 V2000
    3.2252    5.6366   -1.8620 C   0  0  0  0  0  0  0  0  0  0  0  0
    2.3379    5.8001   -2.3270 H   0  0  0  0  0  0  0  0  0  0  0  0
    3.9557    5.8090   -2.5440 H   0  0  0  0  0  0  0  0  0  0  0  0
    3.3254    6.3902   -1.0808 H   0  0  0  0  0  0  0  0  0  0  0  0
    3.2876    4.1692   -1.4543 C   0  0  0  0  0  0  0  0  0  0  0  0
    4.0211    3.8475   -0.4892 O   0  0  0  0  0  1  0  0  0  0  0  0
    2.6717    3.3275   -2.1647 O   0  0  0  0  0  0  0  0  0  0  0  0
    0.0103    2.9195   -0.0018 C   0  0  0  0  0  0  0  0  0  0  0  0
    0.9221    3.2177   -0.2146 H   0  0  0  0  0  0  0  0  0  0  0  0
   -0.2819    3.2162    0.8888 H   0  0  0  0  0  0  0  0  0  0  0  0
   -0.6660    3.3518   -0.7393 H   0  0  0  0  0  0  0  0  0  0  0  0
    0.0011    1.4063   -0.0144 C   0  0  0  0  0  0  0  0  0  0  0  0
   -1.1983    0.6941    0.0002 C   0  0  0  0  0  0  0  0  0  0  0  0
   -2.0644    1.1741    0.0093 H   0  0  0  0  0  0  0  0  0  0  0  0
   -1.1926   -0.7110   -0.0000 C   0  0  0  0  0  0  0  0  0  0  0  0
   -2.0683   -1.2021   -0.0120 H   0  0  0  0  0  0  0  0  0  0  0  0
    0.0081   -1.3892    0.0183 C   0  0  0  0  0  0  0  0  0  0  0  0
    0.0090   -2.3949    0.0444 H   0  0  0  0  0  0  0  0  0  0  0  0
    1.1926   -0.6960    0.0000 C   0  0  0  0  0  0  0  0  0  0  0  0
    2.0823   -1.1877   -0.0091 H   0  0  0  0  0  0  0  0  0  0  0  0
    1.1892    0.6957   -0.0041 C   0  0  0  0  0  0  0  0  0  0  0  0
    2.0629    1.1881   -0.0000 H   0  0  0  0  0  0  0  0  0  0  0  0
  1  5  1  0
  5  6  1  0
  5  7  2  0
  1  2  1  0
  1  3  1  0
  1  4  1  0
  8 12  1  0
 12 13  2  0
 13 15  1  0
 15 17  2  0
 17 19  1  0
 19 21  2  0
 21 12  1  0
  8  9  1  0
  8 10  1  0
  8 11  1  0
 13 14  1  0
 15 16  1  0
 17 18  1  0
 19 20  1  0
 21 22  1  0
M  CHG  1   6  -1
M  END
>  <PDB_ID>  (2322) 
pdb5g4k

>  <RESIDUE_NAME>  (2322) 
ASP   PHE

>  <FRAG_NAME>  (2322) 
ACET   MBZ

>  <FRAG_ATOM_NUM>  (2322) 
fragi: 7  fragj: 15

>  <atom.prop.CHAIN_ID>  (2322) 
A A A A A A A Z Z Z Z Z Z Z Z Z Z Z Z Z Z Z

>  <atom.prop.IS_HEAVY_ATOM>  (2322) 
1 0 0 0 1 1 1 1 0 0 0 1 1 0 1 0 1 0 1 0 1 0

>  <DIFUSE_FUNC_ATOM>  (2322) 
atom 6   atom 7   

>  <FINAL_SINGLE_POINT_ENERGY>  (2322) 
0

>  <NONCOV_INTER_ENERGY_QM>  (2322) 
0

>  <FF_Energy>  (2322) 
-1.67

>  <QM_Energy>  (2322) 
-6.86

>  <source>  (2322) 
ACET_MBZ_02

>  <Index>  (2322) 
27235

$$$$
ACET-pdb5fqe-B-GLU-303:MBZ-pdb5fqe-B-PHE-296
     RDKit          3D

 22 21  0  0  0  0  0  0  0  0999 V2000
   -5.4130    2.3786    0.6960 C   0  0  0  0  0  0  0  0  0  0  0  0
   -5.0952    1.4488    0.6282 H   0  0  0  0  0  0  0  0  0  0  0  0
   -6.3144    2.4878    0.3146 H   0  0  0  0  0  0  0  0  0  0  0  0
   -5.4567    2.6442    1.7522 H   0  0  0  0  0  0  0  0  0  0  0  0
   -4.4731    3.2491   -0.0809 C   0  0  0  0  0  0  0  0  0  0  0  0
   -4.7123    4.4739   -0.1453 O   0  0  0  0  0  1  0  0  0  0  0  0
   -3.5070    2.7238   -0.6689 O   0  0  0  0  0  0  0  0  0  0  0  0
   -0.0237    2.8772   -0.0173 C   0  0  0  0  0  0  0  0  0  0  0  0
   -0.6911    3.1740   -0.6896 H   0  0  0  0  0  0  0  0  0  0  0  0
    0.8845    3.1960   -0.2600 H   0  0  0  0  0  0  0  0  0  0  0  0
   -0.2925    3.3032    0.9493 H   0  0  0  0  0  0  0  0  0  0  0  0
   -0.0017    1.3923   -0.0212 C   0  0  0  0  0  0  0  0  0  0  0  0
   -1.1951    0.6820    0.0222 C   0  0  0  0  0  0  0  0  0  0  0  0
   -2.0624    1.1684    0.0689 H   0  0  0  0  0  0  0  0  0  0  0  0
   -1.1985   -0.7126   -0.0000 C   0  0  0  0  0  0  0  0  0  0  0  0
   -2.0723   -1.2021   -0.0193 H   0  0  0  0  0  0  0  0  0  0  0  0
   -0.0027   -1.3775    0.0064 C   0  0  0  0  0  0  0  0  0  0  0  0
    0.0075   -2.3891    0.0153 H   0  0  0  0  0  0  0  0  0  0  0  0
    1.1985   -0.6890   -0.0000 C   0  0  0  0  0  0  0  0  0  0  0  0
    2.0788   -1.1879    0.0023 H   0  0  0  0  0  0  0  0  0  0  0  0
    1.1995    0.7048   -0.0074 C   0  0  0  0  0  0  0  0  0  0  0  0
    2.0616    1.1988   -0.0033 H   0  0  0  0  0  0  0  0  0  0  0  0
  1  5  1  0
  5  6  1  0
  5  7  2  0
  1  2  1  0
  1  3  1  0
  1  4  1  0
  8 12  1  0
 12 13  2  0
 13 15  1  0
 15 17  2  0
 17 19  1  0
 19 21  2  0
 21 12  1  0
  8  9  1  0
  8 10  1  0
  8 11  1  0
 13 14  1  0
 15 16  1  0
 17 18  1  0
 19 20  1  0
 21 22  1  0
M  CHG  1   6  -1
M  END
>  <PDB_ID>  (2323) 
pdb5fqe

>  <RESIDUE_NAME>  (2323) 
GLU   PHE

>  <FRAG_NAME>  (2323) 
ACET   MBZ

>  <FRAG_ATOM_NUM>  (2323) 
fragi: 7  fragj: 15

>  <atom.prop.CHAIN_ID>  (2323) 
A A A A A A A Z Z Z Z Z Z Z Z Z Z Z Z Z Z Z

>  <atom.prop.IS_HEAVY_ATOM>  (2323) 
1 0 0 0 1 1 1 1 0 0 0 1 1 0 1 0 1 0 1 0 1 0

>  <DIFUSE_FUNC_ATOM>  (2323) 
atom 6   atom 7   

>  <FINAL_SINGLE_POINT_ENERGY>  (2323) 
0

>  <NONCOV_INTER_ENERGY_QM>  (2323) 
0

>  <FF_Energy>  (2323) 
-0.99

>  <QM_Energy>  (2323) 
-7.56

>  <source>  (2323) 
ACET_MBZ_02

>  <Index>  (2323) 
27258

$$$$
ACET-pdb5g5e-A-ASP-160:MBZ-pdb5g5e-A-PHE-151
     RDKit          3D

 22 21  0  0  0  0  0  0  0  0999 V2000
    4.4520    3.3923    1.5110 C   0  0  0  0  0  0  0  0  0  0  0  0
    4.6635    4.2020    2.0465 H   0  0  0  0  0  0  0  0  0  0  0  0
    5.2813    2.9908    1.1426 H   0  0  0  0  0  0  0  0  0  0  0  0
    3.9864    2.6617    2.1725 H   0  0  0  0  0  0  0  0  0  0  0  0
    3.5491    3.7866    0.3657 C   0  0  0  0  0  0  0  0  0  0  0  0
    3.4871    3.0122   -0.6107 O   0  0  0  0  0  1  0  0  0  0  0  0
    2.9105    4.8618    0.4582 O   0  0  0  0  0  0  0  0  0  0  0  0
   -0.0057    2.9098    0.0748 C   0  0  0  0  0  0  0  0  0  0  0  0
    0.8394    3.1935    0.5162 H   0  0  0  0  0  0  0  0  0  0  0  0
   -0.7907    3.1845    0.6208 H   0  0  0  0  0  0  0  0  0  0  0  0
   -0.0697    3.4225   -0.8850 H   0  0  0  0  0  0  0  0  0  0  0  0
   -0.0029    1.4071   -0.0017 C   0  0  0  0  0  0  0  0  0  0  0  0
   -1.2021    0.6872    0.0057 C   0  0  0  0  0  0  0  0  0  0  0  0
   -2.0690    1.1740    0.0141 H   0  0  0  0  0  0  0  0  0  0  0  0
   -1.1974   -0.7049    0.0000 C   0  0  0  0  0  0  0  0  0  0  0  0
   -2.0709   -1.2042    0.0039 H   0  0  0  0  0  0  0  0  0  0  0  0
    0.0087   -1.3946   -0.0094 C   0  0  0  0  0  0  0  0  0  0  0  0
    0.0053   -2.3952   -0.0236 H   0  0  0  0  0  0  0  0  0  0  0  0
    1.1974   -0.6971   -0.0000 C   0  0  0  0  0  0  0  0  0  0  0  0
    2.0866   -1.1872    0.0047 H   0  0  0  0  0  0  0  0  0  0  0  0
    1.1963    0.7024    0.0054 C   0  0  0  0  0  0  0  0  0  0  0  0
    2.0627    1.1935    0.0134 H   0  0  0  0  0  0  0  0  0  0  0  0
  1  5  1  0
  5  6  1  0
  5  7  2  0
  1  2  1  0
  1  3  1  0
  1  4  1  0
  8 12  1  0
 12 13  2  0
 13 15  1  0
 15 17  2  0
 17 19  1  0
 19 21  2  0
 21 12  1  0
  8  9  1  0
  8 10  1  0
  8 11  1  0
 13 14  1  0
 15 16  1  0
 17 18  1  0
 19 20  1  0
 21 22  1  0
M  CHG  1   6  -1
M  END
>  <PDB_ID>  (2324) 
pdb5g5e

>  <RESIDUE_NAME>  (2324) 
ASP   PHE

>  <FRAG_NAME>  (2324) 
ACET   MBZ

>  <FRAG_ATOM_NUM>  (2324) 
fragi: 7  fragj: 15

>  <atom.prop.CHAIN_ID>  (2324) 
A A A A A A A Z Z Z Z Z Z Z Z Z Z Z Z Z Z Z

>  <atom.prop.IS_HEAVY_ATOM>  (2324) 
1 0 0 0 1 1 1 1 0 0 0 1 1 0 1 0 1 0 1 0 1 0

>  <DIFUSE_FUNC_ATOM>  (2324) 
atom 6   atom 7   

>  <FINAL_SINGLE_POINT_ENERGY>  (2324) 
0

>  <NONCOV_INTER_ENERGY_QM>  (2324) 
0

>  <FF_Energy>  (2324) 
-2.23

>  <QM_Energy>  (2324) 
-8.46

>  <source>  (2324) 
ACET_MBZ_02

>  <Index>  (2324) 
27304

$$$$
ACET-pdb5ghf-A-GLU-259:MBZ-pdb5ghf-A-PHE-271
     RDKit          3D

 22 21  0  0  0  0  0  0  0  0999 V2000
   -4.4820    2.4951    2.1702 C   0  0  0  0  0  0  0  0  0  0  0  0
   -5.1289    3.0671    2.6537 H   0  0  0  0  0  0  0  0  0  0  0  0
   -3.8945    2.0096    2.8009 H   0  0  0  0  0  0  0  0  0  0  0  0
   -5.0402    1.7637    1.5857 H   0  0  0  0  0  0  0  0  0  0  0  0
   -3.6039    3.4038    1.3419 C   0  0  0  0  0  0  0  0  0  0  0  0
   -3.7356    3.5036    0.0674 O   0  0  0  0  0  1  0  0  0  0  0  0
   -2.7641    4.0408    1.9952 O   0  0  0  0  0  0  0  0  0  0  0  0
   -0.0275    2.8977   -0.0302 C   0  0  0  0  0  0  0  0  0  0  0  0
    0.8695    3.2305    0.1950 H   0  0  0  0  0  0  0  0  0  0  0  0
   -0.7143    3.2156    0.5962 H   0  0  0  0  0  0  0  0  0  0  0  0
   -0.2811    3.2900   -1.0150 H   0  0  0  0  0  0  0  0  0  0  0  0
   -0.0031    1.3947    0.0115 C   0  0  0  0  0  0  0  0  0  0  0  0
   -1.1994    0.6910    0.0146 C   0  0  0  0  0  0  0  0  0  0  0  0
   -2.0650    1.1796    0.0264 H   0  0  0  0  0  0  0  0  0  0  0  0
   -1.2017   -0.7002    0.0000 C   0  0  0  0  0  0  0  0  0  0  0  0
   -2.0729   -1.1970   -0.0018 H   0  0  0  0  0  0  0  0  0  0  0  0
    0.0066   -1.3888   -0.0104 C   0  0  0  0  0  0  0  0  0  0  0  0
    0.0003   -2.3924   -0.0261 H   0  0  0  0  0  0  0  0  0  0  0  0
    1.2017   -0.7001   -0.0000 C   0  0  0  0  0  0  0  0  0  0  0  0
    2.0854   -1.1879    0.0205 H   0  0  0  0  0  0  0  0  0  0  0  0
    1.1959    0.7034   -0.0157 C   0  0  0  0  0  0  0  0  0  0  0  0
    2.0600    1.1943   -0.0476 H   0  0  0  0  0  0  0  0  0  0  0  0
  1  5  1  0
  5  6  1  0
  5  7  2  0
  1  2  1  0
  1  3  1  0
  1  4  1  0
  8 12  1  0
 12 13  2  0
 13 15  1  0
 15 17  2  0
 17 19  1  0
 19 21  2  0
 21 12  1  0
  8  9  1  0
  8 10  1  0
  8 11  1  0
 13 14  1  0
 15 16  1  0
 17 18  1  0
 19 20  1  0
 21 22  1  0
M  CHG  1   6  -1
M  END
>  <PDB_ID>  (2325) 
pdb5ghf

>  <RESIDUE_NAME>  (2325) 
GLU   PHE

>  <FRAG_NAME>  (2325) 
ACET   MBZ

>  <FRAG_ATOM_NUM>  (2325) 
fragi: 7  fragj: 15

>  <atom.prop.CHAIN_ID>  (2325) 
A A A A A A A Z Z Z Z Z Z Z Z Z Z Z Z Z Z Z

>  <atom.prop.IS_HEAVY_ATOM>  (2325) 
1 0 0 0 1 1 1 1 0 0 0 1 1 0 1 0 1 0 1 0 1 0

>  <DIFUSE_FUNC_ATOM>  (2325) 
atom 6   atom 7   

>  <FINAL_SINGLE_POINT_ENERGY>  (2325) 
0

>  <NONCOV_INTER_ENERGY_QM>  (2325) 
0

>  <FF_Energy>  (2325) 
-2.55

>  <QM_Energy>  (2325) 
-8.12

>  <source>  (2325) 
ACET_MBZ_02

>  <Index>  (2325) 
27568

$$$$
ACET-pdb6gib-A-GLU-161:MBZ-pdb6gib-A-PHE-152
     RDKit          3D

 22 21  0  0  0  0  0  0  0  0999 V2000
   -2.4300    2.3011    3.1262 C   0  0  0  0  0  0  0  0  0  0  0  0
   -1.7994    1.6144    2.8595 H   0  0  0  0  0  0  0  0  0  0  0  0
   -3.2707    2.1779    2.6575 H   0  0  0  0  0  0  0  0  0  0  0  0
   -2.6078    2.2208    4.1986 H   0  0  0  0  0  0  0  0  0  0  0  0
   -1.8618    3.6392    2.7214 C   0  0  0  0  0  0  0  0  0  0  0  0
   -2.4497    4.2862    1.8372 O   0  0  0  0  0  1  0  0  0  0  0  0
   -0.8239    4.0384    3.2718 O   0  0  0  0  0  0  0  0  0  0  0  0
   -0.0095    2.8962   -0.0122 C   0  0  0  0  0  0  0  0  0  0  0  0
    0.8826    3.2044    0.2123 H   0  0  0  0  0  0  0  0  0  0  0  0
   -0.6445    3.2010    0.6545 H   0  0  0  0  0  0  0  0  0  0  0  0
   -0.2921    3.3011   -0.9840 H   0  0  0  0  0  0  0  0  0  0  0  0
   -0.0022    1.3898    0.0052 C   0  0  0  0  0  0  0  0  0  0  0  0
   -1.1936    0.6808   -0.0062 C   0  0  0  0  0  0  0  0  0  0  0  0
   -2.0020    1.1407   -0.0070 H   0  0  0  0  0  0  0  0  0  0  0  0
   -1.1930   -0.6892   -0.0000 C   0  0  0  0  0  0  0  0  0  0  0  0
   -1.9975   -1.1552   -0.0036 H   0  0  0  0  0  0  0  0  0  0  0  0
    0.0050   -1.3762   -0.0018 C   0  0  0  0  0  0  0  0  0  0  0  0
    0.0050   -2.3056    0.0023 H   0  0  0  0  0  0  0  0  0  0  0  0
    1.1930   -0.6945   -0.0000 C   0  0  0  0  0  0  0  0  0  0  0  0
    1.9978   -1.1606    0.0047 H   0  0  0  0  0  0  0  0  0  0  0  0
    1.1908    0.6893    0.0028 C   0  0  0  0  0  0  0  0  0  0  0  0
    1.9970    1.1519    0.0016 H   0  0  0  0  0  0  0  0  0  0  0  0
  1  5  1  0
  5  6  1  0
  5  7  2  0
  1  2  1  0
  1  3  1  0
  1  4  1  0
  8 12  1  0
 12 13  2  0
 13 15  1  0
 15 17  2  0
 17 19  1  0
 19 21  2  0
 21 12  1  0
  8  9  1  0
  8 10  1  0
  8 11  1  0
 13 14  1  0
 15 16  1  0
 17 18  1  0
 19 20  1  0
 21 22  1  0
M  CHG  1   6  -1
M  END
>  <PDB_ID>  (2326) 
pdb6gib

>  <RESIDUE_NAME>  (2326) 
GLU   PHE

>  <FRAG_NAME>  (2326) 
ACET   MBZ

>  <FRAG_ATOM_NUM>  (2326) 
fragi: 7  fragj: 15

>  <atom.prop.CHAIN_ID>  (2326) 
A A A A A A A Z Z Z Z Z Z Z Z Z Z Z Z Z Z Z

>  <atom.prop.IS_HEAVY_ATOM>  (2326) 
1 0 0 0 1 1 1 1 0 0 0 1 1 0 1 0 1 0 1 0 1 0

>  <DIFUSE_FUNC_ATOM>  (2326) 
atom 6   atom 7   

>  <FINAL_SINGLE_POINT_ENERGY>  (2326) 
0

>  <NONCOV_INTER_ENERGY_QM>  (2326) 
0

>  <FF_Energy>  (2326) 
-0.14

>  <QM_Energy>  (2326) 
-5.98

>  <source>  (2326) 
ACET_MBZ_02

>  <Index>  (2326) 
27592

$$$$
ACET-pdb6gib-B-GLU-161:MBZ-pdb6gib-B-PHE-152
     RDKit          3D

 22 21  0  0  0  0  0  0  0  0999 V2000
   -2.7641    1.8839    3.0673 C   0  0  0  0  0  0  0  0  0  0  0  0
   -2.1903    1.1913    2.7038 H   0  0  0  0  0  0  0  0  0  0  0  0
   -3.6296    1.8553    2.6298 H   0  0  0  0  0  0  0  0  0  0  0  0
   -2.9043    1.6997    4.1325 H   0  0  0  0  0  0  0  0  0  0  0  0
   -2.1308    3.2215    2.7490 C   0  0  0  0  0  0  0  0  0  0  0  0
   -2.6420    3.9141    1.8364 O   0  0  0  0  0  1  0  0  0  0  0  0
   -1.1137    3.5627    3.3787 O   0  0  0  0  0  0  0  0  0  0  0  0
   -0.0103    2.8914    0.0267 C   0  0  0  0  0  0  0  0  0  0  0  0
    0.9003    3.1978    0.1574 H   0  0  0  0  0  0  0  0  0  0  0  0
   -0.5695    3.1802    0.7646 H   0  0  0  0  0  0  0  0  0  0  0  0
   -0.3993    3.3123   -0.9005 H   0  0  0  0  0  0  0  0  0  0  0  0
    0.0022    1.3896    0.0116 C   0  0  0  0  0  0  0  0  0  0  0  0
   -1.1825    0.6850    0.0013 C   0  0  0  0  0  0  0  0  0  0  0  0
   -1.9900    1.1452    0.0109 H   0  0  0  0  0  0  0  0  0  0  0  0
   -1.1852   -0.7033   -0.0000 C   0  0  0  0  0  0  0  0  0  0  0  0
   -1.9904   -1.1692   -0.0064 H   0  0  0  0  0  0  0  0  0  0  0  0
   -0.0074   -1.3747   -0.0105 C   0  0  0  0  0  0  0  0  0  0  0  0
   -0.0033   -2.3053   -0.0162 H   0  0  0  0  0  0  0  0  0  0  0  0
    1.1852   -0.6833   -0.0000 C   0  0  0  0  0  0  0  0  0  0  0  0
    1.9903   -1.1481   -0.0102 H   0  0  0  0  0  0  0  0  0  0  0  0
    1.1877    0.6867   -0.0024 C   0  0  0  0  0  0  0  0  0  0  0  0
    1.9966    1.1463    0.0071 H   0  0  0  0  0  0  0  0  0  0  0  0
  1  5  1  0
  5  6  1  0
  5  7  2  0
  1  2  1  0
  1  3  1  0
  1  4  1  0
  8 12  1  0
 12 13  2  0
 13 15  1  0
 15 17  2  0
 17 19  1  0
 19 21  2  0
 21 12  1  0
  8  9  1  0
  8 10  1  0
  8 11  1  0
 13 14  1  0
 15 16  1  0
 17 18  1  0
 19 20  1  0
 21 22  1  0
M  CHG  1   6  -1
M  END
>  <PDB_ID>  (2327) 
pdb6gib

>  <RESIDUE_NAME>  (2327) 
GLU   PHE

>  <FRAG_NAME>  (2327) 
ACET   MBZ

>  <FRAG_ATOM_NUM>  (2327) 
fragi: 7  fragj: 15

>  <atom.prop.CHAIN_ID>  (2327) 
A A A A A A A Z Z Z Z Z Z Z Z Z Z Z Z Z Z Z

>  <atom.prop.IS_HEAVY_ATOM>  (2327) 
1 0 0 0 1 1 1 1 0 0 0 1 1 0 1 0 1 0 1 0 1 0

>  <DIFUSE_FUNC_ATOM>  (2327) 
atom 6   atom 7   

>  <FINAL_SINGLE_POINT_ENERGY>  (2327) 
0

>  <NONCOV_INTER_ENERGY_QM>  (2327) 
0

>  <FF_Energy>  (2327) 
-0.72

>  <QM_Energy>  (2327) 
-6.61

>  <source>  (2327) 
ACET_MBZ_02

>  <Index>  (2327) 
27593

$$$$
ACET-pdb5gli-A-GLU-236:MBZ-pdb5gli-A-PHE-240
     RDKit          3D

 22 21  0  0  0  0  0  0  0  0999 V2000
   -5.6551   -0.7803   -2.3499 C   0  0  0  0  0  0  0  0  0  0  0  0
   -6.6045   -0.5500   -2.2306 H   0  0  0  0  0  0  0  0  0  0  0  0
   -5.5053   -1.3291   -3.1536 H   0  0  0  0  0  0  0  0  0  0  0  0
   -5.0895    0.1454   -2.4562 H   0  0  0  0  0  0  0  0  0  0  0  0
   -5.2293   -1.6019   -1.1495 C   0  0  0  0  0  0  0  0  0  0  0  0
   -6.0605   -2.3841   -0.6450 O   0  0  0  0  0  1  0  0  0  0  0  0
   -4.0679   -1.4729   -0.7120 O   0  0  0  0  0  0  0  0  0  0  0  0
    0.0058    2.8965   -0.0006 C   0  0  0  0  0  0  0  0  0  0  0  0
   -0.7350    3.2045   -0.5783 H   0  0  0  0  0  0  0  0  0  0  0  0
    0.8811    3.1994   -0.3450 H   0  0  0  0  0  0  0  0  0  0  0  0
   -0.1349    3.3358    0.9870 H   0  0  0  0  0  0  0  0  0  0  0  0
    0.0011    1.3954    0.0004 C   0  0  0  0  0  0  0  0  0  0  0  0
   -1.1915    0.6893   -0.0008 C   0  0  0  0  0  0  0  0  0  0  0  0
   -2.0588    1.1814   -0.0037 H   0  0  0  0  0  0  0  0  0  0  0  0
   -1.1935   -0.6926    0.0000 C   0  0  0  0  0  0  0  0  0  0  0  0
   -2.0734   -1.1892    0.0022 H   0  0  0  0  0  0  0  0  0  0  0  0
   -0.0003   -1.3851   -0.0003 C   0  0  0  0  0  0  0  0  0  0  0  0
   -0.0051   -2.3866   -0.0008 H   0  0  0  0  0  0  0  0  0  0  0  0
    1.1935   -0.6944   -0.0000 C   0  0  0  0  0  0  0  0  0  0  0  0
    2.0767   -1.1942    0.0015 H   0  0  0  0  0  0  0  0  0  0  0  0
    1.1907    0.6874    0.0007 C   0  0  0  0  0  0  0  0  0  0  0  0
    2.0616    1.1845    0.0007 H   0  0  0  0  0  0  0  0  0  0  0  0
  1  5  1  0
  5  6  1  0
  5  7  2  0
  1  2  1  0
  1  3  1  0
  1  4  1  0
  8 12  1  0
 12 13  2  0
 13 15  1  0
 15 17  2  0
 17 19  1  0
 19 21  2  0
 21 12  1  0
  8  9  1  0
  8 10  1  0
  8 11  1  0
 13 14  1  0
 15 16  1  0
 17 18  1  0
 19 20  1  0
 21 22  1  0
M  CHG  1   6  -1
M  END
>  <PDB_ID>  (2328) 
pdb5gli

>  <RESIDUE_NAME>  (2328) 
GLU   PHE

>  <FRAG_NAME>  (2328) 
ACET   MBZ

>  <FRAG_ATOM_NUM>  (2328) 
fragi: 7  fragj: 15

>  <atom.prop.CHAIN_ID>  (2328) 
A A A A A A A Z Z Z Z Z Z Z Z Z Z Z Z Z Z Z

>  <atom.prop.IS_HEAVY_ATOM>  (2328) 
1 0 0 0 1 1 1 1 0 0 0 1 1 0 1 0 1 0 1 0 1 0

>  <DIFUSE_FUNC_ATOM>  (2328) 
atom 6   atom 7   

>  <FINAL_SINGLE_POINT_ENERGY>  (2328) 
0

>  <NONCOV_INTER_ENERGY_QM>  (2328) 
0

>  <FF_Energy>  (2328) 
0.32

>  <QM_Energy>  (2328) 
-6.11

>  <source>  (2328) 
ACET_MBZ_02

>  <Index>  (2328) 
27677

$$$$
ACET-pdb6g9c-B-ASP-374:MBZ-pdb6g9c-B-PHE-379
     RDKit          3D

 22 21  0  0  0  0  0  0  0  0999 V2000
    3.5933    5.0440    1.7676 C   0  0  0  0  0  0  0  0  0  0  0  0
    2.7927    5.2325    2.3194 H   0  0  0  0  0  0  0  0  0  0  0  0
    4.1962    5.8284    1.7377 H   0  0  0  0  0  0  0  0  0  0  0  0
    4.1330    4.2080    2.2124 H   0  0  0  0  0  0  0  0  0  0  0  0
    3.1211    4.7482    0.3270 C   0  0  0  0  0  0  0  0  0  0  0  0
    3.2203    3.5901   -0.1185 O   0  0  0  0  0  1  0  0  0  0  0  0
    2.6660    5.6844   -0.3622 O   0  0  0  0  0  0  0  0  0  0  0  0
   -0.0005    2.8847    0.0062 C   0  0  0  0  0  0  0  0  0  0  0  0
    0.8989    3.1935    0.2787 H   0  0  0  0  0  0  0  0  0  0  0  0
   -0.6931    3.1909    0.6422 H   0  0  0  0  0  0  0  0  0  0  0  0
   -0.2234    3.3241   -0.9661 H   0  0  0  0  0  0  0  0  0  0  0  0
    0.0013    1.3889    0.0029 C   0  0  0  0  0  0  0  0  0  0  0  0
   -1.1918    0.6889    0.0052 C   0  0  0  0  0  0  0  0  0  0  0  0
   -2.0579    1.1845    0.0093 H   0  0  0  0  0  0  0  0  0  0  0  0
   -1.1977   -0.6885    0.0000 C   0  0  0  0  0  0  0  0  0  0  0  0
   -2.0764   -1.1854    0.0009 H   0  0  0  0  0  0  0  0  0  0  0  0
   -0.0043   -1.3805   -0.0045 C   0  0  0  0  0  0  0  0  0  0  0  0
   -0.0100   -2.3845   -0.0113 H   0  0  0  0  0  0  0  0  0  0  0  0
    1.1977   -0.6950   -0.0000 C   0  0  0  0  0  0  0  0  0  0  0  0
    2.0752   -1.1983    0.0074 H   0  0  0  0  0  0  0  0  0  0  0  0
    1.1947    0.6862   -0.0037 C   0  0  0  0  0  0  0  0  0  0  0  0
    2.0629    1.1855   -0.0124 H   0  0  0  0  0  0  0  0  0  0  0  0
  1  5  1  0
  5  6  1  0
  5  7  2  0
  1  2  1  0
  1  3  1  0
  1  4  1  0
  8 12  1  0
 12 13  2  0
 13 15  1  0
 15 17  2  0
 17 19  1  0
 19 21  2  0
 21 12  1  0
  8  9  1  0
  8 10  1  0
  8 11  1  0
 13 14  1  0
 15 16  1  0
 17 18  1  0
 19 20  1  0
 21 22  1  0
M  CHG  1   6  -1
M  END
>  <PDB_ID>  (2329) 
pdb6g9c

>  <RESIDUE_NAME>  (2329) 
ASP   PHE

>  <FRAG_NAME>  (2329) 
ACET   MBZ

>  <FRAG_ATOM_NUM>  (2329) 
fragi: 7  fragj: 15

>  <atom.prop.CHAIN_ID>  (2329) 
A A A A A A A Z Z Z Z Z Z Z Z Z Z Z Z Z Z Z

>  <atom.prop.IS_HEAVY_ATOM>  (2329) 
1 0 0 0 1 1 1 1 0 0 0 1 1 0 1 0 1 0 1 0 1 0

>  <DIFUSE_FUNC_ATOM>  (2329) 
atom 6   atom 7   

>  <FINAL_SINGLE_POINT_ENERGY>  (2329) 
0

>  <NONCOV_INTER_ENERGY_QM>  (2329) 
0

>  <FF_Energy>  (2329) 
-1.88

>  <QM_Energy>  (2329) 
-7.79

>  <source>  (2329) 
ACET_MBZ_02

>  <Index>  (2329) 
27694

$$$$
ACET-pdb6gmg-B-GLU-103:MBZ-pdb6gmg-B-PHE-108
     RDKit          3D

 22 21  0  0  0  0  0  0  0  0999 V2000
   -2.9999    5.4505   -0.6409 C   0  0  0  0  0  0  0  0  0  0  0  0
   -2.0477    5.2944   -0.8199 H   0  0  0  0  0  0  0  0  0  0  0  0
   -3.1531    6.2378   -0.0758 H   0  0  0  0  0  0  0  0  0  0  0  0
   -3.5074    5.6047   -1.5931 H   0  0  0  0  0  0  0  0  0  0  0  0
   -3.5311    4.2420    0.1043 C   0  0  0  0  0  0  0  0  0  0  0  0
   -4.1558    4.4240    1.1711 O   0  0  0  0  0  1  0  0  0  0  0  0
   -3.3295    3.1094   -0.3816 O   0  0  0  0  0  0  0  0  0  0  0  0
   -0.0007    2.9003   -0.0082 C   0  0  0  0  0  0  0  0  0  0  0  0
   -0.7162    3.2008   -0.6227 H   0  0  0  0  0  0  0  0  0  0  0  0
    0.8887    3.2031   -0.3197 H   0  0  0  0  0  0  0  0  0  0  0  0
   -0.1849    3.3545    0.9654 H   0  0  0  0  0  0  0  0  0  0  0  0
   -0.0006    1.3953    0.0033 C   0  0  0  0  0  0  0  0  0  0  0  0
   -1.1918    0.6888   -0.0011 C   0  0  0  0  0  0  0  0  0  0  0  0
   -2.0600    1.1800   -0.0066 H   0  0  0  0  0  0  0  0  0  0  0  0
   -1.1946   -0.6937    0.0000 C   0  0  0  0  0  0  0  0  0  0  0  0
   -2.0731   -1.1898    0.0028 H   0  0  0  0  0  0  0  0  0  0  0  0
    0.0011   -1.3856   -0.0003 C   0  0  0  0  0  0  0  0  0  0  0  0
   -0.0032   -2.3874   -0.0016 H   0  0  0  0  0  0  0  0  0  0  0  0
    1.1946   -0.6936    0.0000 C   0  0  0  0  0  0  0  0  0  0  0  0
    2.0786   -1.1935    0.0034 H   0  0  0  0  0  0  0  0  0  0  0  0
    1.1913    0.6888   -0.0018 C   0  0  0  0  0  0  0  0  0  0  0  0
    2.0604    1.1872   -0.0083 H   0  0  0  0  0  0  0  0  0  0  0  0
  1  5  1  0
  5  6  1  0
  5  7  2  0
  1  2  1  0
  1  3  1  0
  1  4  1  0
  8 12  1  0
 12 13  2  0
 13 15  1  0
 15 17  2  0
 17 19  1  0
 19 21  2  0
 21 12  1  0
  8  9  1  0
  8 10  1  0
  8 11  1  0
 13 14  1  0
 15 16  1  0
 17 18  1  0
 19 20  1  0
 21 22  1  0
M  CHG  1   6  -1
M  END
>  <PDB_ID>  (2330) 
pdb6gmg

>  <RESIDUE_NAME>  (2330) 
GLU   PHE

>  <FRAG_NAME>  (2330) 
ACET   MBZ

>  <FRAG_ATOM_NUM>  (2330) 
fragi: 7  fragj: 15

>  <atom.prop.CHAIN_ID>  (2330) 
A A A A A A A Z Z Z Z Z Z Z Z Z Z Z Z Z Z Z

>  <atom.prop.IS_HEAVY_ATOM>  (2330) 
1 0 0 0 1 1 1 1 0 0 0 1 1 0 1 0 1 0 1 0 1 0

>  <DIFUSE_FUNC_ATOM>  (2330) 
atom 6   atom 7   

>  <FINAL_SINGLE_POINT_ENERGY>  (2330) 
0

>  <NONCOV_INTER_ENERGY_QM>  (2330) 
0

>  <FF_Energy>  (2330) 
-1.87

>  <QM_Energy>  (2330) 
-8.15

>  <source>  (2330) 
ACET_MBZ_02

>  <Index>  (2330) 
27716

$$$$
ACET-pdb5ghf-B-GLU-259:MBZ-pdb5ghf-B-PHE-271
     RDKit          3D

 22 21  0  0  0  0  0  0  0  0999 V2000
   -4.6044    2.3604    2.2167 C   0  0  0  0  0  0  0  0  0  0  0  0
   -5.2294    2.9326    2.7196 H   0  0  0  0  0  0  0  0  0  0  0  0
   -4.0206    1.8402    2.8174 H   0  0  0  0  0  0  0  0  0  0  0  0
   -5.1867    1.6631    1.6145 H   0  0  0  0  0  0  0  0  0  0  0  0
   -3.7205    3.2645    1.3900 C   0  0  0  0  0  0  0  0  0  0  0  0
   -3.8507    3.3131    0.0807 O   0  0  0  0  0  1  0  0  0  0  0  0
   -2.7948    3.8400    2.0398 O   0  0  0  0  0  0  0  0  0  0  0  0
   -0.0487    2.8779   -0.0048 C   0  0  0  0  0  0  0  0  0  0  0  0
    0.8556    3.2179    0.1893 H   0  0  0  0  0  0  0  0  0  0  0  0
   -0.7070    3.1793    0.6642 H   0  0  0  0  0  0  0  0  0  0  0  0
   -0.3520    3.2861   -0.9688 H   0  0  0  0  0  0  0  0  0  0  0  0
   -0.0077    1.3869    0.0074 C   0  0  0  0  0  0  0  0  0  0  0  0
   -1.1785    0.6580    0.0041 C   0  0  0  0  0  0  0  0  0  0  0  0
   -2.0636    1.1257    0.0030 H   0  0  0  0  0  0  0  0  0  0  0  0
   -1.1743   -0.7515   -0.0000 C   0  0  0  0  0  0  0  0  0  0  0  0
   -2.0415   -1.2402    0.0052 H   0  0  0  0  0  0  0  0  0  0  0  0
    0.0282   -1.3893   -0.0096 C   0  0  0  0  0  0  0  0  0  0  0  0
    0.0706   -2.3907   -0.0234 H   0  0  0  0  0  0  0  0  0  0  0  0
    1.1743   -0.6464    0.0000 C   0  0  0  0  0  0  0  0  0  0  0  0
    2.0916   -1.1193    0.0106 H   0  0  0  0  0  0  0  0  0  0  0  0
    1.1580    0.7422   -0.0019 C   0  0  0  0  0  0  0  0  0  0  0  0
    2.0321    1.2324   -0.0114 H   0  0  0  0  0  0  0  0  0  0  0  0
  1  5  1  0
  5  6  1  0
  5  7  2  0
  1  2  1  0
  1  3  1  0
  1  4  1  0
  8 12  1  0
 12 13  2  0
 13 15  1  0
 15 17  2  0
 17 19  1  0
 19 21  2  0
 21 12  1  0
  8  9  1  0
  8 10  1  0
  8 11  1  0
 13 14  1  0
 15 16  1  0
 17 18  1  0
 19 20  1  0
 21 22  1  0
M  CHG  1   6  -1
M  END
>  <PDB_ID>  (2331) 
pdb5ghf

>  <RESIDUE_NAME>  (2331) 
GLU   PHE

>  <FRAG_NAME>  (2331) 
ACET   MBZ

>  <FRAG_ATOM_NUM>  (2331) 
fragi: 7  fragj: 15

>  <atom.prop.CHAIN_ID>  (2331) 
A A A A A A A Z Z Z Z Z Z Z Z Z Z Z Z Z Z Z

>  <atom.prop.IS_HEAVY_ATOM>  (2331) 
1 0 0 0 1 1 1 1 0 0 0 1 1 0 1 0 1 0 1 0 1 0

>  <DIFUSE_FUNC_ATOM>  (2331) 
atom 6   atom 7   

>  <FINAL_SINGLE_POINT_ENERGY>  (2331) 
0

>  <NONCOV_INTER_ENERGY_QM>  (2331) 
0

>  <FF_Energy>  (2331) 
-2.5

>  <QM_Energy>  (2331) 
-8.04

>  <source>  (2331) 
ACET_MBZ_02

>  <Index>  (2331) 
27761

$$$$
ACET-pdb6gnc-A-ASP-135:MBZ-pdb6gnc-A-PHE-215
     RDKit          3D

 22 21  0  0  0  0  0  0  0  0999 V2000
   -2.4852   -3.0082    1.6301 C   0  0  0  0  0  0  0  0  0  0  0  0
   -2.0149   -2.1600    1.6412 H   0  0  0  0  0  0  0  0  0  0  0  0
   -2.2610   -3.5025    0.8263 H   0  0  0  0  0  0  0  0  0  0  0  0
   -2.1883   -3.5920    2.5013 H   0  0  0  0  0  0  0  0  0  0  0  0
   -3.9709   -2.7238    1.6090 C   0  0  0  0  0  0  0  0  0  0  0  0
   -4.7593   -3.6919    1.5779 O   0  0  0  0  0  1  0  0  0  0  0  0
   -4.3520   -1.5339    1.6312 O   0  0  0  0  0  0  0  0  0  0  0  0
   -0.0054    2.8822   -0.0327 C   0  0  0  0  0  0  0  0  0  0  0  0
    0.9134    3.1883    0.0272 H   0  0  0  0  0  0  0  0  0  0  0  0
   -0.5117    3.1992    0.7317 H   0  0  0  0  0  0  0  0  0  0  0  0
   -0.4524    3.2798   -0.9439 H   0  0  0  0  0  0  0  0  0  0  0  0
    0.0014    1.3883    0.0052 C   0  0  0  0  0  0  0  0  0  0  0  0
   -1.1887    0.6836   -0.0065 C   0  0  0  0  0  0  0  0  0  0  0  0
   -1.9963    1.1449   -0.0175 H   0  0  0  0  0  0  0  0  0  0  0  0
   -1.1908   -0.6919    0.0000 C   0  0  0  0  0  0  0  0  0  0  0  0
   -1.9968   -1.1565    0.0005 H   0  0  0  0  0  0  0  0  0  0  0  0
   -0.0012   -1.3787    0.0037 C   0  0  0  0  0  0  0  0  0  0  0  0
   -0.0000   -2.3085    0.0085 H   0  0  0  0  0  0  0  0  0  0  0  0
    1.1908   -0.6878   -0.0000 C   0  0  0  0  0  0  0  0  0  0  0  0
    1.9966   -1.1519   -0.0002 H   0  0  0  0  0  0  0  0  0  0  0  0
    1.1885    0.6865   -0.0024 C   0  0  0  0  0  0  0  0  0  0  0  0
    1.9955    1.1474   -0.0081 H   0  0  0  0  0  0  0  0  0  0  0  0
  1  5  1  0
  5  6  1  0
  5  7  2  0
  1  2  1  0
  1  3  1  0
  1  4  1  0
  8 12  1  0
 12 13  2  0
 13 15  1  0
 15 17  2  0
 17 19  1  0
 19 21  2  0
 21 12  1  0
  8  9  1  0
  8 10  1  0
  8 11  1  0
 13 14  1  0
 15 16  1  0
 17 18  1  0
 19 20  1  0
 21 22  1  0
M  CHG  1   6  -1
M  END
>  <PDB_ID>  (2332) 
pdb6gnc

>  <RESIDUE_NAME>  (2332) 
ASP   PHE

>  <FRAG_NAME>  (2332) 
ACET   MBZ

>  <FRAG_ATOM_NUM>  (2332) 
fragi: 7  fragj: 15

>  <atom.prop.CHAIN_ID>  (2332) 
A A A A A A A Z Z Z Z Z Z Z Z Z Z Z Z Z Z Z

>  <atom.prop.IS_HEAVY_ATOM>  (2332) 
1 0 0 0 1 1 1 1 0 0 0 1 1 0 1 0 1 0 1 0 1 0

>  <DIFUSE_FUNC_ATOM>  (2332) 
atom 6   atom 7   

>  <FINAL_SINGLE_POINT_ENERGY>  (2332) 
0

>  <NONCOV_INTER_ENERGY_QM>  (2332) 
0

>  <FF_Energy>  (2332) 
3.5

>  <QM_Energy>  (2332) 
-1.56

>  <source>  (2332) 
ACET_MBZ_02

>  <Index>  (2332) 
27790

$$$$
ACET-pdb6gny-A-GLU-12:MBZ-pdb6gny-A-PHE-6
     RDKit          3D

 22 21  0  0  0  0  0  0  0  0999 V2000
    5.3092    2.7086    1.0180 C   0  0  0  0  0  0  0  0  0  0  0  0
    5.2371    2.9881    0.0922 H   0  0  0  0  0  0  0  0  0  0  0  0
    5.5994    1.7842    1.0644 H   0  0  0  0  0  0  0  0  0  0  0  0
    6.0390    3.3382    1.5270 H   0  0  0  0  0  0  0  0  0  0  0  0
    3.9358    2.8039    1.6478 C   0  0  0  0  0  0  0  0  0  0  0  0
    3.8187    2.5255    2.8589 O   0  0  0  0  0  1  0  0  0  0  0  0
    2.9783    3.1734    0.9410 O   0  0  0  0  0  0  0  0  0  0  0  0
    0.0004    2.9017    0.0068 C   0  0  0  0  0  0  0  0  0  0  0  0
   -0.7781    3.2002   -0.4904 H   0  0  0  0  0  0  0  0  0  0  0  0
    0.8102    3.2006   -0.4348 H   0  0  0  0  0  0  0  0  0  0  0  0
   -0.0347    3.3343    1.0067 H   0  0  0  0  0  0  0  0  0  0  0  0
    0.0009    1.3978   -0.0004 C   0  0  0  0  0  0  0  0  0  0  0  0
   -1.1918    0.6890    0.0027 C   0  0  0  0  0  0  0  0  0  0  0  0
   -1.9995    1.1492    0.0069 H   0  0  0  0  0  0  0  0  0  0  0  0
   -1.1933   -0.6997   -0.0000 C   0  0  0  0  0  0  0  0  0  0  0  0
   -1.9980   -1.1648   -0.0020 H   0  0  0  0  0  0  0  0  0  0  0  0
    0.0009   -1.3875   -0.0004 C   0  0  0  0  0  0  0  0  0  0  0  0
    0.0028   -2.3175    0.0005 H   0  0  0  0  0  0  0  0  0  0  0  0
    1.1933   -0.6935   -0.0000 C   0  0  0  0  0  0  0  0  0  0  0  0
    2.0004   -1.1559    0.0010 H   0  0  0  0  0  0  0  0  0  0  0  0
    1.1900    0.6939   -0.0019 C   0  0  0  0  0  0  0  0  0  0  0  0
    1.9971    1.1554   -0.0033 H   0  0  0  0  0  0  0  0  0  0  0  0
  1  5  1  0
  5  6  1  0
  5  7  2  0
  1  2  1  0
  1  3  1  0
  1  4  1  0
  8 12  1  0
 12 13  2  0
 13 15  1  0
 15 17  2  0
 17 19  1  0
 19 21  2  0
 21 12  1  0
  8  9  1  0
  8 10  1  0
  8 11  1  0
 13 14  1  0
 15 16  1  0
 17 18  1  0
 19 20  1  0
 21 22  1  0
M  CHG  1   6  -1
M  END
>  <PDB_ID>  (2333) 
pdb6gny

>  <RESIDUE_NAME>  (2333) 
GLU   PHE

>  <FRAG_NAME>  (2333) 
ACET   MBZ

>  <FRAG_ATOM_NUM>  (2333) 
fragi: 7  fragj: 15

>  <atom.prop.CHAIN_ID>  (2333) 
A A A A A A A Z Z Z Z Z Z Z Z Z Z Z Z Z Z Z

>  <atom.prop.IS_HEAVY_ATOM>  (2333) 
1 0 0 0 1 1 1 1 0 0 0 1 1 0 1 0 1 0 1 0 1 0

>  <DIFUSE_FUNC_ATOM>  (2333) 
atom 6   atom 7   

>  <FINAL_SINGLE_POINT_ENERGY>  (2333) 
0

>  <NONCOV_INTER_ENERGY_QM>  (2333) 
0

>  <FF_Energy>  (2333) 
-0.74

>  <QM_Energy>  (2333) 
-6.6

>  <source>  (2333) 
ACET_MBZ_02

>  <Index>  (2333) 
27812

$$$$
ACET-pdb6gq3-A-ASP-53:MBZ-pdb6gq3-A-PHE-56
     RDKit          3D

 22 21  0  0  0  0  0  0  0  0999 V2000
    3.9939    4.7094   -3.1102 C   0  0  0  0  0  0  0  0  0  0  0  0
    4.8735    4.6766   -2.6561 H   0  0  0  0  0  0  0  0  0  0  0  0
    3.7119    5.6447   -3.2718 H   0  0  0  0  0  0  0  0  0  0  0  0
    4.0894    4.2100   -4.0744 H   0  0  0  0  0  0  0  0  0  0  0  0
    2.9479    4.0430   -2.1828 C   0  0  0  0  0  0  0  0  0  0  0  0
    2.4977    2.9041   -2.4645 O   0  0  0  0  0  1  0  0  0  0  0  0
    2.5958    4.6734   -1.1686 O   0  0  0  0  0  0  0  0  0  0  0  0
   -0.0124    2.9011   -0.0544 C   0  0  0  0  0  0  0  0  0  0  0  0
    0.9148    3.2191   -0.1394 H   0  0  0  0  0  0  0  0  0  0  0  0
   -0.4454    3.2330    0.7644 H   0  0  0  0  0  0  0  0  0  0  0  0
   -0.5718    3.2973   -0.9019 H   0  0  0  0  0  0  0  0  0  0  0  0
    0.0033    1.3997   -0.0088 C   0  0  0  0  0  0  0  0  0  0  0  0
   -1.2001    0.6841   -0.0068 C   0  0  0  0  0  0  0  0  0  0  0  0
   -2.0638    1.1786   -0.0115 H   0  0  0  0  0  0  0  0  0  0  0  0
   -1.2016   -0.7003   -0.0000 C   0  0  0  0  0  0  0  0  0  0  0  0
   -2.0747   -1.1999   -0.0051 H   0  0  0  0  0  0  0  0  0  0  0  0
    0.0029   -1.3914    0.0157 C   0  0  0  0  0  0  0  0  0  0  0  0
    0.0030   -2.3897    0.0377 H   0  0  0  0  0  0  0  0  0  0  0  0
    1.2016   -0.6903    0.0000 C   0  0  0  0  0  0  0  0  0  0  0  0
    2.0842   -1.1870   -0.0106 H   0  0  0  0  0  0  0  0  0  0  0  0
    1.1940    0.6983   -0.0001 C   0  0  0  0  0  0  0  0  0  0  0  0
    2.0643    1.1946    0.0049 H   0  0  0  0  0  0  0  0  0  0  0  0
  1  5  1  0
  5  6  1  0
  5  7  2  0
  1  2  1  0
  1  3  1  0
  1  4  1  0
  8 12  1  0
 12 13  2  0
 13 15  1  0
 15 17  2  0
 17 19  1  0
 19 21  2  0
 21 12  1  0
  8  9  1  0
  8 10  1  0
  8 11  1  0
 13 14  1  0
 15 16  1  0
 17 18  1  0
 19 20  1  0
 21 22  1  0
M  CHG  1   6  -1
M  END
>  <PDB_ID>  (2334) 
pdb6gq3

>  <RESIDUE_NAME>  (2334) 
ASP   PHE

>  <FRAG_NAME>  (2334) 
ACET   MBZ

>  <FRAG_ATOM_NUM>  (2334) 
fragi: 7  fragj: 15

>  <atom.prop.CHAIN_ID>  (2334) 
A A A A A A A Z Z Z Z Z Z Z Z Z Z Z Z Z Z Z

>  <atom.prop.IS_HEAVY_ATOM>  (2334) 
1 0 0 0 1 1 1 1 0 0 0 1 1 0 1 0 1 0 1 0 1 0

>  <DIFUSE_FUNC_ATOM>  (2334) 
atom 6   atom 7   

>  <FINAL_SINGLE_POINT_ENERGY>  (2334) 
0

>  <NONCOV_INTER_ENERGY_QM>  (2334) 
0

>  <FF_Energy>  (2334) 
-0.95

>  <QM_Energy>  (2334) 
-7.12

>  <source>  (2334) 
ACET_MBZ_02

>  <Index>  (2334) 
27858

$$$$
ACET-pdb6gs2-C-ASP-19:MBZ-pdb6gs2-C-PHE-57
     RDKit          3D

 22 21  0  0  0  0  0  0  0  0999 V2000
    3.5428   -2.7485   -2.2881 C   0  0  0  0  0  0  0  0  0  0  0  0
    4.2101   -3.3678   -2.6756 H   0  0  0  0  0  0  0  0  0  0  0  0
    3.6524   -1.8343   -2.6474 H   0  0  0  0  0  0  0  0  0  0  0  0
    2.5474   -3.1060   -2.5517 H   0  0  0  0  0  0  0  0  0  0  0  0
    3.7927   -2.6858   -0.7413 C   0  0  0  0  0  0  0  0  0  0  0  0
    3.0684   -3.3620    0.0303 O   0  0  0  0  0  1  0  0  0  0  0  0
    4.7046   -1.9302   -0.2887 O   0  0  0  0  0  0  0  0  0  0  0  0
   -0.0074    2.8964    0.0147 C   0  0  0  0  0  0  0  0  0  0  0  0
   -0.8058    3.2091   -0.4772 H   0  0  0  0  0  0  0  0  0  0  0  0
    0.8254    3.2160   -0.4112 H   0  0  0  0  0  0  0  0  0  0  0  0
   -0.0493    3.3262    1.0155 H   0  0  0  0  0  0  0  0  0  0  0  0
   -0.0004    1.4047    0.0035 C   0  0  0  0  0  0  0  0  0  0  0  0
   -1.1874    0.7036   -0.0026 C   0  0  0  0  0  0  0  0  0  0  0  0
   -2.0593    1.1948   -0.0105 H   0  0  0  0  0  0  0  0  0  0  0  0
   -1.2071   -0.6916    0.0000 C   0  0  0  0  0  0  0  0  0  0  0  0
   -2.0898   -1.1740    0.0066 H   0  0  0  0  0  0  0  0  0  0  0  0
   -0.0124   -1.4055   -0.0048 C   0  0  0  0  0  0  0  0  0  0  0  0
   -0.0185   -2.3973   -0.0123 H   0  0  0  0  0  0  0  0  0  0  0  0
    1.2071   -0.7063   -0.0000 C   0  0  0  0  0  0  0  0  0  0  0  0
    2.0795   -1.2047    0.0018 H   0  0  0  0  0  0  0  0  0  0  0  0
    1.2002    0.6952    0.0039 C   0  0  0  0  0  0  0  0  0  0  0  0
    2.0670    1.1890    0.0058 H   0  0  0  0  0  0  0  0  0  0  0  0
  1  5  1  0
  5  6  1  0
  5  7  2  0
  1  2  1  0
  1  3  1  0
  1  4  1  0
  8 12  1  0
 12 13  2  0
 13 15  1  0
 15 17  2  0
 17 19  1  0
 19 21  2  0
 21 12  1  0
  8  9  1  0
  8 10  1  0
  8 11  1  0
 13 14  1  0
 15 16  1  0
 17 18  1  0
 19 20  1  0
 21 22  1  0
M  CHG  1   6  -1
M  END
>  <PDB_ID>  (2335) 
pdb6gs2

>  <RESIDUE_NAME>  (2335) 
ASP   PHE

>  <FRAG_NAME>  (2335) 
ACET   MBZ

>  <FRAG_ATOM_NUM>  (2335) 
fragi: 7  fragj: 15

>  <atom.prop.CHAIN_ID>  (2335) 
A A A A A A A Z Z Z Z Z Z Z Z Z Z Z Z Z Z Z

>  <atom.prop.IS_HEAVY_ATOM>  (2335) 
1 0 0 0 1 1 1 1 0 0 0 1 1 0 1 0 1 0 1 0 1 0

>  <DIFUSE_FUNC_ATOM>  (2335) 
atom 6   atom 7   

>  <FINAL_SINGLE_POINT_ENERGY>  (2335) 
0

>  <NONCOV_INTER_ENERGY_QM>  (2335) 
0

>  <FF_Energy>  (2335) 
-0.67

>  <QM_Energy>  (2335) 
-6.23

>  <source>  (2335) 
ACET_MBZ_02

>  <Index>  (2335) 
27992

$$$$
ACET-pdb6gmg-B-ASP-304:MBZ-pdb6gmg-B-PHE-251
     RDKit          3D

 22 21  0  0  0  0  0  0  0  0999 V2000
   -3.5424    2.9714    2.1303 C   0  0  0  0  0  0  0  0  0  0  0  0
   -4.2766    3.4514    2.5958 H   0  0  0  0  0  0  0  0  0  0  0  0
   -2.7584    3.5679    2.0090 H   0  0  0  0  0  0  0  0  0  0  0  0
   -3.2361    2.1347    2.7582 H   0  0  0  0  0  0  0  0  0  0  0  0
   -4.0360    2.5285    0.7665 C   0  0  0  0  0  0  0  0  0  0  0  0
   -4.9917    1.7269    0.7059 O   0  0  0  0  0  1  0  0  0  0  0  0
   -3.4743    2.9910   -0.2463 O   0  0  0  0  0  0  0  0  0  0  0  0
    0.0023    2.8979    0.0076 C   0  0  0  0  0  0  0  0  0  0  0  0
    0.9284    3.2034    0.1709 H   0  0  0  0  0  0  0  0  0  0  0  0
   -0.6079    3.2019    0.7236 H   0  0  0  0  0  0  0  0  0  0  0  0
   -0.3339    3.3492   -0.9258 H   0  0  0  0  0  0  0  0  0  0  0  0
    0.0003    1.3950   -0.0021 C   0  0  0  0  0  0  0  0  0  0  0  0
   -1.1921    0.6893    0.0016 C   0  0  0  0  0  0  0  0  0  0  0  0
   -2.0597    1.1817    0.0042 H   0  0  0  0  0  0  0  0  0  0  0  0
   -1.1955   -0.6932    0.0000 C   0  0  0  0  0  0  0  0  0  0  0  0
   -2.0741   -1.1893    0.0005 H   0  0  0  0  0  0  0  0  0  0  0  0
   -0.0007   -1.3859   -0.0006 C   0  0  0  0  0  0  0  0  0  0  0  0
   -0.0049   -2.3870   -0.0022 H   0  0  0  0  0  0  0  0  0  0  0  0
    1.1955   -0.6941   -0.0000 C   0  0  0  0  0  0  0  0  0  0  0  0
    2.0781   -1.1944    0.0006 H   0  0  0  0  0  0  0  0  0  0  0  0
    1.1925    0.6888    0.0010 C   0  0  0  0  0  0  0  0  0  0  0  0
    2.0613    1.1871    0.0031 H   0  0  0  0  0  0  0  0  0  0  0  0
  1  5  1  0
  5  6  1  0
  5  7  2  0
  1  2  1  0
  1  3  1  0
  1  4  1  0
  8 12  1  0
 12 13  2  0
 13 15  1  0
 15 17  2  0
 17 19  1  0
 19 21  2  0
 21 12  1  0
  8  9  1  0
  8 10  1  0
  8 11  1  0
 13 14  1  0
 15 16  1  0
 17 18  1  0
 19 20  1  0
 21 22  1  0
M  CHG  1   6  -1
M  END
>  <PDB_ID>  (2336) 
pdb6gmg

>  <RESIDUE_NAME>  (2336) 
ASP   PHE

>  <FRAG_NAME>  (2336) 
ACET   MBZ

>  <FRAG_ATOM_NUM>  (2336) 
fragi: 7  fragj: 15

>  <atom.prop.CHAIN_ID>  (2336) 
A A A A A A A Z Z Z Z Z Z Z Z Z Z Z Z Z Z Z

>  <atom.prop.IS_HEAVY_ATOM>  (2336) 
1 0 0 0 1 1 1 1 0 0 0 1 1 0 1 0 1 0 1 0 1 0

>  <DIFUSE_FUNC_ATOM>  (2336) 
atom 6   atom 7   

>  <FINAL_SINGLE_POINT_ENERGY>  (2336) 
0

>  <NONCOV_INTER_ENERGY_QM>  (2336) 
0

>  <FF_Energy>  (2336) 
-1.26

>  <QM_Energy>  (2336) 
-7.34

>  <source>  (2336) 
ACET_MBZ_02

>  <Index>  (2336) 
28070

$$$$
ACET-pdb6gw4-A-GLU-430:MBZ-pdb6gw4-A-PHE-427
     RDKit          3D

 22 21  0  0  0  0  0  0  0  0999 V2000
    3.9325    4.0670   -0.8375 C   0  0  0  0  0  0  0  0  0  0  0  0
    4.7755    3.8634   -1.3011 H   0  0  0  0  0  0  0  0  0  0  0  0
    3.7261    3.4098   -0.1350 H   0  0  0  0  0  0  0  0  0  0  0  0
    4.0288    5.0474   -0.3710 H   0  0  0  0  0  0  0  0  0  0  0  0
    2.8151    4.0014   -1.8680 C   0  0  0  0  0  0  0  0  0  0  0  0
    2.2816    5.0676   -2.2478 O   0  0  0  0  0  1  0  0  0  0  0  0
    2.4709    2.8791   -2.2974 O   0  0  0  0  0  0  0  0  0  0  0  0
   -0.0019    2.8928    0.0016 C   0  0  0  0  0  0  0  0  0  0  0  0
   -0.6689    3.2007   -0.6599 H   0  0  0  0  0  0  0  0  0  0  0  0
    0.9071    3.2048   -0.2318 H   0  0  0  0  0  0  0  0  0  0  0  0
   -0.2635    3.3364    0.9622 H   0  0  0  0  0  0  0  0  0  0  0  0
    0.0003    1.3944    0.0044 C   0  0  0  0  0  0  0  0  0  0  0  0
   -1.1907    0.6902   -0.0020 C   0  0  0  0  0  0  0  0  0  0  0  0
   -2.0594    1.1820   -0.0098 H   0  0  0  0  0  0  0  0  0  0  0  0
   -1.1948   -0.6926    0.0000 C   0  0  0  0  0  0  0  0  0  0  0  0
   -2.0741   -1.1883    0.0042 H   0  0  0  0  0  0  0  0  0  0  0  0
   -0.0009   -1.3850   -0.0016 C   0  0  0  0  0  0  0  0  0  0  0  0
   -0.0060   -2.3870   -0.0049 H   0  0  0  0  0  0  0  0  0  0  0  0
    1.1948   -0.6957   -0.0000 C   0  0  0  0  0  0  0  0  0  0  0  0
    2.0770   -1.1952    0.0035 H   0  0  0  0  0  0  0  0  0  0  0  0
    1.1913    0.6887   -0.0007 C   0  0  0  0  0  0  0  0  0  0  0  0
    2.0614    1.1860   -0.0058 H   0  0  0  0  0  0  0  0  0  0  0  0
  1  5  1  0
  5  6  1  0
  5  7  2  0
  1  2  1  0
  1  3  1  0
  1  4  1  0
  8 12  1  0
 12 13  2  0
 13 15  1  0
 15 17  2  0
 17 19  1  0
 19 21  2  0
 21 12  1  0
  8  9  1  0
  8 10  1  0
  8 11  1  0
 13 14  1  0
 15 16  1  0
 17 18  1  0
 19 20  1  0
 21 22  1  0
M  CHG  1   6  -1
M  END
>  <PDB_ID>  (2337) 
pdb6gw4

>  <RESIDUE_NAME>  (2337) 
GLU   PHE

>  <FRAG_NAME>  (2337) 
ACET   MBZ

>  <FRAG_ATOM_NUM>  (2337) 
fragi: 7  fragj: 15

>  <atom.prop.CHAIN_ID>  (2337) 
A A A A A A A Z Z Z Z Z Z Z Z Z Z Z Z Z Z Z

>  <atom.prop.IS_HEAVY_ATOM>  (2337) 
1 0 0 0 1 1 1 1 0 0 0 1 1 0 1 0 1 0 1 0 1 0

>  <DIFUSE_FUNC_ATOM>  (2337) 
atom 6   atom 7   

>  <FINAL_SINGLE_POINT_ENERGY>  (2337) 
0

>  <NONCOV_INTER_ENERGY_QM>  (2337) 
0

>  <FF_Energy>  (2337) 
-0.48

>  <QM_Energy>  (2337) 
-5.59

>  <source>  (2337) 
ACET_MBZ_02

>  <Index>  (2337) 
28091

$$$$
ACET-pdb5grm-A-GLU-319:MBZ-pdb5grm-A-PHE-323
     RDKit          3D

 22 21  0  0  0  0  0  0  0  0999 V2000
   -0.9579    0.7695   -3.4127 C   0  0  0  0  0  0  0  0  0  0  0  0
   -0.8799    0.2685   -4.2657 H   0  0  0  0  0  0  0  0  0  0  0  0
   -0.4553    0.3118   -2.6900 H   0  0  0  0  0  0  0  0  0  0  0  0
   -0.5583    1.7744   -3.5492 H   0  0  0  0  0  0  0  0  0  0  0  0
   -2.3894    0.7711   -3.0259 C   0  0  0  0  0  0  0  0  0  0  0  0
   -2.7987    1.7446   -2.3841 O   0  0  0  0  0  1  0  0  0  0  0  0
   -3.0949   -0.1813   -3.3654 O   0  0  0  0  0  0  0  0  0  0  0  0
   -0.0087    2.8669   -0.0377 C   0  0  0  0  0  0  0  0  0  0  0  0
   -0.6949    3.1494   -0.7001 H   0  0  0  0  0  0  0  0  0  0  0  0
    0.8954    3.1630   -0.3307 H   0  0  0  0  0  0  0  0  0  0  0  0
   -0.2324    3.3607    0.9080 H   0  0  0  0  0  0  0  0  0  0  0  0
   -0.0083    1.3690    0.0129 C   0  0  0  0  0  0  0  0  0  0  0  0
   -1.1535    0.6768    0.0210 C   0  0  0  0  0  0  0  0  0  0  0  0
   -2.0420    1.1547    0.0411 H   0  0  0  0  0  0  0  0  0  0  0  0
   -1.1455   -0.6873    0.0000 C   0  0  0  0  0  0  0  0  0  0  0  0
   -2.0378   -1.1826   -0.0093 H   0  0  0  0  0  0  0  0  0  0  0  0
    0.0101   -1.3438   -0.0062 C   0  0  0  0  0  0  0  0  0  0  0  0
    0.0025   -2.3684   -0.0169 H   0  0  0  0  0  0  0  0  0  0  0  0
    1.1455   -0.6861   -0.0000 C   0  0  0  0  0  0  0  0  0  0  0  0
    2.0526   -1.1798    0.0273 H   0  0  0  0  0  0  0  0  0  0  0  0
    1.1517    0.6714   -0.0278 C   0  0  0  0  0  0  0  0  0  0  0  0
    2.0316    1.1645   -0.0801 H   0  0  0  0  0  0  0  0  0  0  0  0
  1  5  1  0
  5  6  1  0
  5  7  2  0
  1  2  1  0
  1  3  1  0
  1  4  1  0
  8 12  1  0
 12 13  2  0
 13 15  1  0
 15 17  2  0
 17 19  1  0
 19 21  2  0
 21 12  1  0
  8  9  1  0
  8 10  1  0
  8 11  1  0
 13 14  1  0
 15 16  1  0
 17 18  1  0
 19 20  1  0
 21 22  1  0
M  CHG  1   6  -1
M  END
>  <PDB_ID>  (2338) 
pdb5grm

>  <RESIDUE_NAME>  (2338) 
GLU   PHE

>  <FRAG_NAME>  (2338) 
ACET   MBZ

>  <FRAG_ATOM_NUM>  (2338) 
fragi: 7  fragj: 15

>  <atom.prop.CHAIN_ID>  (2338) 
A A A A A A A Z Z Z Z Z Z Z Z Z Z Z Z Z Z Z

>  <atom.prop.IS_HEAVY_ATOM>  (2338) 
1 0 0 0 1 1 1 1 0 0 0 1 1 0 1 0 1 0 1 0 1 0

>  <DIFUSE_FUNC_ATOM>  (2338) 
atom 6   atom 7   

>  <FINAL_SINGLE_POINT_ENERGY>  (2338) 
0

>  <NONCOV_INTER_ENERGY_QM>  (2338) 
0

>  <FF_Energy>  (2338) 
-0.87

>  <QM_Energy>  (2338) 
-6.38

>  <source>  (2338) 
ACET_MBZ_02

>  <Index>  (2338) 
28108

$$$$
ACET-pdb6gwi-B-GLU-368:MBZ-pdb6gwi-B-PHE-185
     RDKit          3D

 22 21  0  0  0  0  0  0  0  0999 V2000
    3.9811    1.2617    3.1112 C   0  0  0  0  0  0  0  0  0  0  0  0
    4.1330    1.4808    4.0432 H   0  0  0  0  0  0  0  0  0  0  0  0
    4.8271    1.1033    2.6647 H   0  0  0  0  0  0  0  0  0  0  0  0
    3.3765    0.3565    3.0542 H   0  0  0  0  0  0  0  0  0  0  0  0
    3.3205    2.4534    2.4524 C   0  0  0  0  0  0  0  0  0  0  0  0
    2.4701    3.0946    3.1029 O   0  0  0  0  0  1  0  0  0  0  0  0
    3.6475    2.7462    1.2828 O   0  0  0  0  0  0  0  0  0  0  0  0
    0.0033    2.9042   -0.0129 C   0  0  0  0  0  0  0  0  0  0  0  0
    0.8363    3.2042    0.3814 H   0  0  0  0  0  0  0  0  0  0  0  0
   -0.7467    3.2101    0.5215 H   0  0  0  0  0  0  0  0  0  0  0  0
   -0.0839    3.3233   -1.0153 H   0  0  0  0  0  0  0  0  0  0  0  0
   -0.0001    1.3970    0.0025 C   0  0  0  0  0  0  0  0  0  0  0  0
   -1.1921    0.6896   -0.0006 C   0  0  0  0  0  0  0  0  0  0  0  0
   -2.0004    1.1500   -0.0015 H   0  0  0  0  0  0  0  0  0  0  0  0
   -1.1945   -0.6945   -0.0000 C   0  0  0  0  0  0  0  0  0  0  0  0
   -2.0006   -1.1585    0.0003 H   0  0  0  0  0  0  0  0  0  0  0  0
    0.0005   -1.3868    0.0008 C   0  0  0  0  0  0  0  0  0  0  0  0
    0.0010   -2.3163    0.0026 H   0  0  0  0  0  0  0  0  0  0  0  0
    1.1945   -0.6942   -0.0000 C   0  0  0  0  0  0  0  0  0  0  0  0
    2.0007   -1.1577    0.0005 H   0  0  0  0  0  0  0  0  0  0  0  0
    1.1916    0.6888   -0.0027 C   0  0  0  0  0  0  0  0  0  0  0  0
    1.9992    1.1508   -0.0078 H   0  0  0  0  0  0  0  0  0  0  0  0
  1  5  1  0
  5  6  1  0
  5  7  2  0
  1  2  1  0
  1  3  1  0
  1  4  1  0
  8 12  1  0
 12 13  2  0
 13 15  1  0
 15 17  2  0
 17 19  1  0
 19 21  2  0
 21 12  1  0
  8  9  1  0
  8 10  1  0
  8 11  1  0
 13 14  1  0
 15 16  1  0
 17 18  1  0
 19 20  1  0
 21 22  1  0
M  CHG  1   6  -1
M  END
>  <PDB_ID>  (2339) 
pdb6gwi

>  <RESIDUE_NAME>  (2339) 
GLU   PHE

>  <FRAG_NAME>  (2339) 
ACET   MBZ

>  <FRAG_ATOM_NUM>  (2339) 
fragi: 7  fragj: 15

>  <atom.prop.CHAIN_ID>  (2339) 
A A A A A A A Z Z Z Z Z Z Z Z Z Z Z Z Z Z Z

>  <atom.prop.IS_HEAVY_ATOM>  (2339) 
1 0 0 0 1 1 1 1 0 0 0 1 1 0 1 0 1 0 1 0 1 0

>  <DIFUSE_FUNC_ATOM>  (2339) 
atom 6   atom 7   

>  <FINAL_SINGLE_POINT_ENERGY>  (2339) 
0

>  <NONCOV_INTER_ENERGY_QM>  (2339) 
0

>  <FF_Energy>  (2339) 
-2.1

>  <QM_Energy>  (2339) 
-7.3

>  <source>  (2339) 
ACET_MBZ_02

>  <Index>  (2339) 
28128

$$$$
ACET-pdb6gwu-A-GLU-92:MBZ-pdb6gwu-B-PHE-29
     RDKit          3D

 22 21  0  0  0  0  0  0  0  0999 V2000
   -2.1418    2.8812    2.6747 C   0  0  0  0  0  0  0  0  0  0  0  0
   -1.2122    2.6011    2.7059 H   0  0  0  0  0  0  0  0  0  0  0  0
   -2.7160    2.3081    2.1411 H   0  0  0  0  0  0  0  0  0  0  0  0
   -2.5238    2.8798    3.6956 H   0  0  0  0  0  0  0  0  0  0  0  0
   -2.1992    4.2739    2.1046 C   0  0  0  0  0  0  0  0  0  0  0  0
   -1.4496    5.1582    2.6646 O   0  0  0  0  0  1  0  0  0  0  0  0
   -2.9988    4.4604    1.1270 O   0  0  0  0  0  0  0  0  0  0  0  0
    0.0070    2.9084   -0.0818 C   0  0  0  0  0  0  0  0  0  0  0  0
    0.8828    3.2309    0.2251 H   0  0  0  0  0  0  0  0  0  0  0  0
   -0.7310    3.2488    0.4718 H   0  0  0  0  0  0  0  0  0  0  0  0
   -0.1424    3.3017   -1.0873 H   0  0  0  0  0  0  0  0  0  0  0  0
    0.0009    1.3977   -0.0138 C   0  0  0  0  0  0  0  0  0  0  0  0
   -1.2190    0.6861   -0.0128 C   0  0  0  0  0  0  0  0  0  0  0  0
   -2.0719    1.1876   -0.0232 H   0  0  0  0  0  0  0  0  0  0  0  0
   -1.2158   -0.6920    0.0000 C   0  0  0  0  0  0  0  0  0  0  0  0
   -2.0781   -1.2047   -0.0053 H   0  0  0  0  0  0  0  0  0  0  0  0
    0.0100   -1.3851    0.0219 C   0  0  0  0  0  0  0  0  0  0  0  0
    0.0016   -2.3856    0.0526 H   0  0  0  0  0  0  0  0  0  0  0  0
    1.2158   -0.6928    0.0000 C   0  0  0  0  0  0  0  0  0  0  0  0
    2.0920   -1.1961   -0.0179 H   0  0  0  0  0  0  0  0  0  0  0  0
    1.2081    0.6861    0.0048 C   0  0  0  0  0  0  0  0  0  0  0  0
    2.0697    1.1937    0.0212 H   0  0  0  0  0  0  0  0  0  0  0  0
  1  5  1  0
  5  6  1  0
  5  7  2  0
  1  2  1  0
  1  3  1  0
  1  4  1  0
  8 12  1  0
 12 13  2  0
 13 15  1  0
 15 17  2  0
 17 19  1  0
 19 21  2  0
 21 12  1  0
  8  9  1  0
  8 10  1  0
  8 11  1  0
 13 14  1  0
 15 16  1  0
 17 18  1  0
 19 20  1  0
 21 22  1  0
M  CHG  1   6  -1
M  END
>  <PDB_ID>  (2340) 
pdb6gwu

>  <RESIDUE_NAME>  (2340) 
GLU   PHE

>  <FRAG_NAME>  (2340) 
ACET   MBZ

>  <FRAG_ATOM_NUM>  (2340) 
fragi: 7  fragj: 15

>  <atom.prop.CHAIN_ID>  (2340) 
A A A A A A A Z Z Z Z Z Z Z Z Z Z Z Z Z Z Z

>  <atom.prop.IS_HEAVY_ATOM>  (2340) 
1 0 0 0 1 1 1 1 0 0 0 1 1 0 1 0 1 0 1 0 1 0

>  <DIFUSE_FUNC_ATOM>  (2340) 
atom 6   atom 7   

>  <FINAL_SINGLE_POINT_ENERGY>  (2340) 
0

>  <NONCOV_INTER_ENERGY_QM>  (2340) 
0

>  <FF_Energy>  (2340) 
0.01

>  <QM_Energy>  (2340) 
-5.36

>  <source>  (2340) 
ACET_MBZ_02

>  <Index>  (2340) 
28157

$$$$
ACET-pdb6gwu-C-GLU-92:MBZ-pdb6gwu-D-PHE-29
     RDKit          3D

 22 21  0  0  0  0  0  0  0  0999 V2000
   -2.2356    2.8665    2.5827 C   0  0  0  0  0  0  0  0  0  0  0  0
   -1.3064    2.5638    2.5195 H   0  0  0  0  0  0  0  0  0  0  0  0
   -2.8621    2.2742    2.1184 H   0  0  0  0  0  0  0  0  0  0  0  0
   -2.5143    2.9116    3.6355 H   0  0  0  0  0  0  0  0  0  0  0  0
   -2.3165    4.2330    1.9072 C   0  0  0  0  0  0  0  0  0  0  0  0
   -3.1988    4.4245    1.0220 O   0  0  0  0  0  1  0  0  0  0  0  0
   -1.4804    5.0925    2.2660 O   0  0  0  0  0  0  0  0  0  0  0  0
    0.0196    2.9158   -0.1231 C   0  0  0  0  0  0  0  0  0  0  0  0
    0.9073    3.2414    0.1534 H   0  0  0  0  0  0  0  0  0  0  0  0
   -0.6996    3.2821    0.4416 H   0  0  0  0  0  0  0  0  0  0  0  0
   -0.1514    3.2971   -1.1298 H   0  0  0  0  0  0  0  0  0  0  0  0
    0.0020    1.4010   -0.0070 C   0  0  0  0  0  0  0  0  0  0  0  0
   -1.1991    0.6940    0.0056 C   0  0  0  0  0  0  0  0  0  0  0  0
   -2.0632    1.1871    0.0179 H   0  0  0  0  0  0  0  0  0  0  0  0
   -1.2066   -0.6961    0.0000 C   0  0  0  0  0  0  0  0  0  0  0  0
   -2.0808   -1.1906   -0.0053 H   0  0  0  0  0  0  0  0  0  0  0  0
    0.0009   -1.3998    0.0040 C   0  0  0  0  0  0  0  0  0  0  0  0
   -0.0026   -2.3935    0.0093 H   0  0  0  0  0  0  0  0  0  0  0  0
    1.2066   -0.6944   -0.0000 C   0  0  0  0  0  0  0  0  0  0  0  0
    2.0862   -1.1921    0.0008 H   0  0  0  0  0  0  0  0  0  0  0  0
    1.1963    0.6953   -0.0026 C   0  0  0  0  0  0  0  0  0  0  0  0
    2.0661    1.1937   -0.0019 H   0  0  0  0  0  0  0  0  0  0  0  0
  1  5  1  0
  5  6  1  0
  5  7  2  0
  1  2  1  0
  1  3  1  0
  1  4  1  0
  8 12  1  0
 12 13  2  0
 13 15  1  0
 15 17  2  0
 17 19  1  0
 19 21  2  0
 21 12  1  0
  8  9  1  0
  8 10  1  0
  8 11  1  0
 13 14  1  0
 15 16  1  0
 17 18  1  0
 19 20  1  0
 21 22  1  0
M  CHG  1   6  -1
M  END
>  <PDB_ID>  (2341) 
pdb6gwu

>  <RESIDUE_NAME>  (2341) 
GLU   PHE

>  <FRAG_NAME>  (2341) 
ACET   MBZ

>  <FRAG_ATOM_NUM>  (2341) 
fragi: 7  fragj: 15

>  <atom.prop.CHAIN_ID>  (2341) 
A A A A A A A Z Z Z Z Z Z Z Z Z Z Z Z Z Z Z

>  <atom.prop.IS_HEAVY_ATOM>  (2341) 
1 0 0 0 1 1 1 1 0 0 0 1 1 0 1 0 1 0 1 0 1 0

>  <DIFUSE_FUNC_ATOM>  (2341) 
atom 6   atom 7   

>  <FINAL_SINGLE_POINT_ENERGY>  (2341) 
0

>  <NONCOV_INTER_ENERGY_QM>  (2341) 
0

>  <FF_Energy>  (2341) 
0.35

>  <QM_Energy>  (2341) 
-5.29

>  <source>  (2341) 
ACET_MBZ_02

>  <Index>  (2341) 
28159

$$$$
ACET-pdb5gsn-B-GLU-80:MBZ-pdb5gsn-B-PHE-86
     RDKit          3D

 22 21  0  0  0  0  0  0  0  0999 V2000
    3.9856    0.9920   -1.7451 C   0  0  0  0  0  0  0  0  0  0  0  0
    4.1991    1.0988   -2.6971 H   0  0  0  0  0  0  0  0  0  0  0  0
    3.0272    0.8554   -1.5862 H   0  0  0  0  0  0  0  0  0  0  0  0
    4.5253    0.1239   -1.3667 H   0  0  0  0  0  0  0  0  0  0  0  0
    4.3829    2.2935   -1.0405 C   0  0  0  0  0  0  0  0  0  0  0  0
    5.5951    2.4892   -0.7742 O   0  0  0  0  0  1  0  0  0  0  0  0
    3.4810    3.1168   -0.7503 O   0  0  0  0  0  0  0  0  0  0  0  0
   -0.0058    2.8846   -0.0080 C   0  0  0  0  0  0  0  0  0  0  0  0
    0.8598    3.2009    0.3484 H   0  0  0  0  0  0  0  0  0  0  0  0
   -0.7601    3.1945    0.5502 H   0  0  0  0  0  0  0  0  0  0  0  0
   -0.1309    3.3143   -1.0019 H   0  0  0  0  0  0  0  0  0  0  0  0
    0.0009    1.3898    0.0021 C   0  0  0  0  0  0  0  0  0  0  0  0
   -1.1881    0.6830   -0.0005 C   0  0  0  0  0  0  0  0  0  0  0  0
   -2.0572    1.1803   -0.0044 H   0  0  0  0  0  0  0  0  0  0  0  0
   -1.1944   -0.6895   -0.0000 C   0  0  0  0  0  0  0  0  0  0  0  0
   -2.0745   -1.1878    0.0028 H   0  0  0  0  0  0  0  0  0  0  0  0
   -0.0039   -1.3826   -0.0008 C   0  0  0  0  0  0  0  0  0  0  0  0
   -0.0070   -2.3838   -0.0026 H   0  0  0  0  0  0  0  0  0  0  0  0
    1.1944   -0.6912   -0.0000 C   0  0  0  0  0  0  0  0  0  0  0  0
    2.0758   -1.1930    0.0028 H   0  0  0  0  0  0  0  0  0  0  0  0
    1.1911    0.6906   -0.0007 C   0  0  0  0  0  0  0  0  0  0  0  0
    2.0604    1.1883   -0.0038 H   0  0  0  0  0  0  0  0  0  0  0  0
  1  5  1  0
  5  6  1  0
  5  7  2  0
  1  2  1  0
  1  3  1  0
  1  4  1  0
  8 12  1  0
 12 13  2  0
 13 15  1  0
 15 17  2  0
 17 19  1  0
 19 21  2  0
 21 12  1  0
  8  9  1  0
  8 10  1  0
  8 11  1  0
 13 14  1  0
 15 16  1  0
 17 18  1  0
 19 20  1  0
 21 22  1  0
M  CHG  1   6  -1
M  END
>  <PDB_ID>  (2342) 
pdb5gsn

>  <RESIDUE_NAME>  (2342) 
GLU   PHE

>  <FRAG_NAME>  (2342) 
ACET   MBZ

>  <FRAG_ATOM_NUM>  (2342) 
fragi: 7  fragj: 15

>  <atom.prop.CHAIN_ID>  (2342) 
A A A A A A A Z Z Z Z Z Z Z Z Z Z Z Z Z Z Z

>  <atom.prop.IS_HEAVY_ATOM>  (2342) 
1 0 0 0 1 1 1 1 0 0 0 1 1 0 1 0 1 0 1 0 1 0

>  <DIFUSE_FUNC_ATOM>  (2342) 
atom 6   atom 7   

>  <FINAL_SINGLE_POINT_ENERGY>  (2342) 
0

>  <NONCOV_INTER_ENERGY_QM>  (2342) 
0

>  <FF_Energy>  (2342) 
1.44

>  <QM_Energy>  (2342) 
-5.33

>  <source>  (2342) 
ACET_MBZ_02

>  <Index>  (2342) 
28183

$$$$
ACET-pdb5gsn-D-GLU-80:MBZ-pdb5gsn-D-PHE-86
     RDKit          3D

 22 21  0  0  0  0  0  0  0  0999 V2000
   -4.2394    0.6469   -1.1205 C   0  0  0  0  0  0  0  0  0  0  0  0
   -3.5782    0.7022   -0.3948 H   0  0  0  0  0  0  0  0  0  0  0  0
   -3.9752    0.0059   -1.8170 H   0  0  0  0  0  0  0  0  0  0  0  0
   -5.1867    0.3176   -0.6937 H   0  0  0  0  0  0  0  0  0  0  0  0
   -4.3261    2.0179   -1.7684 C   0  0  0  0  0  0  0  0  0  0  0  0
   -5.4578    2.5183   -1.9526 O   0  0  0  0  0  1  0  0  0  0  0  0
   -3.2653    2.5980   -2.0922 O   0  0  0  0  0  0  0  0  0  0  0  0
   -0.0058    2.9034    0.0142 C   0  0  0  0  0  0  0  0  0  0  0  0
   -0.6426    3.2147   -0.6717 H   0  0  0  0  0  0  0  0  0  0  0  0
    0.9116    3.2156   -0.1706 H   0  0  0  0  0  0  0  0  0  0  0  0
   -0.3144    3.3260    0.9704 H   0  0  0  0  0  0  0  0  0  0  0  0
    0.0003    1.3990   -0.0019 C   0  0  0  0  0  0  0  0  0  0  0  0
   -1.1921    0.6855    0.0015 C   0  0  0  0  0  0  0  0  0  0  0  0
   -2.0614    1.1750    0.0038 H   0  0  0  0  0  0  0  0  0  0  0  0
   -1.1950   -0.7013    0.0000 C   0  0  0  0  0  0  0  0  0  0  0  0
   -2.0736   -1.1944    0.0028 H   0  0  0  0  0  0  0  0  0  0  0  0
   -0.0014   -1.3894   -0.0032 C   0  0  0  0  0  0  0  0  0  0  0  0
    0.0011   -2.3898   -0.0080 H   0  0  0  0  0  0  0  0  0  0  0  0
    1.1950   -0.6906   -0.0000 C   0  0  0  0  0  0  0  0  0  0  0  0
    2.0790   -1.1897    0.0010 H   0  0  0  0  0  0  0  0  0  0  0  0
    1.1932    0.6967    0.0037 C   0  0  0  0  0  0  0  0  0  0  0  0
    2.0617    1.1918    0.0095 H   0  0  0  0  0  0  0  0  0  0  0  0
  1  5  1  0
  5  6  1  0
  5  7  2  0
  1  2  1  0
  1  3  1  0
  1  4  1  0
  8 12  1  0
 12 13  2  0
 13 15  1  0
 15 17  2  0
 17 19  1  0
 19 21  2  0
 21 12  1  0
  8  9  1  0
  8 10  1  0
  8 11  1  0
 13 14  1  0
 15 16  1  0
 17 18  1  0
 19 20  1  0
 21 22  1  0
M  CHG  1   6  -1
M  END
>  <PDB_ID>  (2343) 
pdb5gsn

>  <RESIDUE_NAME>  (2343) 
GLU   PHE

>  <FRAG_NAME>  (2343) 
ACET   MBZ

>  <FRAG_ATOM_NUM>  (2343) 
fragi: 7  fragj: 15

>  <atom.prop.CHAIN_ID>  (2343) 
A A A A A A A Z Z Z Z Z Z Z Z Z Z Z Z Z Z Z

>  <atom.prop.IS_HEAVY_ATOM>  (2343) 
1 0 0 0 1 1 1 1 0 0 0 1 1 0 1 0 1 0 1 0 1 0

>  <DIFUSE_FUNC_ATOM>  (2343) 
atom 6   atom 7   

>  <FINAL_SINGLE_POINT_ENERGY>  (2343) 
0

>  <NONCOV_INTER_ENERGY_QM>  (2343) 
0

>  <FF_Energy>  (2343) 
11.25

>  <QM_Energy>  (2343) 
-2.18

>  <source>  (2343) 
ACET_MBZ_02

>  <Index>  (2343) 
28196

$$$$
ACET-pdb5gmf-D-GLU-583:MBZ-pdb5gmf-B-PHE-466
     RDKit          3D

 22 21  0  0  0  0  0  0  0  0999 V2000
    4.1354    2.0038    2.4465 C   0  0  0  0  0  0  0  0  0  0  0  0
    4.9605    2.2680    2.9146 H   0  0  0  0  0  0  0  0  0  0  0  0
    4.0861    1.0305    2.3071 H   0  0  0  0  0  0  0  0  0  0  0  0
    3.2875    2.3012    3.0635 H   0  0  0  0  0  0  0  0  0  0  0  0
    4.1755    2.6622    1.0464 C   0  0  0  0  0  0  0  0  0  0  0  0
    5.1103    2.3684    0.2699 O   0  0  0  0  0  1  0  0  0  0  0  0
    3.2786    3.4562    0.7031 O   0  0  0  0  0  0  0  0  0  0  0  0
   -0.0175    2.9221   -0.0336 C   0  0  0  0  0  0  0  0  0  0  0  0
    0.6782    3.2464    0.5794 H   0  0  0  0  0  0  0  0  0  0  0  0
   -0.9162    3.2202    0.2277 H   0  0  0  0  0  0  0  0  0  0  0  0
    0.1955    3.3152   -1.0277 H   0  0  0  0  0  0  0  0  0  0  0  0
   -0.0018    1.4102    0.0055 C   0  0  0  0  0  0  0  0  0  0  0  0
   -1.2035    0.6749   -0.0266 C   0  0  0  0  0  0  0  0  0  0  0  0
   -2.0711    1.1589   -0.0699 H   0  0  0  0  0  0  0  0  0  0  0  0
   -1.2021   -0.7259   -0.0000 C   0  0  0  0  0  0  0  0  0  0  0  0
   -2.0685   -1.2209    0.0131 H   0  0  0  0  0  0  0  0  0  0  0  0
    0.0107   -1.3955    0.0100 C   0  0  0  0  0  0  0  0  0  0  0  0
    0.0293   -2.3946    0.0240 H   0  0  0  0  0  0  0  0  0  0  0  0
    1.2021   -0.6753   -0.0000 C   0  0  0  0  0  0  0  0  0  0  0  0
    2.0923   -1.1697   -0.0145 H   0  0  0  0  0  0  0  0  0  0  0  0
    1.1946    0.7117    0.0111 C   0  0  0  0  0  0  0  0  0  0  0  0
    2.0608    1.2114    0.0225 H   0  0  0  0  0  0  0  0  0  0  0  0
  1  5  1  0
  5  6  1  0
  5  7  2  0
  1  2  1  0
  1  3  1  0
  1  4  1  0
  8 12  1  0
 12 13  2  0
 13 15  1  0
 15 17  2  0
 17 19  1  0
 19 21  2  0
 21 12  1  0
  8  9  1  0
  8 10  1  0
  8 11  1  0
 13 14  1  0
 15 16  1  0
 17 18  1  0
 19 20  1  0
 21 22  1  0
M  CHG  1   6  -1
M  END
>  <PDB_ID>  (2344) 
pdb5gmf

>  <RESIDUE_NAME>  (2344) 
GLU   PHE

>  <FRAG_NAME>  (2344) 
ACET   MBZ

>  <FRAG_ATOM_NUM>  (2344) 
fragi: 7  fragj: 15

>  <atom.prop.CHAIN_ID>  (2344) 
A A A A A A A Z Z Z Z Z Z Z Z Z Z Z Z Z Z Z

>  <atom.prop.IS_HEAVY_ATOM>  (2344) 
1 0 0 0 1 1 1 1 0 0 0 1 1 0 1 0 1 0 1 0 1 0

>  <DIFUSE_FUNC_ATOM>  (2344) 
atom 6   atom 7   

>  <FINAL_SINGLE_POINT_ENERGY>  (2344) 
0

>  <NONCOV_INTER_ENERGY_QM>  (2344) 
0

>  <FF_Energy>  (2344) 
-2.63

>  <QM_Energy>  (2344) 
-7.85

>  <source>  (2344) 
ACET_MBZ_02

>  <Index>  (2344) 
28470

$$$$
ACET-pdb6h4g-A-ASP-429:MBZ-pdb6h4g-A-PHE-425
     RDKit          3D

 22 21  0  0  0  0  0  0  0  0999 V2000
   -2.0278    2.5598    3.1876 C   0  0  0  0  0  0  0  0  0  0  0  0
   -1.8002    3.5032    2.9636 H   0  0  0  0  0  0  0  0  0  0  0  0
   -1.2216    1.9830    3.1013 H   0  0  0  0  0  0  0  0  0  0  0  0
   -2.3574    2.5288    4.2261 H   0  0  0  0  0  0  0  0  0  0  0  0
   -3.0799    2.0738    2.2401 C   0  0  0  0  0  0  0  0  0  0  0  0
   -3.7561    1.0716    2.5697 O   0  0  0  0  0  1  0  0  0  0  0  0
   -3.1990    2.6824    1.1649 O   0  0  0  0  0  0  0  0  0  0  0  0
    0.0167    2.9074    0.0443 C   0  0  0  0  0  0  0  0  0  0  0  0
    0.9624    3.2056    0.0029 H   0  0  0  0  0  0  0  0  0  0  0  0
   -0.4012    3.1837    0.9013 H   0  0  0  0  0  0  0  0  0  0  0  0
   -0.5227    3.4042   -0.7621 H   0  0  0  0  0  0  0  0  0  0  0  0
    0.0025    1.3992   -0.0134 C   0  0  0  0  0  0  0  0  0  0  0  0
   -1.1932    0.6942   -0.0023 C   0  0  0  0  0  0  0  0  0  0  0  0
   -2.0595    1.1862    0.0022 H   0  0  0  0  0  0  0  0  0  0  0  0
   -1.1979   -0.6929   -0.0000 C   0  0  0  0  0  0  0  0  0  0  0  0
   -2.0799   -1.1843    0.0077 H   0  0  0  0  0  0  0  0  0  0  0  0
   -0.0076   -1.3885   -0.0067 C   0  0  0  0  0  0  0  0  0  0  0  0
   -0.0075   -2.3873   -0.0172 H   0  0  0  0  0  0  0  0  0  0  0  0
    1.1979   -0.6925    0.0000 C   0  0  0  0  0  0  0  0  0  0  0  0
    2.0756   -1.2023   -0.0101 H   0  0  0  0  0  0  0  0  0  0  0  0
    1.1983    0.6805    0.0225 C   0  0  0  0  0  0  0  0  0  0  0  0
    2.0661    1.1830    0.0645 H   0  0  0  0  0  0  0  0  0  0  0  0
  1  5  1  0
  5  6  1  0
  5  7  2  0
  1  2  1  0
  1  3  1  0
  1  4  1  0
  8 12  1  0
 12 13  2  0
 13 15  1  0
 15 17  2  0
 17 19  1  0
 19 21  2  0
 21 12  1  0
  8  9  1  0
  8 10  1  0
  8 11  1  0
 13 14  1  0
 15 16  1  0
 17 18  1  0
 19 20  1  0
 21 22  1  0
M  CHG  1   6  -1
M  END
>  <PDB_ID>  (2345) 
pdb6h4g

>  <RESIDUE_NAME>  (2345) 
ASP   PHE

>  <FRAG_NAME>  (2345) 
ACET   MBZ

>  <FRAG_ATOM_NUM>  (2345) 
fragi: 7  fragj: 15

>  <atom.prop.CHAIN_ID>  (2345) 
A A A A A A A Z Z Z Z Z Z Z Z Z Z Z Z Z Z Z

>  <atom.prop.IS_HEAVY_ATOM>  (2345) 
1 0 0 0 1 1 1 1 0 0 0 1 1 0 1 0 1 0 1 0 1 0

>  <DIFUSE_FUNC_ATOM>  (2345) 
atom 6   atom 7   

>  <FINAL_SINGLE_POINT_ENERGY>  (2345) 
0

>  <NONCOV_INTER_ENERGY_QM>  (2345) 
0

>  <FF_Energy>  (2345) 
0.24

>  <QM_Energy>  (2345) 
-7.44

>  <source>  (2345) 
ACET_MBZ_02

>  <Index>  (2345) 
28495

$$$$
ACET-pdb5gwn-A-ASP-369:MBZ-pdb5gwn-A-PHE-356
     RDKit          3D

 22 21  0  0  0  0  0  0  0  0999 V2000
   -5.7599    3.6242   -0.9444 C   0  0  0  0  0  0  0  0  0  0  0  0
   -6.6393    3.4540   -1.3851 H   0  0  0  0  0  0  0  0  0  0  0  0
   -5.3457    4.4483   -1.3228 H   0  0  0  0  0  0  0  0  0  0  0  0
   -5.9421    3.7946    0.1166 H   0  0  0  0  0  0  0  0  0  0  0  0
   -4.8443    2.4492   -1.2207 C   0  0  0  0  0  0  0  0  0  0  0  0
   -4.2189    1.9008   -0.2964 O   0  0  0  0  0  1  0  0  0  0  0  0
   -4.7530    2.0839   -2.4137 O   0  0  0  0  0  0  0  0  0  0  0  0
    0.0543    2.9312   -0.0232 C   0  0  0  0  0  0  0  0  0  0  0  0
    0.3149    3.2063   -0.9428 H   0  0  0  0  0  0  0  0  0  0  0  0
    0.7471    3.2132    0.6318 H   0  0  0  0  0  0  0  0  0  0  0  0
   -0.8745    3.4424    0.2301 H   0  0  0  0  0  0  0  0  0  0  0  0
   -0.0005    1.4101   -0.0015 C   0  0  0  0  0  0  0  0  0  0  0  0
   -1.1917    0.7010   -0.0028 C   0  0  0  0  0  0  0  0  0  0  0  0
   -2.0632    1.1779   -0.0066 H   0  0  0  0  0  0  0  0  0  0  0  0
   -1.1925   -0.7100    0.0000 C   0  0  0  0  0  0  0  0  0  0  0  0
   -2.0711   -1.1935   -0.0028 H   0  0  0  0  0  0  0  0  0  0  0  0
    0.0048   -1.3944    0.0087 C   0  0  0  0  0  0  0  0  0  0  0  0
    0.0018   -2.3989    0.0205 H   0  0  0  0  0  0  0  0  0  0  0  0
    1.1925   -0.7046    0.0000 C   0  0  0  0  0  0  0  0  0  0  0  0
    2.0802   -1.1916   -0.0019 H   0  0  0  0  0  0  0  0  0  0  0  0
    1.1874    0.6978   -0.0044 C   0  0  0  0  0  0  0  0  0  0  0  0
    2.0624    1.1859   -0.0105 H   0  0  0  0  0  0  0  0  0  0  0  0
  1  5  1  0
  5  6  1  0
  5  7  2  0
  1  2  1  0
  1  3  1  0
  1  4  1  0
  8 12  1  0
 12 13  2  0
 13 15  1  0
 15 17  2  0
 17 19  1  0
 19 21  2  0
 21 12  1  0
  8  9  1  0
  8 10  1  0
  8 11  1  0
 13 14  1  0
 15 16  1  0
 17 18  1  0
 19 20  1  0
 21 22  1  0
M  CHG  1   6  -1
M  END
>  <PDB_ID>  (2346) 
pdb5gwn

>  <RESIDUE_NAME>  (2346) 
ASP   PHE

>  <FRAG_NAME>  (2346) 
ACET   MBZ

>  <FRAG_ATOM_NUM>  (2346) 
fragi: 7  fragj: 15

>  <atom.prop.CHAIN_ID>  (2346) 
A A A A A A A Z Z Z Z Z Z Z Z Z Z Z Z Z Z Z

>  <atom.prop.IS_HEAVY_ATOM>  (2346) 
1 0 0 0 1 1 1 1 0 0 0 1 1 0 1 0 1 0 1 0 1 0

>  <DIFUSE_FUNC_ATOM>  (2346) 
atom 6   atom 7   

>  <FINAL_SINGLE_POINT_ENERGY>  (2346) 
0

>  <NONCOV_INTER_ENERGY_QM>  (2346) 
0

>  <FF_Energy>  (2346) 
-1.34

>  <QM_Energy>  (2346) 
-6.43

>  <source>  (2346) 
ACET_MBZ_02

>  <Index>  (2346) 
28594

$$$$
ACET-pdb5h12-A-GLU-325:MBZ-pdb5h12-A-PHE-283
     RDKit          3D

 22 21  0  0  0  0  0  0  0  0999 V2000
   -0.3775   -4.6838   -1.8703 C   0  0  0  0  0  0  0  0  0  0  0  0
   -0.4429   -3.7266   -2.0864 H   0  0  0  0  0  0  0  0  0  0  0  0
   -0.8803   -5.2439   -2.5034 H   0  0  0  0  0  0  0  0  0  0  0  0
    0.6724   -4.9738   -1.9122 H   0  0  0  0  0  0  0  0  0  0  0  0
   -0.9879   -4.8861   -0.4969 C   0  0  0  0  0  0  0  0  0  0  0  0
   -0.4783   -4.3001    0.4788 O   0  0  0  0  0  1  0  0  0  0  0  0
   -1.9782   -5.6368   -0.3903 O   0  0  0  0  0  0  0  0  0  0  0  0
    0.0033    2.8961   -0.0023 C   0  0  0  0  0  0  0  0  0  0  0  0
    0.8567    3.2034    0.3873 H   0  0  0  0  0  0  0  0  0  0  0  0
   -0.7704    3.2065    0.5286 H   0  0  0  0  0  0  0  0  0  0  0  0
   -0.0818    3.3357   -0.9961 H   0  0  0  0  0  0  0  0  0  0  0  0
    0.0006    1.3935   -0.0019 C   0  0  0  0  0  0  0  0  0  0  0  0
   -1.1920    0.6876    0.0011 C   0  0  0  0  0  0  0  0  0  0  0  0
   -2.0593    1.1791    0.0026 H   0  0  0  0  0  0  0  0  0  0  0  0
   -1.1941   -0.6948    0.0000 C   0  0  0  0  0  0  0  0  0  0  0  0
   -2.0713   -1.1916    0.0008 H   0  0  0  0  0  0  0  0  0  0  0  0
    0.0017   -1.3826   -0.0005 C   0  0  0  0  0  0  0  0  0  0  0  0
   -0.0009   -2.3857   -0.0022 H   0  0  0  0  0  0  0  0  0  0  0  0
    1.1941   -0.6913    0.0000 C   0  0  0  0  0  0  0  0  0  0  0  0
    2.0785   -1.1917    0.0009 H   0  0  0  0  0  0  0  0  0  0  0  0
    1.1897    0.6876    0.0013 C   0  0  0  0  0  0  0  0  0  0  0  0
    2.0608    1.1869    0.0038 H   0  0  0  0  0  0  0  0  0  0  0  0
  1  5  1  0
  5  6  1  0
  5  7  2  0
  1  2  1  0
  1  3  1  0
  1  4  1  0
  8 12  1  0
 12 13  2  0
 13 15  1  0
 15 17  2  0
 17 19  1  0
 19 21  2  0
 21 12  1  0
  8  9  1  0
  8 10  1  0
  8 11  1  0
 13 14  1  0
 15 16  1  0
 17 18  1  0
 19 20  1  0
 21 22  1  0
M  CHG  1   6  -1
M  END
>  <PDB_ID>  (2347) 
pdb5h12

>  <RESIDUE_NAME>  (2347) 
GLU   PHE

>  <FRAG_NAME>  (2347) 
ACET   MBZ

>  <FRAG_ATOM_NUM>  (2347) 
fragi: 7  fragj: 15

>  <atom.prop.CHAIN_ID>  (2347) 
A A A A A A A Z Z Z Z Z Z Z Z Z Z Z Z Z Z Z

>  <atom.prop.IS_HEAVY_ATOM>  (2347) 
1 0 0 0 1 1 1 1 0 0 0 1 1 0 1 0 1 0 1 0 1 0

>  <DIFUSE_FUNC_ATOM>  (2347) 
atom 6   atom 7   

>  <FINAL_SINGLE_POINT_ENERGY>  (2347) 
0

>  <NONCOV_INTER_ENERGY_QM>  (2347) 
0

>  <FF_Energy>  (2347) 
3.55

>  <QM_Energy>  (2347) 
-5.38

>  <source>  (2347) 
ACET_MBZ_02

>  <Index>  (2347) 
28700

$$$$
ACET-pdb5h16-B-ASP-13:MBZ-pdb5h16-B-PHE-47
     RDKit          3D

 22 21  0  0  0  0  0  0  0  0999 V2000
    5.4100    3.6075   -0.1283 C   0  0  0  0  0  0  0  0  0  0  0  0
    5.2386    4.5303    0.1848 H   0  0  0  0  0  0  0  0  0  0  0  0
    6.3430    3.5041   -0.4407 H   0  0  0  0  0  0  0  0  0  0  0  0
    5.2561    2.9303    0.7118 H   0  0  0  0  0  0  0  0  0  0  0  0
    4.4670    3.3139   -1.3109 C   0  0  0  0  0  0  0  0  0  0  0  0
    3.3104    2.9592   -1.0959 O   0  0  0  0  0  1  0  0  0  0  0  0
    4.9115    3.4179   -2.4599 O   0  0  0  0  0  0  0  0  0  0  0  0
   -0.0214    2.8904    0.0282 C   0  0  0  0  0  0  0  0  0  0  0  0
    0.8752    3.2036    0.3092 H   0  0  0  0  0  0  0  0  0  0  0  0
   -0.7171    3.1819    0.6701 H   0  0  0  0  0  0  0  0  0  0  0  0
   -0.2477    3.3341   -0.9413 H   0  0  0  0  0  0  0  0  0  0  0  0
   -0.0042    1.3980    0.0111 C   0  0  0  0  0  0  0  0  0  0  0  0
   -1.1951    0.6819   -0.0006 C   0  0  0  0  0  0  0  0  0  0  0  0
   -2.0660    1.1717   -0.0109 H   0  0  0  0  0  0  0  0  0  0  0  0
   -1.2015   -0.7075   -0.0000 C   0  0  0  0  0  0  0  0  0  0  0  0
   -2.0704   -1.2047    0.0106 H   0  0  0  0  0  0  0  0  0  0  0  0
    0.0094   -1.3919   -0.0123 C   0  0  0  0  0  0  0  0  0  0  0  0
    0.0144   -2.3898   -0.0311 H   0  0  0  0  0  0  0  0  0  0  0  0
    1.2015   -0.6834   -0.0000 C   0  0  0  0  0  0  0  0  0  0  0  0
    2.0886   -1.1762    0.0093 H   0  0  0  0  0  0  0  0  0  0  0  0
    1.1899    0.7028    0.0018 C   0  0  0  0  0  0  0  0  0  0  0  0
    2.0570    1.2040   -0.0049 H   0  0  0  0  0  0  0  0  0  0  0  0
  1  5  1  0
  5  6  1  0
  5  7  2  0
  1  2  1  0
  1  3  1  0
  1  4  1  0
  8 12  1  0
 12 13  2  0
 13 15  1  0
 15 17  2  0
 17 19  1  0
 19 21  2  0
 21 12  1  0
  8  9  1  0
  8 10  1  0
  8 11  1  0
 13 14  1  0
 15 16  1  0
 17 18  1  0
 19 20  1  0
 21 22  1  0
M  CHG  1   6  -1
M  END
>  <PDB_ID>  (2348) 
pdb5h16

>  <RESIDUE_NAME>  (2348) 
ASP   PHE

>  <FRAG_NAME>  (2348) 
ACET   MBZ

>  <FRAG_ATOM_NUM>  (2348) 
fragi: 7  fragj: 15

>  <atom.prop.CHAIN_ID>  (2348) 
A A A A A A A Z Z Z Z Z Z Z Z Z Z Z Z Z Z Z

>  <atom.prop.IS_HEAVY_ATOM>  (2348) 
1 0 0 0 1 1 1 1 0 0 0 1 1 0 1 0 1 0 1 0 1 0

>  <DIFUSE_FUNC_ATOM>  (2348) 
atom 6   atom 7   

>  <FINAL_SINGLE_POINT_ENERGY>  (2348) 
0

>  <NONCOV_INTER_ENERGY_QM>  (2348) 
0

>  <FF_Energy>  (2348) 
-1.44

>  <QM_Energy>  (2348) 
-6.94

>  <source>  (2348) 
ACET_MBZ_02

>  <Index>  (2348) 
28707

$$$$
ACET-pdb5h16-D-ASP-13:MBZ-pdb5h16-D-PHE-47
     RDKit          3D

 22 21  0  0  0  0  0  0  0  0999 V2000
    5.4285    3.6067   -0.1686 C   0  0  0  0  0  0  0  0  0  0  0  0
    5.2486    4.5293    0.1401 H   0  0  0  0  0  0  0  0  0  0  0  0
    6.3578    3.5134   -0.4952 H   0  0  0  0  0  0  0  0  0  0  0  0
    5.2824    2.9246    0.6690 H   0  0  0  0  0  0  0  0  0  0  0  0
    4.4748    3.3071   -1.3539 C   0  0  0  0  0  0  0  0  0  0  0  0
    3.3029    2.9524   -1.1196 O   0  0  0  0  0  1  0  0  0  0  0  0
    4.9177    3.4184   -2.5134 O   0  0  0  0  0  0  0  0  0  0  0  0
   -0.0239    2.8883    0.0303 C   0  0  0  0  0  0  0  0  0  0  0  0
    0.8730    3.2040    0.3060 H   0  0  0  0  0  0  0  0  0  0  0  0
   -0.7176    3.1779    0.6756 H   0  0  0  0  0  0  0  0  0  0  0  0
   -0.2556    3.3333   -0.9375 H   0  0  0  0  0  0  0  0  0  0  0  0
   -0.0043    1.3982    0.0099 C   0  0  0  0  0  0  0  0  0  0  0  0
   -1.1915    0.6826    0.0091 C   0  0  0  0  0  0  0  0  0  0  0  0
   -2.0646    1.1729    0.0140 H   0  0  0  0  0  0  0  0  0  0  0  0
   -1.1989   -0.7030   -0.0000 C   0  0  0  0  0  0  0  0  0  0  0  0
   -2.0747   -1.1968    0.0045 H   0  0  0  0  0  0  0  0  0  0  0  0
   -0.0005   -1.3910   -0.0140 C   0  0  0  0  0  0  0  0  0  0  0  0
    0.0054   -2.3894   -0.0342 H   0  0  0  0  0  0  0  0  0  0  0  0
    1.1989   -0.6855   -0.0000 C   0  0  0  0  0  0  0  0  0  0  0  0
    2.0819   -1.1865    0.0156 H   0  0  0  0  0  0  0  0  0  0  0  0
    1.1963    0.6987   -0.0050 C   0  0  0  0  0  0  0  0  0  0  0  0
    2.0601    1.1986   -0.0197 H   0  0  0  0  0  0  0  0  0  0  0  0
  1  5  1  0
  5  6  1  0
  5  7  2  0
  1  2  1  0
  1  3  1  0
  1  4  1  0
  8 12  1  0
 12 13  2  0
 13 15  1  0
 15 17  2  0
 17 19  1  0
 19 21  2  0
 21 12  1  0
  8  9  1  0
  8 10  1  0
  8 11  1  0
 13 14  1  0
 15 16  1  0
 17 18  1  0
 19 20  1  0
 21 22  1  0
M  CHG  1   6  -1
M  END
>  <PDB_ID>  (2349) 
pdb5h16

>  <RESIDUE_NAME>  (2349) 
ASP   PHE

>  <FRAG_NAME>  (2349) 
ACET   MBZ

>  <FRAG_ATOM_NUM>  (2349) 
fragi: 7  fragj: 15

>  <atom.prop.CHAIN_ID>  (2349) 
A A A A A A A Z Z Z Z Z Z Z Z Z Z Z Z Z Z Z

>  <atom.prop.IS_HEAVY_ATOM>  (2349) 
1 0 0 0 1 1 1 1 0 0 0 1 1 0 1 0 1 0 1 0 1 0

>  <DIFUSE_FUNC_ATOM>  (2349) 
atom 6   atom 7   

>  <FINAL_SINGLE_POINT_ENERGY>  (2349) 
0

>  <NONCOV_INTER_ENERGY_QM>  (2349) 
0

>  <FF_Energy>  (2349) 
-1.38

>  <QM_Energy>  (2349) 
-6.96

>  <source>  (2349) 
ACET_MBZ_02

>  <Index>  (2349) 
28714

$$$$
ACET-pdb6hb0-A-GLU-127:MBZ-pdb6hb0-A-PHE-124
     RDKit          3D

 22 21  0  0  0  0  0  0  0  0999 V2000
   -5.2880    3.4781   -1.1611 C   0  0  0  0  0  0  0  0  0  0  0  0
   -6.2286    3.5041   -1.4306 H   0  0  0  0  0  0  0  0  0  0  0  0
   -4.6731    3.4562   -1.9220 H   0  0  0  0  0  0  0  0  0  0  0  0
   -5.0784    4.3783   -0.5833 H   0  0  0  0  0  0  0  0  0  0  0  0
   -5.0734    2.1882   -0.3572 C   0  0  0  0  0  0  0  0  0  0  0  0
   -4.0725    2.1399    0.4284 O   0  0  0  0  0  1  0  0  0  0  0  0
   -5.9049    1.2278   -0.5303 O   0  0  0  0  0  0  0  0  0  0  0  0
    0.0005    2.8909   -0.0061 C   0  0  0  0  0  0  0  0  0  0  0  0
    0.9307    3.1930   -0.1650 H   0  0  0  0  0  0  0  0  0  0  0  0
   -0.3257    3.1958    0.8780 H   0  0  0  0  0  0  0  0  0  0  0  0
   -0.6356    3.3330   -0.7729 H   0  0  0  0  0  0  0  0  0  0  0  0
   -0.0030    1.3925   -0.0064 C   0  0  0  0  0  0  0  0  0  0  0  0
   -1.1961    0.6788   -0.0297 C   0  0  0  0  0  0  0  0  0  0  0  0
   -2.0633    1.1766   -0.0695 H   0  0  0  0  0  0  0  0  0  0  0  0
   -1.2020   -0.6941    0.0000 C   0  0  0  0  0  0  0  0  0  0  0  0
   -2.0719   -1.1961    0.0049 H   0  0  0  0  0  0  0  0  0  0  0  0
    0.0018   -1.3715    0.0249 C   0  0  0  0  0  0  0  0  0  0  0  0
   -0.0018   -2.3807    0.0612 H   0  0  0  0  0  0  0  0  0  0  0  0
    1.2020   -0.6913   -0.0000 C   0  0  0  0  0  0  0  0  0  0  0  0
    2.0794   -1.1956   -0.0247 H   0  0  0  0  0  0  0  0  0  0  0  0
    1.1973    0.6856    0.0113 C   0  0  0  0  0  0  0  0  0  0  0  0
    2.0615    1.1904    0.0316 H   0  0  0  0  0  0  0  0  0  0  0  0
  1  5  1  0
  5  6  1  0
  5  7  2  0
  1  2  1  0
  1  3  1  0
  1  4  1  0
  8 12  1  0
 12 13  2  0
 13 15  1  0
 15 17  2  0
 17 19  1  0
 19 21  2  0
 21 12  1  0
  8  9  1  0
  8 10  1  0
  8 11  1  0
 13 14  1  0
 15 16  1  0
 17 18  1  0
 19 20  1  0
 21 22  1  0
M  CHG  1   6  -1
M  END
>  <PDB_ID>  (2350) 
pdb6hb0

>  <RESIDUE_NAME>  (2350) 
GLU   PHE

>  <FRAG_NAME>  (2350) 
ACET   MBZ

>  <FRAG_ATOM_NUM>  (2350) 
fragi: 7  fragj: 15

>  <atom.prop.CHAIN_ID>  (2350) 
A A A A A A A Z Z Z Z Z Z Z Z Z Z Z Z Z Z Z

>  <atom.prop.IS_HEAVY_ATOM>  (2350) 
1 0 0 0 1 1 1 1 0 0 0 1 1 0 1 0 1 0 1 0 1 0

>  <DIFUSE_FUNC_ATOM>  (2350) 
atom 6   atom 7   

>  <FINAL_SINGLE_POINT_ENERGY>  (2350) 
0

>  <NONCOV_INTER_ENERGY_QM>  (2350) 
0

>  <FF_Energy>  (2350) 
-1.53

>  <QM_Energy>  (2350) 
-6.66

>  <source>  (2350) 
ACET_MBZ_02

>  <Index>  (2350) 
28762

$$$$
ACET-pdb5h3h-A-ASP-253:MBZ-pdb5h3h-A-PHE-165
     RDKit          3D

 22 21  0  0  0  0  0  0  0  0999 V2000
   -5.2869    4.1580    1.2284 C   0  0  0  0  0  0  0  0  0  0  0  0
   -5.9394    3.9010    0.5239 H   0  0  0  0  0  0  0  0  0  0  0  0
   -5.4477    5.0921    1.5257 H   0  0  0  0  0  0  0  0  0  0  0  0
   -5.4562    3.5063    2.0855 H   0  0  0  0  0  0  0  0  0  0  0  0
   -3.8782    4.0573    0.6559 C   0  0  0  0  0  0  0  0  0  0  0  0
   -2.9791    3.6661    1.4373 O   0  0  0  0  0  1  0  0  0  0  0  0
   -3.6842    4.3629   -0.5720 O   0  0  0  0  0  0  0  0  0  0  0  0
    0.0305    2.9159    0.0391 C   0  0  0  0  0  0  0  0  0  0  0  0
    0.9295    3.2028    0.3262 H   0  0  0  0  0  0  0  0  0  0  0  0
   -0.6696    3.2347    0.6562 H   0  0  0  0  0  0  0  0  0  0  0  0
   -0.1604    3.3804   -0.9283 H   0  0  0  0  0  0  0  0  0  0  0  0
   -0.0066    1.4181    0.0073 C   0  0  0  0  0  0  0  0  0  0  0  0
   -1.1948    0.7161   -0.0043 C   0  0  0  0  0  0  0  0  0  0  0  0
   -2.0658    1.1895   -0.0169 H   0  0  0  0  0  0  0  0  0  0  0  0
   -1.1911   -0.6937   -0.0000 C   0  0  0  0  0  0  0  0  0  0  0  0
   -2.0701   -1.1842    0.0273 H   0  0  0  0  0  0  0  0  0  0  0  0
    0.0157   -1.4092   -0.0320 C   0  0  0  0  0  0  0  0  0  0  0  0
   -0.0073   -2.4003   -0.0777 H   0  0  0  0  0  0  0  0  0  0  0  0
    1.1911   -0.7154   -0.0000 C   0  0  0  0  0  0  0  0  0  0  0  0
    2.0863   -1.1987    0.0047 H   0  0  0  0  0  0  0  0  0  0  0  0
    1.1856    0.6840    0.0290 C   0  0  0  0  0  0  0  0  0  0  0  0
    2.0608    1.1753    0.0653 H   0  0  0  0  0  0  0  0  0  0  0  0
  1  5  1  0
  5  6  1  0
  5  7  2  0
  1  2  1  0
  1  3  1  0
  1  4  1  0
  8 12  1  0
 12 13  2  0
 13 15  1  0
 15 17  2  0
 17 19  1  0
 19 21  2  0
 21 12  1  0
  8  9  1  0
  8 10  1  0
  8 11  1  0
 13 14  1  0
 15 16  1  0
 17 18  1  0
 19 20  1  0
 21 22  1  0
M  CHG  1   6  -1
M  END
>  <PDB_ID>  (2351) 
pdb5h3h

>  <RESIDUE_NAME>  (2351) 
ASP   PHE

>  <FRAG_NAME>  (2351) 
ACET   MBZ

>  <FRAG_ATOM_NUM>  (2351) 
fragi: 7  fragj: 15

>  <atom.prop.CHAIN_ID>  (2351) 
A A A A A A A Z Z Z Z Z Z Z Z Z Z Z Z Z Z Z

>  <atom.prop.IS_HEAVY_ATOM>  (2351) 
1 0 0 0 1 1 1 1 0 0 0 1 1 0 1 0 1 0 1 0 1 0

>  <DIFUSE_FUNC_ATOM>  (2351) 
atom 6   atom 7   

>  <FINAL_SINGLE_POINT_ENERGY>  (2351) 
0

>  <NONCOV_INTER_ENERGY_QM>  (2351) 
0

>  <FF_Energy>  (2351) 
-1.89

>  <QM_Energy>  (2351) 
-7.8

>  <source>  (2351) 
ACET_MBZ_02

>  <Index>  (2351) 
28794

$$$$
ACET-pdb5h5x-L-GLU-233:MBZ-pdb5h5x-I-PHE-248
     RDKit          3D

 22 21  0  0  0  0  0  0  0  0999 V2000
    0.0272    5.3778   -3.5461 C   0  0  0  0  0  0  0  0  0  0  0  0
   -0.3156    6.1393   -3.0324 H   0  0  0  0  0  0  0  0  0  0  0  0
   -0.0404    5.5130   -4.5145 H   0  0  0  0  0  0  0  0  0  0  0  0
    1.0755    5.2285   -3.2874 H   0  0  0  0  0  0  0  0  0  0  0  0
   -0.8285    4.1684   -3.1945 C   0  0  0  0  0  0  0  0  0  0  0  0
   -0.4359    3.0290   -3.5578 O   0  0  0  0  0  1  0  0  0  0  0  0
   -1.8784    4.3602   -2.5453 O   0  0  0  0  0  0  0  0  0  0  0  0
   -0.0056    2.9077   -0.0125 C   0  0  0  0  0  0  0  0  0  0  0  0
   -0.3754    3.2037   -0.8800 H   0  0  0  0  0  0  0  0  0  0  0  0
    0.9246    3.2181    0.1091 H   0  0  0  0  0  0  0  0  0  0  0  0
   -0.6107    3.3540    0.7767 H   0  0  0  0  0  0  0  0  0  0  0  0
   -0.0003    1.4027    0.0023 C   0  0  0  0  0  0  0  0  0  0  0  0
   -1.1952    0.6873    0.0000 C   0  0  0  0  0  0  0  0  0  0  0  0
   -2.0637    1.1756   -0.0030 H   0  0  0  0  0  0  0  0  0  0  0  0
   -1.1938   -0.7016    0.0000 C   0  0  0  0  0  0  0  0  0  0  0  0
   -2.0704   -1.1977    0.0040 H   0  0  0  0  0  0  0  0  0  0  0  0
    0.0060   -1.3944   -0.0033 C   0  0  0  0  0  0  0  0  0  0  0  0
    0.0043   -2.3921   -0.0084 H   0  0  0  0  0  0  0  0  0  0  0  0
    1.1938   -0.6931    0.0000 C   0  0  0  0  0  0  0  0  0  0  0  0
    2.0833   -1.1852    0.0028 H   0  0  0  0  0  0  0  0  0  0  0  0
    1.1895    0.6991    0.0010 C   0  0  0  0  0  0  0  0  0  0  0  0
    2.0612    1.1923    0.0000 H   0  0  0  0  0  0  0  0  0  0  0  0
  1  5  1  0
  5  6  1  0
  5  7  2  0
  1  2  1  0
  1  3  1  0
  1  4  1  0
  8 12  1  0
 12 13  2  0
 13 15  1  0
 15 17  2  0
 17 19  1  0
 19 21  2  0
 21 12  1  0
  8  9  1  0
  8 10  1  0
  8 11  1  0
 13 14  1  0
 15 16  1  0
 17 18  1  0
 19 20  1  0
 21 22  1  0
M  CHG  1   6  -1
M  END
>  <PDB_ID>  (2352) 
pdb5h5x

>  <RESIDUE_NAME>  (2352) 
GLU   PHE

>  <FRAG_NAME>  (2352) 
ACET   MBZ

>  <FRAG_ATOM_NUM>  (2352) 
fragi: 7  fragj: 15

>  <atom.prop.CHAIN_ID>  (2352) 
A A A A A A A Z Z Z Z Z Z Z Z Z Z Z Z Z Z Z

>  <atom.prop.IS_HEAVY_ATOM>  (2352) 
1 0 0 0 1 1 1 1 0 0 0 1 1 0 1 0 1 0 1 0 1 0

>  <DIFUSE_FUNC_ATOM>  (2352) 
atom 6   atom 7   

>  <FINAL_SINGLE_POINT_ENERGY>  (2352) 
0

>  <NONCOV_INTER_ENERGY_QM>  (2352) 
0

>  <FF_Energy>  (2352) 
0.81

>  <QM_Energy>  (2352) 
-5.1

>  <source>  (2352) 
ACET_MBZ_02

>  <Index>  (2352) 
28937

$$$$
ACET-pdb5h5x-K-GLU-233:MBZ-pdb5h5x-J-PHE-248
     RDKit          3D

 22 21  0  0  0  0  0  0  0  0999 V2000
    0.1199    5.3084   -3.5280 C   0  0  0  0  0  0  0  0  0  0  0  0
   -0.2487    6.1766   -3.2678 H   0  0  0  0  0  0  0  0  0  0  0  0
    0.1556    5.1821   -4.4972 H   0  0  0  0  0  0  0  0  0  0  0  0
    1.1279    5.2190   -3.1229 H   0  0  0  0  0  0  0  0  0  0  0  0
   -0.8121    4.2343   -2.9668 C   0  0  0  0  0  0  0  0  0  0  0  0
   -0.6456    3.0417   -3.3045 O   0  0  0  0  0  1  0  0  0  0  0  0
   -1.7107    4.5727   -2.1701 O   0  0  0  0  0  0  0  0  0  0  0  0
   -0.0135    2.9030    0.0033 C   0  0  0  0  0  0  0  0  0  0  0  0
   -0.4340    3.2041   -0.8372 H   0  0  0  0  0  0  0  0  0  0  0  0
    0.9210    3.2135    0.0738 H   0  0  0  0  0  0  0  0  0  0  0  0
   -0.5749    3.3323    0.8332 H   0  0  0  0  0  0  0  0  0  0  0  0
   -0.0011    1.3947    0.0008 C   0  0  0  0  0  0  0  0  0  0  0  0
   -1.1900    0.6821    0.0044 C   0  0  0  0  0  0  0  0  0  0  0  0
   -2.0611    1.1741    0.0087 H   0  0  0  0  0  0  0  0  0  0  0  0
   -1.1971   -0.7008    0.0000 C   0  0  0  0  0  0  0  0  0  0  0  0
   -2.0732   -1.1953   -0.0027 H   0  0  0  0  0  0  0  0  0  0  0  0
   -0.0001   -1.3848    0.0011 C   0  0  0  0  0  0  0  0  0  0  0  0
    0.0043   -2.3866    0.0025 H   0  0  0  0  0  0  0  0  0  0  0  0
    1.1971   -0.6853    0.0000 C   0  0  0  0  0  0  0  0  0  0  0  0
    2.0804   -1.1866    0.0055 H   0  0  0  0  0  0  0  0  0  0  0  0
    1.1913    0.6940   -0.0063 C   0  0  0  0  0  0  0  0  0  0  0  0
    2.0596    1.1949   -0.0170 H   0  0  0  0  0  0  0  0  0  0  0  0
  1  5  1  0
  5  6  1  0
  5  7  2  0
  1  2  1  0
  1  3  1  0
  1  4  1  0
  8 12  1  0
 12 13  2  0
 13 15  1  0
 15 17  2  0
 17 19  1  0
 19 21  2  0
 21 12  1  0
  8  9  1  0
  8 10  1  0
  8 11  1  0
 13 14  1  0
 15 16  1  0
 17 18  1  0
 19 20  1  0
 21 22  1  0
M  CHG  1   6  -1
M  END
>  <PDB_ID>  (2353) 
pdb5h5x

>  <RESIDUE_NAME>  (2353) 
GLU   PHE

>  <FRAG_NAME>  (2353) 
ACET   MBZ

>  <FRAG_ATOM_NUM>  (2353) 
fragi: 7  fragj: 15

>  <atom.prop.CHAIN_ID>  (2353) 
A A A A A A A Z Z Z Z Z Z Z Z Z Z Z Z Z Z Z

>  <atom.prop.IS_HEAVY_ATOM>  (2353) 
1 0 0 0 1 1 1 1 0 0 0 1 1 0 1 0 1 0 1 0 1 0

>  <DIFUSE_FUNC_ATOM>  (2353) 
atom 6   atom 7   

>  <FINAL_SINGLE_POINT_ENERGY>  (2353) 
0

>  <NONCOV_INTER_ENERGY_QM>  (2353) 
0

>  <FF_Energy>  (2353) 
2.92

>  <QM_Energy>  (2353) 
-5.4

>  <source>  (2353) 
ACET_MBZ_02

>  <Index>  (2353) 
28939

$$$$
ACET-pdb6hfz-D-ASP-111:MBZ-pdb6hfz-D-PHE-117
     RDKit          3D

 22 21  0  0  0  0  0  0  0  0999 V2000
   -1.0730    2.3310    3.4750 C   0  0  0  0  0  0  0  0  0  0  0  0
   -1.0968    2.9917    4.2293 H   0  0  0  0  0  0  0  0  0  0  0  0
   -0.4073    2.6393    2.7923 H   0  0  0  0  0  0  0  0  0  0  0  0
   -0.7279    1.3774    3.8743 H   0  0  0  0  0  0  0  0  0  0  0  0
   -2.4503    2.2975    2.8224 C   0  0  0  0  0  0  0  0  0  0  0  0
   -3.2089    1.3489    3.0838 O   0  0  0  0  0  1  0  0  0  0  0  0
   -2.7510    3.2427    2.0906 O   0  0  0  0  0  0  0  0  0  0  0  0
    0.0159    2.9101   -0.0318 C   0  0  0  0  0  0  0  0  0  0  0  0
    0.9172    3.2147    0.2284 H   0  0  0  0  0  0  0  0  0  0  0  0
   -0.6748    3.2372    0.5924 H   0  0  0  0  0  0  0  0  0  0  0  0
   -0.2033    3.3187   -1.0182 H   0  0  0  0  0  0  0  0  0  0  0  0
    0.0038    1.4020    0.0105 C   0  0  0  0  0  0  0  0  0  0  0  0
   -1.1913    0.6941   -0.0060 C   0  0  0  0  0  0  0  0  0  0  0  0
   -2.0575    1.1837   -0.0240 H   0  0  0  0  0  0  0  0  0  0  0  0
   -1.1924   -0.6932    0.0000 C   0  0  0  0  0  0  0  0  0  0  0  0
   -2.0741   -1.1858    0.0225 H   0  0  0  0  0  0  0  0  0  0  0  0
   -0.0024   -1.3892   -0.0228 C   0  0  0  0  0  0  0  0  0  0  0  0
   -0.0083   -2.3891   -0.0564 H   0  0  0  0  0  0  0  0  0  0  0  0
    1.1924   -0.6993   -0.0000 C   0  0  0  0  0  0  0  0  0  0  0  0
    2.0753   -1.1989    0.0051 H   0  0  0  0  0  0  0  0  0  0  0  0
    1.1899    0.6855    0.0183 C   0  0  0  0  0  0  0  0  0  0  0  0
    2.0640    1.1798    0.0366 H   0  0  0  0  0  0  0  0  0  0  0  0
  1  5  1  0
  5  6  1  0
  5  7  2  0
  1  2  1  0
  1  3  1  0
  1  4  1  0
  8 12  1  0
 12 13  2  0
 13 15  1  0
 15 17  2  0
 17 19  1  0
 19 21  2  0
 21 12  1  0
  8  9  1  0
  8 10  1  0
  8 11  1  0
 13 14  1  0
 15 16  1  0
 17 18  1  0
 19 20  1  0
 21 22  1  0
M  CHG  1   6  -1
M  END
>  <PDB_ID>  (2354) 
pdb6hfz

>  <RESIDUE_NAME>  (2354) 
ASP   PHE

>  <FRAG_NAME>  (2354) 
ACET   MBZ

>  <FRAG_ATOM_NUM>  (2354) 
fragi: 7  fragj: 15

>  <atom.prop.CHAIN_ID>  (2354) 
A A A A A A A Z Z Z Z Z Z Z Z Z Z Z Z Z Z Z

>  <atom.prop.IS_HEAVY_ATOM>  (2354) 
1 0 0 0 1 1 1 1 0 0 0 1 1 0 1 0 1 0 1 0 1 0

>  <DIFUSE_FUNC_ATOM>  (2354) 
atom 6   atom 7   

>  <FINAL_SINGLE_POINT_ENERGY>  (2354) 
0

>  <NONCOV_INTER_ENERGY_QM>  (2354) 
0

>  <FF_Energy>  (2354) 
-1.62

>  <QM_Energy>  (2354) 
-6.67

>  <source>  (2354) 
ACET_MBZ_02

>  <Index>  (2354) 
28971

$$$$
ACET-pdb6hjs-A-ASP-159:MBZ-pdb6hjs-A-PHE-150
     RDKit          3D

 22 21  0  0  0  0  0  0  0  0999 V2000
   -2.9521    2.5037    3.8051 C   0  0  0  0  0  0  0  0  0  0  0  0
   -2.3510    2.2349    4.5444 H   0  0  0  0  0  0  0  0  0  0  0  0
   -3.3286    1.7124    3.3464 H   0  0  0  0  0  0  0  0  0  0  0  0
   -3.7778    3.0742    4.2304 H   0  0  0  0  0  0  0  0  0  0  0  0
   -2.1651    3.3224    2.8066 C   0  0  0  0  0  0  0  0  0  0  0  0
   -2.7461    3.6341    1.7466 O   0  0  0  0  0  1  0  0  0  0  0  0
   -0.9869    3.6672    3.0878 O   0  0  0  0  0  0  0  0  0  0  0  0
   -0.0085    2.9257   -0.0073 C   0  0  0  0  0  0  0  0  0  0  0  0
    0.9150    3.2309    0.1477 H   0  0  0  0  0  0  0  0  0  0  0  0
   -0.6207    3.2252    0.7042 H   0  0  0  0  0  0  0  0  0  0  0  0
   -0.3516    3.3539   -0.9491 H   0  0  0  0  0  0  0  0  0  0  0  0
   -0.0003    1.4056    0.0000 C   0  0  0  0  0  0  0  0  0  0  0  0
   -1.1919    0.6930    0.0125 C   0  0  0  0  0  0  0  0  0  0  0  0
   -2.0631    1.1774    0.0289 H   0  0  0  0  0  0  0  0  0  0  0  0
   -1.2002   -0.7093    0.0000 C   0  0  0  0  0  0  0  0  0  0  0  0
   -2.0771   -1.1954   -0.0092 H   0  0  0  0  0  0  0  0  0  0  0  0
   -0.0004   -1.3983    0.0020 C   0  0  0  0  0  0  0  0  0  0  0  0
    0.0087   -2.3940    0.0038 H   0  0  0  0  0  0  0  0  0  0  0  0
    1.2002   -0.6863    0.0000 C   0  0  0  0  0  0  0  0  0  0  0  0
    2.0837   -1.1871    0.0109 H   0  0  0  0  0  0  0  0  0  0  0  0
    1.1926    0.6954   -0.0145 C   0  0  0  0  0  0  0  0  0  0  0  0
    2.0618    1.1964   -0.0368 H   0  0  0  0  0  0  0  0  0  0  0  0
  1  5  1  0
  5  6  1  0
  5  7  2  0
  1  2  1  0
  1  3  1  0
  1  4  1  0
  8 12  1  0
 12 13  2  0
 13 15  1  0
 15 17  2  0
 17 19  1  0
 19 21  2  0
 21 12  1  0
  8  9  1  0
  8 10  1  0
  8 11  1  0
 13 14  1  0
 15 16  1  0
 17 18  1  0
 19 20  1  0
 21 22  1  0
M  CHG  1   6  -1
M  END
>  <PDB_ID>  (2355) 
pdb6hjs

>  <RESIDUE_NAME>  (2355) 
ASP   PHE

>  <FRAG_NAME>  (2355) 
ACET   MBZ

>  <FRAG_ATOM_NUM>  (2355) 
fragi: 7  fragj: 15

>  <atom.prop.CHAIN_ID>  (2355) 
A A A A A A A Z Z Z Z Z Z Z Z Z Z Z Z Z Z Z

>  <atom.prop.IS_HEAVY_ATOM>  (2355) 
1 0 0 0 1 1 1 1 0 0 0 1 1 0 1 0 1 0 1 0 1 0

>  <DIFUSE_FUNC_ATOM>  (2355) 
atom 6   atom 7   

>  <FINAL_SINGLE_POINT_ENERGY>  (2355) 
0

>  <NONCOV_INTER_ENERGY_QM>  (2355) 
0

>  <FF_Energy>  (2355) 
-0.24

>  <QM_Energy>  (2355) 
-7.67

>  <source>  (2355) 
ACET_MBZ_02

>  <Index>  (2355) 
29055

$$$$
ACET-pdb5ham-B-ASP-675:MBZ-pdb5ham-B-PHE-672
     RDKit          3D

 22 21  0  0  0  0  0  0  0  0999 V2000
    3.8184    4.4636    3.2425 C   0  0  0  0  0  0  0  0  0  0  0  0
    4.4540    4.4033    2.4704 H   0  0  0  0  0  0  0  0  0  0  0  0
    4.1467    3.8773    3.9846 H   0  0  0  0  0  0  0  0  0  0  0  0
    3.8133    5.4936    3.5988 H   0  0  0  0  0  0  0  0  0  0  0  0
    2.4642    3.9488    2.7891 C   0  0  0  0  0  0  0  0  0  0  0  0
    2.2547    3.7386    1.5752 O   0  0  0  0  0  1  0  0  0  0  0  0
    1.6189    3.7455    3.6721 O   0  0  0  0  0  0  0  0  0  0  0  0
   -0.0096    2.8928   -0.0250 C   0  0  0  0  0  0  0  0  0  0  0  0
   -0.8220    3.1922   -0.5274 H   0  0  0  0  0  0  0  0  0  0  0  0
    0.8114    3.2044   -0.5051 H   0  0  0  0  0  0  0  0  0  0  0  0
   -0.0262    3.3926    0.9435 H   0  0  0  0  0  0  0  0  0  0  0  0
    0.0017    1.3999   -0.0075 C   0  0  0  0  0  0  0  0  0  0  0  0
   -1.1990    0.6923   -0.0078 C   0  0  0  0  0  0  0  0  0  0  0  0
   -2.0637    1.1941   -0.0161 H   0  0  0  0  0  0  0  0  0  0  0  0
   -1.2194   -0.6933   -0.0000 C   0  0  0  0  0  0  0  0  0  0  0  0
   -2.0878   -1.1867   -0.0102 H   0  0  0  0  0  0  0  0  0  0  0  0
   -0.0062   -1.3907    0.0251 C   0  0  0  0  0  0  0  0  0  0  0  0
   -0.0110   -2.3902    0.0617 H   0  0  0  0  0  0  0  0  0  0  0  0
    1.2194   -0.7006   -0.0000 C   0  0  0  0  0  0  0  0  0  0  0  0
    2.0857   -1.2008   -0.0101 H   0  0  0  0  0  0  0  0  0  0  0  0
    1.2035    0.6924   -0.0098 C   0  0  0  0  0  0  0  0  0  0  0  0
    2.0690    1.1948   -0.0198 H   0  0  0  0  0  0  0  0  0  0  0  0
  1  5  1  0
  5  6  1  0
  5  7  2  0
  1  2  1  0
  1  3  1  0
  1  4  1  0
  8 12  1  0
 12 13  2  0
 13 15  1  0
 15 17  2  0
 17 19  1  0
 19 21  2  0
 21 12  1  0
  8  9  1  0
  8 10  1  0
  8 11  1  0
 13 14  1  0
 15 16  1  0
 17 18  1  0
 19 20  1  0
 21 22  1  0
M  CHG  1   6  -1
M  END
>  <PDB_ID>  (2356) 
pdb5ham

>  <RESIDUE_NAME>  (2356) 
ASP   PHE

>  <FRAG_NAME>  (2356) 
ACET   MBZ

>  <FRAG_ATOM_NUM>  (2356) 
fragi: 7  fragj: 15

>  <atom.prop.CHAIN_ID>  (2356) 
A A A A A A A Z Z Z Z Z Z Z Z Z Z Z Z Z Z Z

>  <atom.prop.IS_HEAVY_ATOM>  (2356) 
1 0 0 0 1 1 1 1 0 0 0 1 1 0 1 0 1 0 1 0 1 0

>  <DIFUSE_FUNC_ATOM>  (2356) 
atom 6   atom 7   

>  <FINAL_SINGLE_POINT_ENERGY>  (2356) 
0

>  <NONCOV_INTER_ENERGY_QM>  (2356) 
0

>  <FF_Energy>  (2356) 
0.91

>  <QM_Energy>  (2356) 
-5.26

>  <source>  (2356) 
ACET_MBZ_02

>  <Index>  (2356) 
29313

$$$$
ACET-pdb6hqi-A-ASP-76:MBZ-pdb6hqi-A-PHE-86
     RDKit          3D

 22 21  0  0  0  0  0  0  0  0999 V2000
    3.7388    5.8004   -2.1558 C   0  0  0  0  0  0  0  0  0  0  0  0
    3.4841    5.6087   -3.0998 H   0  0  0  0  0  0  0  0  0  0  0  0
    4.7062    5.6095   -2.0179 H   0  0  0  0  0  0  0  0  0  0  0  0
    3.5779    6.8633   -1.9755 H   0  0  0  0  0  0  0  0  0  0  0  0
    2.9289    4.9162   -1.2408 C   0  0  0  0  0  0  0  0  0  0  0  0
    2.5057    5.3783   -0.1580 O   0  0  0  0  0  1  0  0  0  0  0  0
    2.7283    3.7431   -1.6103 O   0  0  0  0  0  0  0  0  0  0  0  0
   -0.0035    2.9046   -0.0004 C   0  0  0  0  0  0  0  0  0  0  0  0
   -0.7870    3.2073   -0.5213 H   0  0  0  0  0  0  0  0  0  0  0  0
    0.8423    3.2109   -0.4105 H   0  0  0  0  0  0  0  0  0  0  0  0
   -0.0716    3.3458    0.9940 H   0  0  0  0  0  0  0  0  0  0  0  0
   -0.0008    1.3975    0.0007 C   0  0  0  0  0  0  0  0  0  0  0  0
   -1.1922    0.6915   -0.0009 C   0  0  0  0  0  0  0  0  0  0  0  0
   -2.0603    1.1816   -0.0043 H   0  0  0  0  0  0  0  0  0  0  0  0
   -1.1962   -0.6945   -0.0000 C   0  0  0  0  0  0  0  0  0  0  0  0
   -2.0752   -1.1888   -0.0008 H   0  0  0  0  0  0  0  0  0  0  0  0
   -0.0003   -1.3886    0.0033 C   0  0  0  0  0  0  0  0  0  0  0  0
   -0.0053   -2.3890    0.0074 H   0  0  0  0  0  0  0  0  0  0  0  0
    1.1962   -0.6957    0.0000 C   0  0  0  0  0  0  0  0  0  0  0  0
    2.0791   -1.1953    0.0014 H   0  0  0  0  0  0  0  0  0  0  0  0
    1.1933    0.6898   -0.0031 C   0  0  0  0  0  0  0  0  0  0  0  0
    2.0620    1.1870   -0.0084 H   0  0  0  0  0  0  0  0  0  0  0  0
  1  5  1  0
  5  6  1  0
  5  7  2  0
  1  2  1  0
  1  3  1  0
  1  4  1  0
  8 12  1  0
 12 13  2  0
 13 15  1  0
 15 17  2  0
 17 19  1  0
 19 21  2  0
 21 12  1  0
  8  9  1  0
  8 10  1  0
  8 11  1  0
 13 14  1  0
 15 16  1  0
 17 18  1  0
 19 20  1  0
 21 22  1  0
M  CHG  1   6  -1
M  END
>  <PDB_ID>  (2357) 
pdb6hqi

>  <RESIDUE_NAME>  (2357) 
ASP   PHE

>  <FRAG_NAME>  (2357) 
ACET   MBZ

>  <FRAG_ATOM_NUM>  (2357) 
fragi: 7  fragj: 15

>  <atom.prop.CHAIN_ID>  (2357) 
A A A A A A A Z Z Z Z Z Z Z Z Z Z Z Z Z Z Z

>  <atom.prop.IS_HEAVY_ATOM>  (2357) 
1 0 0 0 1 1 1 1 0 0 0 1 1 0 1 0 1 0 1 0 1 0

>  <DIFUSE_FUNC_ATOM>  (2357) 
atom 6   atom 7   

>  <FINAL_SINGLE_POINT_ENERGY>  (2357) 
0

>  <NONCOV_INTER_ENERGY_QM>  (2357) 
0

>  <FF_Energy>  (2357) 
-1.03

>  <QM_Energy>  (2357) 
-7.86

>  <source>  (2357) 
ACET_MBZ_02

>  <Index>  (2357) 
29415

$$$$
ACET-pdb6hrd-B-GLU-155:MBZ-pdb6hrd-B-PHE-191
     RDKit          3D

 22 21  0  0  0  0  0  0  0  0999 V2000
    3.2593    4.4240    3.1701 C   0  0  0  0  0  0  0  0  0  0  0  0
    2.7425    5.2015    3.5123 H   0  0  0  0  0  0  0  0  0  0  0  0
    4.2331    4.5702    3.3093 H   0  0  0  0  0  0  0  0  0  0  0  0
    2.9603    3.5395    3.7324 H   0  0  0  0  0  0  0  0  0  0  0  0
    3.0261    4.3553    1.6706 C   0  0  0  0  0  0  0  0  0  0  0  0
    3.4692    3.3398    1.0248 O   0  0  0  0  0  1  0  0  0  0  0  0
    2.4482    5.3159    1.1649 O   0  0  0  0  0  0  0  0  0  0  0  0
    0.0061    2.9116   -0.0485 C   0  0  0  0  0  0  0  0  0  0  0  0
    0.9095    3.2060   -0.3119 H   0  0  0  0  0  0  0  0  0  0  0  0
   -0.2440    3.2515    0.8428 H   0  0  0  0  0  0  0  0  0  0  0  0
   -0.6995    3.3256   -0.7687 H   0  0  0  0  0  0  0  0  0  0  0  0
    0.0014    1.4030    0.0058 C   0  0  0  0  0  0  0  0  0  0  0  0
   -1.1861    0.6904   -0.0118 C   0  0  0  0  0  0  0  0  0  0  0  0
   -2.0573    1.1785   -0.0353 H   0  0  0  0  0  0  0  0  0  0  0  0
   -1.1877   -0.6947    0.0000 C   0  0  0  0  0  0  0  0  0  0  0  0
   -2.0752   -1.1852    0.0128 H   0  0  0  0  0  0  0  0  0  0  0  0
   -0.0062   -1.3913   -0.0038 C   0  0  0  0  0  0  0  0  0  0  0  0
   -0.0096   -2.3915   -0.0103 H   0  0  0  0  0  0  0  0  0  0  0  0
    1.1877   -0.6988   -0.0000 C   0  0  0  0  0  0  0  0  0  0  0  0
    2.0720   -1.1973   -0.0029 H   0  0  0  0  0  0  0  0  0  0  0  0
    1.1910    0.6915    0.0099 C   0  0  0  0  0  0  0  0  0  0  0  0
    2.0625    1.1824    0.0191 H   0  0  0  0  0  0  0  0  0  0  0  0
  1  5  1  0
  5  6  1  0
  5  7  2  0
  1  2  1  0
  1  3  1  0
  1  4  1  0
  8 12  1  0
 12 13  2  0
 13 15  1  0
 15 17  2  0
 17 19  1  0
 19 21  2  0
 21 12  1  0
  8  9  1  0
  8 10  1  0
  8 11  1  0
 13 14  1  0
 15 16  1  0
 17 18  1  0
 19 20  1  0
 21 22  1  0
M  CHG  1   6  -1
M  END
>  <PDB_ID>  (2358) 
pdb6hrd

>  <RESIDUE_NAME>  (2358) 
GLU   PHE

>  <FRAG_NAME>  (2358) 
ACET   MBZ

>  <FRAG_ATOM_NUM>  (2358) 
fragi: 7  fragj: 15

>  <atom.prop.CHAIN_ID>  (2358) 
A A A A A A A Z Z Z Z Z Z Z Z Z Z Z Z Z Z Z

>  <atom.prop.IS_HEAVY_ATOM>  (2358) 
1 0 0 0 1 1 1 1 0 0 0 1 1 0 1 0 1 0 1 0 1 0

>  <DIFUSE_FUNC_ATOM>  (2358) 
atom 6   atom 7   

>  <FINAL_SINGLE_POINT_ENERGY>  (2358) 
0

>  <NONCOV_INTER_ENERGY_QM>  (2358) 
0

>  <FF_Energy>  (2358) 
-2.47

>  <QM_Energy>  (2358) 
-7.77

>  <source>  (2358) 
ACET_MBZ_02

>  <Index>  (2358) 
29460

$$$$
ACET-pdb6hs3-B-ASP-211:MBZ-pdb6hs3-B-PHE-182
     RDKit          3D

 22 21  0  0  0  0  0  0  0  0999 V2000
    5.0944    2.6848    0.0633 C   0  0  0  0  0  0  0  0  0  0  0  0
    5.2199    1.8620   -0.4926 H   0  0  0  0  0  0  0  0  0  0  0  0
    5.1255    2.4376    1.0316 H   0  0  0  0  0  0  0  0  0  0  0  0
    5.9290    3.3562   -0.1386 H   0  0  0  0  0  0  0  0  0  0  0  0
    3.7194    3.2691   -0.2428 C   0  0  0  0  0  0  0  0  0  0  0  0
    3.1547    3.9829    0.6084 O   0  0  0  0  0  1  0  0  0  0  0  0
    3.1996    2.9573   -1.3265 O   0  0  0  0  0  0  0  0  0  0  0  0
   -0.0079    2.9039    0.0226 C   0  0  0  0  0  0  0  0  0  0  0  0
    0.9225    3.2083    0.1944 H   0  0  0  0  0  0  0  0  0  0  0  0
   -0.6082    3.1898    0.7629 H   0  0  0  0  0  0  0  0  0  0  0  0
   -0.3538    3.3826   -0.8935 H   0  0  0  0  0  0  0  0  0  0  0  0
   -0.0004    1.3982   -0.0064 C   0  0  0  0  0  0  0  0  0  0  0  0
   -1.1951    0.6895    0.0026 C   0  0  0  0  0  0  0  0  0  0  0  0
   -2.0619    1.1788    0.0099 H   0  0  0  0  0  0  0  0  0  0  0  0
   -1.1951   -0.6984   -0.0000 C   0  0  0  0  0  0  0  0  0  0  0  0
   -2.0728   -1.1940   -0.0081 H   0  0  0  0  0  0  0  0  0  0  0  0
    0.0013   -1.3875    0.0103 C   0  0  0  0  0  0  0  0  0  0  0  0
   -0.0001   -2.3892    0.0245 H   0  0  0  0  0  0  0  0  0  0  0  0
    1.1951   -0.6927    0.0000 C   0  0  0  0  0  0  0  0  0  0  0  0
    2.0795   -1.1931   -0.0009 H   0  0  0  0  0  0  0  0  0  0  0  0
    1.1942    0.6908   -0.0064 C   0  0  0  0  0  0  0  0  0  0  0  0
    2.0623    1.1889   -0.0123 H   0  0  0  0  0  0  0  0  0  0  0  0
  1  5  1  0
  5  6  1  0
  5  7  2  0
  1  2  1  0
  1  3  1  0
  1  4  1  0
  8 12  1  0
 12 13  2  0
 13 15  1  0
 15 17  2  0
 17 19  1  0
 19 21  2  0
 21 12  1  0
  8  9  1  0
  8 10  1  0
  8 11  1  0
 13 14  1  0
 15 16  1  0
 17 18  1  0
 19 20  1  0
 21 22  1  0
M  CHG  1   6  -1
M  END
>  <PDB_ID>  (2359) 
pdb6hs3

>  <RESIDUE_NAME>  (2359) 
ASP   PHE

>  <FRAG_NAME>  (2359) 
ACET   MBZ

>  <FRAG_ATOM_NUM>  (2359) 
fragi: 7  fragj: 15

>  <atom.prop.CHAIN_ID>  (2359) 
A A A A A A A Z Z Z Z Z Z Z Z Z Z Z Z Z Z Z

>  <atom.prop.IS_HEAVY_ATOM>  (2359) 
1 0 0 0 1 1 1 1 0 0 0 1 1 0 1 0 1 0 1 0 1 0

>  <DIFUSE_FUNC_ATOM>  (2359) 
atom 6   atom 7   

>  <FINAL_SINGLE_POINT_ENERGY>  (2359) 
0

>  <NONCOV_INTER_ENERGY_QM>  (2359) 
0

>  <FF_Energy>  (2359) 
-1.39

>  <QM_Energy>  (2359) 
-8.52

>  <source>  (2359) 
ACET_MBZ_02

>  <Index>  (2359) 
29513

$$$$
ACET-pdb6hx3-C-GLU-123:MBZ-pdb6hx3-C-PHE-135
     RDKit          3D

 22 21  0  0  0  0  0  0  0  0999 V2000
   -5.1324    1.8441   -0.7269 C   0  0  0  0  0  0  0  0  0  0  0  0
   -4.8600    0.9019   -0.6288 H   0  0  0  0  0  0  0  0  0  0  0  0
   -5.4222    2.0482   -1.6469 H   0  0  0  0  0  0  0  0  0  0  0  0
   -5.9679    2.0317   -0.0525 H   0  0  0  0  0  0  0  0  0  0  0  0
   -3.9213    2.7026   -0.4297 C   0  0  0  0  0  0  0  0  0  0  0  0
   -3.6807    3.0283    0.7522 O   0  0  0  0  0  1  0  0  0  0  0  0
   -3.2127    3.0497   -1.3925 O   0  0  0  0  0  0  0  0  0  0  0  0
   -0.0032    2.8797   -0.0157 C   0  0  0  0  0  0  0  0  0  0  0  0
    0.6885    3.1978    0.6146 H   0  0  0  0  0  0  0  0  0  0  0  0
   -0.9031    3.1922    0.2493 H   0  0  0  0  0  0  0  0  0  0  0  0
    0.2200    3.3019   -0.9955 H   0  0  0  0  0  0  0  0  0  0  0  0
   -0.0017    1.3890    0.0017 C   0  0  0  0  0  0  0  0  0  0  0  0
   -1.1883    0.6866   -0.0020 C   0  0  0  0  0  0  0  0  0  0  0  0
   -2.0582    1.1794   -0.0074 H   0  0  0  0  0  0  0  0  0  0  0  0
   -1.1917   -0.6909   -0.0000 C   0  0  0  0  0  0  0  0  0  0  0  0
   -2.0715   -1.1892    0.0009 H   0  0  0  0  0  0  0  0  0  0  0  0
    0.0015   -1.3847    0.0026 C   0  0  0  0  0  0  0  0  0  0  0  0
   -0.0026   -2.3852    0.0058 H   0  0  0  0  0  0  0  0  0  0  0  0
    1.1917   -0.6894   -0.0000 C   0  0  0  0  0  0  0  0  0  0  0  0
    2.0777   -1.1897    0.0012 H   0  0  0  0  0  0  0  0  0  0  0  0
    1.1885    0.6894   -0.0023 C   0  0  0  0  0  0  0  0  0  0  0  0
    2.0571    1.1887   -0.0080 H   0  0  0  0  0  0  0  0  0  0  0  0
  1  5  1  0
  5  6  1  0
  5  7  2  0
  1  2  1  0
  1  3  1  0
  1  4  1  0
  8 12  1  0
 12 13  2  0
 13 15  1  0
 15 17  2  0
 17 19  1  0
 19 21  2  0
 21 12  1  0
  8  9  1  0
  8 10  1  0
  8 11  1  0
 13 14  1  0
 15 16  1  0
 17 18  1  0
 19 20  1  0
 21 22  1  0
M  CHG  1   6  -1
M  END
>  <PDB_ID>  (2360) 
pdb6hx3

>  <RESIDUE_NAME>  (2360) 
GLU   PHE

>  <FRAG_NAME>  (2360) 
ACET   MBZ

>  <FRAG_ATOM_NUM>  (2360) 
fragi: 7  fragj: 15

>  <atom.prop.CHAIN_ID>  (2360) 
A A A A A A A Z Z Z Z Z Z Z Z Z Z Z Z Z Z Z

>  <atom.prop.IS_HEAVY_ATOM>  (2360) 
1 0 0 0 1 1 1 1 0 0 0 1 1 0 1 0 1 0 1 0 1 0

>  <DIFUSE_FUNC_ATOM>  (2360) 
atom 6   atom 7   

>  <FINAL_SINGLE_POINT_ENERGY>  (2360) 
0

>  <NONCOV_INTER_ENERGY_QM>  (2360) 
0

>  <FF_Energy>  (2360) 
-0.91

>  <QM_Energy>  (2360) 
-8.29

>  <source>  (2360) 
ACET_MBZ_02

>  <Index>  (2360) 
29667

$$$$
ACET-pdb6hx3-E-GLU-191:MBZ-pdb6hx3-E-PHE-206
     RDKit          3D

 22 21  0  0  0  0  0  0  0  0999 V2000
   -0.3606   -4.7314    0.6274 C   0  0  0  0  0  0  0  0  0  0  0  0
   -0.0417   -4.6107    1.5466 H   0  0  0  0  0  0  0  0  0  0  0  0
   -0.0620   -4.0175    0.0253 H   0  0  0  0  0  0  0  0  0  0  0  0
    0.0225   -5.6809    0.2534 H   0  0  0  0  0  0  0  0  0  0  0  0
   -1.8774   -4.7005    0.6590 C   0  0  0  0  0  0  0  0  0  0  0  0
   -2.4749   -3.6400    0.3490 O   0  0  0  0  0  1  0  0  0  0  0  0
   -2.4726   -5.7511    0.9884 O   0  0  0  0  0  0  0  0  0  0  0  0
   -0.0005    2.8945   -0.0110 C   0  0  0  0  0  0  0  0  0  0  0  0
   -0.7452    3.1958   -0.5881 H   0  0  0  0  0  0  0  0  0  0  0  0
    0.8724    3.1987   -0.3630 H   0  0  0  0  0  0  0  0  0  0  0  0
   -0.1376    3.3442    0.9725 H   0  0  0  0  0  0  0  0  0  0  0  0
    0.0001    1.3936    0.0020 C   0  0  0  0  0  0  0  0  0  0  0  0
   -1.1899    0.6872   -0.0035 C   0  0  0  0  0  0  0  0  0  0  0  0
   -2.0588    1.1795   -0.0115 H   0  0  0  0  0  0  0  0  0  0  0  0
   -1.1944   -0.6936    0.0000 C   0  0  0  0  0  0  0  0  0  0  0  0
   -2.0723   -1.1901    0.0035 H   0  0  0  0  0  0  0  0  0  0  0  0
    0.0005   -1.3847    0.0007 C   0  0  0  0  0  0  0  0  0  0  0  0
   -0.0025   -2.3858    0.0012 H   0  0  0  0  0  0  0  0  0  0  0  0
    1.1944   -0.6921    0.0000 C   0  0  0  0  0  0  0  0  0  0  0  0
    2.0784   -1.1910    0.0001 H   0  0  0  0  0  0  0  0  0  0  0  0
    1.1892    0.6896    0.0009 C   0  0  0  0  0  0  0  0  0  0  0  0
    2.0597    1.1874   -0.0002 H   0  0  0  0  0  0  0  0  0  0  0  0
  1  5  1  0
  5  6  1  0
  5  7  2  0
  1  2  1  0
  1  3  1  0
  1  4  1  0
  8 12  1  0
 12 13  2  0
 13 15  1  0
 15 17  2  0
 17 19  1  0
 19 21  2  0
 21 12  1  0
  8  9  1  0
  8 10  1  0
  8 11  1  0
 13 14  1  0
 15 16  1  0
 17 18  1  0
 19 20  1  0
 21 22  1  0
M  CHG  1   6  -1
M  END
>  <PDB_ID>  (2361) 
pdb6hx3

>  <RESIDUE_NAME>  (2361) 
GLU   PHE

>  <FRAG_NAME>  (2361) 
ACET   MBZ

>  <FRAG_ATOM_NUM>  (2361) 
fragi: 7  fragj: 15

>  <atom.prop.CHAIN_ID>  (2361) 
A A A A A A A Z Z Z Z Z Z Z Z Z Z Z Z Z Z Z

>  <atom.prop.IS_HEAVY_ATOM>  (2361) 
1 0 0 0 1 1 1 1 0 0 0 1 1 0 1 0 1 0 1 0 1 0

>  <DIFUSE_FUNC_ATOM>  (2361) 
atom 6   atom 7   

>  <FINAL_SINGLE_POINT_ENERGY>  (2361) 
0

>  <NONCOV_INTER_ENERGY_QM>  (2361) 
0

>  <FF_Energy>  (2361) 
9.54

>  <QM_Energy>  (2361) 
-2.98

>  <source>  (2361) 
ACET_MBZ_02

>  <Index>  (2361) 
29678

$$$$
ACET-pdb6hx3-G-GLU-123:MBZ-pdb6hx3-G-PHE-135
     RDKit          3D

 22 21  0  0  0  0  0  0  0  0999 V2000
   -5.0747    2.0946   -0.8569 C   0  0  0  0  0  0  0  0  0  0  0  0
   -4.8634    1.1894   -1.1821 H   0  0  0  0  0  0  0  0  0  0  0  0
   -5.4640    2.6580   -1.5654 H   0  0  0  0  0  0  0  0  0  0  0  0
   -5.7993    2.0079   -0.0473 H   0  0  0  0  0  0  0  0  0  0  0  0
   -3.7689    2.7411   -0.4281 C   0  0  0  0  0  0  0  0  0  0  0  0
   -3.5472    2.9149    0.7928 O   0  0  0  0  0  1  0  0  0  0  0  0
   -2.9579    3.0763   -1.3200 O   0  0  0  0  0  0  0  0  0  0  0  0
    0.0008    2.8835   -0.0130 C   0  0  0  0  0  0  0  0  0  0  0  0
    0.6870    3.1988    0.6238 H   0  0  0  0  0  0  0  0  0  0  0  0
   -0.9009    3.1964    0.2438 H   0  0  0  0  0  0  0  0  0  0  0  0
    0.2341    3.3069   -0.9899 H   0  0  0  0  0  0  0  0  0  0  0  0
   -0.0010    1.3880    0.0023 C   0  0  0  0  0  0  0  0  0  0  0  0
   -1.1864    0.6894   -0.0032 C   0  0  0  0  0  0  0  0  0  0  0  0
   -2.0557    1.1812   -0.0113 H   0  0  0  0  0  0  0  0  0  0  0  0
   -1.1910   -0.6891   -0.0000 C   0  0  0  0  0  0  0  0  0  0  0  0
   -2.0710   -1.1852    0.0004 H   0  0  0  0  0  0  0  0  0  0  0  0
    0.0013   -1.3833    0.0046 C   0  0  0  0  0  0  0  0  0  0  0  0
   -0.0048   -2.3839    0.0112 H   0  0  0  0  0  0  0  0  0  0  0  0
    1.1910   -0.6910    0.0000 C   0  0  0  0  0  0  0  0  0  0  0  0
    2.0767   -1.1913    0.0012 H   0  0  0  0  0  0  0  0  0  0  0  0
    1.1861    0.6859   -0.0037 C   0  0  0  0  0  0  0  0  0  0  0  0
    2.0572    1.1856   -0.0122 H   0  0  0  0  0  0  0  0  0  0  0  0
  1  5  1  0
  5  6  1  0
  5  7  2  0
  1  2  1  0
  1  3  1  0
  1  4  1  0
  8 12  1  0
 12 13  2  0
 13 15  1  0
 15 17  2  0
 17 19  1  0
 19 21  2  0
 21 12  1  0
  8  9  1  0
  8 10  1  0
  8 11  1  0
 13 14  1  0
 15 16  1  0
 17 18  1  0
 19 20  1  0
 21 22  1  0
M  CHG  1   6  -1
M  END
>  <PDB_ID>  (2362) 
pdb6hx3

>  <RESIDUE_NAME>  (2362) 
GLU   PHE

>  <FRAG_NAME>  (2362) 
ACET   MBZ

>  <FRAG_ATOM_NUM>  (2362) 
fragi: 7  fragj: 15

>  <atom.prop.CHAIN_ID>  (2362) 
A A A A A A A Z Z Z Z Z Z Z Z Z Z Z Z Z Z Z

>  <atom.prop.IS_HEAVY_ATOM>  (2362) 
1 0 0 0 1 1 1 1 0 0 0 1 1 0 1 0 1 0 1 0 1 0

>  <DIFUSE_FUNC_ATOM>  (2362) 
atom 6   atom 7   

>  <FINAL_SINGLE_POINT_ENERGY>  (2362) 
0

>  <NONCOV_INTER_ENERGY_QM>  (2362) 
0

>  <FF_Energy>  (2362) 
1.18

>  <QM_Energy>  (2362) 
-8.34

>  <source>  (2362) 
ACET_MBZ_02

>  <Index>  (2362) 
29686

$$$$
ACET-pdb5hnv-A-GLU-110:MBZ-pdb5hnv-A-PHE-20
     RDKit          3D

 22 21  0  0  0  0  0  0  0  0999 V2000
   -5.5636   -0.7294    0.4192 C   0  0  0  0  0  0  0  0  0  0  0  0
   -5.3418   -1.4677   -0.1930 H   0  0  0  0  0  0  0  0  0  0  0  0
   -6.5150   -0.4821    0.3704 H   0  0  0  0  0  0  0  0  0  0  0  0
   -5.3401   -1.0468    1.4378 H   0  0  0  0  0  0  0  0  0  0  0  0
   -4.7567    0.4777   -0.0101 C   0  0  0  0  0  0  0  0  0  0  0  0
   -4.2931    1.2394    0.8698 O   0  0  0  0  0  1  0  0  0  0  0  0
   -4.5932    0.6705   -1.2303 O   0  0  0  0  0  0  0  0  0  0  0  0
    0.0094    2.8989    0.0491 C   0  0  0  0  0  0  0  0  0  0  0  0
    0.9166    3.1896    0.3337 H   0  0  0  0  0  0  0  0  0  0  0  0
   -0.6713    3.1835    0.7152 H   0  0  0  0  0  0  0  0  0  0  0  0
   -0.2181    3.4008   -0.8914 H   0  0  0  0  0  0  0  0  0  0  0  0
    0.0004    1.3984   -0.0099 C   0  0  0  0  0  0  0  0  0  0  0  0
   -1.2001    0.6980    0.0027 C   0  0  0  0  0  0  0  0  0  0  0  0
   -2.0629    1.1862    0.0126 H   0  0  0  0  0  0  0  0  0  0  0  0
   -1.1996   -0.6959   -0.0000 C   0  0  0  0  0  0  0  0  0  0  0  0
   -2.0742   -1.1921    0.0025 H   0  0  0  0  0  0  0  0  0  0  0  0
    0.0064   -1.3885   -0.0041 C   0  0  0  0  0  0  0  0  0  0  0  0
   -0.0009   -2.3899   -0.0111 H   0  0  0  0  0  0  0  0  0  0  0  0
    1.1996   -0.6973    0.0000 C   0  0  0  0  0  0  0  0  0  0  0  0
    2.0833   -1.1947   -0.0041 H   0  0  0  0  0  0  0  0  0  0  0  0
    1.1933    0.6854    0.0113 C   0  0  0  0  0  0  0  0  0  0  0  0
    2.0630    1.1849    0.0340 H   0  0  0  0  0  0  0  0  0  0  0  0
  1  5  1  0
  5  6  1  0
  5  7  2  0
  1  2  1  0
  1  3  1  0
  1  4  1  0
  8 12  1  0
 12 13  2  0
 13 15  1  0
 15 17  2  0
 17 19  1  0
 19 21  2  0
 21 12  1  0
  8  9  1  0
  8 10  1  0
  8 11  1  0
 13 14  1  0
 15 16  1  0
 17 18  1  0
 19 20  1  0
 21 22  1  0
M  CHG  1   6  -1
M  END
>  <PDB_ID>  (2363) 
pdb5hnv

>  <RESIDUE_NAME>  (2363) 
GLU   PHE

>  <FRAG_NAME>  (2363) 
ACET   MBZ

>  <FRAG_ATOM_NUM>  (2363) 
fragi: 7  fragj: 15

>  <atom.prop.CHAIN_ID>  (2363) 
A A A A A A A Z Z Z Z Z Z Z Z Z Z Z Z Z Z Z

>  <atom.prop.IS_HEAVY_ATOM>  (2363) 
1 0 0 0 1 1 1 1 0 0 0 1 1 0 1 0 1 0 1 0 1 0

>  <DIFUSE_FUNC_ATOM>  (2363) 
atom 6   atom 7   

>  <FINAL_SINGLE_POINT_ENERGY>  (2363) 
0

>  <NONCOV_INTER_ENERGY_QM>  (2363) 
0

>  <FF_Energy>  (2363) 
-2.15

>  <QM_Energy>  (2363) 
-7.42

>  <source>  (2363) 
ACET_MBZ_02

>  <Index>  (2363) 
29914

$$$$
ACET-pdb6i1d-A-ASP-54:MBZ-pdb6i1d-B-PHE-9
     RDKit          3D

 22 21  0  0  0  0  0  0  0  0999 V2000
   -5.2029    4.5398    0.9410 C   0  0  0  0  0  0  0  0  0  0  0  0
   -5.9549    3.9465    1.2119 H   0  0  0  0  0  0  0  0  0  0  0  0
   -5.2573    4.7423   -0.0307 H   0  0  0  0  0  0  0  0  0  0  0  0
   -5.3031    5.4786    1.4858 H   0  0  0  0  0  0  0  0  0  0  0  0
   -3.8939    3.8254    1.2191 C   0  0  0  0  0  0  0  0  0  0  0  0
   -2.9053    4.4916    1.5955 O   0  0  0  0  0  1  0  0  0  0  0  0
   -3.8591    2.5851    1.0524 O   0  0  0  0  0  0  0  0  0  0  0  0
   -0.0004    2.9000   -0.0006 C   0  0  0  0  0  0  0  0  0  0  0  0
    0.8245    3.2068    0.4478 H   0  0  0  0  0  0  0  0  0  0  0  0
   -0.8074    3.2077    0.4800 H   0  0  0  0  0  0  0  0  0  0  0  0
   -0.0201    3.3368   -0.9990 H   0  0  0  0  0  0  0  0  0  0  0  0
   -0.0009    1.3979    0.0016 C   0  0  0  0  0  0  0  0  0  0  0  0
   -1.1942    0.6889   -0.0004 C   0  0  0  0  0  0  0  0  0  0  0  0
   -2.0622    1.1797   -0.0030 H   0  0  0  0  0  0  0  0  0  0  0  0
   -1.1979   -0.6969    0.0000 C   0  0  0  0  0  0  0  0  0  0  0  0
   -2.0739   -1.1928    0.0036 H   0  0  0  0  0  0  0  0  0  0  0  0
    0.0018   -1.3887   -0.0030 C   0  0  0  0  0  0  0  0  0  0  0  0
   -0.0012   -2.3894   -0.0077 H   0  0  0  0  0  0  0  0  0  0  0  0
    1.1979   -0.6933   -0.0000 C   0  0  0  0  0  0  0  0  0  0  0  0
    2.0813   -1.1916    0.0021 H   0  0  0  0  0  0  0  0  0  0  0  0
    1.1932    0.6922    0.0018 C   0  0  0  0  0  0  0  0  0  0  0  0
    2.0621    1.1904    0.0025 H   0  0  0  0  0  0  0  0  0  0  0  0
  1  5  1  0
  5  6  1  0
  5  7  2  0
  1  2  1  0
  1  3  1  0
  1  4  1  0
  8 12  1  0
 12 13  2  0
 13 15  1  0
 15 17  2  0
 17 19  1  0
 19 21  2  0
 21 12  1  0
  8  9  1  0
  8 10  1  0
  8 11  1  0
 13 14  1  0
 15 16  1  0
 17 18  1  0
 19 20  1  0
 21 22  1  0
M  CHG  1   6  -1
M  END
>  <PDB_ID>  (2364) 
pdb6i1d

>  <RESIDUE_NAME>  (2364) 
ASP   PHE

>  <FRAG_NAME>  (2364) 
ACET   MBZ

>  <FRAG_ATOM_NUM>  (2364) 
fragi: 7  fragj: 15

>  <atom.prop.CHAIN_ID>  (2364) 
A A A A A A A Z Z Z Z Z Z Z Z Z Z Z Z Z Z Z

>  <atom.prop.IS_HEAVY_ATOM>  (2364) 
1 0 0 0 1 1 1 1 0 0 0 1 1 0 1 0 1 0 1 0 1 0

>  <DIFUSE_FUNC_ATOM>  (2364) 
atom 6   atom 7   

>  <FINAL_SINGLE_POINT_ENERGY>  (2364) 
0

>  <NONCOV_INTER_ENERGY_QM>  (2364) 
0

>  <FF_Energy>  (2364) 
-2.47

>  <QM_Energy>  (2364) 
-8.53

>  <source>  (2364) 
ACET_MBZ_02

>  <Index>  (2364) 
30065

$$$$
ACET-pdb5hsq-A-ASP-197:MBZ-pdb5hsq-A-PHE-193
     RDKit          3D

 22 21  0  0  0  0  0  0  0  0999 V2000
    4.1381    4.8473   -2.0048 C   0  0  0  0  0  0  0  0  0  0  0  0
    3.2205    5.2391   -2.0473 H   0  0  0  0  0  0  0  0  0  0  0  0
    4.2645    4.2054   -2.7586 H   0  0  0  0  0  0  0  0  0  0  0  0
    4.8489    5.6616   -2.1447 H   0  0  0  0  0  0  0  0  0  0  0  0
    4.2894    4.0958   -0.6884 C   0  0  0  0  0  0  0  0  0  0  0  0
    4.9463    4.5547    0.2300 O   0  0  0  0  0  1  0  0  0  0  0  0
    3.6758    3.0137   -0.5248 O   0  0  0  0  0  0  0  0  0  0  0  0
   -0.0181    2.8749    0.0386 C   0  0  0  0  0  0  0  0  0  0  0  0
   -0.6437    3.1862   -0.6692 H   0  0  0  0  0  0  0  0  0  0  0  0
    0.9060    3.1897   -0.1517 H   0  0  0  0  0  0  0  0  0  0  0  0
   -0.3346    3.3151    0.9842 H   0  0  0  0  0  0  0  0  0  0  0  0
   -0.0065    1.3747    0.0133 C   0  0  0  0  0  0  0  0  0  0  0  0
   -1.1851    0.6799   -0.0044 C   0  0  0  0  0  0  0  0  0  0  0  0
   -2.0566    1.1695   -0.0216 H   0  0  0  0  0  0  0  0  0  0  0  0
   -1.1819   -0.6899   -0.0000 C   0  0  0  0  0  0  0  0  0  0  0  0
   -2.0535   -1.1953   -0.0089 H   0  0  0  0  0  0  0  0  0  0  0  0
    0.0140   -1.3501    0.0183 C   0  0  0  0  0  0  0  0  0  0  0  0
    0.0067   -2.3706    0.0463 H   0  0  0  0  0  0  0  0  0  0  0  0
    1.1819   -0.6841   -0.0000 C   0  0  0  0  0  0  0  0  0  0  0  0
    2.0727   -1.1873    0.0082 H   0  0  0  0  0  0  0  0  0  0  0  0
    1.1777    0.6695   -0.0271 C   0  0  0  0  0  0  0  0  0  0  0  0
    2.0464    1.1784   -0.0784 H   0  0  0  0  0  0  0  0  0  0  0  0
  1  5  1  0
  5  6  1  0
  5  7  2  0
  1  2  1  0
  1  3  1  0
  1  4  1  0
  8 12  1  0
 12 13  2  0
 13 15  1  0
 15 17  2  0
 17 19  1  0
 19 21  2  0
 21 12  1  0
  8  9  1  0
  8 10  1  0
  8 11  1  0
 13 14  1  0
 15 16  1  0
 17 18  1  0
 19 20  1  0
 21 22  1  0
M  CHG  1   6  -1
M  END
>  <PDB_ID>  (2365) 
pdb5hsq

>  <RESIDUE_NAME>  (2365) 
ASP   PHE

>  <FRAG_NAME>  (2365) 
ACET   MBZ

>  <FRAG_ATOM_NUM>  (2365) 
fragi: 7  fragj: 15

>  <atom.prop.CHAIN_ID>  (2365) 
A A A A A A A Z Z Z Z Z Z Z Z Z Z Z Z Z Z Z

>  <atom.prop.IS_HEAVY_ATOM>  (2365) 
1 0 0 0 1 1 1 1 0 0 0 1 1 0 1 0 1 0 1 0 1 0

>  <DIFUSE_FUNC_ATOM>  (2365) 
atom 6   atom 7   

>  <FINAL_SINGLE_POINT_ENERGY>  (2365) 
0

>  <NONCOV_INTER_ENERGY_QM>  (2365) 
0

>  <FF_Energy>  (2365) 
-2.41

>  <QM_Energy>  (2365) 
-7.52

>  <source>  (2365) 
ACET_MBZ_02

>  <Index>  (2365) 
30103

$$$$
ACET-pdb6ifq-A-GLU-54:MBZ-pdb6ifq-A-PHE-244
     RDKit          3D

 22 21  0  0  0  0  0  0  0  0999 V2000
   -4.0427    3.0688   -3.3980 C   0  0  0  0  0  0  0  0  0  0  0  0
   -4.4847    3.7108   -3.9964 H   0  0  0  0  0  0  0  0  0  0  0  0
   -4.5635    2.9006   -2.5812 H   0  0  0  0  0  0  0  0  0  0  0  0
   -3.9321    2.1255   -3.9328 H   0  0  0  0  0  0  0  0  0  0  0  0
   -2.7137    3.6674   -2.9808 C   0  0  0  0  0  0  0  0  0  0  0  0
   -1.8393    2.9114   -2.5177 O   0  0  0  0  0  1  0  0  0  0  0  0
   -2.5402    4.8957   -3.1203 O   0  0  0  0  0  0  0  0  0  0  0  0
   -0.0003    2.8999    0.0003 C   0  0  0  0  0  0  0  0  0  0  0  0
   -0.7554    3.2059   -0.5599 H   0  0  0  0  0  0  0  0  0  0  0  0
    0.8658    3.2056   -0.3652 H   0  0  0  0  0  0  0  0  0  0  0  0
   -0.1191    3.3388    0.9910 H   0  0  0  0  0  0  0  0  0  0  0  0
   -0.0002    1.3972    0.0005 C   0  0  0  0  0  0  0  0  0  0  0  0
   -1.1927    0.6902   -0.0005 C   0  0  0  0  0  0  0  0  0  0  0  0
   -2.0610    1.1808   -0.0026 H   0  0  0  0  0  0  0  0  0  0  0  0
   -1.1950   -0.6945    0.0000 C   0  0  0  0  0  0  0  0  0  0  0  0
   -2.0734   -1.1907    0.0023 H   0  0  0  0  0  0  0  0  0  0  0  0
    0.0012   -1.3873   -0.0006 C   0  0  0  0  0  0  0  0  0  0  0  0
   -0.0036   -2.3884   -0.0019 H   0  0  0  0  0  0  0  0  0  0  0  0
    1.1950   -0.6942   -0.0000 C   0  0  0  0  0  0  0  0  0  0  0  0
    2.0791   -1.1939    0.0016 H   0  0  0  0  0  0  0  0  0  0  0  0
    1.1917    0.6887    0.0007 C   0  0  0  0  0  0  0  0  0  0  0  0
    2.0620    1.1865    0.0009 H   0  0  0  0  0  0  0  0  0  0  0  0
  1  5  1  0
  5  6  1  0
  5  7  2  0
  1  2  1  0
  1  3  1  0
  1  4  1  0
  8 12  1  0
 12 13  2  0
 13 15  1  0
 15 17  2  0
 17 19  1  0
 19 21  2  0
 21 12  1  0
  8  9  1  0
  8 10  1  0
  8 11  1  0
 13 14  1  0
 15 16  1  0
 17 18  1  0
 19 20  1  0
 21 22  1  0
M  CHG  1   6  -1
M  END
>  <PDB_ID>  (2366) 
pdb6ifq

>  <RESIDUE_NAME>  (2366) 
GLU   PHE

>  <FRAG_NAME>  (2366) 
ACET   MBZ

>  <FRAG_ATOM_NUM>  (2366) 
fragi: 7  fragj: 15

>  <atom.prop.CHAIN_ID>  (2366) 
A A A A A A A Z Z Z Z Z Z Z Z Z Z Z Z Z Z Z

>  <atom.prop.IS_HEAVY_ATOM>  (2366) 
1 0 0 0 1 1 1 1 0 0 0 1 1 0 1 0 1 0 1 0 1 0

>  <DIFUSE_FUNC_ATOM>  (2366) 
atom 6   atom 7   

>  <FINAL_SINGLE_POINT_ENERGY>  (2366) 
0

>  <NONCOV_INTER_ENERGY_QM>  (2366) 
0

>  <FF_Energy>  (2366) 
1.33

>  <QM_Energy>  (2366) 
-5.65

>  <source>  (2366) 
ACET_MBZ_02

>  <Index>  (2366) 
30526

$$$$
ACET-pdb5i20-A-GLU-200:MBZ-pdb5i20-A-PHE-33
     RDKit          3D

 22 21  0  0  0  0  0  0  0  0999 V2000
    4.0440    5.0937    0.5816 C   0  0  0  0  0  0  0  0  0  0  0  0
    3.3271    5.7276    0.3412 H   0  0  0  0  0  0  0  0  0  0  0  0
    4.8908    5.3118    0.1228 H   0  0  0  0  0  0  0  0  0  0  0  0
    4.2069    5.1457    1.6581 H   0  0  0  0  0  0  0  0  0  0  0  0
    3.6121    3.7215    0.1041 C   0  0  0  0  0  0  0  0  0  0  0  0
    3.7960    2.7412    0.8560 O   0  0  0  0  0  1  0  0  0  0  0  0
    3.0802    3.6247   -1.0234 O   0  0  0  0  0  0  0  0  0  0  0  0
   -0.0072    2.8916   -0.0002 C   0  0  0  0  0  0  0  0  0  0  0  0
    0.9292    3.2034    0.0533 H   0  0  0  0  0  0  0  0  0  0  0  0
   -0.5346    3.1972    0.7778 H   0  0  0  0  0  0  0  0  0  0  0  0
   -0.4525    3.3266   -0.8949 H   0  0  0  0  0  0  0  0  0  0  0  0
   -0.0004    1.3939   -0.0011 C   0  0  0  0  0  0  0  0  0  0  0  0
   -1.1931    0.6863    0.0014 C   0  0  0  0  0  0  0  0  0  0  0  0
   -2.0606    1.1795    0.0026 H   0  0  0  0  0  0  0  0  0  0  0  0
   -1.1962   -0.6937   -0.0000 C   0  0  0  0  0  0  0  0  0  0  0  0
   -2.0730   -1.1914    0.0004 H   0  0  0  0  0  0  0  0  0  0  0  0
    0.0007   -1.3845   -0.0001 C   0  0  0  0  0  0  0  0  0  0  0  0
   -0.0027   -2.3860   -0.0006 H   0  0  0  0  0  0  0  0  0  0  0  0
    1.1962   -0.6925   -0.0000 C   0  0  0  0  0  0  0  0  0  0  0  0
    2.0787   -1.1924    0.0019 H   0  0  0  0  0  0  0  0  0  0  0  0
    1.1928    0.6905   -0.0003 C   0  0  0  0  0  0  0  0  0  0  0  0
    2.0614    1.1893   -0.0003 H   0  0  0  0  0  0  0  0  0  0  0  0
  1  5  1  0
  5  6  1  0
  5  7  2  0
  1  2  1  0
  1  3  1  0
  1  4  1  0
  8 12  1  0
 12 13  2  0
 13 15  1  0
 15 17  2  0
 17 19  1  0
 19 21  2  0
 21 12  1  0
  8  9  1  0
  8 10  1  0
  8 11  1  0
 13 14  1  0
 15 16  1  0
 17 18  1  0
 19 20  1  0
 21 22  1  0
M  CHG  1   6  -1
M  END
>  <PDB_ID>  (2367) 
pdb5i20

>  <RESIDUE_NAME>  (2367) 
GLU   PHE

>  <FRAG_NAME>  (2367) 
ACET   MBZ

>  <FRAG_ATOM_NUM>  (2367) 
fragi: 7  fragj: 15

>  <atom.prop.CHAIN_ID>  (2367) 
A A A A A A A Z Z Z Z Z Z Z Z Z Z Z Z Z Z Z

>  <atom.prop.IS_HEAVY_ATOM>  (2367) 
1 0 0 0 1 1 1 1 0 0 0 1 1 0 1 0 1 0 1 0 1 0

>  <DIFUSE_FUNC_ATOM>  (2367) 
atom 6   atom 7   

>  <FINAL_SINGLE_POINT_ENERGY>  (2367) 
0

>  <NONCOV_INTER_ENERGY_QM>  (2367) 
0

>  <FF_Energy>  (2367) 
-2.24

>  <QM_Energy>  (2367) 
-9.24

>  <source>  (2367) 
ACET_MBZ_02

>  <Index>  (2367) 
30607

$$$$
ACET-pdb5i20-B-GLU-200:MBZ-pdb5i20-B-PHE-33
     RDKit          3D

 22 21  0  0  0  0  0  0  0  0999 V2000
    4.4248    3.5041    0.4252 C   0  0  0  0  0  0  0  0  0  0  0  0
    5.0964    3.0789   -0.1505 H   0  0  0  0  0  0  0  0  0  0  0  0
    4.0781    2.8943    1.1115 H   0  0  0  0  0  0  0  0  0  0  0  0
    4.8887    4.3554    0.9233 H   0  0  0  0  0  0  0  0  0  0  0  0
    3.2587    3.9137   -0.4551 C   0  0  0  0  0  0  0  0  0  0  0  0
    2.6851    4.9984   -0.2202 O   0  0  0  0  0  1  0  0  0  0  0  0
    2.9250    3.1607   -1.3939 O   0  0  0  0  0  0  0  0  0  0  0  0
   -0.0020    2.9083    0.0076 C   0  0  0  0  0  0  0  0  0  0  0  0
    0.9320    3.2135    0.1085 H   0  0  0  0  0  0  0  0  0  0  0  0
   -0.5636    3.2069    0.7633 H   0  0  0  0  0  0  0  0  0  0  0  0
   -0.4021    3.3565   -0.9019 H   0  0  0  0  0  0  0  0  0  0  0  0
    0.0002    1.3996   -0.0025 C   0  0  0  0  0  0  0  0  0  0  0  0
   -1.1941    0.6883    0.0025 C   0  0  0  0  0  0  0  0  0  0  0  0
   -2.0619    1.1803    0.0074 H   0  0  0  0  0  0  0  0  0  0  0  0
   -1.1977   -0.6962   -0.0000 C   0  0  0  0  0  0  0  0  0  0  0  0
   -2.0754   -1.1923   -0.0003 H   0  0  0  0  0  0  0  0  0  0  0  0
    0.0006   -1.3909   -0.0006 C   0  0  0  0  0  0  0  0  0  0  0  0
   -0.0033   -2.3901   -0.0020 H   0  0  0  0  0  0  0  0  0  0  0  0
    1.1977   -0.6958   -0.0000 C   0  0  0  0  0  0  0  0  0  0  0  0
    2.0813   -1.1917    0.0015 H   0  0  0  0  0  0  0  0  0  0  0  0
    1.1934    0.6950    0.0006 C   0  0  0  0  0  0  0  0  0  0  0  0
    2.0625    1.1898    0.0029 H   0  0  0  0  0  0  0  0  0  0  0  0
  1  5  1  0
  5  6  1  0
  5  7  2  0
  1  2  1  0
  1  3  1  0
  1  4  1  0
  8 12  1  0
 12 13  2  0
 13 15  1  0
 15 17  2  0
 17 19  1  0
 19 21  2  0
 21 12  1  0
  8  9  1  0
  8 10  1  0
  8 11  1  0
 13 14  1  0
 15 16  1  0
 17 18  1  0
 19 20  1  0
 21 22  1  0
M  CHG  1   6  -1
M  END
>  <PDB_ID>  (2368) 
pdb5i20

>  <RESIDUE_NAME>  (2368) 
GLU   PHE

>  <FRAG_NAME>  (2368) 
ACET   MBZ

>  <FRAG_ATOM_NUM>  (2368) 
fragi: 7  fragj: 15

>  <atom.prop.CHAIN_ID>  (2368) 
A A A A A A A Z Z Z Z Z Z Z Z Z Z Z Z Z Z Z

>  <atom.prop.IS_HEAVY_ATOM>  (2368) 
1 0 0 0 1 1 1 1 0 0 0 1 1 0 1 0 1 0 1 0 1 0

>  <DIFUSE_FUNC_ATOM>  (2368) 
atom 6   atom 7   

>  <FINAL_SINGLE_POINT_ENERGY>  (2368) 
0

>  <NONCOV_INTER_ENERGY_QM>  (2368) 
0

>  <FF_Energy>  (2368) 
-0.59

>  <QM_Energy>  (2368) 
-7.36

>  <source>  (2368) 
ACET_MBZ_02

>  <Index>  (2368) 
30610

$$$$
ACET-pdb5i20-D-GLU-200:MBZ-pdb5i20-D-PHE-33
     RDKit          3D

 22 21  0  0  0  0  0  0  0  0999 V2000
    4.5107    3.6880    1.1287 C   0  0  0  0  0  0  0  0  0  0  0  0
    5.3174    3.4635    0.6151 H   0  0  0  0  0  0  0  0  0  0  0  0
    4.2367    2.9627    1.7312 H   0  0  0  0  0  0  0  0  0  0  0  0
    4.7250    4.5709    1.7307 H   0  0  0  0  0  0  0  0  0  0  0  0
    3.3850    3.9166    0.1419 C   0  0  0  0  0  0  0  0  0  0  0  0
    2.6799    4.9391    0.2745 O   0  0  0  0  0  1  0  0  0  0  0  0
    3.2079    3.0818   -0.7709 O   0  0  0  0  0  0  0  0  0  0  0  0
   -0.0058    2.8980   -0.0015 C   0  0  0  0  0  0  0  0  0  0  0  0
    0.9179    3.2084    0.1597 H   0  0  0  0  0  0  0  0  0  0  0  0
   -0.6195    3.2036    0.7101 H   0  0  0  0  0  0  0  0  0  0  0  0
   -0.3442    3.3340   -0.9414 H   0  0  0  0  0  0  0  0  0  0  0  0
   -0.0005    1.3961   -0.0008 C   0  0  0  0  0  0  0  0  0  0  0  0
   -1.1911    0.6895    0.0003 C   0  0  0  0  0  0  0  0  0  0  0  0
   -2.0603    1.1805    0.0000 H   0  0  0  0  0  0  0  0  0  0  0  0
   -1.1948   -0.6948    0.0000 C   0  0  0  0  0  0  0  0  0  0  0  0
   -2.0734   -1.1894    0.0007 H   0  0  0  0  0  0  0  0  0  0  0  0
   -0.0003   -1.3866    0.0001 C   0  0  0  0  0  0  0  0  0  0  0  0
   -0.0040   -2.3884   -0.0005 H   0  0  0  0  0  0  0  0  0  0  0  0
    1.1948   -0.6946    0.0000 C   0  0  0  0  0  0  0  0  0  0  0  0
    2.0777   -1.1936    0.0012 H   0  0  0  0  0  0  0  0  0  0  0  0
    1.1920    0.6903    0.0004 C   0  0  0  0  0  0  0  0  0  0  0  0
    2.0614    1.1878    0.0007 H   0  0  0  0  0  0  0  0  0  0  0  0
  1  5  1  0
  5  6  1  0
  5  7  2  0
  1  2  1  0
  1  3  1  0
  1  4  1  0
  8 12  1  0
 12 13  2  0
 13 15  1  0
 15 17  2  0
 17 19  1  0
 19 21  2  0
 21 12  1  0
  8  9  1  0
  8 10  1  0
  8 11  1  0
 13 14  1  0
 15 16  1  0
 17 18  1  0
 19 20  1  0
 21 22  1  0
M  CHG  1   6  -1
M  END
>  <PDB_ID>  (2369) 
pdb5i20

>  <RESIDUE_NAME>  (2369) 
GLU   PHE

>  <FRAG_NAME>  (2369) 
ACET   MBZ

>  <FRAG_ATOM_NUM>  (2369) 
fragi: 7  fragj: 15

>  <atom.prop.CHAIN_ID>  (2369) 
A A A A A A A Z Z Z Z Z Z Z Z Z Z Z Z Z Z Z

>  <atom.prop.IS_HEAVY_ATOM>  (2369) 
1 0 0 0 1 1 1 1 0 0 0 1 1 0 1 0 1 0 1 0 1 0

>  <DIFUSE_FUNC_ATOM>  (2369) 
atom 6   atom 7   

>  <FINAL_SINGLE_POINT_ENERGY>  (2369) 
0

>  <NONCOV_INTER_ENERGY_QM>  (2369) 
0

>  <FF_Energy>  (2369) 
-0.84

>  <QM_Energy>  (2369) 
-8.55

>  <source>  (2369) 
ACET_MBZ_02

>  <Index>  (2369) 
30615

$$$$
ACET-pdb5i20-E-GLU-200:MBZ-pdb5i20-E-PHE-33
     RDKit          3D

 22 21  0  0  0  0  0  0  0  0999 V2000
    4.5643    3.1979    0.0519 C   0  0  0  0  0  0  0  0  0  0  0  0
    5.2382    2.8782   -0.5919 H   0  0  0  0  0  0  0  0  0  0  0  0
    4.2917    2.4901    0.6804 H   0  0  0  0  0  0  0  0  0  0  0  0
    5.0004    4.0163    0.6249 H   0  0  0  0  0  0  0  0  0  0  0  0
    3.3286    3.6015   -0.7430 C   0  0  0  0  0  0  0  0  0  0  0  0
    2.7162    4.6485   -0.4389 O   0  0  0  0  0  1  0  0  0  0  0  0
    2.9728    2.8666   -1.6859 O   0  0  0  0  0  0  0  0  0  0  0  0
   -0.0003    2.9057    0.0068 C   0  0  0  0  0  0  0  0  0  0  0  0
    0.9387    3.2113    0.0550 H   0  0  0  0  0  0  0  0  0  0  0  0
   -0.5168    3.2068    0.7937 H   0  0  0  0  0  0  0  0  0  0  0  0
   -0.4514    3.3544   -0.8781 H   0  0  0  0  0  0  0  0  0  0  0  0
   -0.0009    1.4004   -0.0026 C   0  0  0  0  0  0  0  0  0  0  0  0
   -1.1961    0.6916    0.0023 C   0  0  0  0  0  0  0  0  0  0  0  0
   -2.0636    1.1812    0.0063 H   0  0  0  0  0  0  0  0  0  0  0  0
   -1.1989   -0.6983   -0.0000 C   0  0  0  0  0  0  0  0  0  0  0  0
   -2.0746   -1.1930    0.0016 H   0  0  0  0  0  0  0  0  0  0  0  0
    0.0025   -1.3897   -0.0024 C   0  0  0  0  0  0  0  0  0  0  0  0
   -0.0011   -2.3907   -0.0062 H   0  0  0  0  0  0  0  0  0  0  0  0
    1.1989   -0.6953    0.0000 C   0  0  0  0  0  0  0  0  0  0  0  0
    2.0819   -1.1931    0.0013 H   0  0  0  0  0  0  0  0  0  0  0  0
    1.1945    0.6913    0.0027 C   0  0  0  0  0  0  0  0  0  0  0  0
    2.0635    1.1891    0.0079 H   0  0  0  0  0  0  0  0  0  0  0  0
  1  5  1  0
  5  6  1  0
  5  7  2  0
  1  2  1  0
  1  3  1  0
  1  4  1  0
  8 12  1  0
 12 13  2  0
 13 15  1  0
 15 17  2  0
 17 19  1  0
 19 21  2  0
 21 12  1  0
  8  9  1  0
  8 10  1  0
  8 11  1  0
 13 14  1  0
 15 16  1  0
 17 18  1  0
 19 20  1  0
 21 22  1  0
M  CHG  1   6  -1
M  END
>  <PDB_ID>  (2370) 
pdb5i20

>  <RESIDUE_NAME>  (2370) 
GLU   PHE

>  <FRAG_NAME>  (2370) 
ACET   MBZ

>  <FRAG_ATOM_NUM>  (2370) 
fragi: 7  fragj: 15

>  <atom.prop.CHAIN_ID>  (2370) 
A A A A A A A Z Z Z Z Z Z Z Z Z Z Z Z Z Z Z

>  <atom.prop.IS_HEAVY_ATOM>  (2370) 
1 0 0 0 1 1 1 1 0 0 0 1 1 0 1 0 1 0 1 0 1 0

>  <DIFUSE_FUNC_ATOM>  (2370) 
atom 6   atom 7   

>  <FINAL_SINGLE_POINT_ENERGY>  (2370) 
0

>  <NONCOV_INTER_ENERGY_QM>  (2370) 
0

>  <FF_Energy>  (2370) 
-0.28

>  <QM_Energy>  (2370) 
-7.15

>  <source>  (2370) 
ACET_MBZ_02

>  <Index>  (2370) 
30619

$$$$
ACET-pdb6ii0-A-ASP-3326:MBZ-pdb6ii0-C-PHE-3490
     RDKit          3D

 22 21  0  0  0  0  0  0  0  0999 V2000
    5.4052    3.5697   -0.2982 C   0  0  0  0  0  0  0  0  0  0  0  0
    5.3167    3.5224   -1.2918 H   0  0  0  0  0  0  0  0  0  0  0  0
    5.4757    2.6476    0.0769 H   0  0  0  0  0  0  0  0  0  0  0  0
    6.3319    4.0961   -0.0700 H   0  0  0  0  0  0  0  0  0  0  0  0
    4.1858    4.2360    0.2701 C   0  0  0  0  0  0  0  0  0  0  0  0
    4.3114    5.1183    1.1706 O   0  0  0  0  0  1  0  0  0  0  0  0
    3.0750    3.8727   -0.2187 O   0  0  0  0  0  0  0  0  0  0  0  0
    0.0109    2.9050   -0.1012 C   0  0  0  0  0  0  0  0  0  0  0  0
   -0.8393    3.1760   -0.5351 H   0  0  0  0  0  0  0  0  0  0  0  0
    0.7886    3.1561   -0.6654 H   0  0  0  0  0  0  0  0  0  0  0  0
    0.0931    3.4386    0.8458 H   0  0  0  0  0  0  0  0  0  0  0  0
    0.0023    1.3998    0.0200 C   0  0  0  0  0  0  0  0  0  0  0  0
   -1.1903    0.6954   -0.0684 C   0  0  0  0  0  0  0  0  0  0  0  0
   -2.0493    1.1838   -0.1834 H   0  0  0  0  0  0  0  0  0  0  0  0
   -1.2002   -0.6926   -0.0000 C   0  0  0  0  0  0  0  0  0  0  0  0
   -2.0784   -1.1832    0.0291 H   0  0  0  0  0  0  0  0  0  0  0  0
    0.0001   -1.3983    0.0292 C   0  0  0  0  0  0  0  0  0  0  0  0
   -0.0055   -2.3899    0.0696 H   0  0  0  0  0  0  0  0  0  0  0  0
    1.2002   -0.6955   -0.0000 C   0  0  0  0  0  0  0  0  0  0  0  0
    2.0812   -1.1912   -0.0338 H   0  0  0  0  0  0  0  0  0  0  0  0
    1.1879    0.6912    0.0191 C   0  0  0  0  0  0  0  0  0  0  0  0
    2.0620    1.1888    0.0316 H   0  0  0  0  0  0  0  0  0  0  0  0
  1  5  1  0
  5  6  1  0
  5  7  2  0
  1  2  1  0
  1  3  1  0
  1  4  1  0
  8 12  1  0
 12 13  2  0
 13 15  1  0
 15 17  2  0
 17 19  1  0
 19 21  2  0
 21 12  1  0
  8  9  1  0
  8 10  1  0
  8 11  1  0
 13 14  1  0
 15 16  1  0
 17 18  1  0
 19 20  1  0
 21 22  1  0
M  CHG  1   6  -1
M  END
>  <PDB_ID>  (2371) 
pdb6ii0

>  <RESIDUE_NAME>  (2371) 
ASP   PHE

>  <FRAG_NAME>  (2371) 
ACET   MBZ

>  <FRAG_ATOM_NUM>  (2371) 
fragi: 7  fragj: 15

>  <atom.prop.CHAIN_ID>  (2371) 
A A A A A A A Z Z Z Z Z Z Z Z Z Z Z Z Z Z Z

>  <atom.prop.IS_HEAVY_ATOM>  (2371) 
1 0 0 0 1 1 1 1 0 0 0 1 1 0 1 0 1 0 1 0 1 0

>  <DIFUSE_FUNC_ATOM>  (2371) 
atom 6   atom 7   

>  <FINAL_SINGLE_POINT_ENERGY>  (2371) 
0

>  <NONCOV_INTER_ENERGY_QM>  (2371) 
0

>  <FF_Energy>  (2371) 
-1.65

>  <QM_Energy>  (2371) 
-6.89

>  <source>  (2371) 
ACET_MBZ_02

>  <Index>  (2371) 
30647

$$$$
ACET-pdb6iih-B-GLU-64:MBZ-pdb6iih-B-PHE-67
     RDKit          3D

 22 21  0  0  0  0  0  0  0  0999 V2000
    4.7960    3.5465   -1.8466 C   0  0  0  0  0  0  0  0  0  0  0  0
    4.3120    3.5626   -2.6872 H   0  0  0  0  0  0  0  0  0  0  0  0
    5.7350    3.3613   -2.0082 H   0  0  0  0  0  0  0  0  0  0  0  0
    4.7004    4.5168   -1.3593 H   0  0  0  0  0  0  0  0  0  0  0  0
    4.2317    2.4251   -0.9972 C   0  0  0  0  0  0  0  0  0  0  0  0
    4.1213    2.6140    0.2387 O   0  0  0  0  0  1  0  0  0  0  0  0
    3.8955    1.3592   -1.5683 O   0  0  0  0  0  0  0  0  0  0  0  0
    0.0075    2.8979    0.0016 C   0  0  0  0  0  0  0  0  0  0  0  0
   -0.4145    3.1929   -0.8208 H   0  0  0  0  0  0  0  0  0  0  0  0
    0.9336    3.1838    0.0200 H   0  0  0  0  0  0  0  0  0  0  0  0
   -0.5140    3.3579    0.8409 H   0  0  0  0  0  0  0  0  0  0  0  0
   -0.0024    1.4026    0.0004 C   0  0  0  0  0  0  0  0  0  0  0  0
   -1.2004    0.6957    0.0015 C   0  0  0  0  0  0  0  0  0  0  0  0
   -2.0076    1.1575    0.0040 H   0  0  0  0  0  0  0  0  0  0  0  0
   -1.2046   -0.7037    0.0000 C   0  0  0  0  0  0  0  0  0  0  0  0
   -2.0094   -1.1686   -0.0047 H   0  0  0  0  0  0  0  0  0  0  0  0
    0.0089   -1.3975    0.0055 C   0  0  0  0  0  0  0  0  0  0  0  0
    0.0144   -2.3278    0.0112 H   0  0  0  0  0  0  0  0  0  0  0  0
    1.2046   -0.6941   -0.0000 C   0  0  0  0  0  0  0  0  0  0  0  0
    2.0135   -1.1531    0.0022 H   0  0  0  0  0  0  0  0  0  0  0  0
    1.1939    0.6969   -0.0075 C   0  0  0  0  0  0  0  0  0  0  0  0
    2.0004    1.1607   -0.0176 H   0  0  0  0  0  0  0  0  0  0  0  0
  1  5  1  0
  5  6  1  0
  5  7  2  0
  1  2  1  0
  1  3  1  0
  1  4  1  0
  8 12  1  0
 12 13  2  0
 13 15  1  0
 15 17  2  0
 17 19  1  0
 19 21  2  0
 21 12  1  0
  8  9  1  0
  8 10  1  0
  8 11  1  0
 13 14  1  0
 15 16  1  0
 17 18  1  0
 19 20  1  0
 21 22  1  0
M  CHG  1   6  -1
M  END
>  <PDB_ID>  (2372) 
pdb6iih

>  <RESIDUE_NAME>  (2372) 
GLU   PHE

>  <FRAG_NAME>  (2372) 
ACET   MBZ

>  <FRAG_ATOM_NUM>  (2372) 
fragi: 7  fragj: 15

>  <atom.prop.CHAIN_ID>  (2372) 
A A A A A A A Z Z Z Z Z Z Z Z Z Z Z Z Z Z Z

>  <atom.prop.IS_HEAVY_ATOM>  (2372) 
1 0 0 0 1 1 1 1 0 0 0 1 1 0 1 0 1 0 1 0 1 0

>  <DIFUSE_FUNC_ATOM>  (2372) 
atom 6   atom 7   

>  <FINAL_SINGLE_POINT_ENERGY>  (2372) 
0

>  <NONCOV_INTER_ENERGY_QM>  (2372) 
0

>  <FF_Energy>  (2372) 
-2.14

>  <QM_Energy>  (2372) 
-7.94

>  <source>  (2372) 
ACET_MBZ_02

>  <Index>  (2372) 
30661

$$$$
ACET-pdb6iii-A-GLU-189:MBZ-pdb6iii-A-PHE-184
     RDKit          3D

 22 21  0  0  0  0  0  0  0  0999 V2000
   -5.3411    3.1558    0.5430 C   0  0  0  0  0  0  0  0  0  0  0  0
   -6.0564    3.1549    1.2187 H   0  0  0  0  0  0  0  0  0  0  0  0
   -5.5646    3.7225   -0.2306 H   0  0  0  0  0  0  0  0  0  0  0  0
   -4.4436    3.5633    1.0083 H   0  0  0  0  0  0  0  0  0  0  0  0
   -5.1848    1.7202    0.0332 C   0  0  0  0  0  0  0  0  0  0  0  0
   -4.0775    1.3455   -0.3945 O   0  0  0  0  0  1  0  0  0  0  0  0
   -6.1777    0.9641    0.0422 O   0  0  0  0  0  0  0  0  0  0  0  0
   -0.0080    2.8864   -0.0301 C   0  0  0  0  0  0  0  0  0  0  0  0
    0.8822    3.2057    0.2491 H   0  0  0  0  0  0  0  0  0  0  0  0
   -0.7187    3.2099    0.5714 H   0  0  0  0  0  0  0  0  0  0  0  0
   -0.2078    3.2852   -1.0246 H   0  0  0  0  0  0  0  0  0  0  0  0
   -0.0042    1.3915    0.0077 C   0  0  0  0  0  0  0  0  0  0  0  0
   -1.1919    0.6839   -0.0058 C   0  0  0  0  0  0  0  0  0  0  0  0
   -2.0618    1.1776   -0.0211 H   0  0  0  0  0  0  0  0  0  0  0  0
   -1.1965   -0.6921   -0.0000 C   0  0  0  0  0  0  0  0  0  0  0  0
   -2.0699   -1.1937    0.0013 H   0  0  0  0  0  0  0  0  0  0  0  0
    0.0064   -1.3845    0.0053 C   0  0  0  0  0  0  0  0  0  0  0  0
   -0.0012   -2.3858    0.0128 H   0  0  0  0  0  0  0  0  0  0  0  0
    1.1965   -0.6925    0.0000 C   0  0  0  0  0  0  0  0  0  0  0  0
    2.0823   -1.1870    0.0030 H   0  0  0  0  0  0  0  0  0  0  0  0
    1.1898    0.6938   -0.0072 C   0  0  0  0  0  0  0  0  0  0  0  0
    2.0571    1.1921   -0.0239 H   0  0  0  0  0  0  0  0  0  0  0  0
  1  5  1  0
  5  6  1  0
  5  7  2  0
  1  2  1  0
  1  3  1  0
  1  4  1  0
  8 12  1  0
 12 13  2  0
 13 15  1  0
 15 17  2  0
 17 19  1  0
 19 21  2  0
 21 12  1  0
  8  9  1  0
  8 10  1  0
  8 11  1  0
 13 14  1  0
 15 16  1  0
 17 18  1  0
 19 20  1  0
 21 22  1  0
M  CHG  1   6  -1
M  END
>  <PDB_ID>  (2373) 
pdb6iii

>  <RESIDUE_NAME>  (2373) 
GLU   PHE

>  <FRAG_NAME>  (2373) 
ACET   MBZ

>  <FRAG_ATOM_NUM>  (2373) 
fragi: 7  fragj: 15

>  <atom.prop.CHAIN_ID>  (2373) 
A A A A A A A Z Z Z Z Z Z Z Z Z Z Z Z Z Z Z

>  <atom.prop.IS_HEAVY_ATOM>  (2373) 
1 0 0 0 1 1 1 1 0 0 0 1 1 0 1 0 1 0 1 0 1 0

>  <DIFUSE_FUNC_ATOM>  (2373) 
atom 6   atom 7   

>  <FINAL_SINGLE_POINT_ENERGY>  (2373) 
0

>  <NONCOV_INTER_ENERGY_QM>  (2373) 
0

>  <FF_Energy>  (2373) 
2.76

>  <QM_Energy>  (2373) 
-6.73

>  <source>  (2373) 
ACET_MBZ_02

>  <Index>  (2373) 
30667

$$$$
ACET-pdb6iii-A-GLU-356:MBZ-pdb6iii-A-PHE-383
     RDKit          3D

 22 21  0  0  0  0  0  0  0  0999 V2000
    3.6633    2.3023    2.1592 C   0  0  0  0  0  0  0  0  0  0  0  0
    4.6266    2.4885    2.1689 H   0  0  0  0  0  0  0  0  0  0  0  0
    3.4082    1.6653    1.4579 H   0  0  0  0  0  0  0  0  0  0  0  0
    3.3786    1.8900    3.1273 H   0  0  0  0  0  0  0  0  0  0  0  0
    2.9494    3.5923    1.8868 C   0  0  0  0  0  0  0  0  0  0  0  0
    3.0148    4.0803    0.7339 O   0  0  0  0  0  1  0  0  0  0  0  0
    2.3212    4.1151    2.8381 O   0  0  0  0  0  0  0  0  0  0  0  0
   -0.0035    2.8991    0.0090 C   0  0  0  0  0  0  0  0  0  0  0  0
   -0.4353    3.2089   -0.8298 H   0  0  0  0  0  0  0  0  0  0  0  0
    0.9400    3.2055    0.0511 H   0  0  0  0  0  0  0  0  0  0  0  0
   -0.5380    3.3493    0.8455 H   0  0  0  0  0  0  0  0  0  0  0  0
   -0.0010    1.3955   -0.0000 C   0  0  0  0  0  0  0  0  0  0  0  0
   -1.1878    0.6854   -0.0084 C   0  0  0  0  0  0  0  0  0  0  0  0
   -2.0591    1.1731   -0.0221 H   0  0  0  0  0  0  0  0  0  0  0  0
   -1.1871   -0.6977   -0.0000 C   0  0  0  0  0  0  0  0  0  0  0  0
   -2.0690   -1.1925    0.0040 H   0  0  0  0  0  0  0  0  0  0  0  0
    0.0005   -1.3819    0.0049 C   0  0  0  0  0  0  0  0  0  0  0  0
   -0.0001   -2.3868    0.0113 H   0  0  0  0  0  0  0  0  0  0  0  0
    1.1871   -0.6926   -0.0000 C   0  0  0  0  0  0  0  0  0  0  0  0
    2.0745   -1.1904   -0.0049 H   0  0  0  0  0  0  0  0  0  0  0  0
    1.1883    0.6913    0.0035 C   0  0  0  0  0  0  0  0  0  0  0  0
    2.0587    1.1863    0.0081 H   0  0  0  0  0  0  0  0  0  0  0  0
  1  5  1  0
  5  6  1  0
  5  7  2  0
  1  2  1  0
  1  3  1  0
  1  4  1  0
  8 12  1  0
 12 13  2  0
 13 15  1  0
 15 17  2  0
 17 19  1  0
 19 21  2  0
 21 12  1  0
  8  9  1  0
  8 10  1  0
  8 11  1  0
 13 14  1  0
 15 16  1  0
 17 18  1  0
 19 20  1  0
 21 22  1  0
M  CHG  1   6  -1
M  END
>  <PDB_ID>  (2374) 
pdb6iii

>  <RESIDUE_NAME>  (2374) 
GLU   PHE

>  <FRAG_NAME>  (2374) 
ACET   MBZ

>  <FRAG_ATOM_NUM>  (2374) 
fragi: 7  fragj: 15

>  <atom.prop.CHAIN_ID>  (2374) 
A A A A A A A Z Z Z Z Z Z Z Z Z Z Z Z Z Z Z

>  <atom.prop.IS_HEAVY_ATOM>  (2374) 
1 0 0 0 1 1 1 1 0 0 0 1 1 0 1 0 1 0 1 0 1 0

>  <DIFUSE_FUNC_ATOM>  (2374) 
atom 6   atom 7   

>  <FINAL_SINGLE_POINT_ENERGY>  (2374) 
0

>  <NONCOV_INTER_ENERGY_QM>  (2374) 
0

>  <FF_Energy>  (2374) 
-0.88

>  <QM_Energy>  (2374) 
-6.34

>  <source>  (2374) 
ACET_MBZ_02

>  <Index>  (2374) 
30673

$$$$
ACET-pdb5i5d-A-ASP-372:MBZ-pdb5i5d-A-PHE-399
     RDKit          3D

 22 21  0  0  0  0  0  0  0  0999 V2000
   -2.7755    1.3579    3.1874 C   0  0  0  0  0  0  0  0  0  0  0  0
   -2.7614    1.3612    4.1830 H   0  0  0  0  0  0  0  0  0  0  0  0
   -2.0777    0.7405    2.8376 H   0  0  0  0  0  0  0  0  0  0  0  0
   -3.7555    1.0299    2.8408 H   0  0  0  0  0  0  0  0  0  0  0  0
   -2.3819    2.8054    2.7203 C   0  0  0  0  0  0  0  0  0  0  0  0
   -2.9277    3.4080    1.7341 O   0  0  0  0  0  1  0  0  0  0  0  0
   -1.4849    3.3533    3.3644 O   0  0  0  0  0  0  0  0  0  0  0  0
    0.0879    2.8924    0.0855 C   0  0  0  0  0  0  0  0  0  0  0  0
    1.0216    3.1609   -0.1613 H   0  0  0  0  0  0  0  0  0  0  0  0
   -0.0941    3.1709    1.0315 H   0  0  0  0  0  0  0  0  0  0  0  0
   -0.5992    3.4373   -0.5618 H   0  0  0  0  0  0  0  0  0  0  0  0
    0.0141    1.4011    0.0295 C   0  0  0  0  0  0  0  0  0  0  0  0
   -1.1711    0.7147   -0.0148 C   0  0  0  0  0  0  0  0  0  0  0  0
   -2.0371    1.2098   -0.0602 H   0  0  0  0  0  0  0  0  0  0  0  0
   -1.1812   -0.6614    0.0000 C   0  0  0  0  0  0  0  0  0  0  0  0
   -2.0841   -1.1457    0.0266 H   0  0  0  0  0  0  0  0  0  0  0  0
   -0.0187   -1.3969   -0.0182 C   0  0  0  0  0  0  0  0  0  0  0  0
   -0.0493   -2.3900   -0.0444 H   0  0  0  0  0  0  0  0  0  0  0  0
    1.1812   -0.7257    0.0000 C   0  0  0  0  0  0  0  0  0  0  0  0
    2.0580   -1.2209    0.0120 H   0  0  0  0  0  0  0  0  0  0  0  0
    1.1757    0.6682    0.0034 C   0  0  0  0  0  0  0  0  0  0  0  0
    2.0673    1.1512   -0.0152 H   0  0  0  0  0  0  0  0  0  0  0  0
  1  5  1  0
  5  6  1  0
  5  7  2  0
  1  2  1  0
  1  3  1  0
  1  4  1  0
  8 12  1  0
 12 13  2  0
 13 15  1  0
 15 17  2  0
 17 19  1  0
 19 21  2  0
 21 12  1  0
  8  9  1  0
  8 10  1  0
  8 11  1  0
 13 14  1  0
 15 16  1  0
 17 18  1  0
 19 20  1  0
 21 22  1  0
M  CHG  1   6  -1
M  END
>  <PDB_ID>  (2375) 
pdb5i5d

>  <RESIDUE_NAME>  (2375) 
ASP   PHE

>  <FRAG_NAME>  (2375) 
ACET   MBZ

>  <FRAG_ATOM_NUM>  (2375) 
fragi: 7  fragj: 15

>  <atom.prop.CHAIN_ID>  (2375) 
A A A A A A A Z Z Z Z Z Z Z Z Z Z Z Z Z Z Z

>  <atom.prop.IS_HEAVY_ATOM>  (2375) 
1 0 0 0 1 1 1 1 0 0 0 1 1 0 1 0 1 0 1 0 1 0

>  <DIFUSE_FUNC_ATOM>  (2375) 
atom 6   atom 7   

>  <FINAL_SINGLE_POINT_ENERGY>  (2375) 
0

>  <NONCOV_INTER_ENERGY_QM>  (2375) 
0

>  <FF_Energy>  (2375) 
-1.86

>  <QM_Energy>  (2375) 
-7.66

>  <source>  (2375) 
ACET_MBZ_02

>  <Index>  (2375) 
30827

$$$$
ACET-pdb5i5d-C-ASP-372:MBZ-pdb5i5d-C-PHE-399
     RDKit          3D

 22 21  0  0  0  0  0  0  0  0999 V2000
   -3.1125    1.4610    2.9094 C   0  0  0  0  0  0  0  0  0  0  0  0
   -3.2337    1.5096    3.8952 H   0  0  0  0  0  0  0  0  0  0  0  0
   -2.3844    0.8226    2.6824 H   0  0  0  0  0  0  0  0  0  0  0  0
   -4.0406    1.1059    2.4615 H   0  0  0  0  0  0  0  0  0  0  0  0
   -2.6615    2.8806    2.4223 C   0  0  0  0  0  0  0  0  0  0  0  0
   -3.1558    3.4367    1.3759 O   0  0  0  0  0  1  0  0  0  0  0  0
   -1.7944    3.4523    3.1289 O   0  0  0  0  0  0  0  0  0  0  0  0
    0.0551    2.8929   -0.0139 C   0  0  0  0  0  0  0  0  0  0  0  0
    0.9930    3.1718   -0.2035 H   0  0  0  0  0  0  0  0  0  0  0  0
   -0.2112    3.1887    0.8998 H   0  0  0  0  0  0  0  0  0  0  0  0
   -0.5920    3.4038   -0.7269 H   0  0  0  0  0  0  0  0  0  0  0  0
    0.0037    1.3930   -0.0482 C   0  0  0  0  0  0  0  0  0  0  0  0
   -1.1907    0.7121   -0.0464 C   0  0  0  0  0  0  0  0  0  0  0  0
   -2.0540    1.1918   -0.0787 H   0  0  0  0  0  0  0  0  0  0  0  0
   -1.1919   -0.6915   -0.0000 C   0  0  0  0  0  0  0  0  0  0  0  0
   -2.0737   -1.1775   -0.0246 H   0  0  0  0  0  0  0  0  0  0  0  0
   -0.0006   -1.3846    0.0792 C   0  0  0  0  0  0  0  0  0  0  0  0
   -0.0115   -2.3803    0.1938 H   0  0  0  0  0  0  0  0  0  0  0  0
    1.1919   -0.7052   -0.0000 C   0  0  0  0  0  0  0  0  0  0  0  0
    2.0698   -1.2052   -0.0675 H   0  0  0  0  0  0  0  0  0  0  0  0
    1.1876    0.6762    0.0153 C   0  0  0  0  0  0  0  0  0  0  0  0
    2.0607    1.1724    0.0736 H   0  0  0  0  0  0  0  0  0  0  0  0
  1  5  1  0
  5  6  1  0
  5  7  2  0
  1  2  1  0
  1  3  1  0
  1  4  1  0
  8 12  1  0
 12 13  2  0
 13 15  1  0
 15 17  2  0
 17 19  1  0
 19 21  2  0
 21 12  1  0
  8  9  1  0
  8 10  1  0
  8 11  1  0
 13 14  1  0
 15 16  1  0
 17 18  1  0
 19 20  1  0
 21 22  1  0
M  CHG  1   6  -1
M  END
>  <PDB_ID>  (2376) 
pdb5i5d

>  <RESIDUE_NAME>  (2376) 
ASP   PHE

>  <FRAG_NAME>  (2376) 
ACET   MBZ

>  <FRAG_ATOM_NUM>  (2376) 
fragi: 7  fragj: 15

>  <atom.prop.CHAIN_ID>  (2376) 
A A A A A A A Z Z Z Z Z Z Z Z Z Z Z Z Z Z Z

>  <atom.prop.IS_HEAVY_ATOM>  (2376) 
1 0 0 0 1 1 1 1 0 0 0 1 1 0 1 0 1 0 1 0 1 0

>  <DIFUSE_FUNC_ATOM>  (2376) 
atom 6   atom 7   

>  <FINAL_SINGLE_POINT_ENERGY>  (2376) 
0

>  <NONCOV_INTER_ENERGY_QM>  (2376) 
0

>  <FF_Energy>  (2376) 
-2.07

>  <QM_Energy>  (2376) 
-7.76

>  <source>  (2376) 
ACET_MBZ_02

>  <Index>  (2376) 
30832

$$$$
ACET-pdb5i5d-D-ASP-372:MBZ-pdb5i5d-D-PHE-399
     RDKit          3D

 22 21  0  0  0  0  0  0  0  0999 V2000
   -3.0742    1.2600    3.0806 C   0  0  0  0  0  0  0  0  0  0  0  0
   -3.1404    1.2590    4.0762 H   0  0  0  0  0  0  0  0  0  0  0  0
   -2.3387    0.6529    2.7896 H   0  0  0  0  0  0  0  0  0  0  0  0
   -4.0172    0.9168    2.6552 H   0  0  0  0  0  0  0  0  0  0  0  0
   -2.6576    2.7174    2.6536 C   0  0  0  0  0  0  0  0  0  0  0  0
   -3.1644    3.2964    1.6291 O   0  0  0  0  0  1  0  0  0  0  0  0
   -1.7817    3.2749    3.3493 O   0  0  0  0  0  0  0  0  0  0  0  0
   -0.0162    2.9125    0.1145 C   0  0  0  0  0  0  0  0  0  0  0  0
    0.9098    3.2359   -0.0692 H   0  0  0  0  0  0  0  0  0  0  0  0
   -0.2660    3.1194    1.0578 H   0  0  0  0  0  0  0  0  0  0  0  0
   -0.7043    3.4360   -0.5492 H   0  0  0  0  0  0  0  0  0  0  0  0
   -0.0023    1.4130   -0.0263 C   0  0  0  0  0  0  0  0  0  0  0  0
   -1.1997    0.6873    0.0418 C   0  0  0  0  0  0  0  0  0  0  0  0
   -2.0640    1.1678    0.1192 H   0  0  0  0  0  0  0  0  0  0  0  0
   -1.1898   -0.7092   -0.0000 C   0  0  0  0  0  0  0  0  0  0  0  0
   -2.0685   -1.2038   -0.0126 H   0  0  0  0  0  0  0  0  0  0  0  0
    0.0047   -1.3861   -0.0219 C   0  0  0  0  0  0  0  0  0  0  0  0
   -0.0033   -2.3975   -0.0552 H   0  0  0  0  0  0  0  0  0  0  0  0
    1.1898   -0.7128   -0.0000 C   0  0  0  0  0  0  0  0  0  0  0  0
    2.0789   -1.1953    0.0134 H   0  0  0  0  0  0  0  0  0  0  0  0
    1.1973    0.7079    0.0064 C   0  0  0  0  0  0  0  0  0  0  0  0
    2.0649    1.1857    0.0337 H   0  0  0  0  0  0  0  0  0  0  0  0
  1  5  1  0
  5  6  1  0
  5  7  2  0
  1  2  1  0
  1  3  1  0
  1  4  1  0
  8 12  1  0
 12 13  2  0
 13 15  1  0
 15 17  2  0
 17 19  1  0
 19 21  2  0
 21 12  1  0
  8  9  1  0
  8 10  1  0
  8 11  1  0
 13 14  1  0
 15 16  1  0
 17 18  1  0
 19 20  1  0
 21 22  1  0
M  CHG  1   6  -1
M  END
>  <PDB_ID>  (2377) 
pdb5i5d

>  <RESIDUE_NAME>  (2377) 
ASP   PHE

>  <FRAG_NAME>  (2377) 
ACET   MBZ

>  <FRAG_ATOM_NUM>  (2377) 
fragi: 7  fragj: 15

>  <atom.prop.CHAIN_ID>  (2377) 
A A A A A A A Z Z Z Z Z Z Z Z Z Z Z Z Z Z Z

>  <atom.prop.IS_HEAVY_ATOM>  (2377) 
1 0 0 0 1 1 1 1 0 0 0 1 1 0 1 0 1 0 1 0 1 0

>  <DIFUSE_FUNC_ATOM>  (2377) 
atom 6   atom 7   

>  <FINAL_SINGLE_POINT_ENERGY>  (2377) 
0

>  <NONCOV_INTER_ENERGY_QM>  (2377) 
0

>  <FF_Energy>  (2377) 
-2.22

>  <QM_Energy>  (2377) 
-8.06

>  <source>  (2377) 
ACET_MBZ_02

>  <Index>  (2377) 
30837

$$$$
ACET-pdb5ifi-A-ASP-331:MBZ-pdb5ifi-A-PHE-190
     RDKit          3D

 22 21  0  0  0  0  0  0  0  0999 V2000
   -4.3922   -1.3380    0.3327 C   0  0  0  0  0  0  0  0  0  0  0  0
   -4.0598   -2.2470    0.1104 H   0  0  0  0  0  0  0  0  0  0  0  0
   -4.2311   -0.7121   -0.4195 H   0  0  0  0  0  0  0  0  0  0  0  0
   -5.4692   -1.4054    0.4868 H   0  0  0  0  0  0  0  0  0  0  0  0
   -3.6444   -0.8304    1.5620 C   0  0  0  0  0  0  0  0  0  0  0  0
   -3.7498    0.3809    1.9004 O   0  0  0  0  0  1  0  0  0  0  0  0
   -2.9247   -1.6452    2.1821 O   0  0  0  0  0  0  0  0  0  0  0  0
    0.0118    2.9081    0.0000 C   0  0  0  0  0  0  0  0  0  0  0  0
   -0.7060    3.2185   -0.6052 H   0  0  0  0  0  0  0  0  0  0  0  0
    0.9007    3.2088   -0.3134 H   0  0  0  0  0  0  0  0  0  0  0  0
   -0.1632    3.3561    0.9782 H   0  0  0  0  0  0  0  0  0  0  0  0
    0.0019    1.4060    0.0057 C   0  0  0  0  0  0  0  0  0  0  0  0
   -1.1941    0.7014    0.0026 C   0  0  0  0  0  0  0  0  0  0  0  0
   -2.0614    1.1829    0.0006 H   0  0  0  0  0  0  0  0  0  0  0  0
   -1.1946   -0.7025   -0.0000 C   0  0  0  0  0  0  0  0  0  0  0  0
   -2.0768   -1.1885    0.0013 H   0  0  0  0  0  0  0  0  0  0  0  0
   -0.0025   -1.3924   -0.0012 C   0  0  0  0  0  0  0  0  0  0  0  0
   -0.0061   -2.3953   -0.0029 H   0  0  0  0  0  0  0  0  0  0  0  0
    1.1946   -0.7028    0.0000 C   0  0  0  0  0  0  0  0  0  0  0  0
    2.0775   -1.1998    0.0076 H   0  0  0  0  0  0  0  0  0  0  0  0
    1.1947    0.6902   -0.0072 C   0  0  0  0  0  0  0  0  0  0  0  0
    2.0657    1.1820   -0.0226 H   0  0  0  0  0  0  0  0  0  0  0  0
  1  5  1  0
  5  6  1  0
  5  7  2  0
  1  2  1  0
  1  3  1  0
  1  4  1  0
  8 12  1  0
 12 13  2  0
 13 15  1  0
 15 17  2  0
 17 19  1  0
 19 21  2  0
 21 12  1  0
  8  9  1  0
  8 10  1  0
  8 11  1  0
 13 14  1  0
 15 16  1  0
 17 18  1  0
 19 20  1  0
 21 22  1  0
M  CHG  1   6  -1
M  END
>  <PDB_ID>  (2378) 
pdb5ifi

>  <RESIDUE_NAME>  (2378) 
ASP   PHE

>  <FRAG_NAME>  (2378) 
ACET   MBZ

>  <FRAG_ATOM_NUM>  (2378) 
fragi: 7  fragj: 15

>  <atom.prop.CHAIN_ID>  (2378) 
A A A A A A A Z Z Z Z Z Z Z Z Z Z Z Z Z Z Z

>  <atom.prop.IS_HEAVY_ATOM>  (2378) 
1 0 0 0 1 1 1 1 0 0 0 1 1 0 1 0 1 0 1 0 1 0

>  <DIFUSE_FUNC_ATOM>  (2378) 
atom 6   atom 7   

>  <FINAL_SINGLE_POINT_ENERGY>  (2378) 
0

>  <NONCOV_INTER_ENERGY_QM>  (2378) 
0

>  <FF_Energy>  (2378) 
11.61

>  <QM_Energy>  (2378) 
-1.5

>  <source>  (2378) 
ACET_MBZ_02

>  <Index>  (2378) 
31138

$$$$
ACET-pdb5ifs-B-ASP-55:MBZ-pdb5ifs-B-PHE-52
     RDKit          3D

 22 21  0  0  0  0  0  0  0  0999 V2000
   -1.8322    6.3714   -2.1518 C   0  0  0  0  0  0  0  0  0  0  0  0
   -1.8248    6.4958   -1.1660 H   0  0  0  0  0  0  0  0  0  0  0  0
   -2.6579    6.7608   -2.5442 H   0  0  0  0  0  0  0  0  0  0  0  0
   -0.9753    6.9020   -2.5670 H   0  0  0  0  0  0  0  0  0  0  0  0
   -1.8114    4.8754   -2.4513 C   0  0  0  0  0  0  0  0  0  0  0  0
   -1.1365    4.4497   -3.4313 O   0  0  0  0  0  1  0  0  0  0  0  0
   -2.4946    4.1331   -1.6998 O   0  0  0  0  0  0  0  0  0  0  0  0
    0.0204    2.9053   -0.0135 C   0  0  0  0  0  0  0  0  0  0  0  0
   -0.4778    3.2077   -0.8173 H   0  0  0  0  0  0  0  0  0  0  0  0
    0.9671    3.2008   -0.0549 H   0  0  0  0  0  0  0  0  0  0  0  0
   -0.4352    3.3805    0.8552 H   0  0  0  0  0  0  0  0  0  0  0  0
    0.0024    1.4032    0.0075 C   0  0  0  0  0  0  0  0  0  0  0  0
   -1.2004    0.6934   -0.0055 C   0  0  0  0  0  0  0  0  0  0  0  0
   -2.0639    1.1826   -0.0196 H   0  0  0  0  0  0  0  0  0  0  0  0
   -1.2016   -0.6999    0.0000 C   0  0  0  0  0  0  0  0  0  0  0  0
   -2.0780   -1.1940    0.0005 H   0  0  0  0  0  0  0  0  0  0  0  0
    0.0006   -1.3928    0.0066 C   0  0  0  0  0  0  0  0  0  0  0  0
   -0.0009   -2.3916    0.0159 H   0  0  0  0  0  0  0  0  0  0  0  0
    1.2016   -0.6950   -0.0000 C   0  0  0  0  0  0  0  0  0  0  0  0
    2.0823   -1.1947    0.0026 H   0  0  0  0  0  0  0  0  0  0  0  0
    1.1975    0.6912   -0.0087 C   0  0  0  0  0  0  0  0  0  0  0  0
    2.0660    1.1889   -0.0277 H   0  0  0  0  0  0  0  0  0  0  0  0
  1  5  1  0
  5  6  1  0
  5  7  2  0
  1  2  1  0
  1  3  1  0
  1  4  1  0
  8 12  1  0
 12 13  2  0
 13 15  1  0
 15 17  2  0
 17 19  1  0
 19 21  2  0
 21 12  1  0
  8  9  1  0
  8 10  1  0
  8 11  1  0
 13 14  1  0
 15 16  1  0
 17 18  1  0
 19 20  1  0
 21 22  1  0
M  CHG  1   6  -1
M  END
>  <PDB_ID>  (2379) 
pdb5ifs

>  <RESIDUE_NAME>  (2379) 
ASP   PHE

>  <FRAG_NAME>  (2379) 
ACET   MBZ

>  <FRAG_ATOM_NUM>  (2379) 
fragi: 7  fragj: 15

>  <atom.prop.CHAIN_ID>  (2379) 
A A A A A A A Z Z Z Z Z Z Z Z Z Z Z Z Z Z Z

>  <atom.prop.IS_HEAVY_ATOM>  (2379) 
1 0 0 0 1 1 1 1 0 0 0 1 1 0 1 0 1 0 1 0 1 0

>  <DIFUSE_FUNC_ATOM>  (2379) 
atom 6   atom 7   

>  <FINAL_SINGLE_POINT_ENERGY>  (2379) 
0

>  <NONCOV_INTER_ENERGY_QM>  (2379) 
0

>  <FF_Energy>  (2379) 
-0.43

>  <QM_Energy>  (2379) 
-6.04

>  <source>  (2379) 
ACET_MBZ_02

>  <Index>  (2379) 
31156

$$$$
ACET-pdb5ifi-C-GLU-394:MBZ-pdb5ifi-C-PHE-426
     RDKit          3D

 22 21  0  0  0  0  0  0  0  0999 V2000
    1.5841   -2.2968   -3.5891 C   0  0  0  0  0  0  0  0  0  0  0  0
    0.7944   -1.6871   -3.6785 H   0  0  0  0  0  0  0  0  0  0  0  0
    1.5695   -2.9653   -4.3338 H   0  0  0  0  0  0  0  0  0  0  0  0
    2.4823   -1.6903   -3.7060 H   0  0  0  0  0  0  0  0  0  0  0  0
    1.4420   -3.0442   -2.3025 C   0  0  0  0  0  0  0  0  0  0  0  0
    2.2659   -3.0058   -1.3975 O   0  0  0  0  0  1  0  0  0  0  0  0
    0.3950   -3.7208   -2.2581 O   0  0  0  0  0  0  0  0  0  0  0  0
   -0.0075    2.8925   -0.0250 C   0  0  0  0  0  0  0  0  0  0  0  0
   -0.8183    3.1922   -0.5323 H   0  0  0  0  0  0  0  0  0  0  0  0
    0.8143    3.2038   -0.5060 H   0  0  0  0  0  0  0  0  0  0  0  0
   -0.0261    3.3959    0.9417 H   0  0  0  0  0  0  0  0  0  0  0  0
    0.0029    1.3996   -0.0074 C   0  0  0  0  0  0  0  0  0  0  0  0
   -1.1983    0.6937   -0.0080 C   0  0  0  0  0  0  0  0  0  0  0  0
   -2.0623    1.1951   -0.0168 H   0  0  0  0  0  0  0  0  0  0  0  0
   -1.2192   -0.6925    0.0000 C   0  0  0  0  0  0  0  0  0  0  0  0
   -2.0886   -1.1848   -0.0099 H   0  0  0  0  0  0  0  0  0  0  0  0
   -0.0078   -1.3909    0.0251 C   0  0  0  0  0  0  0  0  0  0  0  0
   -0.0136   -2.3901    0.0614 H   0  0  0  0  0  0  0  0  0  0  0  0
    1.2192   -0.7012   -0.0000 C   0  0  0  0  0  0  0  0  0  0  0  0
    2.0843   -1.2031   -0.0099 H   0  0  0  0  0  0  0  0  0  0  0  0
    1.2033    0.6913   -0.0098 C   0  0  0  0  0  0  0  0  0  0  0  0
    2.0697    1.1931   -0.0188 H   0  0  0  0  0  0  0  0  0  0  0  0
  1  5  1  0
  5  6  1  0
  5  7  2  0
  1  2  1  0
  1  3  1  0
  1  4  1  0
  8 12  1  0
 12 13  2  0
 13 15  1  0
 15 17  2  0
 17 19  1  0
 19 21  2  0
 21 12  1  0
  8  9  1  0
  8 10  1  0
  8 11  1  0
 13 14  1  0
 15 16  1  0
 17 18  1  0
 19 20  1  0
 21 22  1  0
M  CHG  1   6  -1
M  END
>  <PDB_ID>  (2380) 
pdb5ifi

>  <RESIDUE_NAME>  (2380) 
GLU   PHE

>  <FRAG_NAME>  (2380) 
ACET   MBZ

>  <FRAG_ATOM_NUM>  (2380) 
fragi: 7  fragj: 15

>  <atom.prop.CHAIN_ID>  (2380) 
A A A A A A A Z Z Z Z Z Z Z Z Z Z Z Z Z Z Z

>  <atom.prop.IS_HEAVY_ATOM>  (2380) 
1 0 0 0 1 1 1 1 0 0 0 1 1 0 1 0 1 0 1 0 1 0

>  <DIFUSE_FUNC_ATOM>  (2380) 
atom 6   atom 7   

>  <FINAL_SINGLE_POINT_ENERGY>  (2380) 
0

>  <NONCOV_INTER_ENERGY_QM>  (2380) 
0

>  <FF_Energy>  (2380) 
0.32

>  <QM_Energy>  (2380) 
-5.82

>  <source>  (2380) 
ACET_MBZ_02

>  <Index>  (2380) 
31157

$$$$
ACET-pdb6itl-A-GLU-197:MBZ-pdb6itl-A-PHE-287
     RDKit          3D

 22 21  0  0  0  0  0  0  0  0999 V2000
   -3.7015    3.1525   -4.4889 C   0  0  0  0  0  0  0  0  0  0  0  0
   -3.1295    3.7496   -5.0296 H   0  0  0  0  0  0  0  0  0  0  0  0
   -4.5030    3.6227   -4.1558 H   0  0  0  0  0  0  0  0  0  0  0  0
   -4.0275    2.3277   -5.1226 H   0  0  0  0  0  0  0  0  0  0  0  0
   -2.8877    2.7233   -3.2714 C   0  0  0  0  0  0  0  0  0  0  0  0
   -3.4578    2.7165   -2.1664 O   0  0  0  0  0  1  0  0  0  0  0  0
   -1.6811    2.3944   -3.4319 O   0  0  0  0  0  0  0  0  0  0  0  0
   -0.0006    2.9016    0.0765 C   0  0  0  0  0  0  0  0  0  0  0  0
   -0.8148    3.2290   -0.3543 H   0  0  0  0  0  0  0  0  0  0  0  0
    0.8175    3.2292   -0.3458 H   0  0  0  0  0  0  0  0  0  0  0  0
   -0.0053    3.2384    1.1131 H   0  0  0  0  0  0  0  0  0  0  0  0
   -0.0001    1.3995   -0.0043 C   0  0  0  0  0  0  0  0  0  0  0  0
   -1.1856    0.6940    0.0191 C   0  0  0  0  0  0  0  0  0  0  0  0
   -2.0569    1.1818    0.0493 H   0  0  0  0  0  0  0  0  0  0  0  0
   -1.1894   -0.6915   -0.0000 C   0  0  0  0  0  0  0  0  0  0  0  0
   -2.0761   -1.1816   -0.0058 H   0  0  0  0  0  0  0  0  0  0  0  0
   -0.0066   -1.3907   -0.0087 C   0  0  0  0  0  0  0  0  0  0  0  0
   -0.0113   -2.3901   -0.0214 H   0  0  0  0  0  0  0  0  0  0  0  0
    1.1894   -0.6987   -0.0000 C   0  0  0  0  0  0  0  0  0  0  0  0
    2.0730   -1.2006    0.0127 H   0  0  0  0  0  0  0  0  0  0  0  0
    1.1922    0.6873   -0.0061 C   0  0  0  0  0  0  0  0  0  0  0  0
    2.0624    1.1814   -0.0130 H   0  0  0  0  0  0  0  0  0  0  0  0
  1  5  1  0
  5  6  1  0
  5  7  2  0
  1  2  1  0
  1  3  1  0
  1  4  1  0
  8 12  1  0
 12 13  2  0
 13 15  1  0
 15 17  2  0
 17 19  1  0
 19 21  2  0
 21 12  1  0
  8  9  1  0
  8 10  1  0
  8 11  1  0
 13 14  1  0
 15 16  1  0
 17 18  1  0
 19 20  1  0
 21 22  1  0
M  CHG  1   6  -1
M  END
>  <PDB_ID>  (2381) 
pdb6itl

>  <RESIDUE_NAME>  (2381) 
GLU   PHE

>  <FRAG_NAME>  (2381) 
ACET   MBZ

>  <FRAG_ATOM_NUM>  (2381) 
fragi: 7  fragj: 15

>  <atom.prop.CHAIN_ID>  (2381) 
A A A A A A A Z Z Z Z Z Z Z Z Z Z Z Z Z Z Z

>  <atom.prop.IS_HEAVY_ATOM>  (2381) 
1 0 0 0 1 1 1 1 0 0 0 1 1 0 1 0 1 0 1 0 1 0

>  <DIFUSE_FUNC_ATOM>  (2381) 
atom 6   atom 7   

>  <FINAL_SINGLE_POINT_ENERGY>  (2381) 
0

>  <NONCOV_INTER_ENERGY_QM>  (2381) 
0

>  <FF_Energy>  (2381) 
0.08

>  <QM_Energy>  (2381) 
-4.95

>  <source>  (2381) 
ACET_MBZ_02

>  <Index>  (2381) 
31245

$$$$
ACET-pdb6itw-A-ASP-210:MBZ-pdb6itw-A-PHE-120
     RDKit          3D

 22 21  0  0  0  0  0  0  0  0999 V2000
    0.0168   -0.0483    3.6835 C   0  0  0  0  0  0  0  0  0  0  0  0
   -0.4432   -0.6575    3.0441 H   0  0  0  0  0  0  0  0  0  0  0  0
   -0.3230   -0.2018    4.6063 H   0  0  0  0  0  0  0  0  0  0  0  0
    1.0811   -0.2833    3.6701 H   0  0  0  0  0  0  0  0  0  0  0  0
   -0.2903    1.3890    3.2869 C   0  0  0  0  0  0  0  0  0  0  0  0
    0.5767    2.2692    3.4638 O   0  0  0  0  0  1  0  0  0  0  0  0
   -1.4246    1.6338    2.8088 O   0  0  0  0  0  0  0  0  0  0  0  0
   -0.0062    2.8991   -0.0274 C   0  0  0  0  0  0  0  0  0  0  0  0
    0.9026    3.2191    0.1740 H   0  0  0  0  0  0  0  0  0  0  0  0
   -0.6664    3.2231    0.6263 H   0  0  0  0  0  0  0  0  0  0  0  0
   -0.2863    3.2996   -1.0016 H   0  0  0  0  0  0  0  0  0  0  0  0
   -0.0008    1.4040    0.0060 C   0  0  0  0  0  0  0  0  0  0  0  0
   -1.1935    0.6931   -0.0052 C   0  0  0  0  0  0  0  0  0  0  0  0
   -2.0630    1.1796   -0.0183 H   0  0  0  0  0  0  0  0  0  0  0  0
   -1.1959   -0.7012    0.0000 C   0  0  0  0  0  0  0  0  0  0  0  0
   -2.0718   -1.1946    0.0050 H   0  0  0  0  0  0  0  0  0  0  0  0
    0.0068   -1.3935   -0.0004 C   0  0  0  0  0  0  0  0  0  0  0  0
    0.0011   -2.3940   -0.0015 H   0  0  0  0  0  0  0  0  0  0  0  0
    1.1959   -0.6995    0.0000 C   0  0  0  0  0  0  0  0  0  0  0  0
    2.0836   -1.1876    0.0021 H   0  0  0  0  0  0  0  0  0  0  0  0
    1.1875    0.6972   -0.0004 C   0  0  0  0  0  0  0  0  0  0  0  0
    2.0607    1.1892   -0.0058 H   0  0  0  0  0  0  0  0  0  0  0  0
  1  5  1  0
  5  6  1  0
  5  7  2  0
  1  2  1  0
  1  3  1  0
  1  4  1  0
  8 12  1  0
 12 13  2  0
 13 15  1  0
 15 17  2  0
 17 19  1  0
 19 21  2  0
 21 12  1  0
  8  9  1  0
  8 10  1  0
  8 11  1  0
 13 14  1  0
 15 16  1  0
 17 18  1  0
 19 20  1  0
 21 22  1  0
M  CHG  1   6  -1
M  END
>  <PDB_ID>  (2382) 
pdb6itw

>  <RESIDUE_NAME>  (2382) 
ASP   PHE

>  <FRAG_NAME>  (2382) 
ACET   MBZ

>  <FRAG_ATOM_NUM>  (2382) 
fragi: 7  fragj: 15

>  <atom.prop.CHAIN_ID>  (2382) 
A A A A A A A Z Z Z Z Z Z Z Z Z Z Z Z Z Z Z

>  <atom.prop.IS_HEAVY_ATOM>  (2382) 
1 0 0 0 1 1 1 1 0 0 0 1 1 0 1 0 1 0 1 0 1 0

>  <DIFUSE_FUNC_ATOM>  (2382) 
atom 6   atom 7   

>  <FINAL_SINGLE_POINT_ENERGY>  (2382) 
0

>  <NONCOV_INTER_ENERGY_QM>  (2382) 
0

>  <FF_Energy>  (2382) 
2.45

>  <QM_Energy>  (2382) 
-5.15

>  <source>  (2382) 
ACET_MBZ_02

>  <Index>  (2382) 
31270

$$$$
ACET-pdb6ium-A-ASP-652:MBZ-pdb6ium-A-PHE-691
     RDKit          3D

 22 21  0  0  0  0  0  0  0  0999 V2000
    4.9663    4.3356   -2.0078 C   0  0  0  0  0  0  0  0  0  0  0  0
    5.4191    4.8578   -1.2940 H   0  0  0  0  0  0  0  0  0  0  0  0
    4.9553    4.8474   -2.8589 H   0  0  0  0  0  0  0  0  0  0  0  0
    5.5220    3.4114   -2.1658 H   0  0  0  0  0  0  0  0  0  0  0  0
    3.4992    4.1060   -1.5708 C   0  0  0  0  0  0  0  0  0  0  0  0
    3.0148    2.9411   -1.7317 O   0  0  0  0  0  1  0  0  0  0  0  0
    2.8623    5.1030   -1.1010 O   0  0  0  0  0  0  0  0  0  0  0  0
    0.0116    2.8993    0.0106 C   0  0  0  0  0  0  0  0  0  0  0  0
    0.9470    3.2055    0.1303 H   0  0  0  0  0  0  0  0  0  0  0  0
   -0.5600    3.2036    0.7606 H   0  0  0  0  0  0  0  0  0  0  0  0
   -0.3709    3.3563   -0.9021 H   0  0  0  0  0  0  0  0  0  0  0  0
    0.0061    1.4069   -0.0061 C   0  0  0  0  0  0  0  0  0  0  0  0
   -1.2084    0.7057    0.0105 C   0  0  0  0  0  0  0  0  0  0  0  0
   -2.0626    1.2157    0.0287 H   0  0  0  0  0  0  0  0  0  0  0  0
   -1.2239   -0.6678    0.0000 C   0  0  0  0  0  0  0  0  0  0  0  0
   -2.0981   -1.1717    0.0061 H   0  0  0  0  0  0  0  0  0  0  0  0
   -0.0069   -1.4121   -0.0174 C   0  0  0  0  0  0  0  0  0  0  0  0
   -0.0315   -2.3933   -0.0413 H   0  0  0  0  0  0  0  0  0  0  0  0
    1.2239   -0.7133    0.0000 C   0  0  0  0  0  0  0  0  0  0  0  0
    2.0890   -1.2155    0.0046 H   0  0  0  0  0  0  0  0  0  0  0  0
    1.2092    0.6806    0.0130 C   0  0  0  0  0  0  0  0  0  0  0  0
    2.0780    1.1828    0.0361 H   0  0  0  0  0  0  0  0  0  0  0  0
  1  5  1  0
  5  6  1  0
  5  7  2  0
  1  2  1  0
  1  3  1  0
  1  4  1  0
  8 12  1  0
 12 13  2  0
 13 15  1  0
 15 17  2  0
 17 19  1  0
 19 21  2  0
 21 12  1  0
  8  9  1  0
  8 10  1  0
  8 11  1  0
 13 14  1  0
 15 16  1  0
 17 18  1  0
 19 20  1  0
 21 22  1  0
M  CHG  1   6  -1
M  END
>  <PDB_ID>  (2383) 
pdb6ium

>  <RESIDUE_NAME>  (2383) 
ASP   PHE

>  <FRAG_NAME>  (2383) 
ACET   MBZ

>  <FRAG_ATOM_NUM>  (2383) 
fragi: 7  fragj: 15

>  <atom.prop.CHAIN_ID>  (2383) 
A A A A A A A Z Z Z Z Z Z Z Z Z Z Z Z Z Z Z

>  <atom.prop.IS_HEAVY_ATOM>  (2383) 
1 0 0 0 1 1 1 1 0 0 0 1 1 0 1 0 1 0 1 0 1 0

>  <DIFUSE_FUNC_ATOM>  (2383) 
atom 6   atom 7   

>  <FINAL_SINGLE_POINT_ENERGY>  (2383) 
0

>  <NONCOV_INTER_ENERGY_QM>  (2383) 
0

>  <FF_Energy>  (2383) 
-1.7

>  <QM_Energy>  (2383) 
-7.24

>  <source>  (2383) 
ACET_MBZ_02

>  <Index>  (2383) 
31319

$$$$
ACET-pdb6ium-B-ASP-503:MBZ-pdb6ium-B-PHE-516
     RDKit          3D

 22 21  0  0  0  0  0  0  0  0999 V2000
    5.0189    4.1045   -0.8489 C   0  0  0  0  0  0  0  0  0  0  0  0
    5.1422    4.2275    0.1374 H   0  0  0  0  0  0  0  0  0  0  0  0
    5.3022    4.9398   -1.3222 H   0  0  0  0  0  0  0  0  0  0  0  0
    5.6837    3.3014   -1.1673 H   0  0  0  0  0  0  0  0  0  0  0  0
    3.5620    3.8537   -1.1316 C   0  0  0  0  0  0  0  0  0  0  0  0
    3.1653    2.8435   -1.7769 O   0  0  0  0  0  1  0  0  0  0  0  0
    2.7816    4.7306   -0.7131 O   0  0  0  0  0  0  0  0  0  0  0  0
   -0.0279    2.8944   -0.1075 C   0  0  0  0  0  0  0  0  0  0  0  0
    0.8847    3.2370    0.0193 H   0  0  0  0  0  0  0  0  0  0  0  0
   -0.6536    3.2385    0.5683 H   0  0  0  0  0  0  0  0  0  0  0  0
   -0.3757    3.2383   -1.0816 H   0  0  0  0  0  0  0  0  0  0  0  0
    0.0050    1.4084   -0.0137 C   0  0  0  0  0  0  0  0  0  0  0  0
   -1.2015    0.6777   -0.0000 C   0  0  0  0  0  0  0  0  0  0  0  0
   -2.0660    1.1671    0.0089 H   0  0  0  0  0  0  0  0  0  0  0  0
   -1.1970   -0.7153   -0.0000 C   0  0  0  0  0  0  0  0  0  0  0  0
   -2.0711   -1.2114   -0.0079 H   0  0  0  0  0  0  0  0  0  0  0  0
    0.0045   -1.3937    0.0123 C   0  0  0  0  0  0  0  0  0  0  0  0
    0.0159   -2.3933    0.0291 H   0  0  0  0  0  0  0  0  0  0  0  0
    1.1970   -0.6835   -0.0000 C   0  0  0  0  0  0  0  0  0  0  0  0
    2.0854   -1.1784   -0.0089 H   0  0  0  0  0  0  0  0  0  0  0  0
    1.1920    0.7065    0.0015 C   0  0  0  0  0  0  0  0  0  0  0  0
    2.0642    1.2003    0.0128 H   0  0  0  0  0  0  0  0  0  0  0  0
  1  5  1  0
  5  6  1  0
  5  7  2  0
  1  2  1  0
  1  3  1  0
  1  4  1  0
  8 12  1  0
 12 13  2  0
 13 15  1  0
 15 17  2  0
 17 19  1  0
 19 21  2  0
 21 12  1  0
  8  9  1  0
  8 10  1  0
  8 11  1  0
 13 14  1  0
 15 16  1  0
 17 18  1  0
 19 20  1  0
 21 22  1  0
M  CHG  1   6  -1
M  END
>  <PDB_ID>  (2384) 
pdb6ium

>  <RESIDUE_NAME>  (2384) 
ASP   PHE

>  <FRAG_NAME>  (2384) 
ACET   MBZ

>  <FRAG_ATOM_NUM>  (2384) 
fragi: 7  fragj: 15

>  <atom.prop.CHAIN_ID>  (2384) 
A A A A A A A Z Z Z Z Z Z Z Z Z Z Z Z Z Z Z

>  <atom.prop.IS_HEAVY_ATOM>  (2384) 
1 0 0 0 1 1 1 1 0 0 0 1 1 0 1 0 1 0 1 0 1 0

>  <DIFUSE_FUNC_ATOM>  (2384) 
atom 6   atom 7   

>  <FINAL_SINGLE_POINT_ENERGY>  (2384) 
0

>  <NONCOV_INTER_ENERGY_QM>  (2384) 
0

>  <FF_Energy>  (2384) 
-1.86

>  <QM_Energy>  (2384) 
-7.8

>  <source>  (2384) 
ACET_MBZ_02

>  <Index>  (2384) 
31325

$$$$
ACET-pdb6ive-C-ASP-60:MBZ-pdb6ive-C-PHE-39
     RDKit          3D

 22 21  0  0  0  0  0  0  0  0999 V2000
   -4.0298    5.2704   -0.2510 C   0  0  0  0  0  0  0  0  0  0  0  0
   -4.6336    5.7724   -0.8580 H   0  0  0  0  0  0  0  0  0  0  0  0
   -3.0970    5.2944   -0.5872 H   0  0  0  0  0  0  0  0  0  0  0  0
   -4.0506    5.7564    0.7244 H   0  0  0  0  0  0  0  0  0  0  0  0
   -4.4908    3.8228   -0.1923 C   0  0  0  0  0  0  0  0  0  0  0  0
   -5.6776    3.5942    0.1076 O   0  0  0  0  0  1  0  0  0  0  0  0
   -3.6780    2.9135   -0.4545 O   0  0  0  0  0  0  0  0  0  0  0  0
   -0.0011    2.9008    0.0088 C   0  0  0  0  0  0  0  0  0  0  0  0
   -0.8134    3.2071   -0.4615 H   0  0  0  0  0  0  0  0  0  0  0  0
    0.8198    3.2093   -0.4468 H   0  0  0  0  0  0  0  0  0  0  0  0
   -0.0105    3.3353    1.0084 H   0  0  0  0  0  0  0  0  0  0  0  0
    0.0005    1.3942    0.0007 C   0  0  0  0  0  0  0  0  0  0  0  0
   -1.1903    0.6876   -0.0010 C   0  0  0  0  0  0  0  0  0  0  0  0
   -2.0588    1.1787   -0.0042 H   0  0  0  0  0  0  0  0  0  0  0  0
   -1.1930   -0.6952    0.0000 C   0  0  0  0  0  0  0  0  0  0  0  0
   -2.0721   -1.1906    0.0040 H   0  0  0  0  0  0  0  0  0  0  0  0
    0.0001   -1.3846   -0.0021 C   0  0  0  0  0  0  0  0  0  0  0  0
   -0.0016   -2.3858   -0.0054 H   0  0  0  0  0  0  0  0  0  0  0  0
    1.1930   -0.6908    0.0000 C   0  0  0  0  0  0  0  0  0  0  0  0
    2.0775   -1.1910    0.0016 H   0  0  0  0  0  0  0  0  0  0  0  0
    1.1897    0.6888    0.0023 C   0  0  0  0  0  0  0  0  0  0  0  0
    2.0599    1.1874    0.0041 H   0  0  0  0  0  0  0  0  0  0  0  0
  1  5  1  0
  5  6  1  0
  5  7  2  0
  1  2  1  0
  1  3  1  0
  1  4  1  0
  8 12  1  0
 12 13  2  0
 13 15  1  0
 15 17  2  0
 17 19  1  0
 19 21  2  0
 21 12  1  0
  8  9  1  0
  8 10  1  0
  8 11  1  0
 13 14  1  0
 15 16  1  0
 17 18  1  0
 19 20  1  0
 21 22  1  0
M  CHG  1   6  -1
M  END
>  <PDB_ID>  (2385) 
pdb6ive

>  <RESIDUE_NAME>  (2385) 
ASP   PHE

>  <FRAG_NAME>  (2385) 
ACET   MBZ

>  <FRAG_ATOM_NUM>  (2385) 
fragi: 7  fragj: 15

>  <atom.prop.CHAIN_ID>  (2385) 
A A A A A A A Z Z Z Z Z Z Z Z Z Z Z Z Z Z Z

>  <atom.prop.IS_HEAVY_ATOM>  (2385) 
1 0 0 0 1 1 1 1 0 0 0 1 1 0 1 0 1 0 1 0 1 0

>  <DIFUSE_FUNC_ATOM>  (2385) 
atom 6   atom 7   

>  <FINAL_SINGLE_POINT_ENERGY>  (2385) 
0

>  <NONCOV_INTER_ENERGY_QM>  (2385) 
0

>  <FF_Energy>  (2385) 
-2.21

>  <QM_Energy>  (2385) 
-7.54

>  <source>  (2385) 
ACET_MBZ_02

>  <Index>  (2385) 
31380

$$$$
ACET-pdb5il0-B-GLU-181:MBZ-pdb5il0-B-PHE-177
     RDKit          3D

 22 21  0  0  0  0  0  0  0  0999 V2000
    1.7525   -2.5388   -3.6160 C   0  0  0  0  0  0  0  0  0  0  0  0
    2.2109   -3.1732   -4.2397 H   0  0  0  0  0  0  0  0  0  0  0  0
    1.3424   -1.7945   -4.1469 H   0  0  0  0  0  0  0  0  0  0  0  0
    0.9432   -3.0826   -3.1288 H   0  0  0  0  0  0  0  0  0  0  0  0
    2.7916   -1.9417   -2.7236 C   0  0  0  0  0  0  0  0  0  0  0  0
    2.7781   -2.0355   -1.5032 O   0  0  0  0  0  1  0  0  0  0  0  0
    3.6714   -1.3275   -3.3600 O   0  0  0  0  0  0  0  0  0  0  0  0
   -0.0178    2.8866    0.0167 C   0  0  0  0  0  0  0  0  0  0  0  0
    0.2404    3.1879    0.9282 H   0  0  0  0  0  0  0  0  0  0  0  0
   -0.9393    3.1899   -0.2021 H   0  0  0  0  0  0  0  0  0  0  0  0
    0.6592    3.3690   -0.6884 H   0  0  0  0  0  0  0  0  0  0  0  0
    0.0011    1.3919   -0.0063 C   0  0  0  0  0  0  0  0  0  0  0  0
   -1.1936    0.6844    0.0031 C   0  0  0  0  0  0  0  0  0  0  0  0
   -2.0594    1.1805    0.0113 H   0  0  0  0  0  0  0  0  0  0  0  0
   -1.1972   -0.6911    0.0000 C   0  0  0  0  0  0  0  0  0  0  0  0
   -2.0751   -1.1908    0.0022 H   0  0  0  0  0  0  0  0  0  0  0  0
   -0.0015   -1.3832   -0.0036 C   0  0  0  0  0  0  0  0  0  0  0  0
   -0.0055   -2.3850   -0.0095 H   0  0  0  0  0  0  0  0  0  0  0  0
    1.1972   -0.6930    0.0000 C   0  0  0  0  0  0  0  0  0  0  0  0
    2.0783   -1.1936   -0.0005 H   0  0  0  0  0  0  0  0  0  0  0  0
    1.1939    0.6911    0.0068 C   0  0  0  0  0  0  0  0  0  0  0  0
    2.0618    1.1885    0.0203 H   0  0  0  0  0  0  0  0  0  0  0  0
  1  5  1  0
  5  6  1  0
  5  7  2  0
  1  2  1  0
  1  3  1  0
  1  4  1  0
  8 12  1  0
 12 13  2  0
 13 15  1  0
 15 17  2  0
 17 19  1  0
 19 21  2  0
 21 12  1  0
  8  9  1  0
  8 10  1  0
  8 11  1  0
 13 14  1  0
 15 16  1  0
 17 18  1  0
 19 20  1  0
 21 22  1  0
M  CHG  1   6  -1
M  END
>  <PDB_ID>  (2386) 
pdb5il0

>  <RESIDUE_NAME>  (2386) 
GLU   PHE

>  <FRAG_NAME>  (2386) 
ACET   MBZ

>  <FRAG_ATOM_NUM>  (2386) 
fragi: 7  fragj: 15

>  <atom.prop.CHAIN_ID>  (2386) 
A A A A A A A Z Z Z Z Z Z Z Z Z Z Z Z Z Z Z

>  <atom.prop.IS_HEAVY_ATOM>  (2386) 
1 0 0 0 1 1 1 1 0 0 0 1 1 0 1 0 1 0 1 0 1 0

>  <DIFUSE_FUNC_ATOM>  (2386) 
atom 6   atom 7   

>  <FINAL_SINGLE_POINT_ENERGY>  (2386) 
0

>  <NONCOV_INTER_ENERGY_QM>  (2386) 
0

>  <FF_Energy>  (2386) 
24.37

>  <QM_Energy>  (2386) 
-0.12

>  <source>  (2386) 
ACET_MBZ_02

>  <Index>  (2386) 
31539

$$$$
ACET-pdb6j36-B-ASP-399:MBZ-pdb6j36-B-PHE-135
     RDKit          3D

 22 21  0  0  0  0  0  0  0  0999 V2000
    2.7628    5.6080   -0.6637 C   0  0  0  0  0  0  0  0  0  0  0  0
    3.2867    6.4423   -0.5780 H   0  0  0  0  0  0  0  0  0  0  0  0
    2.0881    5.5331    0.0555 H   0  0  0  0  0  0  0  0  0  0  0  0
    2.2448    5.6237   -1.6226 H   0  0  0  0  0  0  0  0  0  0  0  0
    3.7371    4.4140   -0.5356 C   0  0  0  0  0  0  0  0  0  0  0  0
    4.9185    4.5612   -0.9389 O   0  0  0  0  0  1  0  0  0  0  0  0
    3.3170    3.3287   -0.0371 O   0  0  0  0  0  0  0  0  0  0  0  0
    0.0125    2.8954   -0.0016 C   0  0  0  0  0  0  0  0  0  0  0  0
   -0.7787    3.2111   -0.5048 H   0  0  0  0  0  0  0  0  0  0  0  0
    0.8520    3.1971   -0.4280 H   0  0  0  0  0  0  0  0  0  0  0  0
   -0.0301    3.3393    0.9930 H   0  0  0  0  0  0  0  0  0  0  0  0
   -0.0003    1.3959   -0.0014 C   0  0  0  0  0  0  0  0  0  0  0  0
   -1.1909    0.6953   -0.0021 C   0  0  0  0  0  0  0  0  0  0  0  0
   -2.0592    1.1813   -0.0056 H   0  0  0  0  0  0  0  0  0  0  0  0
   -1.1923   -0.6961   -0.0000 C   0  0  0  0  0  0  0  0  0  0  0  0
   -2.0716   -1.1888    0.0010 H   0  0  0  0  0  0  0  0  0  0  0  0
    0.0030   -1.3894    0.0032 C   0  0  0  0  0  0  0  0  0  0  0  0
   -0.0004   -2.3893    0.0075 H   0  0  0  0  0  0  0  0  0  0  0  0
    1.1923   -0.6924    0.0000 C   0  0  0  0  0  0  0  0  0  0  0  0
    2.0786   -1.1923   -0.0008 H   0  0  0  0  0  0  0  0  0  0  0  0
    1.1882    0.6867    0.0003 C   0  0  0  0  0  0  0  0  0  0  0  0
    2.0595    1.1855    0.0010 H   0  0  0  0  0  0  0  0  0  0  0  0
  1  5  1  0
  5  6  1  0
  5  7  2  0
  1  2  1  0
  1  3  1  0
  1  4  1  0
  8 12  1  0
 12 13  2  0
 13 15  1  0
 15 17  2  0
 17 19  1  0
 19 21  2  0
 21 12  1  0
  8  9  1  0
  8 10  1  0
  8 11  1  0
 13 14  1  0
 15 16  1  0
 17 18  1  0
 19 20  1  0
 21 22  1  0
M  CHG  1   6  -1
M  END
>  <PDB_ID>  (2387) 
pdb6j36

>  <RESIDUE_NAME>  (2387) 
ASP   PHE

>  <FRAG_NAME>  (2387) 
ACET   MBZ

>  <FRAG_ATOM_NUM>  (2387) 
fragi: 7  fragj: 15

>  <atom.prop.CHAIN_ID>  (2387) 
A A A A A A A Z Z Z Z Z Z Z Z Z Z Z Z Z Z Z

>  <atom.prop.IS_HEAVY_ATOM>  (2387) 
1 0 0 0 1 1 1 1 0 0 0 1 1 0 1 0 1 0 1 0 1 0

>  <DIFUSE_FUNC_ATOM>  (2387) 
atom 6   atom 7   

>  <FINAL_SINGLE_POINT_ENERGY>  (2387) 
0

>  <NONCOV_INTER_ENERGY_QM>  (2387) 
0

>  <FF_Energy>  (2387) 
-2.23

>  <QM_Energy>  (2387) 
-7.83

>  <source>  (2387) 
ACET_MBZ_02

>  <Index>  (2387) 
31720

$$$$
ACET-pdb6j3g-A-ASP-214:MBZ-pdb6j3g-A-PHE-204
     RDKit          3D

 22 21  0  0  0  0  0  0  0  0999 V2000
   -4.1422    2.2365    2.2043 C   0  0  0  0  0  0  0  0  0  0  0  0
   -3.7909    1.8466    3.0480 H   0  0  0  0  0  0  0  0  0  0  0  0
   -4.2681    1.5273    1.5195 H   0  0  0  0  0  0  0  0  0  0  0  0
   -5.1167    2.6760    2.4171 H   0  0  0  0  0  0  0  0  0  0  0  0
   -3.1550    3.2499    1.6854 C   0  0  0  0  0  0  0  0  0  0  0  0
   -3.2941    3.6427    0.5094 O   0  0  0  0  0  1  0  0  0  0  0  0
   -2.2608    3.6559    2.4690 O   0  0  0  0  0  0  0  0  0  0  0  0
   -0.0125    2.8975   -0.0363 C   0  0  0  0  0  0  0  0  0  0  0  0
    0.9171    3.2202    0.0007 H   0  0  0  0  0  0  0  0  0  0  0  0
   -0.5462    3.2215    0.7248 H   0  0  0  0  0  0  0  0  0  0  0  0
   -0.4618    3.2970   -0.9455 H   0  0  0  0  0  0  0  0  0  0  0  0
    0.0037    1.4007   -0.0004 C   0  0  0  0  0  0  0  0  0  0  0  0
   -1.1937    0.6911   -0.0011 C   0  0  0  0  0  0  0  0  0  0  0  0
   -2.0602    1.1835   -0.0029 H   0  0  0  0  0  0  0  0  0  0  0  0
   -1.1996   -0.6967   -0.0000 C   0  0  0  0  0  0  0  0  0  0  0  0
   -2.0814   -1.1880   -0.0023 H   0  0  0  0  0  0  0  0  0  0  0  0
   -0.0080   -1.3960    0.0057 C   0  0  0  0  0  0  0  0  0  0  0  0
   -0.0053   -2.3910    0.0133 H   0  0  0  0  0  0  0  0  0  0  0  0
    1.1996   -0.6918    0.0000 C   0  0  0  0  0  0  0  0  0  0  0  0
    2.0784   -1.1963   -0.0000 H   0  0  0  0  0  0  0  0  0  0  0  0
    1.1980    0.6928   -0.0042 C   0  0  0  0  0  0  0  0  0  0  0  0
    2.0667    1.1901   -0.0114 H   0  0  0  0  0  0  0  0  0  0  0  0
  1  5  1  0
  5  6  1  0
  5  7  2  0
  1  2  1  0
  1  3  1  0
  1  4  1  0
  8 12  1  0
 12 13  2  0
 13 15  1  0
 15 17  2  0
 17 19  1  0
 19 21  2  0
 21 12  1  0
  8  9  1  0
  8 10  1  0
  8 11  1  0
 13 14  1  0
 15 16  1  0
 17 18  1  0
 19 20  1  0
 21 22  1  0
M  CHG  1   6  -1
M  END
>  <PDB_ID>  (2388) 
pdb6j3g

>  <RESIDUE_NAME>  (2388) 
ASP   PHE

>  <FRAG_NAME>  (2388) 
ACET   MBZ

>  <FRAG_ATOM_NUM>  (2388) 
fragi: 7  fragj: 15

>  <atom.prop.CHAIN_ID>  (2388) 
A A A A A A A Z Z Z Z Z Z Z Z Z Z Z Z Z Z Z

>  <atom.prop.IS_HEAVY_ATOM>  (2388) 
1 0 0 0 1 1 1 1 0 0 0 1 1 0 1 0 1 0 1 0 1 0

>  <DIFUSE_FUNC_ATOM>  (2388) 
atom 6   atom 7   

>  <FINAL_SINGLE_POINT_ENERGY>  (2388) 
0

>  <NONCOV_INTER_ENERGY_QM>  (2388) 
0

>  <FF_Energy>  (2388) 
-1.87

>  <QM_Energy>  (2388) 
-8.51

>  <source>  (2388) 
ACET_MBZ_02

>  <Index>  (2388) 
31739

$$$$
ACET-pdb6j3m-A-ASP-13:MBZ-pdb6j3m-A-PHE-47
     RDKit          3D

 22 21  0  0  0  0  0  0  0  0999 V2000
    5.4933    3.4935    0.3712 C   0  0  0  0  0  0  0  0  0  0  0  0
    5.3569    4.4281    0.6692 H   0  0  0  0  0  0  0  0  0  0  0  0
    6.4462    3.3204    0.1675 H   0  0  0  0  0  0  0  0  0  0  0  0
    5.1868    2.8271    1.1774 H   0  0  0  0  0  0  0  0  0  0  0  0
    4.6774    3.2685   -0.8997 C   0  0  0  0  0  0  0  0  0  0  0  0
    3.4439    3.0229   -0.7556 O   0  0  0  0  0  1  0  0  0  0  0  0
    5.2612    3.3275   -2.0347 O   0  0  0  0  0  0  0  0  0  0  0  0
   -0.0017    2.8853    0.0870 C   0  0  0  0  0  0  0  0  0  0  0  0
    0.8666    3.1695    0.4747 H   0  0  0  0  0  0  0  0  0  0  0  0
   -0.7545    3.1632    0.6715 H   0  0  0  0  0  0  0  0  0  0  0  0
   -0.1202    3.3847   -0.8746 H   0  0  0  0  0  0  0  0  0  0  0  0
   -0.0057    1.3947    0.0075 C   0  0  0  0  0  0  0  0  0  0  0  0
   -1.1903    0.6876    0.0216 C   0  0  0  0  0  0  0  0  0  0  0  0
   -2.0618    1.1729    0.0459 H   0  0  0  0  0  0  0  0  0  0  0  0
   -1.1867   -0.6954    0.0000 C   0  0  0  0  0  0  0  0  0  0  0  0
   -2.0664   -1.1936    0.0166 H   0  0  0  0  0  0  0  0  0  0  0  0
    0.0053   -1.3841   -0.0419 C   0  0  0  0  0  0  0  0  0  0  0  0
    0.0011   -2.3845   -0.1028 H   0  0  0  0  0  0  0  0  0  0  0  0
    1.1867   -0.6922   -0.0000 C   0  0  0  0  0  0  0  0  0  0  0  0
    2.0772   -1.1916    0.0233 H   0  0  0  0  0  0  0  0  0  0  0  0
    1.1907    0.6895    0.0128 C   0  0  0  0  0  0  0  0  0  0  0  0
    2.0570    1.1860    0.0254 H   0  0  0  0  0  0  0  0  0  0  0  0
  1  5  1  0
  5  6  1  0
  5  7  2  0
  1  2  1  0
  1  3  1  0
  1  4  1  0
  8 12  1  0
 12 13  2  0
 13 15  1  0
 15 17  2  0
 17 19  1  0
 19 21  2  0
 21 12  1  0
  8  9  1  0
  8 10  1  0
  8 11  1  0
 13 14  1  0
 15 16  1  0
 17 18  1  0
 19 20  1  0
 21 22  1  0
M  CHG  1   6  -1
M  END
>  <PDB_ID>  (2389) 
pdb6j3m

>  <RESIDUE_NAME>  (2389) 
ASP   PHE

>  <FRAG_NAME>  (2389) 
ACET   MBZ

>  <FRAG_ATOM_NUM>  (2389) 
fragi: 7  fragj: 15

>  <atom.prop.CHAIN_ID>  (2389) 
A A A A A A A Z Z Z Z Z Z Z Z Z Z Z Z Z Z Z

>  <atom.prop.IS_HEAVY_ATOM>  (2389) 
1 0 0 0 1 1 1 1 0 0 0 1 1 0 1 0 1 0 1 0 1 0

>  <DIFUSE_FUNC_ATOM>  (2389) 
atom 6   atom 7   

>  <FINAL_SINGLE_POINT_ENERGY>  (2389) 
0

>  <NONCOV_INTER_ENERGY_QM>  (2389) 
0

>  <FF_Energy>  (2389) 
-1.66

>  <QM_Energy>  (2389) 
-6.93

>  <source>  (2389) 
ACET_MBZ_02

>  <Index>  (2389) 
31746

$$$$
ACET-pdb5ing-A-ASP-141:MBZ-pdb5ing-A-PHE-107
     RDKit          3D

 22 21  0  0  0  0  0  0  0  0999 V2000
   -2.1260    4.4945   -3.6119 C   0  0  0  0  0  0  0  0  0  0  0  0
   -2.0230    4.7310   -4.5727 H   0  0  0  0  0  0  0  0  0  0  0  0
   -2.0855    5.3135   -3.0490 H   0  0  0  0  0  0  0  0  0  0  0  0
   -3.1112    4.0467   -3.4810 H   0  0  0  0  0  0  0  0  0  0  0  0
   -0.9865    3.5699   -3.2127 C   0  0  0  0  0  0  0  0  0  0  0  0
   -1.2394    2.3650   -2.9769 O   0  0  0  0  0  1  0  0  0  0  0  0
    0.1722    4.0664   -3.1587 O   0  0  0  0  0  0  0  0  0  0  0  0
    0.0244    2.8804   -0.0227 C   0  0  0  0  0  0  0  0  0  0  0  0
   -0.6012    3.1844   -0.7310 H   0  0  0  0  0  0  0  0  0  0  0  0
    0.9515    3.1715   -0.2240 H   0  0  0  0  0  0  0  0  0  0  0  0
   -0.2762    3.3585    0.9096 H   0  0  0  0  0  0  0  0  0  0  0  0
    0.0008    1.3879    0.0123 C   0  0  0  0  0  0  0  0  0  0  0  0
   -1.1941    0.6885   -0.0109 C   0  0  0  0  0  0  0  0  0  0  0  0
   -2.0588    1.1808   -0.0366 H   0  0  0  0  0  0  0  0  0  0  0  0
   -1.1951   -0.6934    0.0000 C   0  0  0  0  0  0  0  0  0  0  0  0
   -2.0698   -1.1920    0.0082 H   0  0  0  0  0  0  0  0  0  0  0  0
    0.0041   -1.3794    0.0015 C   0  0  0  0  0  0  0  0  0  0  0  0
    0.0019   -2.3827    0.0029 H   0  0  0  0  0  0  0  0  0  0  0  0
    1.1951   -0.6871   -0.0000 C   0  0  0  0  0  0  0  0  0  0  0  0
    2.0793   -1.1903    0.0023 H   0  0  0  0  0  0  0  0  0  0  0  0
    1.1893    0.6836   -0.0029 C   0  0  0  0  0  0  0  0  0  0  0  0
    2.0593    1.1875   -0.0169 H   0  0  0  0  0  0  0  0  0  0  0  0
  1  5  1  0
  5  6  1  0
  5  7  2  0
  1  2  1  0
  1  3  1  0
  1  4  1  0
  8 12  1  0
 12 13  2  0
 13 15  1  0
 15 17  2  0
 17 19  1  0
 19 21  2  0
 21 12  1  0
  8  9  1  0
  8 10  1  0
  8 11  1  0
 13 14  1  0
 15 16  1  0
 17 18  1  0
 19 20  1  0
 21 22  1  0
M  CHG  1   6  -1
M  END
>  <PDB_ID>  (2390) 
pdb5ing

>  <RESIDUE_NAME>  (2390) 
ASP   PHE

>  <FRAG_NAME>  (2390) 
ACET   MBZ

>  <FRAG_ATOM_NUM>  (2390) 
fragi: 7  fragj: 15

>  <atom.prop.CHAIN_ID>  (2390) 
A A A A A A A Z Z Z Z Z Z Z Z Z Z Z Z Z Z Z

>  <atom.prop.IS_HEAVY_ATOM>  (2390) 
1 0 0 0 1 1 1 1 0 0 0 1 1 0 1 0 1 0 1 0 1 0

>  <DIFUSE_FUNC_ATOM>  (2390) 
atom 6   atom 7   

>  <FINAL_SINGLE_POINT_ENERGY>  (2390) 
0

>  <NONCOV_INTER_ENERGY_QM>  (2390) 
0

>  <FF_Energy>  (2390) 
2.42

>  <QM_Energy>  (2390) 
-4.66

>  <source>  (2390) 
ACET_MBZ_02

>  <Index>  (2390) 
31852

$$$$
ACET-pdb6j72-A-ASP-162:MBZ-pdb6j72-A-PHE-463
     RDKit          3D

 22 21  0  0  0  0  0  0  0  0999 V2000
   -2.2662    1.9645    3.3730 C   0  0  0  0  0  0  0  0  0  0  0  0
   -1.3732    1.9880    2.9404 H   0  0  0  0  0  0  0  0  0  0  0  0
   -2.6653    1.0590    3.3026 H   0  0  0  0  0  0  0  0  0  0  0  0
   -2.1351    2.1949    4.4302 H   0  0  0  0  0  0  0  0  0  0  0  0
   -3.1752    2.9554    2.6702 C   0  0  0  0  0  0  0  0  0  0  0  0
   -4.1105    3.4706    3.3187 O   0  0  0  0  0  1  0  0  0  0  0  0
   -2.9546    3.2194    1.4707 O   0  0  0  0  0  0  0  0  0  0  0  0
   -0.0011    2.8990    0.0176 C   0  0  0  0  0  0  0  0  0  0  0  0
    0.8204    3.1992    0.4844 H   0  0  0  0  0  0  0  0  0  0  0  0
   -0.8128    3.1982    0.5008 H   0  0  0  0  0  0  0  0  0  0  0  0
   -0.0115    3.3667   -0.9669 H   0  0  0  0  0  0  0  0  0  0  0  0
   -0.0004    1.3952   -0.0059 C   0  0  0  0  0  0  0  0  0  0  0  0
   -1.1914    0.6887    0.0053 C   0  0  0  0  0  0  0  0  0  0  0  0
   -2.0597    1.1807    0.0157 H   0  0  0  0  0  0  0  0  0  0  0  0
   -1.1946   -0.6932    0.0000 C   0  0  0  0  0  0  0  0  0  0  0  0
   -2.0732   -1.1888    0.0001 H   0  0  0  0  0  0  0  0  0  0  0  0
    0.0000   -1.3852   -0.0036 C   0  0  0  0  0  0  0  0  0  0  0  0
   -0.0040   -2.3871   -0.0091 H   0  0  0  0  0  0  0  0  0  0  0  0
    1.1946   -0.6936    0.0000 C   0  0  0  0  0  0  0  0  0  0  0  0
    2.0777   -1.1941    0.0012 H   0  0  0  0  0  0  0  0  0  0  0  0
    1.1917    0.6881    0.0042 C   0  0  0  0  0  0  0  0  0  0  0  0
    2.0607    1.1862    0.0143 H   0  0  0  0  0  0  0  0  0  0  0  0
  1  5  1  0
  5  6  1  0
  5  7  2  0
  1  2  1  0
  1  3  1  0
  1  4  1  0
  8 12  1  0
 12 13  2  0
 13 15  1  0
 15 17  2  0
 17 19  1  0
 19 21  2  0
 21 12  1  0
  8  9  1  0
  8 10  1  0
  8 11  1  0
 13 14  1  0
 15 16  1  0
 17 18  1  0
 19 20  1  0
 21 22  1  0
M  CHG  1   6  -1
M  END
>  <PDB_ID>  (2391) 
pdb6j72

>  <RESIDUE_NAME>  (2391) 
ASP   PHE

>  <FRAG_NAME>  (2391) 
ACET   MBZ

>  <FRAG_ATOM_NUM>  (2391) 
fragi: 7  fragj: 15

>  <atom.prop.CHAIN_ID>  (2391) 
A A A A A A A Z Z Z Z Z Z Z Z Z Z Z Z Z Z Z

>  <atom.prop.IS_HEAVY_ATOM>  (2391) 
1 0 0 0 1 1 1 1 0 0 0 1 1 0 1 0 1 0 1 0 1 0

>  <DIFUSE_FUNC_ATOM>  (2391) 
atom 6   atom 7   

>  <FINAL_SINGLE_POINT_ENERGY>  (2391) 
0

>  <NONCOV_INTER_ENERGY_QM>  (2391) 
0

>  <FF_Energy>  (2391) 
-2.03

>  <QM_Energy>  (2391) 
-7.7

>  <source>  (2391) 
ACET_MBZ_02

>  <Index>  (2391) 
31879

$$$$
ACET-pdb5its-D-GLU-122:MBZ-pdb5its-D-PHE-16
     RDKit          3D

 22 21  0  0  0  0  0  0  0  0999 V2000
   -1.9414   -0.1237    3.4885 C   0  0  0  0  0  0  0  0  0  0  0  0
   -2.1986   -0.7751    2.7944 H   0  0  0  0  0  0  0  0  0  0  0  0
   -2.1494   -0.4538    4.3946 H   0  0  0  0  0  0  0  0  0  0  0  0
   -0.8716    0.0721    3.4152 H   0  0  0  0  0  0  0  0  0  0  0  0
   -2.8112    1.1253    3.2656 C   0  0  0  0  0  0  0  0  0  0  0  0
   -3.7047    1.3466    4.1126 O   0  0  0  0  0  1  0  0  0  0  0  0
   -2.6443    1.9017    2.2858 O   0  0  0  0  0  0  0  0  0  0  0  0
    0.0028    2.8720    0.0304 C   0  0  0  0  0  0  0  0  0  0  0  0
    0.9489    3.1784   -0.0310 H   0  0  0  0  0  0  0  0  0  0  0  0
   -0.3955    3.1618    0.8965 H   0  0  0  0  0  0  0  0  0  0  0  0
   -0.5576    3.3494   -0.7734 H   0  0  0  0  0  0  0  0  0  0  0  0
   -0.0044    1.3875   -0.0063 C   0  0  0  0  0  0  0  0  0  0  0  0
   -1.1686    0.6969    0.0013 C   0  0  0  0  0  0  0  0  0  0  0  0
   -2.0489    1.1902    0.0068 H   0  0  0  0  0  0  0  0  0  0  0  0
   -1.1885   -0.6773    0.0000 C   0  0  0  0  0  0  0  0  0  0  0  0
   -2.0775   -1.1634    0.0041 H   0  0  0  0  0  0  0  0  0  0  0  0
   -0.0099   -1.3873   -0.0052 C   0  0  0  0  0  0  0  0  0  0  0  0
   -0.0241   -2.3857   -0.0127 H   0  0  0  0  0  0  0  0  0  0  0  0
    1.1885   -0.7050   -0.0000 C   0  0  0  0  0  0  0  0  0  0  0  0
    2.0678   -1.2014   -0.0016 H   0  0  0  0  0  0  0  0  0  0  0  0
    1.1829    0.6852    0.0102 C   0  0  0  0  0  0  0  0  0  0  0  0
    2.0547    1.1784    0.0286 H   0  0  0  0  0  0  0  0  0  0  0  0
  1  5  1  0
  5  6  1  0
  5  7  2  0
  1  2  1  0
  1  3  1  0
  1  4  1  0
  8 12  1  0
 12 13  2  0
 13 15  1  0
 15 17  2  0
 17 19  1  0
 19 21  2  0
 21 12  1  0
  8  9  1  0
  8 10  1  0
  8 11  1  0
 13 14  1  0
 15 16  1  0
 17 18  1  0
 19 20  1  0
 21 22  1  0
M  CHG  1   6  -1
M  END
>  <PDB_ID>  (2392) 
pdb5its

>  <RESIDUE_NAME>  (2392) 
GLU   PHE

>  <FRAG_NAME>  (2392) 
ACET   MBZ

>  <FRAG_ATOM_NUM>  (2392) 
fragi: 7  fragj: 15

>  <atom.prop.CHAIN_ID>  (2392) 
A A A A A A A Z Z Z Z Z Z Z Z Z Z Z Z Z Z Z

>  <atom.prop.IS_HEAVY_ATOM>  (2392) 
1 0 0 0 1 1 1 1 0 0 0 1 1 0 1 0 1 0 1 0 1 0

>  <DIFUSE_FUNC_ATOM>  (2392) 
atom 6   atom 7   

>  <FINAL_SINGLE_POINT_ENERGY>  (2392) 
0

>  <NONCOV_INTER_ENERGY_QM>  (2392) 
0

>  <FF_Energy>  (2392) 
-0.31

>  <QM_Energy>  (2392) 
-5.37

>  <source>  (2392) 
ACET_MBZ_02

>  <Index>  (2392) 
31980

$$$$
ACET-pdb6jc5-C-GLU-141:MBZ-pdb6jc5-A-PHE-191
     RDKit          3D

 22 21  0  0  0  0  0  0  0  0999 V2000
   -0.0646    0.0010    3.6517 C   0  0  0  0  0  0  0  0  0  0  0  0
    0.4240   -0.0351    4.5040 H   0  0  0  0  0  0  0  0  0  0  0  0
    0.5350   -0.0641    2.8752 H   0  0  0  0  0  0  0  0  0  0  0  0
   -0.7621   -0.8361    3.6203 H   0  0  0  0  0  0  0  0  0  0  0  0
   -0.7554    1.3602    3.5802 C   0  0  0  0  0  0  0  0  0  0  0  0
   -2.0026    1.4086    3.6603 O   0  0  0  0  0  1  0  0  0  0  0  0
   -0.0444    2.3764    3.4137 O   0  0  0  0  0  0  0  0  0  0  0  0
    0.0020    2.8951    0.0115 C   0  0  0  0  0  0  0  0  0  0  0  0
    0.8682    3.1946    0.3881 H   0  0  0  0  0  0  0  0  0  0  0  0
   -0.7534    3.1931    0.5802 H   0  0  0  0  0  0  0  0  0  0  0  0
   -0.1147    3.3597   -0.9676 H   0  0  0  0  0  0  0  0  0  0  0  0
    0.0009    1.3926   -0.0098 C   0  0  0  0  0  0  0  0  0  0  0  0
   -1.1907    0.6862    0.0069 C   0  0  0  0  0  0  0  0  0  0  0  0
   -2.0579    1.1798    0.0230 H   0  0  0  0  0  0  0  0  0  0  0  0
   -1.1936   -0.6924    0.0000 C   0  0  0  0  0  0  0  0  0  0  0  0
   -2.0731   -1.1893   -0.0037 H   0  0  0  0  0  0  0  0  0  0  0  0
   -0.0016   -1.3824    0.0005 C   0  0  0  0  0  0  0  0  0  0  0  0
   -0.0046   -2.3847    0.0007 H   0  0  0  0  0  0  0  0  0  0  0  0
    1.1936   -0.6920   -0.0000 C   0  0  0  0  0  0  0  0  0  0  0  0
    2.0758   -1.1938   -0.0009 H   0  0  0  0  0  0  0  0  0  0  0  0
    1.1914    0.6881    0.0024 C   0  0  0  0  0  0  0  0  0  0  0  0
    2.0613    1.1865    0.0123 H   0  0  0  0  0  0  0  0  0  0  0  0
  1  5  1  0
  5  6  1  0
  5  7  2  0
  1  2  1  0
  1  3  1  0
  1  4  1  0
  8 12  1  0
 12 13  2  0
 13 15  1  0
 15 17  2  0
 17 19  1  0
 19 21  2  0
 21 12  1  0
  8  9  1  0
  8 10  1  0
  8 11  1  0
 13 14  1  0
 15 16  1  0
 17 18  1  0
 19 20  1  0
 21 22  1  0
M  CHG  1   6  -1
M  END
>  <PDB_ID>  (2393) 
pdb6jc5

>  <RESIDUE_NAME>  (2393) 
GLU   PHE

>  <FRAG_NAME>  (2393) 
ACET   MBZ

>  <FRAG_ATOM_NUM>  (2393) 
fragi: 7  fragj: 15

>  <atom.prop.CHAIN_ID>  (2393) 
A A A A A A A Z Z Z Z Z Z Z Z Z Z Z Z Z Z Z

>  <atom.prop.IS_HEAVY_ATOM>  (2393) 
1 0 0 0 1 1 1 1 0 0 0 1 1 0 1 0 1 0 1 0 1 0

>  <DIFUSE_FUNC_ATOM>  (2393) 
atom 6   atom 7   

>  <FINAL_SINGLE_POINT_ENERGY>  (2393) 
0

>  <NONCOV_INTER_ENERGY_QM>  (2393) 
0

>  <FF_Energy>  (2393) 
0.12

>  <QM_Energy>  (2393) 
-4.95

>  <source>  (2393) 
ACET_MBZ_02

>  <Index>  (2393) 
32027

$$$$
ACET-pdb6jc5-B-GLU-141:MBZ-pdb6jc5-D-PHE-191
     RDKit          3D

 22 21  0  0  0  0  0  0  0  0999 V2000
   -0.1145   -0.0314    3.6130 C   0  0  0  0  0  0  0  0  0  0  0  0
    0.3541   -0.0805    4.4763 H   0  0  0  0  0  0  0  0  0  0  0  0
    0.5002   -0.1347    2.8517 H   0  0  0  0  0  0  0  0  0  0  0  0
   -0.8453   -0.8393    3.5755 H   0  0  0  0  0  0  0  0  0  0  0  0
   -0.7373    1.3637    3.5100 C   0  0  0  0  0  0  0  0  0  0  0  0
   -1.9793    1.4818    3.5288 O   0  0  0  0  0  1  0  0  0  0  0  0
    0.0271    2.3496    3.4211 O   0  0  0  0  0  0  0  0  0  0  0  0
    0.0055    2.8949    0.0070 C   0  0  0  0  0  0  0  0  0  0  0  0
    0.8634    3.1940    0.4010 H   0  0  0  0  0  0  0  0  0  0  0  0
   -0.7623    3.1996    0.5540 H   0  0  0  0  0  0  0  0  0  0  0  0
   -0.0860    3.3545   -0.9771 H   0  0  0  0  0  0  0  0  0  0  0  0
   -0.0007    1.3923   -0.0069 C   0  0  0  0  0  0  0  0  0  0  0  0
   -1.1933    0.6856    0.0027 C   0  0  0  0  0  0  0  0  0  0  0  0
   -2.0609    1.1788    0.0104 H   0  0  0  0  0  0  0  0  0  0  0  0
   -1.1953   -0.6941    0.0000 C   0  0  0  0  0  0  0  0  0  0  0  0
   -2.0719   -1.1927   -0.0016 H   0  0  0  0  0  0  0  0  0  0  0  0
    0.0019   -1.3825    0.0013 C   0  0  0  0  0  0  0  0  0  0  0  0
   -0.0000   -2.3854    0.0028 H   0  0  0  0  0  0  0  0  0  0  0  0
    1.1953   -0.6891   -0.0000 C   0  0  0  0  0  0  0  0  0  0  0  0
    2.0789   -1.1919   -0.0017 H   0  0  0  0  0  0  0  0  0  0  0  0
    1.1922    0.6879    0.0029 C   0  0  0  0  0  0  0  0  0  0  0  0
    2.0604    1.1894    0.0115 H   0  0  0  0  0  0  0  0  0  0  0  0
  1  5  1  0
  5  6  1  0
  5  7  2  0
  1  2  1  0
  1  3  1  0
  1  4  1  0
  8 12  1  0
 12 13  2  0
 13 15  1  0
 15 17  2  0
 17 19  1  0
 19 21  2  0
 21 12  1  0
  8  9  1  0
  8 10  1  0
  8 11  1  0
 13 14  1  0
 15 16  1  0
 17 18  1  0
 19 20  1  0
 21 22  1  0
M  CHG  1   6  -1
M  END
>  <PDB_ID>  (2394) 
pdb6jc5

>  <RESIDUE_NAME>  (2394) 
GLU   PHE

>  <FRAG_NAME>  (2394) 
ACET   MBZ

>  <FRAG_ATOM_NUM>  (2394) 
fragi: 7  fragj: 15

>  <atom.prop.CHAIN_ID>  (2394) 
A A A A A A A Z Z Z Z Z Z Z Z Z Z Z Z Z Z Z

>  <atom.prop.IS_HEAVY_ATOM>  (2394) 
1 0 0 0 1 1 1 1 0 0 0 1 1 0 1 0 1 0 1 0 1 0

>  <DIFUSE_FUNC_ATOM>  (2394) 
atom 6   atom 7   

>  <FINAL_SINGLE_POINT_ENERGY>  (2394) 
0

>  <NONCOV_INTER_ENERGY_QM>  (2394) 
0

>  <FF_Energy>  (2394) 
0.18

>  <QM_Energy>  (2394) 
-5.08

>  <source>  (2394) 
ACET_MBZ_02

>  <Index>  (2394) 
32031

$$$$
ACET-pdb6jc5-G-GLU-141:MBZ-pdb6jc5-E-PHE-191
     RDKit          3D

 22 21  0  0  0  0  0  0  0  0999 V2000
   -0.2356   -0.0396    3.5885 C   0  0  0  0  0  0  0  0  0  0  0  0
    0.1982   -0.0382    4.4697 H   0  0  0  0  0  0  0  0  0  0  0  0
    0.4121   -0.1063    2.8530 H   0  0  0  0  0  0  0  0  0  0  0  0
   -0.9035   -0.8994    3.5373 H   0  0  0  0  0  0  0  0  0  0  0  0
   -0.9682    1.2805    3.4360 C   0  0  0  0  0  0  0  0  0  0  0  0
   -2.2174    1.2745    3.4061 O   0  0  0  0  0  1  0  0  0  0  0  0
   -0.2897    2.3239    3.3389 O   0  0  0  0  0  0  0  0  0  0  0  0
   -0.0026    2.8900    0.0171 C   0  0  0  0  0  0  0  0  0  0  0  0
    0.8529    3.1929    0.4173 H   0  0  0  0  0  0  0  0  0  0  0  0
   -0.7735    3.1890    0.5642 H   0  0  0  0  0  0  0  0  0  0  0  0
   -0.0926    3.3531   -0.9655 H   0  0  0  0  0  0  0  0  0  0  0  0
   -0.0007    1.3915   -0.0038 C   0  0  0  0  0  0  0  0  0  0  0  0
   -1.1921    0.6832    0.0055 C   0  0  0  0  0  0  0  0  0  0  0  0
   -2.0605    1.1757    0.0146 H   0  0  0  0  0  0  0  0  0  0  0  0
   -1.1932   -0.6961    0.0000 C   0  0  0  0  0  0  0  0  0  0  0  0
   -2.0713   -1.1939   -0.0019 H   0  0  0  0  0  0  0  0  0  0  0  0
    0.0011   -1.3821   -0.0004 C   0  0  0  0  0  0  0  0  0  0  0  0
    0.0029   -2.3844   -0.0014 H   0  0  0  0  0  0  0  0  0  0  0  0
    1.1932   -0.6862    0.0000 C   0  0  0  0  0  0  0  0  0  0  0  0
    2.0781   -1.1897    0.0024 H   0  0  0  0  0  0  0  0  0  0  0  0
    1.1916    0.6896   -0.0013 C   0  0  0  0  0  0  0  0  0  0  0  0
    2.0592    1.1903   -0.0011 H   0  0  0  0  0  0  0  0  0  0  0  0
  1  5  1  0
  5  6  1  0
  5  7  2  0
  1  2  1  0
  1  3  1  0
  1  4  1  0
  8 12  1  0
 12 13  2  0
 13 15  1  0
 15 17  2  0
 17 19  1  0
 19 21  2  0
 21 12  1  0
  8  9  1  0
  8 10  1  0
  8 11  1  0
 13 14  1  0
 15 16  1  0
 17 18  1  0
 19 20  1  0
 21 22  1  0
M  CHG  1   6  -1
M  END
>  <PDB_ID>  (2395) 
pdb6jc5

>  <RESIDUE_NAME>  (2395) 
GLU   PHE

>  <FRAG_NAME>  (2395) 
ACET   MBZ

>  <FRAG_ATOM_NUM>  (2395) 
fragi: 7  fragj: 15

>  <atom.prop.CHAIN_ID>  (2395) 
A A A A A A A Z Z Z Z Z Z Z Z Z Z Z Z Z Z Z

>  <atom.prop.IS_HEAVY_ATOM>  (2395) 
1 0 0 0 1 1 1 1 0 0 0 1 1 0 1 0 1 0 1 0 1 0

>  <DIFUSE_FUNC_ATOM>  (2395) 
atom 6   atom 7   

>  <FINAL_SINGLE_POINT_ENERGY>  (2395) 
0

>  <NONCOV_INTER_ENERGY_QM>  (2395) 
0

>  <FF_Energy>  (2395) 
0.24

>  <QM_Energy>  (2395) 
-5.42

>  <source>  (2395) 
ACET_MBZ_02

>  <Index>  (2395) 
32032

$$$$
ACET-pdb6jc5-H-GLU-141:MBZ-pdb6jc5-F-PHE-191
     RDKit          3D

 22 21  0  0  0  0  0  0  0  0999 V2000
   -0.1389    0.0171    3.6215 C   0  0  0  0  0  0  0  0  0  0  0  0
    0.3191   -0.0138    4.4924 H   0  0  0  0  0  0  0  0  0  0  0  0
    0.4932   -0.0469    2.8697 H   0  0  0  0  0  0  0  0  0  0  0  0
   -0.8290   -0.8247    3.5659 H   0  0  0  0  0  0  0  0  0  0  0  0
   -0.8300    1.3725    3.5187 C   0  0  0  0  0  0  0  0  0  0  0  0
   -0.1095    2.3908    3.4460 O   0  0  0  0  0  1  0  0  0  0  0  0
   -2.0827    1.4260    3.5141 O   0  0  0  0  0  0  0  0  0  0  0  0
    0.0011    2.8902    0.0064 C   0  0  0  0  0  0  0  0  0  0  0  0
    0.8652    3.1934    0.3849 H   0  0  0  0  0  0  0  0  0  0  0  0
   -0.7576    3.1914    0.5687 H   0  0  0  0  0  0  0  0  0  0  0  0
   -0.1106    3.3480   -0.9765 H   0  0  0  0  0  0  0  0  0  0  0  0
    0.0009    1.3913   -0.0106 C   0  0  0  0  0  0  0  0  0  0  0  0
   -1.1909    0.6811    0.0072 C   0  0  0  0  0  0  0  0  0  0  0  0
   -2.0591    1.1738    0.0246 H   0  0  0  0  0  0  0  0  0  0  0  0
   -1.1916   -0.6971    0.0000 C   0  0  0  0  0  0  0  0  0  0  0  0
   -2.0700   -1.1947   -0.0060 H   0  0  0  0  0  0  0  0  0  0  0  0
    0.0003   -1.3809    0.0029 C   0  0  0  0  0  0  0  0  0  0  0  0
    0.0027   -2.3843    0.0061 H   0  0  0  0  0  0  0  0  0  0  0  0
    1.1916   -0.6859   -0.0000 C   0  0  0  0  0  0  0  0  0  0  0  0
    2.0769   -1.1882   -0.0009 H   0  0  0  0  0  0  0  0  0  0  0  0
    1.1897    0.6915    0.0004 C   0  0  0  0  0  0  0  0  0  0  0  0
    2.0597    1.1903    0.0079 H   0  0  0  0  0  0  0  0  0  0  0  0
  1  5  1  0
  5  6  1  0
  5  7  2  0
  1  2  1  0
  1  3  1  0
  1  4  1  0
  8 12  1  0
 12 13  2  0
 13 15  1  0
 15 17  2  0
 17 19  1  0
 19 21  2  0
 21 12  1  0
  8  9  1  0
  8 10  1  0
  8 11  1  0
 13 14  1  0
 15 16  1  0
 17 18  1  0
 19 20  1  0
 21 22  1  0
M  CHG  1   6  -1
M  END
>  <PDB_ID>  (2396) 
pdb6jc5

>  <RESIDUE_NAME>  (2396) 
GLU   PHE

>  <FRAG_NAME>  (2396) 
ACET   MBZ

>  <FRAG_ATOM_NUM>  (2396) 
fragi: 7  fragj: 15

>  <atom.prop.CHAIN_ID>  (2396) 
A A A A A A A Z Z Z Z Z Z Z Z Z Z Z Z Z Z Z

>  <atom.prop.IS_HEAVY_ATOM>  (2396) 
1 0 0 0 1 1 1 1 0 0 0 1 1 0 1 0 1 0 1 0 1 0

>  <DIFUSE_FUNC_ATOM>  (2396) 
atom 6   atom 7   

>  <FINAL_SINGLE_POINT_ENERGY>  (2396) 
0

>  <NONCOV_INTER_ENERGY_QM>  (2396) 
0

>  <FF_Energy>  (2396) 
0.01

>  <QM_Energy>  (2396) 
-5.13

>  <source>  (2396) 
ACET_MBZ_02

>  <Index>  (2396) 
32034

$$$$
ACET-pdb6jc5-E-GLU-141:MBZ-pdb6jc5-G-PHE-191
     RDKit          3D

 22 21  0  0  0  0  0  0  0  0999 V2000
   -0.2220   -0.0144    3.6552 C   0  0  0  0  0  0  0  0  0  0  0  0
    0.1848   -0.0090    4.5490 H   0  0  0  0  0  0  0  0  0  0  0  0
    0.4467   -0.0891    2.9395 H   0  0  0  0  0  0  0  0  0  0  0  0
   -0.8999   -0.8652    3.5879 H   0  0  0  0  0  0  0  0  0  0  0  0
   -0.9359    1.3144    3.4730 C   0  0  0  0  0  0  0  0  0  0  0  0
   -2.1848    1.3222    3.4126 O   0  0  0  0  0  1  0  0  0  0  0  0
   -0.2449    2.3518    3.3821 O   0  0  0  0  0  0  0  0  0  0  0  0
    0.0005    2.8901    0.0002 C   0  0  0  0  0  0  0  0  0  0  0  0
    0.8432    3.1972    0.4211 H   0  0  0  0  0  0  0  0  0  0  0  0
   -0.7870    3.1972    0.5174 H   0  0  0  0  0  0  0  0  0  0  0  0
   -0.0583    3.3383   -0.9916 H   0  0  0  0  0  0  0  0  0  0  0  0
    0.0002    1.3908    0.0000 C   0  0  0  0  0  0  0  0  0  0  0  0
   -1.1912    0.6839   -0.0009 C   0  0  0  0  0  0  0  0  0  0  0  0
   -2.0588    1.1791   -0.0029 H   0  0  0  0  0  0  0  0  0  0  0  0
   -1.1956   -0.6924   -0.0000 C   0  0  0  0  0  0  0  0  0  0  0  0
   -2.0732   -1.1910    0.0012 H   0  0  0  0  0  0  0  0  0  0  0  0
   -0.0010   -1.3814    0.0013 C   0  0  0  0  0  0  0  0  0  0  0  0
   -0.0020   -2.3831    0.0025 H   0  0  0  0  0  0  0  0  0  0  0  0
    1.1956   -0.6884   -0.0000 C   0  0  0  0  0  0  0  0  0  0  0  0
    2.0775   -1.1919    0.0009 H   0  0  0  0  0  0  0  0  0  0  0  0
    1.1920    0.6875   -0.0004 C   0  0  0  0  0  0  0  0  0  0  0  0
    2.0607    1.1886   -0.0020 H   0  0  0  0  0  0  0  0  0  0  0  0
  1  5  1  0
  5  6  1  0
  5  7  2  0
  1  2  1  0
  1  3  1  0
  1  4  1  0
  8 12  1  0
 12 13  2  0
 13 15  1  0
 15 17  2  0
 17 19  1  0
 19 21  2  0
 21 12  1  0
  8  9  1  0
  8 10  1  0
  8 11  1  0
 13 14  1  0
 15 16  1  0
 17 18  1  0
 19 20  1  0
 21 22  1  0
M  CHG  1   6  -1
M  END
>  <PDB_ID>  (2397) 
pdb6jc5

>  <RESIDUE_NAME>  (2397) 
GLU   PHE

>  <FRAG_NAME>  (2397) 
ACET   MBZ

>  <FRAG_ATOM_NUM>  (2397) 
fragi: 7  fragj: 15

>  <atom.prop.CHAIN_ID>  (2397) 
A A A A A A A Z Z Z Z Z Z Z Z Z Z Z Z Z Z Z

>  <atom.prop.IS_HEAVY_ATOM>  (2397) 
1 0 0 0 1 1 1 1 0 0 0 1 1 0 1 0 1 0 1 0 1 0

>  <DIFUSE_FUNC_ATOM>  (2397) 
atom 6   atom 7   

>  <FINAL_SINGLE_POINT_ENERGY>  (2397) 
0

>  <NONCOV_INTER_ENERGY_QM>  (2397) 
0

>  <FF_Energy>  (2397) 
0.19

>  <QM_Energy>  (2397) 
-5.19

>  <source>  (2397) 
ACET_MBZ_02

>  <Index>  (2397) 
32036

$$$$
ACET-pdb6jc6-H-GLU-141:MBZ-pdb6jc6-F-PHE-191
     RDKit          3D

 22 21  0  0  0  0  0  0  0  0999 V2000
   -0.1602   -0.0269    3.6484 C   0  0  0  0  0  0  0  0  0  0  0  0
    0.3087   -0.0577    4.5131 H   0  0  0  0  0  0  0  0  0  0  0  0
    0.4609   -0.0908    2.8877 H   0  0  0  0  0  0  0  0  0  0  0  0
   -0.8501   -0.8695    3.6021 H   0  0  0  0  0  0  0  0  0  0  0  0
   -0.8573    1.3235    3.5551 C   0  0  0  0  0  0  0  0  0  0  0  0
   -0.1506    2.3516    3.4774 O   0  0  0  0  0  1  0  0  0  0  0  0
   -2.1059    1.3604    3.5441 O   0  0  0  0  0  0  0  0  0  0  0  0
    0.0036    2.8896    0.0114 C   0  0  0  0  0  0  0  0  0  0  0  0
    0.8741    3.1891    0.3789 H   0  0  0  0  0  0  0  0  0  0  0  0
   -0.7451    3.1905    0.5875 H   0  0  0  0  0  0  0  0  0  0  0  0
   -0.1221    3.3527   -0.9673 H   0  0  0  0  0  0  0  0  0  0  0  0
   -0.0000    1.3920   -0.0104 C   0  0  0  0  0  0  0  0  0  0  0  0
   -1.1910    0.6853    0.0059 C   0  0  0  0  0  0  0  0  0  0  0  0
   -2.0598    1.1788    0.0209 H   0  0  0  0  0  0  0  0  0  0  0  0
   -1.1942   -0.6932   -0.0000 C   0  0  0  0  0  0  0  0  0  0  0  0
   -2.0729   -1.1907   -0.0061 H   0  0  0  0  0  0  0  0  0  0  0  0
   -0.0014   -1.3818    0.0042 C   0  0  0  0  0  0  0  0  0  0  0  0
   -0.0031   -2.3844    0.0099 H   0  0  0  0  0  0  0  0  0  0  0  0
    1.1942   -0.6897   -0.0000 C   0  0  0  0  0  0  0  0  0  0  0  0
    2.0767   -1.1929   -0.0021 H   0  0  0  0  0  0  0  0  0  0  0  0
    1.1925    0.6874    0.0003 C   0  0  0  0  0  0  0  0  0  0  0  0
    2.0609    1.1875    0.0077 H   0  0  0  0  0  0  0  0  0  0  0  0
  1  5  1  0
  5  6  1  0
  5  7  2  0
  1  2  1  0
  1  3  1  0
  1  4  1  0
  8 12  1  0
 12 13  2  0
 13 15  1  0
 15 17  2  0
 17 19  1  0
 19 21  2  0
 21 12  1  0
  8  9  1  0
  8 10  1  0
  8 11  1  0
 13 14  1  0
 15 16  1  0
 17 18  1  0
 19 20  1  0
 21 22  1  0
M  CHG  1   6  -1
M  END
>  <PDB_ID>  (2398) 
pdb6jc6

>  <RESIDUE_NAME>  (2398) 
GLU   PHE

>  <FRAG_NAME>  (2398) 
ACET   MBZ

>  <FRAG_ATOM_NUM>  (2398) 
fragi: 7  fragj: 15

>  <atom.prop.CHAIN_ID>  (2398) 
A A A A A A A Z Z Z Z Z Z Z Z Z Z Z Z Z Z Z

>  <atom.prop.IS_HEAVY_ATOM>  (2398) 
1 0 0 0 1 1 1 1 0 0 0 1 1 0 1 0 1 0 1 0 1 0

>  <DIFUSE_FUNC_ATOM>  (2398) 
atom 6   atom 7   

>  <FINAL_SINGLE_POINT_ENERGY>  (2398) 
0

>  <NONCOV_INTER_ENERGY_QM>  (2398) 
0

>  <FF_Energy>  (2398) 
0.01

>  <QM_Energy>  (2398) 
-5.0

>  <source>  (2398) 
ACET_MBZ_02

>  <Index>  (2398) 
32042

$$$$
ACET-pdb6jdk-A-GLU-454:MBZ-pdb6jdk-A-PHE-75
     RDKit          3D

 22 21  0  0  0  0  0  0  0  0999 V2000
   -5.2703    1.0516    0.1963 C   0  0  0  0  0  0  0  0  0  0  0  0
   -4.9651    0.8530    1.1098 H   0  0  0  0  0  0  0  0  0  0  0  0
   -4.8188    0.4936   -0.4760 H   0  0  0  0  0  0  0  0  0  0  0  0
   -6.3351    0.8231    0.1509 H   0  0  0  0  0  0  0  0  0  0  0  0
   -4.9227    2.5170   -0.1047 C   0  0  0  0  0  0  0  0  0  0  0  0
   -5.8316    3.3664   -0.2335 O   0  0  0  0  0  1  0  0  0  0  0  0
   -3.7183    2.8216   -0.2213 O   0  0  0  0  0  0  0  0  0  0  0  0
   -0.0020    2.9169   -0.0083 C   0  0  0  0  0  0  0  0  0  0  0  0
    0.9355    3.2228   -0.0417 H   0  0  0  0  0  0  0  0  0  0  0  0
   -0.4569    3.2264    0.8111 H   0  0  0  0  0  0  0  0  0  0  0  0
   -0.5252    3.3450   -0.8633 H   0  0  0  0  0  0  0  0  0  0  0  0
    0.0029    1.4056    0.0055 C   0  0  0  0  0  0  0  0  0  0  0  0
   -1.1992    0.6870   -0.0038 C   0  0  0  0  0  0  0  0  0  0  0  0
   -2.0652    1.1731   -0.0146 H   0  0  0  0  0  0  0  0  0  0  0  0
   -1.1974   -0.7099   -0.0000 C   0  0  0  0  0  0  0  0  0  0  0  0
   -2.0734   -1.2023   -0.0034 H   0  0  0  0  0  0  0  0  0  0  0  0
    0.0016   -1.3908    0.0098 C   0  0  0  0  0  0  0  0  0  0  0  0
    0.0082   -2.3931    0.0234 H   0  0  0  0  0  0  0  0  0  0  0  0
    1.1974   -0.6903    0.0000 C   0  0  0  0  0  0  0  0  0  0  0  0
    2.0825   -1.1879    0.0024 H   0  0  0  0  0  0  0  0  0  0  0  0
    1.1947    0.6984   -0.0115 C   0  0  0  0  0  0  0  0  0  0  0  0
    2.0645    1.1925   -0.0330 H   0  0  0  0  0  0  0  0  0  0  0  0
  1  5  1  0
  5  6  1  0
  5  7  2  0
  1  2  1  0
  1  3  1  0
  1  4  1  0
  8 12  1  0
 12 13  2  0
 13 15  1  0
 15 17  2  0
 17 19  1  0
 19 21  2  0
 21 12  1  0
  8  9  1  0
  8 10  1  0
  8 11  1  0
 13 14  1  0
 15 16  1  0
 17 18  1  0
 19 20  1  0
 21 22  1  0
M  CHG  1   6  -1
M  END
>  <PDB_ID>  (2399) 
pdb6jdk

>  <RESIDUE_NAME>  (2399) 
GLU   PHE

>  <FRAG_NAME>  (2399) 
ACET   MBZ

>  <FRAG_ATOM_NUM>  (2399) 
fragi: 7  fragj: 15

>  <atom.prop.CHAIN_ID>  (2399) 
A A A A A A A Z Z Z Z Z Z Z Z Z Z Z Z Z Z Z

>  <atom.prop.IS_HEAVY_ATOM>  (2399) 
1 0 0 0 1 1 1 1 0 0 0 1 1 0 1 0 1 0 1 0 1 0

>  <DIFUSE_FUNC_ATOM>  (2399) 
atom 6   atom 7   

>  <FINAL_SINGLE_POINT_ENERGY>  (2399) 
0

>  <NONCOV_INTER_ENERGY_QM>  (2399) 
0

>  <FF_Energy>  (2399) 
-1.98

>  <QM_Energy>  (2399) 
-7.33

>  <source>  (2399) 
ACET_MBZ_02

>  <Index>  (2399) 
32056

$$$$
ACET-pdb5ixo-A-ASP-361:MBZ-pdb5ixo-A-PHE-339
     RDKit          3D

 22 21  0  0  0  0  0  0  0  0999 V2000
    4.2411    1.6418   -2.2430 C   0  0  0  0  0  0  0  0  0  0  0  0
    4.7853    1.1468   -2.9155 H   0  0  0  0  0  0  0  0  0  0  0  0
    4.2346    1.1464   -1.3789 H   0  0  0  0  0  0  0  0  0  0  0  0
    4.7112    2.6106   -2.0742 H   0  0  0  0  0  0  0  0  0  0  0  0
    2.8265    1.7548   -2.7507 C   0  0  0  0  0  0  0  0  0  0  0  0
    2.2129    2.8662   -2.7648 O   0  0  0  0  0  1  0  0  0  0  0  0
    2.2541    0.7295   -3.1490 O   0  0  0  0  0  0  0  0  0  0  0  0
    0.0354    2.9252   -0.1404 C   0  0  0  0  0  0  0  0  0  0  0  0
   -0.7512    3.2043   -0.6816 H   0  0  0  0  0  0  0  0  0  0  0  0
    0.8792    3.1703   -0.6076 H   0  0  0  0  0  0  0  0  0  0  0  0
    0.0043    3.4803    0.7972 H   0  0  0  0  0  0  0  0  0  0  0  0
   -0.0013    1.4016   -0.0292 C   0  0  0  0  0  0  0  0  0  0  0  0
   -1.1988    0.7195    0.0200 C   0  0  0  0  0  0  0  0  0  0  0  0
   -2.0589    1.1867    0.0671 H   0  0  0  0  0  0  0  0  0  0  0  0
   -1.1808   -0.6957    0.0000 C   0  0  0  0  0  0  0  0  0  0  0  0
   -2.0717   -1.1775   -0.0247 H   0  0  0  0  0  0  0  0  0  0  0  0
   -0.0051   -1.3772    0.0158 C   0  0  0  0  0  0  0  0  0  0  0  0
   -0.0187   -2.3922    0.0392 H   0  0  0  0  0  0  0  0  0  0  0  0
    1.1808   -0.7165    0.0000 C   0  0  0  0  0  0  0  0  0  0  0  0
    2.0648   -1.2246   -0.0058 H   0  0  0  0  0  0  0  0  0  0  0  0
    1.2052    0.6683   -0.0066 C   0  0  0  0  0  0  0  0  0  0  0  0
    2.0695    1.1590    0.0030 H   0  0  0  0  0  0  0  0  0  0  0  0
  1  5  1  0
  5  6  1  0
  5  7  2  0
  1  2  1  0
  1  3  1  0
  1  4  1  0
  8 12  1  0
 12 13  2  0
 13 15  1  0
 15 17  2  0
 17 19  1  0
 19 21  2  0
 21 12  1  0
  8  9  1  0
  8 10  1  0
  8 11  1  0
 13 14  1  0
 15 16  1  0
 17 18  1  0
 19 20  1  0
 21 22  1  0
M  CHG  1   6  -1
M  END
>  <PDB_ID>  (2400) 
pdb5ixo

>  <RESIDUE_NAME>  (2400) 
ASP   PHE

>  <FRAG_NAME>  (2400) 
ACET   MBZ

>  <FRAG_ATOM_NUM>  (2400) 
fragi: 7  fragj: 15

>  <atom.prop.CHAIN_ID>  (2400) 
A A A A A A A Z Z Z Z Z Z Z Z Z Z Z Z Z Z Z

>  <atom.prop.IS_HEAVY_ATOM>  (2400) 
1 0 0 0 1 1 1 1 0 0 0 1 1 0 1 0 1 0 1 0 1 0

>  <DIFUSE_FUNC_ATOM>  (2400) 
atom 6   atom 7   

>  <FINAL_SINGLE_POINT_ENERGY>  (2400) 
0

>  <NONCOV_INTER_ENERGY_QM>  (2400) 
0

>  <FF_Energy>  (2400) 
1.05

>  <QM_Energy>  (2400) 
-4.46

>  <source>  (2400) 
ACET_MBZ_02

>  <Index>  (2400) 
32106

$$$$
ACET-pdb5ixq-A-ASP-290:MBZ-pdb5ixq-A-PHE-268
     RDKit          3D

 22 21  0  0  0  0  0  0  0  0999 V2000
    4.1651    1.9826   -2.0035 C   0  0  0  0  0  0  0  0  0  0  0  0
    4.7260    1.3811   -2.5636 H   0  0  0  0  0  0  0  0  0  0  0  0
    4.0507    1.5998   -1.0933 H   0  0  0  0  0  0  0  0  0  0  0  0
    4.6702    2.9444   -1.9154 H   0  0  0  0  0  0  0  0  0  0  0  0
    2.7712    2.0786   -2.6579 C   0  0  0  0  0  0  0  0  0  0  0  0
    2.1761    3.1460   -2.6021 O   0  0  0  0  0  1  0  0  0  0  0  0
    2.2554    1.0447   -3.1911 O   0  0  0  0  0  0  0  0  0  0  0  0
    0.0275    2.8750   -0.0447 C   0  0  0  0  0  0  0  0  0  0  0  0
   -0.7728    3.1741   -0.5689 H   0  0  0  0  0  0  0  0  0  0  0  0
    0.8594    3.1460   -0.5355 H   0  0  0  0  0  0  0  0  0  0  0  0
    0.0164    3.3911    0.9154 H   0  0  0  0  0  0  0  0  0  0  0  0
    0.0004    1.4041    0.0254 C   0  0  0  0  0  0  0  0  0  0  0  0
   -1.2073    0.7152   -0.0142 C   0  0  0  0  0  0  0  0  0  0  0  0
   -2.0634    1.2068   -0.0538 H   0  0  0  0  0  0  0  0  0  0  0  0
   -1.2088   -0.6773    0.0000 C   0  0  0  0  0  0  0  0  0  0  0  0
   -2.0828   -1.1773    0.0172 H   0  0  0  0  0  0  0  0  0  0  0  0
    0.0074   -1.4036   -0.0069 C   0  0  0  0  0  0  0  0  0  0  0  0
   -0.0230   -2.3960   -0.0171 H   0  0  0  0  0  0  0  0  0  0  0  0
    1.2088   -0.7188   -0.0000 C   0  0  0  0  0  0  0  0  0  0  0  0
    2.0883   -1.2098    0.0093 H   0  0  0  0  0  0  0  0  0  0  0  0
    1.1995    0.6804   -0.0044 C   0  0  0  0  0  0  0  0  0  0  0  0
    2.0697    1.1758   -0.0302 H   0  0  0  0  0  0  0  0  0  0  0  0
  1  5  1  0
  5  6  1  0
  5  7  2  0
  1  2  1  0
  1  3  1  0
  1  4  1  0
  8 12  1  0
 12 13  2  0
 13 15  1  0
 15 17  2  0
 17 19  1  0
 19 21  2  0
 21 12  1  0
  8  9  1  0
  8 10  1  0
  8 11  1  0
 13 14  1  0
 15 16  1  0
 17 18  1  0
 19 20  1  0
 21 22  1  0
M  CHG  1   6  -1
M  END
>  <PDB_ID>  (2401) 
pdb5ixq

>  <RESIDUE_NAME>  (2401) 
ASP   PHE

>  <FRAG_NAME>  (2401) 
ACET   MBZ

>  <FRAG_ATOM_NUM>  (2401) 
fragi: 7  fragj: 15

>  <atom.prop.CHAIN_ID>  (2401) 
A A A A A A A Z Z Z Z Z Z Z Z Z Z Z Z Z Z Z

>  <atom.prop.IS_HEAVY_ATOM>  (2401) 
1 0 0 0 1 1 1 1 0 0 0 1 1 0 1 0 1 0 1 0 1 0

>  <DIFUSE_FUNC_ATOM>  (2401) 
atom 6   atom 7   

>  <FINAL_SINGLE_POINT_ENERGY>  (2401) 
0

>  <NONCOV_INTER_ENERGY_QM>  (2401) 
0

>  <FF_Energy>  (2401) 
0.82

>  <QM_Energy>  (2401) 
-4.56

>  <source>  (2401) 
ACET_MBZ_02

>  <Index>  (2401) 
32127

$$$$
ACET-pdb5iy2-B-GLU-93:MBZ-pdb5iy2-B-PHE-193
     RDKit          3D

 22 21  0  0  0  0  0  0  0  0999 V2000
   -4.6869    1.6860    0.1050 C   0  0  0  0  0  0  0  0  0  0  0  0
   -4.3346    0.9710   -0.4754 H   0  0  0  0  0  0  0  0  0  0  0  0
   -5.6549    1.8205   -0.0286 H   0  0  0  0  0  0  0  0  0  0  0  0
   -4.5185    1.4000    1.1432 H   0  0  0  0  0  0  0  0  0  0  0  0
   -3.9898    2.9828   -0.2987 C   0  0  0  0  0  0  0  0  0  0  0  0
   -3.3863    3.6688    0.5581 O   0  0  0  0  0  1  0  0  0  0  0  0
   -4.0359    3.3094   -1.4969 O   0  0  0  0  0  0  0  0  0  0  0  0
   -0.0078    2.8993   -0.0028 C   0  0  0  0  0  0  0  0  0  0  0  0
    0.8890    3.2126    0.2648 H   0  0  0  0  0  0  0  0  0  0  0  0
   -0.7025    3.2065    0.6283 H   0  0  0  0  0  0  0  0  0  0  0  0
   -0.2318    3.3375   -0.9754 H   0  0  0  0  0  0  0  0  0  0  0  0
   -0.0010    1.3960   -0.0003 C   0  0  0  0  0  0  0  0  0  0  0  0
   -1.1916    0.6881    0.0018 C   0  0  0  0  0  0  0  0  0  0  0  0
   -2.0610    1.1793    0.0036 H   0  0  0  0  0  0  0  0  0  0  0  0
   -1.1971   -0.6958   -0.0000 C   0  0  0  0  0  0  0  0  0  0  0  0
   -2.0745   -1.1911    0.0027 H   0  0  0  0  0  0  0  0  0  0  0  0
    0.0006   -1.3879   -0.0033 C   0  0  0  0  0  0  0  0  0  0  0  0
   -0.0007   -2.3873   -0.0088 H   0  0  0  0  0  0  0  0  0  0  0  0
    1.1971   -0.6910    0.0000 C   0  0  0  0  0  0  0  0  0  0  0  0
    2.0801   -1.1912    0.0029 H   0  0  0  0  0  0  0  0  0  0  0  0
    1.1920    0.6906    0.0017 C   0  0  0  0  0  0  0  0  0  0  0  0
    2.0608    1.1899    0.0040 H   0  0  0  0  0  0  0  0  0  0  0  0
  1  5  1  0
  5  6  1  0
  5  7  2  0
  1  2  1  0
  1  3  1  0
  1  4  1  0
  8 12  1  0
 12 13  2  0
 13 15  1  0
 15 17  2  0
 17 19  1  0
 19 21  2  0
 21 12  1  0
  8  9  1  0
  8 10  1  0
  8 11  1  0
 13 14  1  0
 15 16  1  0
 17 18  1  0
 19 20  1  0
 21 22  1  0
M  CHG  1   6  -1
M  END
>  <PDB_ID>  (2402) 
pdb5iy2

>  <RESIDUE_NAME>  (2402) 
GLU   PHE

>  <FRAG_NAME>  (2402) 
ACET   MBZ

>  <FRAG_ATOM_NUM>  (2402) 
fragi: 7  fragj: 15

>  <atom.prop.CHAIN_ID>  (2402) 
A A A A A A A Z Z Z Z Z Z Z Z Z Z Z Z Z Z Z

>  <atom.prop.IS_HEAVY_ATOM>  (2402) 
1 0 0 0 1 1 1 1 0 0 0 1 1 0 1 0 1 0 1 0 1 0

>  <DIFUSE_FUNC_ATOM>  (2402) 
atom 6   atom 7   

>  <FINAL_SINGLE_POINT_ENERGY>  (2402) 
0

>  <NONCOV_INTER_ENERGY_QM>  (2402) 
0

>  <FF_Energy>  (2402) 
-1.75

>  <QM_Energy>  (2402) 
-7.04

>  <source>  (2402) 
ACET_MBZ_02

>  <Index>  (2402) 
32136

$$$$
ACET-pdb6jnj-A-GLU-27:MBZ-pdb6jnj-A-PHE-30
     RDKit          3D

 22 21  0  0  0  0  0  0  0  0999 V2000
    5.2062    1.5677   -1.2983 C   0  0  0  0  0  0  0  0  0  0  0  0
    6.0721    1.5337   -1.7691 H   0  0  0  0  0  0  0  0  0  0  0  0
    5.0074    0.7176   -0.8391 H   0  0  0  0  0  0  0  0  0  0  0  0
    5.2505    2.3617   -0.5529 H   0  0  0  0  0  0  0  0  0  0  0  0
    4.1298    1.7830   -2.3407 C   0  0  0  0  0  0  0  0  0  0  0  0
    4.4868    1.9417   -3.5295 O   0  0  0  0  0  1  0  0  0  0  0  0
    2.9289    1.7488   -1.9774 O   0  0  0  0  0  0  0  0  0  0  0  0
   -0.0080    2.8875   -0.0194 C   0  0  0  0  0  0  0  0  0  0  0  0
    0.8793    3.2080    0.2740 H   0  0  0  0  0  0  0  0  0  0  0  0
   -0.7245    3.2048    0.5826 H   0  0  0  0  0  0  0  0  0  0  0  0
   -0.1993    3.3088   -1.0063 H   0  0  0  0  0  0  0  0  0  0  0  0
   -0.0014    1.3955    0.0004 C   0  0  0  0  0  0  0  0  0  0  0  0
   -1.1910    0.6849   -0.0029 C   0  0  0  0  0  0  0  0  0  0  0  0
   -2.0611    1.1734   -0.0084 H   0  0  0  0  0  0  0  0  0  0  0  0
   -1.1903   -0.6987   -0.0000 C   0  0  0  0  0  0  0  0  0  0  0  0
   -2.0688   -1.1959    0.0052 H   0  0  0  0  0  0  0  0  0  0  0  0
    0.0050   -1.3865   -0.0017 C   0  0  0  0  0  0  0  0  0  0  0  0
    0.0030   -2.3878   -0.0041 H   0  0  0  0  0  0  0  0  0  0  0  0
    1.1903   -0.6903    0.0000 C   0  0  0  0  0  0  0  0  0  0  0  0
    2.0801   -1.1855    0.0001 H   0  0  0  0  0  0  0  0  0  0  0  0
    1.1875    0.6951    0.0042 C   0  0  0  0  0  0  0  0  0  0  0  0
    2.0575    1.1905    0.0087 H   0  0  0  0  0  0  0  0  0  0  0  0
  1  5  1  0
  5  6  1  0
  5  7  2  0
  1  2  1  0
  1  3  1  0
  1  4  1  0
  8 12  1  0
 12 13  2  0
 13 15  1  0
 15 17  2  0
 17 19  1  0
 19 21  2  0
 21 12  1  0
  8  9  1  0
  8 10  1  0
  8 11  1  0
 13 14  1  0
 15 16  1  0
 17 18  1  0
 19 20  1  0
 21 22  1  0
M  CHG  1   6  -1
M  END
>  <PDB_ID>  (2403) 
pdb6jnj

>  <RESIDUE_NAME>  (2403) 
GLU   PHE

>  <FRAG_NAME>  (2403) 
ACET   MBZ

>  <FRAG_ATOM_NUM>  (2403) 
fragi: 7  fragj: 15

>  <atom.prop.CHAIN_ID>  (2403) 
A A A A A A A Z Z Z Z Z Z Z Z Z Z Z Z Z Z Z

>  <atom.prop.IS_HEAVY_ATOM>  (2403) 
1 0 0 0 1 1 1 1 0 0 0 1 1 0 1 0 1 0 1 0 1 0

>  <DIFUSE_FUNC_ATOM>  (2403) 
atom 6   atom 7   

>  <FINAL_SINGLE_POINT_ENERGY>  (2403) 
0

>  <NONCOV_INTER_ENERGY_QM>  (2403) 
0

>  <FF_Energy>  (2403) 
2.28

>  <QM_Energy>  (2403) 
-3.71

>  <source>  (2403) 
ACET_MBZ_02

>  <Index>  (2403) 
32250

$$$$
ACET-pdb6jnj-B-GLU-27:MBZ-pdb6jnj-B-PHE-30
     RDKit          3D

 22 21  0  0  0  0  0  0  0  0999 V2000
    4.2693    1.7392   -0.9957 C   0  0  0  0  0  0  0  0  0  0  0  0
    3.4490    1.3949   -0.5754 H   0  0  0  0  0  0  0  0  0  0  0  0
    4.0755    2.2806   -1.7945 H   0  0  0  0  0  0  0  0  0  0  0  0
    4.7859    2.3690   -0.2714 H   0  0  0  0  0  0  0  0  0  0  0  0
    5.0934    0.5503   -1.4362 C   0  0  0  0  0  0  0  0  0  0  0  0
    6.3086    0.5204   -1.1396 O   0  0  0  0  0  1  0  0  0  0  0  0
    4.5242   -0.3615   -2.0763 O   0  0  0  0  0  0  0  0  0  0  0  0
    0.0070    2.8936   -0.0112 C   0  0  0  0  0  0  0  0  0  0  0  0
    0.9074    3.2006    0.2548 H   0  0  0  0  0  0  0  0  0  0  0  0
   -0.6844    3.2102    0.6205 H   0  0  0  0  0  0  0  0  0  0  0  0
   -0.2147    3.3253   -0.9873 H   0  0  0  0  0  0  0  0  0  0  0  0
    0.0006    1.3961   -0.0016 C   0  0  0  0  0  0  0  0  0  0  0  0
   -1.1904    0.6955   -0.0050 C   0  0  0  0  0  0  0  0  0  0  0  0
   -2.0577    1.1834   -0.0119 H   0  0  0  0  0  0  0  0  0  0  0  0
   -1.1906   -0.6914    0.0000 C   0  0  0  0  0  0  0  0  0  0  0  0
   -2.0686   -1.1874    0.0059 H   0  0  0  0  0  0  0  0  0  0  0  0
    0.0072   -1.3875   -0.0018 C   0  0  0  0  0  0  0  0  0  0  0  0
   -0.0042   -2.3888   -0.0049 H   0  0  0  0  0  0  0  0  0  0  0  0
    1.1906   -0.6998   -0.0000 C   0  0  0  0  0  0  0  0  0  0  0  0
    2.0795   -1.1909   -0.0032 H   0  0  0  0  0  0  0  0  0  0  0  0
    1.1826    0.6870    0.0083 C   0  0  0  0  0  0  0  0  0  0  0  0
    2.0585    1.1819    0.0214 H   0  0  0  0  0  0  0  0  0  0  0  0
  1  5  1  0
  5  6  1  0
  5  7  2  0
  1  2  1  0
  1  3  1  0
  1  4  1  0
  8 12  1  0
 12 13  2  0
 13 15  1  0
 15 17  2  0
 17 19  1  0
 19 21  2  0
 21 12  1  0
  8  9  1  0
  8 10  1  0
  8 11  1  0
 13 14  1  0
 15 16  1  0
 17 18  1  0
 19 20  1  0
 21 22  1  0
M  CHG  1   6  -1
M  END
>  <PDB_ID>  (2404) 
pdb6jnj

>  <RESIDUE_NAME>  (2404) 
GLU   PHE

>  <FRAG_NAME>  (2404) 
ACET   MBZ

>  <FRAG_ATOM_NUM>  (2404) 
fragi: 7  fragj: 15

>  <atom.prop.CHAIN_ID>  (2404) 
A A A A A A A Z Z Z Z Z Z Z Z Z Z Z Z Z Z Z

>  <atom.prop.IS_HEAVY_ATOM>  (2404) 
1 0 0 0 1 1 1 1 0 0 0 1 1 0 1 0 1 0 1 0 1 0

>  <DIFUSE_FUNC_ATOM>  (2404) 
atom 6   atom 7   

>  <FINAL_SINGLE_POINT_ENERGY>  (2404) 
0

>  <NONCOV_INTER_ENERGY_QM>  (2404) 
0

>  <FF_Energy>  (2404) 
23.83

>  <QM_Energy>  (2404) 
0.96

>  <source>  (2404) 
ACET_MBZ_02

>  <Index>  (2404) 
32253

$$$$
ACET-pdb6jpl-A-GLU-87:MBZ-pdb6jpl-A-PHE-45
     RDKit          3D

 22 21  0  0  0  0  0  0  0  0999 V2000
   -3.7223    1.5788    2.5507 C   0  0  0  0  0  0  0  0  0  0  0  0
   -4.1595    1.5496    3.4293 H   0  0  0  0  0  0  0  0  0  0  0  0
   -3.1642    0.7891    2.3830 H   0  0  0  0  0  0  0  0  0  0  0  0
   -4.5016    1.6098    1.7891 H   0  0  0  0  0  0  0  0  0  0  0  0
   -2.8385    2.7918    2.5078 C   0  0  0  0  0  0  0  0  0  0  0  0
   -1.7435    2.7455    3.1094 O   0  0  0  0  0  1  0  0  0  0  0  0
   -3.2353    3.7938    1.8697 O   0  0  0  0  0  0  0  0  0  0  0  0
    0.0230    2.8937   -0.0027 C   0  0  0  0  0  0  0  0  0  0  0  0
    0.8381    3.1928   -0.4761 H   0  0  0  0  0  0  0  0  0  0  0  0
    0.0176    3.2064    0.9358 H   0  0  0  0  0  0  0  0  0  0  0  0
   -0.8336    3.3437   -0.5046 H   0  0  0  0  0  0  0  0  0  0  0  0
    0.0075    1.3938    0.0027 C   0  0  0  0  0  0  0  0  0  0  0  0
   -1.1894    0.6978   -0.0036 C   0  0  0  0  0  0  0  0  0  0  0  0
   -2.0535    1.1922   -0.0120 H   0  0  0  0  0  0  0  0  0  0  0  0
   -1.1994   -0.6875   -0.0000 C   0  0  0  0  0  0  0  0  0  0  0  0
   -2.0853   -1.1754   -0.0010 H   0  0  0  0  0  0  0  0  0  0  0  0
   -0.0135   -1.3925    0.0065 C   0  0  0  0  0  0  0  0  0  0  0  0
   -0.0144   -2.3871    0.0156 H   0  0  0  0  0  0  0  0  0  0  0  0
    1.1994   -0.6930    0.0000 C   0  0  0  0  0  0  0  0  0  0  0  0
    2.0735   -1.2036    0.0005 H   0  0  0  0  0  0  0  0  0  0  0  0
    1.1954    0.6813   -0.0055 C   0  0  0  0  0  0  0  0  0  0  0  0
    2.0677    1.1824   -0.0165 H   0  0  0  0  0  0  0  0  0  0  0  0
  1  5  1  0
  5  6  1  0
  5  7  2  0
  1  2  1  0
  1  3  1  0
  1  4  1  0
  8 12  1  0
 12 13  2  0
 13 15  1  0
 15 17  2  0
 17 19  1  0
 19 21  2  0
 21 12  1  0
  8  9  1  0
  8 10  1  0
  8 11  1  0
 13 14  1  0
 15 16  1  0
 17 18  1  0
 19 20  1  0
 21 22  1  0
M  CHG  1   6  -1
M  END
>  <PDB_ID>  (2405) 
pdb6jpl

>  <RESIDUE_NAME>  (2405) 
GLU   PHE

>  <FRAG_NAME>  (2405) 
ACET   MBZ

>  <FRAG_ATOM_NUM>  (2405) 
fragi: 7  fragj: 15

>  <atom.prop.CHAIN_ID>  (2405) 
A A A A A A A Z Z Z Z Z Z Z Z Z Z Z Z Z Z Z

>  <atom.prop.IS_HEAVY_ATOM>  (2405) 
1 0 0 0 1 1 1 1 0 0 0 1 1 0 1 0 1 0 1 0 1 0

>  <DIFUSE_FUNC_ATOM>  (2405) 
atom 6   atom 7   

>  <FINAL_SINGLE_POINT_ENERGY>  (2405) 
0

>  <NONCOV_INTER_ENERGY_QM>  (2405) 
0

>  <FF_Energy>  (2405) 
-1.11

>  <QM_Energy>  (2405) 
-6.18

>  <source>  (2405) 
ACET_MBZ_02

>  <Index>  (2405) 
32337

$$$$
ACET-pdb5j23-C-ASP-102:MBZ-pdb5j23-A-PHE-164
     RDKit          3D

 22 21  0  0  0  0  0  0  0  0999 V2000
    5.7356   -0.3690    0.0673 C   0  0  0  0  0  0  0  0  0  0  0  0
    6.7210   -0.2361    0.1596 H   0  0  0  0  0  0  0  0  0  0  0  0
    5.5278   -0.7233   -0.8417 H   0  0  0  0  0  0  0  0  0  0  0  0
    5.4365   -1.1255    0.7929 H   0  0  0  0  0  0  0  0  0  0  0  0
    5.0416    0.9680    0.2437 C   0  0  0  0  0  0  0  0  0  0  0  0
    4.0424    1.0753    0.9859 O   0  0  0  0  0  1  0  0  0  0  0  0
    5.5657    1.9743   -0.3335 O   0  0  0  0  0  0  0  0  0  0  0  0
    0.0111    2.8770    0.0100 C   0  0  0  0  0  0  0  0  0  0  0  0
   -0.6940    3.1858   -0.6193 H   0  0  0  0  0  0  0  0  0  0  0  0
    0.9072    3.1797   -0.2988 H   0  0  0  0  0  0  0  0  0  0  0  0
   -0.1805    3.3395    0.9783 H   0  0  0  0  0  0  0  0  0  0  0  0
    0.0022    1.3941    0.0260 C   0  0  0  0  0  0  0  0  0  0  0  0
   -1.1759    0.7058    0.0117 C   0  0  0  0  0  0  0  0  0  0  0  0
   -2.0498    1.1950    0.0083 H   0  0  0  0  0  0  0  0  0  0  0  0
   -1.1944   -0.6856   -0.0000 C   0  0  0  0  0  0  0  0  0  0  0  0
   -2.0874   -1.1616    0.0147 H   0  0  0  0  0  0  0  0  0  0  0  0
   -0.0229   -1.3901   -0.0294 C   0  0  0  0  0  0  0  0  0  0  0  0
   -0.0263   -2.3887   -0.0719 H   0  0  0  0  0  0  0  0  0  0  0  0
    1.1944   -0.7045    0.0000 C   0  0  0  0  0  0  0  0  0  0  0  0
    2.0642   -1.2141    0.0278 H   0  0  0  0  0  0  0  0  0  0  0  0
    1.1967    0.6803   -0.0083 C   0  0  0  0  0  0  0  0  0  0  0  0
    2.0655    1.1761   -0.0397 H   0  0  0  0  0  0  0  0  0  0  0  0
  1  5  1  0
  5  6  1  0
  5  7  2  0
  1  2  1  0
  1  3  1  0
  1  4  1  0
  8 12  1  0
 12 13  2  0
 13 15  1  0
 15 17  2  0
 17 19  1  0
 19 21  2  0
 21 12  1  0
  8  9  1  0
  8 10  1  0
  8 11  1  0
 13 14  1  0
 15 16  1  0
 17 18  1  0
 19 20  1  0
 21 22  1  0
M  CHG  1   6  -1
M  END
>  <PDB_ID>  (2406) 
pdb5j23

>  <RESIDUE_NAME>  (2406) 
ASP   PHE

>  <FRAG_NAME>  (2406) 
ACET   MBZ

>  <FRAG_ATOM_NUM>  (2406) 
fragi: 7  fragj: 15

>  <atom.prop.CHAIN_ID>  (2406) 
A A A A A A A Z Z Z Z Z Z Z Z Z Z Z Z Z Z Z

>  <atom.prop.IS_HEAVY_ATOM>  (2406) 
1 0 0 0 1 1 1 1 0 0 0 1 1 0 1 0 1 0 1 0 1 0

>  <DIFUSE_FUNC_ATOM>  (2406) 
atom 6   atom 7   

>  <FINAL_SINGLE_POINT_ENERGY>  (2406) 
0

>  <NONCOV_INTER_ENERGY_QM>  (2406) 
0

>  <FF_Energy>  (2406) 
-0.58

>  <QM_Energy>  (2406) 
-6.09

>  <source>  (2406) 
ACET_MBZ_02

>  <Index>  (2406) 
32370

$$$$
ACET-pdb5j23-D-ASP-102:MBZ-pdb5j23-B-PHE-164
     RDKit          3D

 22 21  0  0  0  0  0  0  0  0999 V2000
    5.7942   -0.3037    0.0047 C   0  0  0  0  0  0  0  0  0  0  0  0
    6.7819   -0.1713    0.0965 H   0  0  0  0  0  0  0  0  0  0  0  0
    5.5895   -0.6288   -0.9197 H   0  0  0  0  0  0  0  0  0  0  0  0
    5.4932   -1.0805    0.7076 H   0  0  0  0  0  0  0  0  0  0  0  0
    5.1060    1.0105    0.2224 C   0  0  0  0  0  0  0  0  0  0  0  0
    4.0910    1.0993    0.9624 O   0  0  0  0  0  1  0  0  0  0  0  0
    5.6152    2.0449   -0.3553 O   0  0  0  0  0  0  0  0  0  0  0  0
    0.0051    2.8969    0.0381 C   0  0  0  0  0  0  0  0  0  0  0  0
   -0.7189    3.2062   -0.5662 H   0  0  0  0  0  0  0  0  0  0  0  0
    0.8916    3.1973   -0.2922 H   0  0  0  0  0  0  0  0  0  0  0  0
   -0.1586    3.3493    1.0162 H   0  0  0  0  0  0  0  0  0  0  0  0
   -0.0025    1.3923    0.0343 C   0  0  0  0  0  0  0  0  0  0  0  0
   -1.1810    0.7041    0.0140 C   0  0  0  0  0  0  0  0  0  0  0  0
   -2.0541    1.2007    0.0079 H   0  0  0  0  0  0  0  0  0  0  0  0
   -1.2068   -0.6788    0.0000 C   0  0  0  0  0  0  0  0  0  0  0  0
   -2.0832   -1.1673    0.0274 H   0  0  0  0  0  0  0  0  0  0  0  0
   -0.0065   -1.3885   -0.0507 C   0  0  0  0  0  0  0  0  0  0  0  0
   -0.0201   -2.3825   -0.1234 H   0  0  0  0  0  0  0  0  0  0  0  0
    1.2068   -0.7029   -0.0000 C   0  0  0  0  0  0  0  0  0  0  0  0
    2.0765   -1.2065    0.0358 H   0  0  0  0  0  0  0  0  0  0  0  0
    1.1899    0.6738    0.0024 C   0  0  0  0  0  0  0  0  0  0  0  0
    2.0615    1.1813   -0.0205 H   0  0  0  0  0  0  0  0  0  0  0  0
  1  5  1  0
  5  6  1  0
  5  7  2  0
  1  2  1  0
  1  3  1  0
  1  4  1  0
  8 12  1  0
 12 13  2  0
 13 15  1  0
 15 17  2  0
 17 19  1  0
 19 21  2  0
 21 12  1  0
  8  9  1  0
  8 10  1  0
  8 11  1  0
 13 14  1  0
 15 16  1  0
 17 18  1  0
 19 20  1  0
 21 22  1  0
M  CHG  1   6  -1
M  END
>  <PDB_ID>  (2407) 
pdb5j23

>  <RESIDUE_NAME>  (2407) 
ASP   PHE

>  <FRAG_NAME>  (2407) 
ACET   MBZ

>  <FRAG_ATOM_NUM>  (2407) 
fragi: 7  fragj: 15

>  <atom.prop.CHAIN_ID>  (2407) 
A A A A A A A Z Z Z Z Z Z Z Z Z Z Z Z Z Z Z

>  <atom.prop.IS_HEAVY_ATOM>  (2407) 
1 0 0 0 1 1 1 1 0 0 0 1 1 0 1 0 1 0 1 0 1 0

>  <DIFUSE_FUNC_ATOM>  (2407) 
atom 6   atom 7   

>  <FINAL_SINGLE_POINT_ENERGY>  (2407) 
0

>  <NONCOV_INTER_ENERGY_QM>  (2407) 
0

>  <FF_Energy>  (2407) 
-1.01

>  <QM_Energy>  (2407) 
-6.19

>  <source>  (2407) 
ACET_MBZ_02

>  <Index>  (2407) 
32375

$$$$
ACET-pdb5j23-A-ASP-102:MBZ-pdb5j23-C-PHE-164
     RDKit          3D

 22 21  0  0  0  0  0  0  0  0999 V2000
    5.7957   -0.3405    0.1290 C   0  0  0  0  0  0  0  0  0  0  0  0
    6.7785   -0.2020    0.2459 H   0  0  0  0  0  0  0  0  0  0  0  0
    5.6131   -0.6836   -0.7910 H   0  0  0  0  0  0  0  0  0  0  0  0
    5.4808   -1.1059    0.8384 H   0  0  0  0  0  0  0  0  0  0  0  0
    5.0923    0.9838    0.3054 C   0  0  0  0  0  0  0  0  0  0  0  0
    4.0727    1.0690    1.0314 O   0  0  0  0  0  1  0  0  0  0  0  0
    5.6117    2.0079   -0.2654 O   0  0  0  0  0  0  0  0  0  0  0  0
   -0.0025    2.8598    0.0351 C   0  0  0  0  0  0  0  0  0  0  0  0
   -0.6973    3.1803   -0.6001 H   0  0  0  0  0  0  0  0  0  0  0  0
    0.8954    3.1862   -0.2418 H   0  0  0  0  0  0  0  0  0  0  0  0
   -0.2223    3.3080    1.0040 H   0  0  0  0  0  0  0  0  0  0  0  0
    0.0036    1.3924    0.0327 C   0  0  0  0  0  0  0  0  0  0  0  0
   -1.1915    0.6742   -0.0075 C   0  0  0  0  0  0  0  0  0  0  0  0
   -2.0586    1.1746   -0.0438 H   0  0  0  0  0  0  0  0  0  0  0  0
   -1.2018   -0.7001   -0.0000 C   0  0  0  0  0  0  0  0  0  0  0  0
   -2.0773   -1.1956    0.0230 H   0  0  0  0  0  0  0  0  0  0  0  0
   -0.0092   -1.3794   -0.0225 C   0  0  0  0  0  0  0  0  0  0  0  0
    0.0008   -2.3825   -0.0558 H   0  0  0  0  0  0  0  0  0  0  0  0
    1.2018   -0.6830   -0.0000 C   0  0  0  0  0  0  0  0  0  0  0  0
    2.0762   -1.1897    0.0195 H   0  0  0  0  0  0  0  0  0  0  0  0
    1.1971    0.6959   -0.0027 C   0  0  0  0  0  0  0  0  0  0  0  0
    2.0626    1.1972   -0.0313 H   0  0  0  0  0  0  0  0  0  0  0  0
  1  5  1  0
  5  6  1  0
  5  7  2  0
  1  2  1  0
  1  3  1  0
  1  4  1  0
  8 12  1  0
 12 13  2  0
 13 15  1  0
 15 17  2  0
 17 19  1  0
 19 21  2  0
 21 12  1  0
  8  9  1  0
  8 10  1  0
  8 11  1  0
 13 14  1  0
 15 16  1  0
 17 18  1  0
 19 20  1  0
 21 22  1  0
M  CHG  1   6  -1
M  END
>  <PDB_ID>  (2408) 
pdb5j23

>  <RESIDUE_NAME>  (2408) 
ASP   PHE

>  <FRAG_NAME>  (2408) 
ACET   MBZ

>  <FRAG_ATOM_NUM>  (2408) 
fragi: 7  fragj: 15

>  <atom.prop.CHAIN_ID>  (2408) 
A A A A A A A Z Z Z Z Z Z Z Z Z Z Z Z Z Z Z

>  <atom.prop.IS_HEAVY_ATOM>  (2408) 
1 0 0 0 1 1 1 1 0 0 0 1 1 0 1 0 1 0 1 0 1 0

>  <DIFUSE_FUNC_ATOM>  (2408) 
atom 6   atom 7   

>  <FINAL_SINGLE_POINT_ENERGY>  (2408) 
0

>  <NONCOV_INTER_ENERGY_QM>  (2408) 
0

>  <FF_Energy>  (2408) 
-1.1

>  <QM_Energy>  (2408) 
-6.18

>  <source>  (2408) 
ACET_MBZ_02

>  <Index>  (2408) 
32379

$$$$
ACET-pdb6jld-B-GLU-220:MBZ-pdb6jld-B-PHE-92
     RDKit          3D

 22 21  0  0  0  0  0  0  0  0999 V2000
    4.1911   -1.8707   -0.4377 C   0  0  0  0  0  0  0  0  0  0  0  0
    3.9452   -1.1448   -1.0623 H   0  0  0  0  0  0  0  0  0  0  0  0
    3.4047   -2.1870    0.0719 H   0  0  0  0  0  0  0  0  0  0  0  0
    4.5769   -2.7056   -1.0227 H   0  0  0  0  0  0  0  0  0  0  0  0
    5.1800   -1.3039    0.5548 C   0  0  0  0  0  0  0  0  0  0  0  0
    6.1339   -2.0142    0.9383 O   0  0  0  0  0  1  0  0  0  0  0  0
    4.9778   -0.1397    0.9547 O   0  0  0  0  0  0  0  0  0  0  0  0
   -0.0382    2.8361   -0.0229 C   0  0  0  0  0  0  0  0  0  0  0  0
    0.8529    3.1758    0.2540 H   0  0  0  0  0  0  0  0  0  0  0  0
   -0.7393    3.1363    0.6130 H   0  0  0  0  0  0  0  0  0  0  0  0
   -0.2698    3.2497   -1.0045 H   0  0  0  0  0  0  0  0  0  0  0  0
   -0.0017    1.3793   -0.0208 C   0  0  0  0  0  0  0  0  0  0  0  0
   -1.1865    0.6637    0.0122 C   0  0  0  0  0  0  0  0  0  0  0  0
   -2.0581    1.1600    0.0448 H   0  0  0  0  0  0  0  0  0  0  0  0
   -1.1906   -0.7049    0.0000 C   0  0  0  0  0  0  0  0  0  0  0  0
   -2.0703   -1.2031   -0.0278 H   0  0  0  0  0  0  0  0  0  0  0  0
   -0.0072   -1.3772    0.0273 C   0  0  0  0  0  0  0  0  0  0  0  0
    0.0128   -2.3789    0.0660 H   0  0  0  0  0  0  0  0  0  0  0  0
    1.1906   -0.6674    0.0000 C   0  0  0  0  0  0  0  0  0  0  0  0
    2.0751   -1.1765   -0.0050 H   0  0  0  0  0  0  0  0  0  0  0  0
    1.1954    0.7064   -0.0187 C   0  0  0  0  0  0  0  0  0  0  0  0
    2.0548    1.2067   -0.0311 H   0  0  0  0  0  0  0  0  0  0  0  0
  1  5  1  0
  5  6  1  0
  5  7  2  0
  1  2  1  0
  1  3  1  0
  1  4  1  0
  8 12  1  0
 12 13  2  0
 13 15  1  0
 15 17  2  0
 17 19  1  0
 19 21  2  0
 21 12  1  0
  8  9  1  0
  8 10  1  0
  8 11  1  0
 13 14  1  0
 15 16  1  0
 17 18  1  0
 19 20  1  0
 21 22  1  0
M  CHG  1   6  -1
M  END
>  <PDB_ID>  (2409) 
pdb6jld

>  <RESIDUE_NAME>  (2409) 
GLU   PHE

>  <FRAG_NAME>  (2409) 
ACET   MBZ

>  <FRAG_ATOM_NUM>  (2409) 
fragi: 7  fragj: 15

>  <atom.prop.CHAIN_ID>  (2409) 
A A A A A A A Z Z Z Z Z Z Z Z Z Z Z Z Z Z Z

>  <atom.prop.IS_HEAVY_ATOM>  (2409) 
1 0 0 0 1 1 1 1 0 0 0 1 1 0 1 0 1 0 1 0 1 0

>  <DIFUSE_FUNC_ATOM>  (2409) 
atom 6   atom 7   

>  <FINAL_SINGLE_POINT_ENERGY>  (2409) 
0

>  <NONCOV_INTER_ENERGY_QM>  (2409) 
0

>  <FF_Energy>  (2409) 
11.09

>  <QM_Energy>  (2409) 
-0.61

>  <source>  (2409) 
ACET_MBZ_02

>  <Index>  (2409) 
32402

$$$$
ACET-pdb5j4u-A-ASP-155:MBZ-pdb5j4u-A-PHE-146
     RDKit          3D

 22 21  0  0  0  0  0  0  0  0999 V2000
    4.3840    4.4017    1.5878 C   0  0  0  0  0  0  0  0  0  0  0  0
    4.4754    5.3484    1.8746 H   0  0  0  0  0  0  0  0  0  0  0  0
    5.2736    4.0093    1.3910 H   0  0  0  0  0  0  0  0  0  0  0  0
    3.9491    3.8430    2.4165 H   0  0  0  0  0  0  0  0  0  0  0  0
    3.5320    4.3413    0.3501 C   0  0  0  0  0  0  0  0  0  0  0  0
    3.4438    3.2428   -0.2523 O   0  0  0  0  0  1  0  0  0  0  0  0
    2.9431    5.3854   -0.0220 O   0  0  0  0  0  0  0  0  0  0  0  0
    0.0052    2.8878   -0.0240 C   0  0  0  0  0  0  0  0  0  0  0  0
    0.8218    3.2065    0.4265 H   0  0  0  0  0  0  0  0  0  0  0  0
   -0.8113    3.2090    0.4243 H   0  0  0  0  0  0  0  0  0  0  0  0
    0.0071    3.2910   -1.0367 H   0  0  0  0  0  0  0  0  0  0  0  0
    0.0024    1.3916    0.0088 C   0  0  0  0  0  0  0  0  0  0  0  0
   -1.1905    0.6930   -0.0089 C   0  0  0  0  0  0  0  0  0  0  0  0
   -2.0569    1.1864   -0.0298 H   0  0  0  0  0  0  0  0  0  0  0  0
   -1.1965   -0.6897    0.0000 C   0  0  0  0  0  0  0  0  0  0  0  0
   -2.0769   -1.1834    0.0078 H   0  0  0  0  0  0  0  0  0  0  0  0
   -0.0047   -1.3828   -0.0006 C   0  0  0  0  0  0  0  0  0  0  0  0
   -0.0102   -2.3852   -0.0017 H   0  0  0  0  0  0  0  0  0  0  0  0
    1.1965   -0.6960    0.0000 C   0  0  0  0  0  0  0  0  0  0  0  0
    2.0750   -1.1997    0.0014 H   0  0  0  0  0  0  0  0  0  0  0  0
    1.1928    0.6839    0.0007 C   0  0  0  0  0  0  0  0  0  0  0  0
    2.0637    1.1831   -0.0057 H   0  0  0  0  0  0  0  0  0  0  0  0
  1  5  1  0
  5  6  1  0
  5  7  2  0
  1  2  1  0
  1  3  1  0
  1  4  1  0
  8 12  1  0
 12 13  2  0
 13 15  1  0
 15 17  2  0
 17 19  1  0
 19 21  2  0
 21 12  1  0
  8  9  1  0
  8 10  1  0
  8 11  1  0
 13 14  1  0
 15 16  1  0
 17 18  1  0
 19 20  1  0
 21 22  1  0
M  CHG  1   6  -1
M  END
>  <PDB_ID>  (2410) 
pdb5j4u

>  <RESIDUE_NAME>  (2410) 
ASP   PHE

>  <FRAG_NAME>  (2410) 
ACET   MBZ

>  <FRAG_ATOM_NUM>  (2410) 
fragi: 7  fragj: 15

>  <atom.prop.CHAIN_ID>  (2410) 
A A A A A A A Z Z Z Z Z Z Z Z Z Z Z Z Z Z Z

>  <atom.prop.IS_HEAVY_ATOM>  (2410) 
1 0 0 0 1 1 1 1 0 0 0 1 1 0 1 0 1 0 1 0 1 0

>  <DIFUSE_FUNC_ATOM>  (2410) 
atom 6   atom 7   

>  <FINAL_SINGLE_POINT_ENERGY>  (2410) 
0

>  <NONCOV_INTER_ENERGY_QM>  (2410) 
0

>  <FF_Energy>  (2410) 
-2.51

>  <QM_Energy>  (2410) 
-8.26

>  <source>  (2410) 
ACET_MBZ_02

>  <Index>  (2410) 
32485

$$$$
ACET-pdb6jx5-B-ASP-714:MBZ-pdb6jx5-B-PHE-766
     RDKit          3D

 22 21  0  0  0  0  0  0  0  0999 V2000
    4.3295    2.2992    1.8837 C   0  0  0  0  0  0  0  0  0  0  0  0
    5.3081    2.4681    1.8937 H   0  0  0  0  0  0  0  0  0  0  0  0
    4.1324    1.4146    1.4791 H   0  0  0  0  0  0  0  0  0  0  0  0
    3.9793    2.2838    2.9158 H   0  0  0  0  0  0  0  0  0  0  0  0
    3.6570    3.3761    1.0552 C   0  0  0  0  0  0  0  0  0  0  0  0
    3.5191    4.5122    1.5552 O   0  0  0  0  0  1  0  0  0  0  0  0
    3.2722    3.0879   -0.0981 O   0  0  0  0  0  0  0  0  0  0  0  0
   -0.0022    2.8960   -0.0029 C   0  0  0  0  0  0  0  0  0  0  0  0
    0.8769    3.2045    0.3279 H   0  0  0  0  0  0  0  0  0  0  0  0
   -0.7359    3.2027    0.5852 H   0  0  0  0  0  0  0  0  0  0  0  0
   -0.1598    3.3333   -0.9888 H   0  0  0  0  0  0  0  0  0  0  0  0
   -0.0003    1.3945   -0.0007 C   0  0  0  0  0  0  0  0  0  0  0  0
   -1.1922    0.6884    0.0009 C   0  0  0  0  0  0  0  0  0  0  0  0
   -2.0601    1.1802    0.0016 H   0  0  0  0  0  0  0  0  0  0  0  0
   -1.1950   -0.6940    0.0000 C   0  0  0  0  0  0  0  0  0  0  0  0
   -2.0728   -1.1906    0.0002 H   0  0  0  0  0  0  0  0  0  0  0  0
    0.0010   -1.3857   -0.0000 C   0  0  0  0  0  0  0  0  0  0  0  0
   -0.0023   -2.3871    0.0000 H   0  0  0  0  0  0  0  0  0  0  0  0
    1.1950   -0.6929   -0.0000 C   0  0  0  0  0  0  0  0  0  0  0  0
    2.0792   -1.1928    0.0018 H   0  0  0  0  0  0  0  0  0  0  0  0
    1.1915    0.6896   -0.0001 C   0  0  0  0  0  0  0  0  0  0  0  0
    2.0613    1.1876   -0.0005 H   0  0  0  0  0  0  0  0  0  0  0  0
  1  5  1  0
  5  6  1  0
  5  7  2  0
  1  2  1  0
  1  3  1  0
  1  4  1  0
  8 12  1  0
 12 13  2  0
 13 15  1  0
 15 17  2  0
 17 19  1  0
 19 21  2  0
 21 12  1  0
  8  9  1  0
  8 10  1  0
  8 11  1  0
 13 14  1  0
 15 16  1  0
 17 18  1  0
 19 20  1  0
 21 22  1  0
M  CHG  1   6  -1
M  END
>  <PDB_ID>  (2411) 
pdb6jx5

>  <RESIDUE_NAME>  (2411) 
ASP   PHE

>  <FRAG_NAME>  (2411) 
ACET   MBZ

>  <FRAG_ATOM_NUM>  (2411) 
fragi: 7  fragj: 15

>  <atom.prop.CHAIN_ID>  (2411) 
A A A A A A A Z Z Z Z Z Z Z Z Z Z Z Z Z Z Z

>  <atom.prop.IS_HEAVY_ATOM>  (2411) 
1 0 0 0 1 1 1 1 0 0 0 1 1 0 1 0 1 0 1 0 1 0

>  <DIFUSE_FUNC_ATOM>  (2411) 
atom 6   atom 7   

>  <FINAL_SINGLE_POINT_ENERGY>  (2411) 
0

>  <NONCOV_INTER_ENERGY_QM>  (2411) 
0

>  <FF_Energy>  (2411) 
-1.04

>  <QM_Energy>  (2411) 
-8.36

>  <source>  (2411) 
ACET_MBZ_02

>  <Index>  (2411) 
32518

$$$$
ACET-pdb5ing-E-ASP-141:MBZ-pdb5ing-E-PHE-107
     RDKit          3D

 22 21  0  0  0  0  0  0  0  0999 V2000
   -2.7570    4.2614   -3.3208 C   0  0  0  0  0  0  0  0  0  0  0  0
   -2.7754    4.5487   -4.2731 H   0  0  0  0  0  0  0  0  0  0  0  0
   -2.6849    5.0536   -2.7241 H   0  0  0  0  0  0  0  0  0  0  0  0
   -3.7025    3.7645   -3.1036 H   0  0  0  0  0  0  0  0  0  0  0  0
   -1.5642    3.3697   -3.0998 C   0  0  0  0  0  0  0  0  0  0  0  0
   -1.7531    2.1408   -2.9816 O   0  0  0  0  0  1  0  0  0  0  0  0
   -0.4345    3.9158   -3.0285 O   0  0  0  0  0  0  0  0  0  0  0  0
    0.0000    2.8766   -0.0197 C   0  0  0  0  0  0  0  0  0  0  0  0
   -0.6782    3.1778   -0.6810 H   0  0  0  0  0  0  0  0  0  0  0  0
    0.9060    3.1844   -0.2863 H   0  0  0  0  0  0  0  0  0  0  0  0
   -0.2395    3.3460    0.9345 H   0  0  0  0  0  0  0  0  0  0  0  0
    0.0007    1.3879    0.0045 C   0  0  0  0  0  0  0  0  0  0  0  0
   -1.1898    0.6870   -0.0019 C   0  0  0  0  0  0  0  0  0  0  0  0
   -2.0567    1.1815   -0.0096 H   0  0  0  0  0  0  0  0  0  0  0  0
   -1.1943   -0.6894   -0.0000 C   0  0  0  0  0  0  0  0  0  0  0  0
   -2.0732   -1.1870    0.0020 H   0  0  0  0  0  0  0  0  0  0  0  0
   -0.0014   -1.3801    0.0017 C   0  0  0  0  0  0  0  0  0  0  0  0
   -0.0059   -2.3830    0.0039 H   0  0  0  0  0  0  0  0  0  0  0  0
    1.1943   -0.6916    0.0000 C   0  0  0  0  0  0  0  0  0  0  0  0
    2.0760   -1.1942    0.0036 H   0  0  0  0  0  0  0  0  0  0  0  0
    1.1905    0.6864   -0.0042 C   0  0  0  0  0  0  0  0  0  0  0  0
    2.0601    1.1860   -0.0147 H   0  0  0  0  0  0  0  0  0  0  0  0
  1  5  1  0
  5  6  1  0
  5  7  2  0
  1  2  1  0
  1  3  1  0
  1  4  1  0
  8 12  1  0
 12 13  2  0
 13 15  1  0
 15 17  2  0
 17 19  1  0
 19 21  2  0
 21 12  1  0
  8  9  1  0
  8 10  1  0
  8 11  1  0
 13 14  1  0
 15 16  1  0
 17 18  1  0
 19 20  1  0
 21 22  1  0
M  CHG  1   6  -1
M  END
>  <PDB_ID>  (2412) 
pdb5ing

>  <RESIDUE_NAME>  (2412) 
ASP   PHE

>  <FRAG_NAME>  (2412) 
ACET   MBZ

>  <FRAG_ATOM_NUM>  (2412) 
fragi: 7  fragj: 15

>  <atom.prop.CHAIN_ID>  (2412) 
A A A A A A A Z Z Z Z Z Z Z Z Z Z Z Z Z Z Z

>  <atom.prop.IS_HEAVY_ATOM>  (2412) 
1 0 0 0 1 1 1 1 0 0 0 1 1 0 1 0 1 0 1 0 1 0

>  <DIFUSE_FUNC_ATOM>  (2412) 
atom 6   atom 7   

>  <FINAL_SINGLE_POINT_ENERGY>  (2412) 
0

>  <NONCOV_INTER_ENERGY_QM>  (2412) 
0

>  <FF_Energy>  (2412) 
1.87

>  <QM_Energy>  (2412) 
-4.57

>  <source>  (2412) 
ACET_MBZ_02

>  <Index>  (2412) 
32546

$$$$
ACET-pdb6jyo-B-GLU-208:MBZ-pdb6jyo-B-PHE-205
     RDKit          3D

 22 21  0  0  0  0  0  0  0  0999 V2000
    3.6673    3.7046   -1.5687 C   0  0  0  0  0  0  0  0  0  0  0  0
    4.4390    3.5179   -2.1565 H   0  0  0  0  0  0  0  0  0  0  0  0
    3.5819    3.0231   -0.8579 H   0  0  0  0  0  0  0  0  0  0  0  0
    3.8280    4.6731   -1.0951 H   0  0  0  0  0  0  0  0  0  0  0  0
    2.4182    3.6382   -2.4181 C   0  0  0  0  0  0  0  0  0  0  0  0
    1.8392    4.6975   -2.7370 O   0  0  0  0  0  1  0  0  0  0  0  0
    2.0179    2.5089   -2.7641 O   0  0  0  0  0  0  0  0  0  0  0  0
   -0.0017    2.8950   -0.0026 C   0  0  0  0  0  0  0  0  0  0  0  0
   -0.7552    3.1993   -0.5682 H   0  0  0  0  0  0  0  0  0  0  0  0
    0.8664    3.2007   -0.3693 H   0  0  0  0  0  0  0  0  0  0  0  0
   -0.1236    3.3403    0.9847 H   0  0  0  0  0  0  0  0  0  0  0  0
   -0.0008    1.3943    0.0006 C   0  0  0  0  0  0  0  0  0  0  0  0
   -1.1910    0.6871   -0.0004 C   0  0  0  0  0  0  0  0  0  0  0  0
   -2.0603    1.1769   -0.0022 H   0  0  0  0  0  0  0  0  0  0  0  0
   -1.1920   -0.6960   -0.0000 C   0  0  0  0  0  0  0  0  0  0  0  0
   -2.0709   -1.1924    0.0016 H   0  0  0  0  0  0  0  0  0  0  0  0
    0.0015   -1.3845   -0.0002 C   0  0  0  0  0  0  0  0  0  0  0  0
   -0.0009   -2.3869   -0.0005 H   0  0  0  0  0  0  0  0  0  0  0  0
    1.1920   -0.6919    0.0000 C   0  0  0  0  0  0  0  0  0  0  0  0
    2.0776   -1.1908    0.0015 H   0  0  0  0  0  0  0  0  0  0  0  0
    1.1902    0.6909   -0.0001 C   0  0  0  0  0  0  0  0  0  0  0  0
    2.0599    1.1877   -0.0012 H   0  0  0  0  0  0  0  0  0  0  0  0
  1  5  1  0
  5  6  1  0
  5  7  2  0
  1  2  1  0
  1  3  1  0
  1  4  1  0
  8 12  1  0
 12 13  2  0
 13 15  1  0
 15 17  2  0
 17 19  1  0
 19 21  2  0
 21 12  1  0
  8  9  1  0
  8 10  1  0
  8 11  1  0
 13 14  1  0
 15 16  1  0
 17 18  1  0
 19 20  1  0
 21 22  1  0
M  CHG  1   6  -1
M  END
>  <PDB_ID>  (2413) 
pdb6jyo

>  <RESIDUE_NAME>  (2413) 
GLU   PHE

>  <FRAG_NAME>  (2413) 
ACET   MBZ

>  <FRAG_ATOM_NUM>  (2413) 
fragi: 7  fragj: 15

>  <atom.prop.CHAIN_ID>  (2413) 
A A A A A A A Z Z Z Z Z Z Z Z Z Z Z Z Z Z Z

>  <atom.prop.IS_HEAVY_ATOM>  (2413) 
1 0 0 0 1 1 1 1 0 0 0 1 1 0 1 0 1 0 1 0 1 0

>  <DIFUSE_FUNC_ATOM>  (2413) 
atom 6   atom 7   

>  <FINAL_SINGLE_POINT_ENERGY>  (2413) 
0

>  <NONCOV_INTER_ENERGY_QM>  (2413) 
0

>  <FF_Energy>  (2413) 
0.38

>  <QM_Energy>  (2413) 
-4.67

>  <source>  (2413) 
ACET_MBZ_02

>  <Index>  (2413) 
32600

$$$$
ACET-pdb6jwk-B-ASP-210:MBZ-pdb6jwk-B-PHE-7
     RDKit          3D

 22 21  0  0  0  0  0  0  0  0999 V2000
    4.4843    2.5587   -1.7308 C   0  0  0  0  0  0  0  0  0  0  0  0
    4.6222    1.6451   -1.3389 H   0  0  0  0  0  0  0  0  0  0  0  0
    5.3678    3.0303   -1.7752 H   0  0  0  0  0  0  0  0  0  0  0  0
    4.1265    2.4296   -2.7522 H   0  0  0  0  0  0  0  0  0  0  0  0
    3.5607    3.3446   -0.8123 C   0  0  0  0  0  0  0  0  0  0  0  0
    2.9213    4.2968   -1.3158 O   0  0  0  0  0  1  0  0  0  0  0  0
    3.4980    3.0036    0.4132 O   0  0  0  0  0  0  0  0  0  0  0  0
    0.0005    2.8881   -0.0125 C   0  0  0  0  0  0  0  0  0  0  0  0
   -0.7732    3.1974   -0.5532 H   0  0  0  0  0  0  0  0  0  0  0  0
    0.8542    3.1970   -0.4170 H   0  0  0  0  0  0  0  0  0  0  0  0
   -0.0818    3.3475    0.9725 H   0  0  0  0  0  0  0  0  0  0  0  0
   -0.0002    1.3895   -0.0135 C   0  0  0  0  0  0  0  0  0  0  0  0
   -1.1885    0.6925   -0.0194 C   0  0  0  0  0  0  0  0  0  0  0  0
   -2.0565    1.1802   -0.0392 H   0  0  0  0  0  0  0  0  0  0  0  0
   -1.1880   -0.6906   -0.0000 C   0  0  0  0  0  0  0  0  0  0  0  0
   -2.0699   -1.1850    0.0083 H   0  0  0  0  0  0  0  0  0  0  0  0
    0.0004   -1.3804    0.0095 C   0  0  0  0  0  0  0  0  0  0  0  0
   -0.0069   -2.3849    0.0230 H   0  0  0  0  0  0  0  0  0  0  0  0
    1.1880   -0.6966   -0.0000 C   0  0  0  0  0  0  0  0  0  0  0  0
    2.0732   -1.1956   -0.0229 H   0  0  0  0  0  0  0  0  0  0  0  0
    1.1883    0.6856    0.0233 C   0  0  0  0  0  0  0  0  0  0  0  0
    2.0578    1.1808    0.0667 H   0  0  0  0  0  0  0  0  0  0  0  0
  1  5  1  0
  5  6  1  0
  5  7  2  0
  1  2  1  0
  1  3  1  0
  1  4  1  0
  8 12  1  0
 12 13  2  0
 13 15  1  0
 15 17  2  0
 17 19  1  0
 19 21  2  0
 21 12  1  0
  8  9  1  0
  8 10  1  0
  8 11  1  0
 13 14  1  0
 15 16  1  0
 17 18  1  0
 19 20  1  0
 21 22  1  0
M  CHG  1   6  -1
M  END
>  <PDB_ID>  (2414) 
pdb6jwk

>  <RESIDUE_NAME>  (2414) 
ASP   PHE

>  <FRAG_NAME>  (2414) 
ACET   MBZ

>  <FRAG_ATOM_NUM>  (2414) 
fragi: 7  fragj: 15

>  <atom.prop.CHAIN_ID>  (2414) 
A A A A A A A Z Z Z Z Z Z Z Z Z Z Z Z Z Z Z

>  <atom.prop.IS_HEAVY_ATOM>  (2414) 
1 0 0 0 1 1 1 1 0 0 0 1 1 0 1 0 1 0 1 0 1 0

>  <DIFUSE_FUNC_ATOM>  (2414) 
atom 6   atom 7   

>  <FINAL_SINGLE_POINT_ENERGY>  (2414) 
0

>  <NONCOV_INTER_ENERGY_QM>  (2414) 
0

>  <FF_Energy>  (2414) 
-1.81

>  <QM_Energy>  (2414) 
-8.82

>  <source>  (2414) 
ACET_MBZ_02

>  <Index>  (2414) 
32674

$$$$
ACET-pdb5j7x-A-GLU-271:MBZ-pdb5j7x-A-PHE-306
     RDKit          3D

 22 21  0  0  0  0  0  0  0  0999 V2000
    6.0941    0.7794    1.2306 C   0  0  0  0  0  0  0  0  0  0  0  0
    6.1144    1.5503    1.8507 H   0  0  0  0  0  0  0  0  0  0  0  0
    6.9344    0.7156    0.7114 H   0  0  0  0  0  0  0  0  0  0  0  0
    5.9929   -0.1290    1.8244 H   0  0  0  0  0  0  0  0  0  0  0  0
    4.9695    1.0021    0.2577 C   0  0  0  0  0  0  0  0  0  0  0  0
    4.5625    0.0919   -0.4279 O   0  0  0  0  0  1  0  0  0  0  0  0
    4.4257    2.1251    0.1352 O   0  0  0  0  0  0  0  0  0  0  0  0
   -0.0330    2.8882   -0.0672 C   0  0  0  0  0  0  0  0  0  0  0  0
    0.8097    3.2472    0.3202 H   0  0  0  0  0  0  0  0  0  0  0  0
   -0.8191    3.2372    0.4313 H   0  0  0  0  0  0  0  0  0  0  0  0
   -0.1049    3.2903   -1.0778 H   0  0  0  0  0  0  0  0  0  0  0  0
   -0.0194    1.4329    0.0031 C   0  0  0  0  0  0  0  0  0  0  0  0
   -1.1800    0.7264    0.0046 C   0  0  0  0  0  0  0  0  0  0  0  0
   -2.0669    1.1958    0.0080 H   0  0  0  0  0  0  0  0  0  0  0  0
   -1.1848   -0.6801    0.0000 C   0  0  0  0  0  0  0  0  0  0  0  0
   -2.0776   -1.1618    0.0153 H   0  0  0  0  0  0  0  0  0  0  0  0
    0.0037   -1.4211   -0.0224 C   0  0  0  0  0  0  0  0  0  0  0  0
   -0.0302   -2.4064   -0.0534 H   0  0  0  0  0  0  0  0  0  0  0  0
    1.1848   -0.7324   -0.0000 C   0  0  0  0  0  0  0  0  0  0  0  0
    2.0779   -1.2222    0.0077 H   0  0  0  0  0  0  0  0  0  0  0  0
    1.1957    0.6742    0.0147 C   0  0  0  0  0  0  0  0  0  0  0  0
    2.0623    1.1634    0.0329 H   0  0  0  0  0  0  0  0  0  0  0  0
  1  5  1  0
  5  6  1  0
  5  7  2  0
  1  2  1  0
  1  3  1  0
  1  4  1  0
  8 12  1  0
 12 13  2  0
 13 15  1  0
 15 17  2  0
 17 19  1  0
 19 21  2  0
 21 12  1  0
  8  9  1  0
  8 10  1  0
  8 11  1  0
 13 14  1  0
 15 16  1  0
 17 18  1  0
 19 20  1  0
 21 22  1  0
M  CHG  1   6  -1
M  END
>  <PDB_ID>  (2415) 
pdb5j7x

>  <RESIDUE_NAME>  (2415) 
GLU   PHE

>  <FRAG_NAME>  (2415) 
ACET   MBZ

>  <FRAG_ATOM_NUM>  (2415) 
fragi: 7  fragj: 15

>  <atom.prop.CHAIN_ID>  (2415) 
A A A A A A A Z Z Z Z Z Z Z Z Z Z Z Z Z Z Z

>  <atom.prop.IS_HEAVY_ATOM>  (2415) 
1 0 0 0 1 1 1 1 0 0 0 1 1 0 1 0 1 0 1 0 1 0

>  <DIFUSE_FUNC_ATOM>  (2415) 
atom 6   atom 7   

>  <FINAL_SINGLE_POINT_ENERGY>  (2415) 
0

>  <NONCOV_INTER_ENERGY_QM>  (2415) 
0

>  <FF_Energy>  (2415) 
-3.27

>  <QM_Energy>  (2415) 
-8.51

>  <source>  (2415) 
ACET_MBZ_02

>  <Index>  (2415) 
32715

$$$$
ACET-pdb6k3h-B-GLU-128:MBZ-pdb6k3h-B-PHE-7
     RDKit          3D

 22 21  0  0  0  0  0  0  0  0999 V2000
    3.0262    2.4377   -3.8608 C   0  0  0  0  0  0  0  0  0  0  0  0
    3.4070    1.6662   -4.3351 H   0  0  0  0  0  0  0  0  0  0  0  0
    3.0685    3.2619   -4.3936 H   0  0  0  0  0  0  0  0  0  0  0  0
    1.9780    2.2221   -3.6537 H   0  0  0  0  0  0  0  0  0  0  0  0
    3.8634    2.6624   -2.5997 C   0  0  0  0  0  0  0  0  0  0  0  0
    3.3684    2.3855   -1.4873 O   0  0  0  0  0  1  0  0  0  0  0  0
    5.0289    3.0977   -2.7149 O   0  0  0  0  0  0  0  0  0  0  0  0
   -0.0047    2.8736    0.0159 C   0  0  0  0  0  0  0  0  0  0  0  0
   -0.6714    3.1957   -0.6396 H   0  0  0  0  0  0  0  0  0  0  0  0
    0.9037    3.1937   -0.2076 H   0  0  0  0  0  0  0  0  0  0  0  0
   -0.2703    3.2883    0.9884 H   0  0  0  0  0  0  0  0  0  0  0  0
   -0.0012    1.3913   -0.0062 C   0  0  0  0  0  0  0  0  0  0  0  0
   -1.1894    0.6905    0.0024 C   0  0  0  0  0  0  0  0  0  0  0  0
   -2.0591    1.1782    0.0093 H   0  0  0  0  0  0  0  0  0  0  0  0
   -1.1919   -0.6965    0.0000 C   0  0  0  0  0  0  0  0  0  0  0  0
   -2.0700   -1.1902   -0.0025 H   0  0  0  0  0  0  0  0  0  0  0  0
    0.0031   -1.3852    0.0028 C   0  0  0  0  0  0  0  0  0  0  0  0
    0.0011   -2.3866    0.0060 H   0  0  0  0  0  0  0  0  0  0  0  0
    1.1919   -0.6908   -0.0000 C   0  0  0  0  0  0  0  0  0  0  0  0
    2.0790   -1.1885   -0.0014 H   0  0  0  0  0  0  0  0  0  0  0  0
    1.1875    0.6908    0.0009 C   0  0  0  0  0  0  0  0  0  0  0  0
    2.0577    1.1886    0.0056 H   0  0  0  0  0  0  0  0  0  0  0  0
  1  5  1  0
  5  6  1  0
  5  7  2  0
  1  2  1  0
  1  3  1  0
  1  4  1  0
  8 12  1  0
 12 13  2  0
 13 15  1  0
 15 17  2  0
 17 19  1  0
 19 21  2  0
 21 12  1  0
  8  9  1  0
  8 10  1  0
  8 11  1  0
 13 14  1  0
 15 16  1  0
 17 18  1  0
 19 20  1  0
 21 22  1  0
M  CHG  1   6  -1
M  END
>  <PDB_ID>  (2416) 
pdb6k3h

>  <RESIDUE_NAME>  (2416) 
GLU   PHE

>  <FRAG_NAME>  (2416) 
ACET   MBZ

>  <FRAG_ATOM_NUM>  (2416) 
fragi: 7  fragj: 15

>  <atom.prop.CHAIN_ID>  (2416) 
A A A A A A A Z Z Z Z Z Z Z Z Z Z Z Z Z Z Z

>  <atom.prop.IS_HEAVY_ATOM>  (2416) 
1 0 0 0 1 1 1 1 0 0 0 1 1 0 1 0 1 0 1 0 1 0

>  <DIFUSE_FUNC_ATOM>  (2416) 
atom 6   atom 7   

>  <FINAL_SINGLE_POINT_ENERGY>  (2416) 
0

>  <NONCOV_INTER_ENERGY_QM>  (2416) 
0

>  <FF_Energy>  (2416) 
-1.26

>  <QM_Energy>  (2416) 
-6.69

>  <source>  (2416) 
ACET_MBZ_02

>  <Index>  (2416) 
32749

$$$$
ACET-pdb6k3h-K-GLU-128:MBZ-pdb6k3h-K-PHE-7
     RDKit          3D

 22 21  0  0  0  0  0  0  0  0999 V2000
    3.2785    2.2534   -3.7497 C   0  0  0  0  0  0  0  0  0  0  0  0
    3.4487    1.3914   -4.1945 H   0  0  0  0  0  0  0  0  0  0  0  0
    3.5746    3.0150   -4.2982 H   0  0  0  0  0  0  0  0  0  0  0  0
    2.2097    2.3477   -3.5576 H   0  0  0  0  0  0  0  0  0  0  0  0
    4.1394    2.2690   -2.4694 C   0  0  0  0  0  0  0  0  0  0  0  0
    3.5781    2.2652   -1.3421 O   0  0  0  0  0  1  0  0  0  0  0  0
    5.3836    2.2975   -2.6041 O   0  0  0  0  0  0  0  0  0  0  0  0
   -0.0057    2.9030    0.0114 C   0  0  0  0  0  0  0  0  0  0  0  0
   -0.6629    3.2147   -0.6552 H   0  0  0  0  0  0  0  0  0  0  0  0
    0.9062    3.2136   -0.2025 H   0  0  0  0  0  0  0  0  0  0  0  0
   -0.2834    3.3294    0.9753 H   0  0  0  0  0  0  0  0  0  0  0  0
   -0.0037    1.4016    0.0013 C   0  0  0  0  0  0  0  0  0  0  0  0
   -1.1930    0.7018   -0.0053 C   0  0  0  0  0  0  0  0  0  0  0  0
   -2.0619    1.1878   -0.0151 H   0  0  0  0  0  0  0  0  0  0  0  0
   -1.1971   -0.6908   -0.0000 C   0  0  0  0  0  0  0  0  0  0  0  0
   -2.0752   -1.1844    0.0039 H   0  0  0  0  0  0  0  0  0  0  0  0
    0.0061   -1.3984    0.0017 C   0  0  0  0  0  0  0  0  0  0  0  0
   -0.0090   -2.3947    0.0038 H   0  0  0  0  0  0  0  0  0  0  0  0
    1.1971   -0.7067    0.0000 C   0  0  0  0  0  0  0  0  0  0  0  0
    2.0831   -1.1953   -0.0015 H   0  0  0  0  0  0  0  0  0  0  0  0
    1.1907    0.6925    0.0023 C   0  0  0  0  0  0  0  0  0  0  0  0
    2.0613    1.1848    0.0038 H   0  0  0  0  0  0  0  0  0  0  0  0
  1  5  1  0
  5  6  1  0
  5  7  2  0
  1  2  1  0
  1  3  1  0
  1  4  1  0
  8 12  1  0
 12 13  2  0
 13 15  1  0
 15 17  2  0
 17 19  1  0
 19 21  2  0
 21 12  1  0
  8  9  1  0
  8 10  1  0
  8 11  1  0
 13 14  1  0
 15 16  1  0
 17 18  1  0
 19 20  1  0
 21 22  1  0
M  CHG  1   6  -1
M  END
>  <PDB_ID>  (2417) 
pdb6k3h

>  <RESIDUE_NAME>  (2417) 
GLU   PHE

>  <FRAG_NAME>  (2417) 
ACET   MBZ

>  <FRAG_ATOM_NUM>  (2417) 
fragi: 7  fragj: 15

>  <atom.prop.CHAIN_ID>  (2417) 
A A A A A A A Z Z Z Z Z Z Z Z Z Z Z Z Z Z Z

>  <atom.prop.IS_HEAVY_ATOM>  (2417) 
1 0 0 0 1 1 1 1 0 0 0 1 1 0 1 0 1 0 1 0 1 0

>  <DIFUSE_FUNC_ATOM>  (2417) 
atom 6   atom 7   

>  <FINAL_SINGLE_POINT_ENERGY>  (2417) 
0

>  <NONCOV_INTER_ENERGY_QM>  (2417) 
0

>  <FF_Energy>  (2417) 
-1.34

>  <QM_Energy>  (2417) 
-6.65

>  <source>  (2417) 
ACET_MBZ_02

>  <Index>  (2417) 
32777

$$$$
ACET-pdb6k3h-P-GLU-128:MBZ-pdb6k3h-P-PHE-7
     RDKit          3D

 22 21  0  0  0  0  0  0  0  0999 V2000
    3.1788    1.9546   -3.7985 C   0  0  0  0  0  0  0  0  0  0  0  0
    3.4344    1.0587   -4.1174 H   0  0  0  0  0  0  0  0  0  0  0  0
    3.3752    2.6527   -4.4645 H   0  0  0  0  0  0  0  0  0  0  0  0
    2.1035    1.9523   -3.6204 H   0  0  0  0  0  0  0  0  0  0  0  0
    4.0031    2.2567   -2.5565 C   0  0  0  0  0  0  0  0  0  0  0  0
    3.4079    2.4778   -1.4765 O   0  0  0  0  0  1  0  0  0  0  0  0
    5.2510    2.2779   -2.6515 O   0  0  0  0  0  0  0  0  0  0  0  0
    0.0016    2.9042    0.0114 C   0  0  0  0  0  0  0  0  0  0  0  0
   -0.6561    3.2164   -0.6558 H   0  0  0  0  0  0  0  0  0  0  0  0
    0.9144    3.2107   -0.2073 H   0  0  0  0  0  0  0  0  0  0  0  0
   -0.2717    3.3296    0.9770 H   0  0  0  0  0  0  0  0  0  0  0  0
   -0.0003    1.4011   -0.0022 C   0  0  0  0  0  0  0  0  0  0  0  0
   -1.1941    0.6928    0.0073 C   0  0  0  0  0  0  0  0  0  0  0  0
   -2.0623    1.1743    0.0186 H   0  0  0  0  0  0  0  0  0  0  0  0
   -1.1916   -0.7079   -0.0000 C   0  0  0  0  0  0  0  0  0  0  0  0
   -2.0704   -1.1975   -0.0014 H   0  0  0  0  0  0  0  0  0  0  0  0
    0.0031   -1.3895   -0.0029 C   0  0  0  0  0  0  0  0  0  0  0  0
    0.0077   -2.3923   -0.0082 H   0  0  0  0  0  0  0  0  0  0  0  0
    1.1916   -0.6905   -0.0000 C   0  0  0  0  0  0  0  0  0  0  0  0
    2.0796   -1.1887    0.0055 H   0  0  0  0  0  0  0  0  0  0  0  0
    1.1913    0.6940   -0.0022 C   0  0  0  0  0  0  0  0  0  0  0  0
    2.0609    1.1892   -0.0048 H   0  0  0  0  0  0  0  0  0  0  0  0
  1  5  1  0
  5  6  1  0
  5  7  2  0
  1  2  1  0
  1  3  1  0
  1  4  1  0
  8 12  1  0
 12 13  2  0
 13 15  1  0
 15 17  2  0
 17 19  1  0
 19 21  2  0
 21 12  1  0
  8  9  1  0
  8 10  1  0
  8 11  1  0
 13 14  1  0
 15 16  1  0
 17 18  1  0
 19 20  1  0
 21 22  1  0
M  CHG  1   6  -1
M  END
>  <PDB_ID>  (2418) 
pdb6k3h

>  <RESIDUE_NAME>  (2418) 
GLU   PHE

>  <FRAG_NAME>  (2418) 
ACET   MBZ

>  <FRAG_ATOM_NUM>  (2418) 
fragi: 7  fragj: 15

>  <atom.prop.CHAIN_ID>  (2418) 
A A A A A A A Z Z Z Z Z Z Z Z Z Z Z Z Z Z Z

>  <atom.prop.IS_HEAVY_ATOM>  (2418) 
1 0 0 0 1 1 1 1 0 0 0 1 1 0 1 0 1 0 1 0 1 0

>  <DIFUSE_FUNC_ATOM>  (2418) 
atom 6   atom 7   

>  <FINAL_SINGLE_POINT_ENERGY>  (2418) 
0

>  <NONCOV_INTER_ENERGY_QM>  (2418) 
0

>  <FF_Energy>  (2418) 
-1.74

>  <QM_Energy>  (2418) 
-6.83

>  <source>  (2418) 
ACET_MBZ_02

>  <Index>  (2418) 
32792

$$$$
ACET-pdb6k3h-T-GLU-137:MBZ-pdb6k3h-T-PHE-133
     RDKit          3D

 22 21  0  0  0  0  0  0  0  0999 V2000
   -5.0276    3.2492    0.3391 C   0  0  0  0  0  0  0  0  0  0  0  0
   -5.8441    2.7955    0.6253 H   0  0  0  0  0  0  0  0  0  0  0  0
   -5.1507    4.2063    0.1867 H   0  0  0  0  0  0  0  0  0  0  0  0
   -4.2707    3.1163    1.1122 H   0  0  0  0  0  0  0  0  0  0  0  0
   -4.6013    2.6253   -0.9949 C   0  0  0  0  0  0  0  0  0  0  0  0
   -3.3906    2.3894   -1.1821 O   0  0  0  0  0  1  0  0  0  0  0  0
   -5.4679    2.3523   -1.8528 O   0  0  0  0  0  0  0  0  0  0  0  0
    0.0048    2.9078    0.0154 C   0  0  0  0  0  0  0  0  0  0  0  0
    0.8786    3.2051    0.3782 H   0  0  0  0  0  0  0  0  0  0  0  0
   -0.7389    3.2069    0.5993 H   0  0  0  0  0  0  0  0  0  0  0  0
   -0.1275    3.3814   -0.9573 H   0  0  0  0  0  0  0  0  0  0  0  0
   -0.0014    1.4055   -0.0129 C   0  0  0  0  0  0  0  0  0  0  0  0
   -1.1921    0.6993    0.0068 C   0  0  0  0  0  0  0  0  0  0  0  0
   -2.0625    1.1806    0.0251 H   0  0  0  0  0  0  0  0  0  0  0  0
   -1.1961   -0.7044    0.0000 C   0  0  0  0  0  0  0  0  0  0  0  0
   -2.0765   -1.1900   -0.0068 H   0  0  0  0  0  0  0  0  0  0  0  0
   -0.0013   -1.3949    0.0043 C   0  0  0  0  0  0  0  0  0  0  0  0
   -0.0022   -2.3967    0.0103 H   0  0  0  0  0  0  0  0  0  0  0  0
    1.1961   -0.7001    0.0000 C   0  0  0  0  0  0  0  0  0  0  0  0
    2.0793   -1.1964   -0.0028 H   0  0  0  0  0  0  0  0  0  0  0  0
    1.1948    0.6946    0.0017 C   0  0  0  0  0  0  0  0  0  0  0  0
    2.0636    1.1880    0.0126 H   0  0  0  0  0  0  0  0  0  0  0  0
  1  5  1  0
  5  6  1  0
  5  7  2  0
  1  2  1  0
  1  3  1  0
  1  4  1  0
  8 12  1  0
 12 13  2  0
 13 15  1  0
 15 17  2  0
 17 19  1  0
 19 21  2  0
 21 12  1  0
  8  9  1  0
  8 10  1  0
  8 11  1  0
 13 14  1  0
 15 16  1  0
 17 18  1  0
 19 20  1  0
 21 22  1  0
M  CHG  1   6  -1
M  END
>  <PDB_ID>  (2419) 
pdb6k3h

>  <RESIDUE_NAME>  (2419) 
GLU   PHE

>  <FRAG_NAME>  (2419) 
ACET   MBZ

>  <FRAG_ATOM_NUM>  (2419) 
fragi: 7  fragj: 15

>  <atom.prop.CHAIN_ID>  (2419) 
A A A A A A A Z Z Z Z Z Z Z Z Z Z Z Z Z Z Z

>  <atom.prop.IS_HEAVY_ATOM>  (2419) 
1 0 0 0 1 1 1 1 0 0 0 1 1 0 1 0 1 0 1 0 1 0

>  <DIFUSE_FUNC_ATOM>  (2419) 
atom 6   atom 7   

>  <FINAL_SINGLE_POINT_ENERGY>  (2419) 
0

>  <NONCOV_INTER_ENERGY_QM>  (2419) 
0

>  <FF_Energy>  (2419) 
0.94

>  <QM_Energy>  (2419) 
-6.12

>  <source>  (2419) 
ACET_MBZ_02

>  <Index>  (2419) 
32810

$$$$
ACET-pdb6k5j-A-ASP-83:MBZ-pdb6k5j-A-PHE-134
     RDKit          3D

 22 21  0  0  0  0  0  0  0  0999 V2000
    4.2623    5.2427   -1.1474 C   0  0  0  0  0  0  0  0  0  0  0  0
    5.1786    5.3312   -1.5302 H   0  0  0  0  0  0  0  0  0  0  0  0
    4.0247    6.0689   -0.6434 H   0  0  0  0  0  0  0  0  0  0  0  0
    3.5640    5.1494   -1.9791 H   0  0  0  0  0  0  0  0  0  0  0  0
    4.2259    4.0717   -0.2211 C   0  0  0  0  0  0  0  0  0  0  0  0
    3.1139    3.7122    0.2306 O   0  0  0  0  0  1  0  0  0  0  0  0
    5.3152    3.5234    0.0579 O   0  0  0  0  0  0  0  0  0  0  0  0
   -0.0205    2.9006    0.0110 C   0  0  0  0  0  0  0  0  0  0  0  0
    0.7852    3.2199   -0.4592 H   0  0  0  0  0  0  0  0  0  0  0  0
   -0.0384    3.1999    0.9505 H   0  0  0  0  0  0  0  0  0  0  0  0
   -0.8940    3.3141   -0.4931 H   0  0  0  0  0  0  0  0  0  0  0  0
    0.0047    1.3985    0.0044 C   0  0  0  0  0  0  0  0  0  0  0  0
   -1.1890    0.6841   -0.0048 C   0  0  0  0  0  0  0  0  0  0  0  0
   -2.0583    1.1758   -0.0163 H   0  0  0  0  0  0  0  0  0  0  0  0
   -1.1962   -0.7031   -0.0000 C   0  0  0  0  0  0  0  0  0  0  0  0
   -2.0774   -1.1926    0.0065 H   0  0  0  0  0  0  0  0  0  0  0  0
   -0.0082   -1.3883   -0.0021 C   0  0  0  0  0  0  0  0  0  0  0  0
   -0.0032   -2.3918   -0.0059 H   0  0  0  0  0  0  0  0  0  0  0  0
    1.1962   -0.6939   -0.0000 C   0  0  0  0  0  0  0  0  0  0  0  0
    2.0758   -1.1901    0.0017 H   0  0  0  0  0  0  0  0  0  0  0  0
    1.1926    0.7029    0.0024 C   0  0  0  0  0  0  0  0  0  0  0  0
    2.0638    1.1928    0.0015 H   0  0  0  0  0  0  0  0  0  0  0  0
  1  5  1  0
  5  6  1  0
  5  7  2  0
  1  2  1  0
  1  3  1  0
  1  4  1  0
  8 12  1  0
 12 13  2  0
 13 15  1  0
 15 17  2  0
 17 19  1  0
 19 21  2  0
 21 12  1  0
  8  9  1  0
  8 10  1  0
  8 11  1  0
 13 14  1  0
 15 16  1  0
 17 18  1  0
 19 20  1  0
 21 22  1  0
M  CHG  1   6  -1
M  END
>  <PDB_ID>  (2420) 
pdb6k5j

>  <RESIDUE_NAME>  (2420) 
ASP   PHE

>  <FRAG_NAME>  (2420) 
ACET   MBZ

>  <FRAG_ATOM_NUM>  (2420) 
fragi: 7  fragj: 15

>  <atom.prop.CHAIN_ID>  (2420) 
A A A A A A A Z Z Z Z Z Z Z Z Z Z Z Z Z Z Z

>  <atom.prop.IS_HEAVY_ATOM>  (2420) 
1 0 0 0 1 1 1 1 0 0 0 1 1 0 1 0 1 0 1 0 1 0

>  <DIFUSE_FUNC_ATOM>  (2420) 
atom 6   atom 7   

>  <FINAL_SINGLE_POINT_ENERGY>  (2420) 
0

>  <NONCOV_INTER_ENERGY_QM>  (2420) 
0

>  <FF_Energy>  (2420) 
-1.82

>  <QM_Energy>  (2420) 
-7.43

>  <source>  (2420) 
ACET_MBZ_02

>  <Index>  (2420) 
32832

$$$$
ACET-pdb5j90-B-ASP-511:MBZ-pdb5j90-B-PHE-488
     RDKit          3D

 22 21  0  0  0  0  0  0  0  0999 V2000
    4.3664    1.2192   -3.1056 C   0  0  0  0  0  0  0  0  0  0  0  0
    4.5836    0.5369   -2.4135 H   0  0  0  0  0  0  0  0  0  0  0  0
    5.0574    1.9367   -3.1071 H   0  0  0  0  0  0  0  0  0  0  0  0
    4.3879    0.7287   -4.0788 H   0  0  0  0  0  0  0  0  0  0  0  0
    3.0184    1.8439   -2.7651 C   0  0  0  0  0  0  0  0  0  0  0  0
    1.9647    1.4253   -3.3041 O   0  0  0  0  0  1  0  0  0  0  0  0
    3.0326    2.7798   -1.9300 O   0  0  0  0  0  0  0  0  0  0  0  0
    0.0146    2.9180    0.0069 C   0  0  0  0  0  0  0  0  0  0  0  0
    0.9443    3.2122   -0.1484 H   0  0  0  0  0  0  0  0  0  0  0  0
   -0.3202    3.2203    0.8848 H   0  0  0  0  0  0  0  0  0  0  0  0
   -0.6138    3.3623   -0.7650 H   0  0  0  0  0  0  0  0  0  0  0  0
    0.0044    1.4021    0.0063 C   0  0  0  0  0  0  0  0  0  0  0  0
   -1.1957    0.6907   -0.0032 C   0  0  0  0  0  0  0  0  0  0  0  0
   -2.0609    1.1808   -0.0134 H   0  0  0  0  0  0  0  0  0  0  0  0
   -1.1956   -0.6992    0.0000 C   0  0  0  0  0  0  0  0  0  0  0  0
   -2.0762   -1.1914    0.0026 H   0  0  0  0  0  0  0  0  0  0  0  0
   -0.0043   -1.3881    0.0012 C   0  0  0  0  0  0  0  0  0  0  0  0
   -0.0060   -2.3917    0.0021 H   0  0  0  0  0  0  0  0  0  0  0  0
    1.1956   -0.6991   -0.0000 C   0  0  0  0  0  0  0  0  0  0  0  0
    2.0769   -1.1969    0.0040 H   0  0  0  0  0  0  0  0  0  0  0  0
    1.1956    0.6937   -0.0043 C   0  0  0  0  0  0  0  0  0  0  0  0
    2.0665    1.1848   -0.0155 H   0  0  0  0  0  0  0  0  0  0  0  0
  1  5  1  0
  5  6  1  0
  5  7  2  0
  1  2  1  0
  1  3  1  0
  1  4  1  0
  8 12  1  0
 12 13  2  0
 13 15  1  0
 15 17  2  0
 17 19  1  0
 19 21  2  0
 21 12  1  0
  8  9  1  0
  8 10  1  0
  8 11  1  0
 13 14  1  0
 15 16  1  0
 17 18  1  0
 19 20  1  0
 21 22  1  0
M  CHG  1   6  -1
M  END
>  <PDB_ID>  (2421) 
pdb5j90

>  <RESIDUE_NAME>  (2421) 
ASP   PHE

>  <FRAG_NAME>  (2421) 
ACET   MBZ

>  <FRAG_ATOM_NUM>  (2421) 
fragi: 7  fragj: 15

>  <atom.prop.CHAIN_ID>  (2421) 
A A A A A A A Z Z Z Z Z Z Z Z Z Z Z Z Z Z Z

>  <atom.prop.IS_HEAVY_ATOM>  (2421) 
1 0 0 0 1 1 1 1 0 0 0 1 1 0 1 0 1 0 1 0 1 0

>  <DIFUSE_FUNC_ATOM>  (2421) 
atom 6   atom 7   

>  <FINAL_SINGLE_POINT_ENERGY>  (2421) 
0

>  <NONCOV_INTER_ENERGY_QM>  (2421) 
0

>  <FF_Energy>  (2421) 
0.12

>  <QM_Energy>  (2421) 
-5.48

>  <source>  (2421) 
ACET_MBZ_02

>  <Index>  (2421) 
32852

$$$$
ACET-pdb6kz8-B-GLU-634:MBZ-pdb6kz8-B-PHE-375
     RDKit          3D

 22 21  0  0  0  0  0  0  0  0999 V2000
   -1.4274    5.4034    3.2914 C   0  0  0  0  0  0  0  0  0  0  0  0
   -2.3431    5.1354    3.5219 H   0  0  0  0  0  0  0  0  0  0  0  0
   -1.3719    5.8404    2.4137 H   0  0  0  0  0  0  0  0  0  0  0  0
   -1.0722    6.1025    4.0485 H   0  0  0  0  0  0  0  0  0  0  0  0
   -0.5837    4.1576    3.2384 C   0  0  0  0  0  0  0  0  0  0  0  0
   -1.1689    3.0578    3.1470 O   0  0  0  0  0  1  0  0  0  0  0  0
    0.6648    4.2855    3.3031 O   0  0  0  0  0  0  0  0  0  0  0  0
    0.0048    2.8797    0.0069 C   0  0  0  0  0  0  0  0  0  0  0  0
    0.7972    3.1835    0.5191 H   0  0  0  0  0  0  0  0  0  0  0  0
   -0.8333    3.1822    0.4411 H   0  0  0  0  0  0  0  0  0  0  0  0
    0.0513    3.3462   -0.9772 H   0  0  0  0  0  0  0  0  0  0  0  0
    0.0069    1.3804   -0.0124 C   0  0  0  0  0  0  0  0  0  0  0  0
   -1.1850    0.6748    0.0018 C   0  0  0  0  0  0  0  0  0  0  0  0
   -2.0505    1.1796    0.0122 H   0  0  0  0  0  0  0  0  0  0  0  0
   -1.1893   -0.6834   -0.0000 C   0  0  0  0  0  0  0  0  0  0  0  0
   -2.0753   -1.1825   -0.0001 H   0  0  0  0  0  0  0  0  0  0  0  0
   -0.0156   -1.3639    0.0005 C   0  0  0  0  0  0  0  0  0  0  0  0
   -0.0135   -2.3741    0.0012 H   0  0  0  0  0  0  0  0  0  0  0  0
    1.1893   -0.6858    0.0000 C   0  0  0  0  0  0  0  0  0  0  0  0
    2.0627   -1.2020   -0.0062 H   0  0  0  0  0  0  0  0  0  0  0  0
    1.1936    0.6779    0.0101 C   0  0  0  0  0  0  0  0  0  0  0  0
    2.0627    1.1793    0.0331 H   0  0  0  0  0  0  0  0  0  0  0  0
  1  5  1  0
  5  6  1  0
  5  7  2  0
  1  2  1  0
  1  3  1  0
  1  4  1  0
  8 12  1  0
 12 13  2  0
 13 15  1  0
 15 17  2  0
 17 19  1  0
 19 21  2  0
 21 12  1  0
  8  9  1  0
  8 10  1  0
  8 11  1  0
 13 14  1  0
 15 16  1  0
 17 18  1  0
 19 20  1  0
 21 22  1  0
M  CHG  1   6  -1
M  END
>  <PDB_ID>  (2422) 
pdb6kz8

>  <RESIDUE_NAME>  (2422) 
GLU   PHE

>  <FRAG_NAME>  (2422) 
ACET   MBZ

>  <FRAG_ATOM_NUM>  (2422) 
fragi: 7  fragj: 15

>  <atom.prop.CHAIN_ID>  (2422) 
A A A A A A A Z Z Z Z Z Z Z Z Z Z Z Z Z Z Z

>  <atom.prop.IS_HEAVY_ATOM>  (2422) 
1 0 0 0 1 1 1 1 0 0 0 1 1 0 1 0 1 0 1 0 1 0

>  <DIFUSE_FUNC_ATOM>  (2422) 
atom 6   atom 7   

>  <FINAL_SINGLE_POINT_ENERGY>  (2422) 
0

>  <NONCOV_INTER_ENERGY_QM>  (2422) 
0

>  <FF_Energy>  (2422) 
0.45

>  <QM_Energy>  (2422) 
-4.73

>  <source>  (2422) 
ACET_MBZ_02

>  <Index>  (2422) 
33330

$$$$
ACET-pdb6l33-B-ASP-108:MBZ-pdb6l33-B-PHE-229
     RDKit          3D

 22 21  0  0  0  0  0  0  0  0999 V2000
    5.1183    4.3847   -1.3394 C   0  0  0  0  0  0  0  0  0  0  0  0
    5.1291    5.3628   -1.5188 H   0  0  0  0  0  0  0  0  0  0  0  0
    5.5188    3.8907   -2.1036 H   0  0  0  0  0  0  0  0  0  0  0  0
    5.7344    4.1986   -0.4597 H   0  0  0  0  0  0  0  0  0  0  0  0
    3.6813    3.9356   -1.1652 C   0  0  0  0  0  0  0  0  0  0  0  0
    3.4152    2.7222   -1.2744 O   0  0  0  0  0  1  0  0  0  0  0  0
    2.8130    4.8037   -0.9395 O   0  0  0  0  0  0  0  0  0  0  0  0
   -0.0051    2.8938   -0.0031 C   0  0  0  0  0  0  0  0  0  0  0  0
    0.9216    3.2057    0.1346 H   0  0  0  0  0  0  0  0  0  0  0  0
   -0.6029    3.2026    0.7209 H   0  0  0  0  0  0  0  0  0  0  0  0
   -0.3650    3.3253   -0.9371 H   0  0  0  0  0  0  0  0  0  0  0  0
    0.0001    1.3952    0.0023 C   0  0  0  0  0  0  0  0  0  0  0  0
   -1.1912    0.6892   -0.0006 C   0  0  0  0  0  0  0  0  0  0  0  0
   -2.0598    1.1803   -0.0045 H   0  0  0  0  0  0  0  0  0  0  0  0
   -1.1952   -0.6942   -0.0000 C   0  0  0  0  0  0  0  0  0  0  0  0
   -2.0752   -1.1886    0.0017 H   0  0  0  0  0  0  0  0  0  0  0  0
   -0.0020   -1.3871   -0.0003 C   0  0  0  0  0  0  0  0  0  0  0  0
   -0.0049   -2.3881   -0.0013 H   0  0  0  0  0  0  0  0  0  0  0  0
    1.1952   -0.6946   -0.0000 C   0  0  0  0  0  0  0  0  0  0  0  0
    2.0770   -1.1943    0.0027 H   0  0  0  0  0  0  0  0  0  0  0  0
    1.1931    0.6915   -0.0014 C   0  0  0  0  0  0  0  0  0  0  0  0
    2.0614    1.1879   -0.0059 H   0  0  0  0  0  0  0  0  0  0  0  0
  1  5  1  0
  5  6  1  0
  5  7  2  0
  1  2  1  0
  1  3  1  0
  1  4  1  0
  8 12  1  0
 12 13  2  0
 13 15  1  0
 15 17  2  0
 17 19  1  0
 19 21  2  0
 21 12  1  0
  8  9  1  0
  8 10  1  0
  8 11  1  0
 13 14  1  0
 15 16  1  0
 17 18  1  0
 19 20  1  0
 21 22  1  0
M  CHG  1   6  -1
M  END
>  <PDB_ID>  (2423) 
pdb6l33

>  <RESIDUE_NAME>  (2423) 
ASP   PHE

>  <FRAG_NAME>  (2423) 
ACET   MBZ

>  <FRAG_ATOM_NUM>  (2423) 
fragi: 7  fragj: 15

>  <atom.prop.CHAIN_ID>  (2423) 
A A A A A A A Z Z Z Z Z Z Z Z Z Z Z Z Z Z Z

>  <atom.prop.IS_HEAVY_ATOM>  (2423) 
1 0 0 0 1 1 1 1 0 0 0 1 1 0 1 0 1 0 1 0 1 0

>  <DIFUSE_FUNC_ATOM>  (2423) 
atom 6   atom 7   

>  <FINAL_SINGLE_POINT_ENERGY>  (2423) 
0

>  <NONCOV_INTER_ENERGY_QM>  (2423) 
0

>  <FF_Energy>  (2423) 
-2.05

>  <QM_Energy>  (2423) 
-8.43

>  <source>  (2423) 
ACET_MBZ_02

>  <Index>  (2423) 
33338

$$$$
ACET-pdb5jjt-B-GLU-369:MBZ-pdb5jjt-B-PHE-342
     RDKit          3D

 22 21  0  0  0  0  0  0  0  0999 V2000
   -5.0100    3.7386   -1.5960 C   0  0  0  0  0  0  0  0  0  0  0  0
   -5.1195    4.3086   -2.3904 H   0  0  0  0  0  0  0  0  0  0  0  0
   -5.8665    3.5724   -1.1394 H   0  0  0  0  0  0  0  0  0  0  0  0
   -4.6038    2.7800   -1.9189 H   0  0  0  0  0  0  0  0  0  0  0  0
   -4.1063    4.4697   -0.6265 C   0  0  0  0  0  0  0  0  0  0  0  0
   -3.1015    3.8768   -0.1835 O   0  0  0  0  0  1  0  0  0  0  0  0
   -4.4053    5.6370   -0.3051 O   0  0  0  0  0  0  0  0  0  0  0  0
   -0.0032    2.8945   -0.0168 C   0  0  0  0  0  0  0  0  0  0  0  0
    0.8660    3.2075    0.3283 H   0  0  0  0  0  0  0  0  0  0  0  0
   -0.7528    3.2076    0.5427 H   0  0  0  0  0  0  0  0  0  0  0  0
   -0.1359    3.3080   -1.0165 H   0  0  0  0  0  0  0  0  0  0  0  0
   -0.0001    1.3935    0.0042 C   0  0  0  0  0  0  0  0  0  0  0  0
   -1.1926    0.6873   -0.0044 C   0  0  0  0  0  0  0  0  0  0  0  0
   -2.0602    1.1792   -0.0155 H   0  0  0  0  0  0  0  0  0  0  0  0
   -1.1960   -0.6951    0.0000 C   0  0  0  0  0  0  0  0  0  0  0  0
   -2.0736   -1.1921    0.0022 H   0  0  0  0  0  0  0  0  0  0  0  0
    0.0002   -1.3844    0.0030 C   0  0  0  0  0  0  0  0  0  0  0  0
   -0.0019   -2.3864    0.0068 H   0  0  0  0  0  0  0  0  0  0  0  0
    1.1960   -0.6907    0.0000 C   0  0  0  0  0  0  0  0  0  0  0  0
    2.0784   -1.1921    0.0018 H   0  0  0  0  0  0  0  0  0  0  0  0
    1.1926    0.6894   -0.0028 C   0  0  0  0  0  0  0  0  0  0  0  0
    2.0609    1.1888   -0.0111 H   0  0  0  0  0  0  0  0  0  0  0  0
  1  5  1  0
  5  6  1  0
  5  7  2  0
  1  2  1  0
  1  3  1  0
  1  4  1  0
  8 12  1  0
 12 13  2  0
 13 15  1  0
 15 17  2  0
 17 19  1  0
 19 21  2  0
 21 12  1  0
  8  9  1  0
  8 10  1  0
  8 11  1  0
 13 14  1  0
 15 16  1  0
 17 18  1  0
 19 20  1  0
 21 22  1  0
M  CHG  1   6  -1
M  END
>  <PDB_ID>  (2424) 
pdb5jjt

>  <RESIDUE_NAME>  (2424) 
GLU   PHE

>  <FRAG_NAME>  (2424) 
ACET   MBZ

>  <FRAG_ATOM_NUM>  (2424) 
fragi: 7  fragj: 15

>  <atom.prop.CHAIN_ID>  (2424) 
A A A A A A A Z Z Z Z Z Z Z Z Z Z Z Z Z Z Z

>  <atom.prop.IS_HEAVY_ATOM>  (2424) 
1 0 0 0 1 1 1 1 0 0 0 1 1 0 1 0 1 0 1 0 1 0

>  <DIFUSE_FUNC_ATOM>  (2424) 
atom 6   atom 7   

>  <FINAL_SINGLE_POINT_ENERGY>  (2424) 
0

>  <NONCOV_INTER_ENERGY_QM>  (2424) 
0

>  <FF_Energy>  (2424) 
-1.81

>  <QM_Energy>  (2424) 
-6.89

>  <source>  (2424) 
ACET_MBZ_02

>  <Index>  (2424) 
33382

$$$$
ACET-pdb5jk5-A-ASP-305:MBZ-pdb5jk5-A-PHE-394
     RDKit          3D

 22 21  0  0  0  0  0  0  0  0999 V2000
    0.2970   -0.1879    3.7474 C   0  0  0  0  0  0  0  0  0  0  0  0
    1.0418    0.3089    4.1757 H   0  0  0  0  0  0  0  0  0  0  0  0
    0.5805   -0.5603    2.8728 H   0  0  0  0  0  0  0  0  0  0  0  0
    0.0257   -1.0194    4.3979 H   0  0  0  0  0  0  0  0  0  0  0  0
   -0.8577    0.7676    3.5198 C   0  0  0  0  0  0  0  0  0  0  0  0
   -2.0106    0.3398    3.6788 O   0  0  0  0  0  1  0  0  0  0  0  0
   -0.6093    1.9398    3.1822 O   0  0  0  0  0  0  0  0  0  0  0  0
    0.0127    2.9053   -0.0020 C   0  0  0  0  0  0  0  0  0  0  0  0
    0.6420    3.2047   -0.7076 H   0  0  0  0  0  0  0  0  0  0  0  0
    0.3148    3.2076    0.8928 H   0  0  0  0  0  0  0  0  0  0  0  0
   -0.9538    3.3684   -0.2005 H   0  0  0  0  0  0  0  0  0  0  0  0
   -0.0032    1.4012   -0.0018 C   0  0  0  0  0  0  0  0  0  0  0  0
   -1.1918    0.6928    0.0036 C   0  0  0  0  0  0  0  0  0  0  0  0
   -2.0627    1.1780    0.0089 H   0  0  0  0  0  0  0  0  0  0  0  0
   -1.1923   -0.6990   -0.0000 C   0  0  0  0  0  0  0  0  0  0  0  0
   -2.0693   -1.1921    0.0008 H   0  0  0  0  0  0  0  0  0  0  0  0
    0.0052   -1.3870   -0.0029 C   0  0  0  0  0  0  0  0  0  0  0  0
   -0.0023   -2.3915   -0.0075 H   0  0  0  0  0  0  0  0  0  0  0  0
    1.1923   -0.7007    0.0000 C   0  0  0  0  0  0  0  0  0  0  0  0
    2.0793   -1.1925    0.0029 H   0  0  0  0  0  0  0  0  0  0  0  0
    1.1898    0.6927    0.0011 C   0  0  0  0  0  0  0  0  0  0  0  0
    2.0599    1.1852    0.0028 H   0  0  0  0  0  0  0  0  0  0  0  0
  1  5  1  0
  5  6  1  0
  5  7  2  0
  1  2  1  0
  1  3  1  0
  1  4  1  0
  8 12  1  0
 12 13  2  0
 13 15  1  0
 15 17  2  0
 17 19  1  0
 19 21  2  0
 21 12  1  0
  8  9  1  0
  8 10  1  0
  8 11  1  0
 13 14  1  0
 15 16  1  0
 17 18  1  0
 19 20  1  0
 21 22  1  0
M  CHG  1   6  -1
M  END
>  <PDB_ID>  (2425) 
pdb5jk5

>  <RESIDUE_NAME>  (2425) 
ASP   PHE

>  <FRAG_NAME>  (2425) 
ACET   MBZ

>  <FRAG_ATOM_NUM>  (2425) 
fragi: 7  fragj: 15

>  <atom.prop.CHAIN_ID>  (2425) 
A A A A A A A Z Z Z Z Z Z Z Z Z Z Z Z Z Z Z

>  <atom.prop.IS_HEAVY_ATOM>  (2425) 
1 0 0 0 1 1 1 1 0 0 0 1 1 0 1 0 1 0 1 0 1 0

>  <DIFUSE_FUNC_ATOM>  (2425) 
atom 6   atom 7   

>  <FINAL_SINGLE_POINT_ENERGY>  (2425) 
0

>  <NONCOV_INTER_ENERGY_QM>  (2425) 
0

>  <FF_Energy>  (2425) 
1.23

>  <QM_Energy>  (2425) 
-4.35

>  <source>  (2425) 
ACET_MBZ_02

>  <Index>  (2425) 
33440

$$$$
ACET-pdb5jkq-C-ASP-212:MBZ-pdb5jkq-A-PHE-137
     RDKit          3D

 22 21  0  0  0  0  0  0  0  0999 V2000
   -4.2884    3.2473    2.3327 C   0  0  0  0  0  0  0  0  0  0  0  0
   -4.5296    3.8269    3.1016 H   0  0  0  0  0  0  0  0  0  0  0  0
   -4.0389    2.3391    2.6434 H   0  0  0  0  0  0  0  0  0  0  0  0
   -5.1651    3.1559    1.6915 H   0  0  0  0  0  0  0  0  0  0  0  0
   -3.1042    3.8607    1.6120 C   0  0  0  0  0  0  0  0  0  0  0  0
   -3.0997    3.8598    0.3633 O   0  0  0  0  0  1  0  0  0  0  0  0
   -2.1737    4.3375    2.2941 O   0  0  0  0  0  0  0  0  0  0  0  0
   -0.0048    2.8919   -0.0056 C   0  0  0  0  0  0  0  0  0  0  0  0
    0.8876    3.2042    0.2802 H   0  0  0  0  0  0  0  0  0  0  0  0
   -0.7121    3.2001    0.6104 H   0  0  0  0  0  0  0  0  0  0  0  0
   -0.2087    3.3201   -0.9870 H   0  0  0  0  0  0  0  0  0  0  0  0
   -0.0004    1.3930    0.0010 C   0  0  0  0  0  0  0  0  0  0  0  0
   -1.1915    0.6876    0.0004 C   0  0  0  0  0  0  0  0  0  0  0  0
   -2.0597    1.1811   -0.0007 H   0  0  0  0  0  0  0  0  0  0  0  0
   -1.1948   -0.6919   -0.0000 C   0  0  0  0  0  0  0  0  0  0  0  0
   -2.0733   -1.1898    0.0002 H   0  0  0  0  0  0  0  0  0  0  0  0
    0.0004   -1.3844    0.0004 C   0  0  0  0  0  0  0  0  0  0  0  0
   -0.0040   -2.3855    0.0007 H   0  0  0  0  0  0  0  0  0  0  0  0
    1.1948   -0.6925    0.0000 C   0  0  0  0  0  0  0  0  0  0  0  0
    2.0781   -1.1932    0.0023 H   0  0  0  0  0  0  0  0  0  0  0  0
    1.1915    0.6882   -0.0018 C   0  0  0  0  0  0  0  0  0  0  0  0
    2.0605    1.1868   -0.0059 H   0  0  0  0  0  0  0  0  0  0  0  0
  1  5  1  0
  5  6  1  0
  5  7  2  0
  1  2  1  0
  1  3  1  0
  1  4  1  0
  8 12  1  0
 12 13  2  0
 13 15  1  0
 15 17  2  0
 17 19  1  0
 19 21  2  0
 21 12  1  0
  8  9  1  0
  8 10  1  0
  8 11  1  0
 13 14  1  0
 15 16  1  0
 17 18  1  0
 19 20  1  0
 21 22  1  0
M  CHG  1   6  -1
M  END
>  <PDB_ID>  (2426) 
pdb5jkq

>  <RESIDUE_NAME>  (2426) 
ASP   PHE

>  <FRAG_NAME>  (2426) 
ACET   MBZ

>  <FRAG_ATOM_NUM>  (2426) 
fragi: 7  fragj: 15

>  <atom.prop.CHAIN_ID>  (2426) 
A A A A A A A Z Z Z Z Z Z Z Z Z Z Z Z Z Z Z

>  <atom.prop.IS_HEAVY_ATOM>  (2426) 
1 0 0 0 1 1 1 1 0 0 0 1 1 0 1 0 1 0 1 0 1 0

>  <DIFUSE_FUNC_ATOM>  (2426) 
atom 6   atom 7   

>  <FINAL_SINGLE_POINT_ENERGY>  (2426) 
0

>  <NONCOV_INTER_ENERGY_QM>  (2426) 
0

>  <FF_Energy>  (2426) 
-1.57

>  <QM_Energy>  (2426) 
-8.11

>  <source>  (2426) 
ACET_MBZ_02

>  <Index>  (2426) 
33473

$$$$
ACET-pdb6map-B-ASP-53:MBZ-pdb6map-B-PHE-1
     RDKit          3D

 22 21  0  0  0  0  0  0  0  0999 V2000
    3.0210    1.7481    2.9139 C   0  0  0  0  0  0  0  0  0  0  0  0
    3.6647    1.1544    2.4509 H   0  0  0  0  0  0  0  0  0  0  0  0
    2.1498    1.2973    3.0429 H   0  0  0  0  0  0  0  0  0  0  0  0
    3.4275    1.9839    3.8974 H   0  0  0  0  0  0  0  0  0  0  0  0
    2.8171    2.9898    2.0909 C   0  0  0  0  0  0  0  0  0  0  0  0
    2.0139    3.8221    2.5472 O   0  0  0  0  0  1  0  0  0  0  0  0
    3.4618    3.1373    1.0278 O   0  0  0  0  0  0  0  0  0  0  0  0
   -0.0004    2.9028   -0.0189 C   0  0  0  0  0  0  0  0  0  0  0  0
    0.6972    3.2162    0.6056 H   0  0  0  0  0  0  0  0  0  0  0  0
   -0.8976    3.2080    0.2550 H   0  0  0  0  0  0  0  0  0  0  0  0
    0.2132    3.3245   -1.0011 H   0  0  0  0  0  0  0  0  0  0  0  0
    0.0026    1.3950    0.0007 C   0  0  0  0  0  0  0  0  0  0  0  0
   -1.1924    0.6799    0.0009 C   0  0  0  0  0  0  0  0  0  0  0  0
   -2.0604    1.1720    0.0004 H   0  0  0  0  0  0  0  0  0  0  0  0
   -1.1942   -0.7023   -0.0000 C   0  0  0  0  0  0  0  0  0  0  0  0
   -2.0730   -1.1973   -0.0027 H   0  0  0  0  0  0  0  0  0  0  0  0
   -0.0039   -1.3833    0.0043 C   0  0  0  0  0  0  0  0  0  0  0  0
    0.0043   -2.3860    0.0093 H   0  0  0  0  0  0  0  0  0  0  0  0
    1.1942   -0.6837   -0.0000 C   0  0  0  0  0  0  0  0  0  0  0  0
    2.0767   -1.1886    0.0028 H   0  0  0  0  0  0  0  0  0  0  0  0
    1.1937    0.6944   -0.0059 C   0  0  0  0  0  0  0  0  0  0  0  0
    2.0623    1.1934   -0.0162 H   0  0  0  0  0  0  0  0  0  0  0  0
  1  5  1  0
  5  6  1  0
  5  7  2  0
  1  2  1  0
  1  3  1  0
  1  4  1  0
  8 12  1  0
 12 13  2  0
 13 15  1  0
 15 17  2  0
 17 19  1  0
 19 21  2  0
 21 12  1  0
  8  9  1  0
  8 10  1  0
  8 11  1  0
 13 14  1  0
 15 16  1  0
 17 18  1  0
 19 20  1  0
 21 22  1  0
M  CHG  1   6  -1
M  END
>  <PDB_ID>  (2427) 
pdb6map

>  <RESIDUE_NAME>  (2427) 
ASP   PHE

>  <FRAG_NAME>  (2427) 
ACET   MBZ

>  <FRAG_ATOM_NUM>  (2427) 
fragi: 7  fragj: 15

>  <atom.prop.CHAIN_ID>  (2427) 
A A A A A A A Z Z Z Z Z Z Z Z Z Z Z Z Z Z Z

>  <atom.prop.IS_HEAVY_ATOM>  (2427) 
1 0 0 0 1 1 1 1 0 0 0 1 1 0 1 0 1 0 1 0 1 0

>  <DIFUSE_FUNC_ATOM>  (2427) 
atom 6   atom 7   

>  <FINAL_SINGLE_POINT_ENERGY>  (2427) 
0

>  <NONCOV_INTER_ENERGY_QM>  (2427) 
0

>  <FF_Energy>  (2427) 
-1.67

>  <QM_Energy>  (2427) 
-8.59

>  <source>  (2427) 
ACET_MBZ_02

>  <Index>  (2427) 
33492

$$$$
ACET-pdb6mc8-A-ASP-203:MBZ-pdb6mc8-A-PHE-206
     RDKit          3D

 22 21  0  0  0  0  0  0  0  0999 V2000
    3.2672    5.8883   -1.6307 C   0  0  0  0  0  0  0  0  0  0  0  0
    2.5193    6.5427   -1.7157 H   0  0  0  0  0  0  0  0  0  0  0  0
    3.8788    5.9704   -2.4133 H   0  0  0  0  0  0  0  0  0  0  0  0
    3.8353    6.1499   -0.7380 H   0  0  0  0  0  0  0  0  0  0  0  0
    2.7004    4.4964   -1.5915 C   0  0  0  0  0  0  0  0  0  0  0  0
    3.0231    3.7436   -0.6523 O   0  0  0  0  0  1  0  0  0  0  0  0
    1.9140    4.1548   -2.4992 O   0  0  0  0  0  0  0  0  0  0  0  0
    0.0108    2.8946   -0.0218 C   0  0  0  0  0  0  0  0  0  0  0  0
   -0.3354    3.1756   -0.9074 H   0  0  0  0  0  0  0  0  0  0  0  0
    0.9457    3.1989    0.1054 H   0  0  0  0  0  0  0  0  0  0  0  0
   -0.6017    3.3743    0.7416 H   0  0  0  0  0  0  0  0  0  0  0  0
    0.0005    1.3935    0.0255 C   0  0  0  0  0  0  0  0  0  0  0  0
   -1.1890    0.6871   -0.0224 C   0  0  0  0  0  0  0  0  0  0  0  0
   -2.0565    1.1788   -0.0751 H   0  0  0  0  0  0  0  0  0  0  0  0
   -1.1919   -0.6927   -0.0000 C   0  0  0  0  0  0  0  0  0  0  0  0
   -2.0715   -1.1884    0.0167 H   0  0  0  0  0  0  0  0  0  0  0  0
   -0.0001   -1.3812    0.0008 C   0  0  0  0  0  0  0  0  0  0  0  0
   -0.0038   -2.3852    0.0015 H   0  0  0  0  0  0  0  0  0  0  0  0
    1.1919   -0.6933   -0.0000 C   0  0  0  0  0  0  0  0  0  0  0  0
    2.0752   -1.1940    0.0036 H   0  0  0  0  0  0  0  0  0  0  0  0
    1.1886    0.6865   -0.0039 C   0  0  0  0  0  0  0  0  0  0  0  0
    2.0595    1.1842   -0.0292 H   0  0  0  0  0  0  0  0  0  0  0  0
  1  5  1  0
  5  6  1  0
  5  7  2  0
  1  2  1  0
  1  3  1  0
  1  4  1  0
  8 12  1  0
 12 13  2  0
 13 15  1  0
 15 17  2  0
 17 19  1  0
 19 21  2  0
 21 12  1  0
  8  9  1  0
  8 10  1  0
  8 11  1  0
 13 14  1  0
 15 16  1  0
 17 18  1  0
 19 20  1  0
 21 22  1  0
M  CHG  1   6  -1
M  END
>  <PDB_ID>  (2428) 
pdb6mc8

>  <RESIDUE_NAME>  (2428) 
ASP   PHE

>  <FRAG_NAME>  (2428) 
ACET   MBZ

>  <FRAG_ATOM_NUM>  (2428) 
fragi: 7  fragj: 15

>  <atom.prop.CHAIN_ID>  (2428) 
A A A A A A A Z Z Z Z Z Z Z Z Z Z Z Z Z Z Z

>  <atom.prop.IS_HEAVY_ATOM>  (2428) 
1 0 0 0 1 1 1 1 0 0 0 1 1 0 1 0 1 0 1 0 1 0

>  <DIFUSE_FUNC_ATOM>  (2428) 
atom 6   atom 7   

>  <FINAL_SINGLE_POINT_ENERGY>  (2428) 
0

>  <NONCOV_INTER_ENERGY_QM>  (2428) 
0

>  <FF_Energy>  (2428) 
-0.59

>  <QM_Energy>  (2428) 
-8.1

>  <source>  (2428) 
ACET_MBZ_02

>  <Index>  (2428) 
33534

$$$$
ACET-pdb5jmu-A-ASP-297:MBZ-pdb5jmu-A-PHE-321
     RDKit          3D

 22 21  0  0  0  0  0  0  0  0999 V2000
    3.0786    5.4569    2.7452 C   0  0  0  0  0  0  0  0  0  0  0  0
    3.9788    5.5483    3.1605 H   0  0  0  0  0  0  0  0  0  0  0  0
    2.4827    6.1909    3.0548 H   0  0  0  0  0  0  0  0  0  0  0  0
    3.2042    5.5728    1.6686 H   0  0  0  0  0  0  0  0  0  0  0  0
    2.4792    4.1263    3.1495 C   0  0  0  0  0  0  0  0  0  0  0  0
    2.3534    3.2169    2.3147 O   0  0  0  0  0  1  0  0  0  0  0  0
    2.2073    4.0356    4.3716 O   0  0  0  0  0  0  0  0  0  0  0  0
   -0.0210    2.9016    0.0179 C   0  0  0  0  0  0  0  0  0  0  0  0
    0.8355    3.2209    0.3795 H   0  0  0  0  0  0  0  0  0  0  0  0
   -0.7869    3.1922    0.5623 H   0  0  0  0  0  0  0  0  0  0  0  0
   -0.1404    3.3292   -0.9776 H   0  0  0  0  0  0  0  0  0  0  0  0
    0.0036    1.4010    0.0038 C   0  0  0  0  0  0  0  0  0  0  0  0
   -1.1908    0.6979   -0.0180 C   0  0  0  0  0  0  0  0  0  0  0  0
   -2.0584    1.1868   -0.0482 H   0  0  0  0  0  0  0  0  0  0  0  0
   -1.2057   -0.7020   -0.0000 C   0  0  0  0  0  0  0  0  0  0  0  0
   -2.0860   -1.1859    0.0034 H   0  0  0  0  0  0  0  0  0  0  0  0
   -0.0076   -1.4119    0.0154 C   0  0  0  0  0  0  0  0  0  0  0  0
   -0.0051   -2.4000    0.0362 H   0  0  0  0  0  0  0  0  0  0  0  0
    1.2057   -0.6964   -0.0000 C   0  0  0  0  0  0  0  0  0  0  0  0
    2.0850   -1.1877   -0.0084 H   0  0  0  0  0  0  0  0  0  0  0  0
    1.1948    0.7114   -0.0011 C   0  0  0  0  0  0  0  0  0  0  0  0
    2.0650    1.1997   -0.0065 H   0  0  0  0  0  0  0  0  0  0  0  0
  1  5  1  0
  5  6  1  0
  5  7  2  0
  1  2  1  0
  1  3  1  0
  1  4  1  0
  8 12  1  0
 12 13  2  0
 13 15  1  0
 15 17  2  0
 17 19  1  0
 19 21  2  0
 21 12  1  0
  8  9  1  0
  8 10  1  0
  8 11  1  0
 13 14  1  0
 15 16  1  0
 17 18  1  0
 19 20  1  0
 21 22  1  0
M  CHG  1   6  -1
M  END
>  <PDB_ID>  (2429) 
pdb5jmu

>  <RESIDUE_NAME>  (2429) 
ASP   PHE

>  <FRAG_NAME>  (2429) 
ACET   MBZ

>  <FRAG_ATOM_NUM>  (2429) 
fragi: 7  fragj: 15

>  <atom.prop.CHAIN_ID>  (2429) 
A A A A A A A Z Z Z Z Z Z Z Z Z Z Z Z Z Z Z

>  <atom.prop.IS_HEAVY_ATOM>  (2429) 
1 0 0 0 1 1 1 1 0 0 0 1 1 0 1 0 1 0 1 0 1 0

>  <DIFUSE_FUNC_ATOM>  (2429) 
atom 6   atom 7   

>  <FINAL_SINGLE_POINT_ENERGY>  (2429) 
0

>  <NONCOV_INTER_ENERGY_QM>  (2429) 
0

>  <FF_Energy>  (2429) 
0.01

>  <QM_Energy>  (2429) 
-5.11

>  <source>  (2429) 
ACET_MBZ_02

>  <Index>  (2429) 
33541

$$$$
ACET-pdb5jo7-B-GLU-146:MBZ-pdb5jo7-B-PHE-178
     RDKit          3D

 22 21  0  0  0  0  0  0  0  0999 V2000
   -5.1518   -3.8040   -0.0487 C   0  0  0  0  0  0  0  0  0  0  0  0
   -5.2222   -3.3478   -0.9143 H   0  0  0  0  0  0  0  0  0  0  0  0
   -6.0276   -4.0346    0.3288 H   0  0  0  0  0  0  0  0  0  0  0  0
   -4.5855   -4.7242   -0.1921 H   0  0  0  0  0  0  0  0  0  0  0  0
   -4.4747   -2.8433    0.9224 C   0  0  0  0  0  0  0  0  0  0  0  0
   -4.4219   -3.1629    2.1291 O   0  0  0  0  0  1  0  0  0  0  0  0
   -3.9857   -1.7748    0.4827 O   0  0  0  0  0  0  0  0  0  0  0  0
    0.0042    2.8979   -0.0111 C   0  0  0  0  0  0  0  0  0  0  0  0
   -0.7291    3.2047   -0.6005 H   0  0  0  0  0  0  0  0  0  0  0  0
    0.8841    3.2020   -0.3472 H   0  0  0  0  0  0  0  0  0  0  0  0
   -0.1477    3.3537    0.9673 H   0  0  0  0  0  0  0  0  0  0  0  0
   -0.0002    1.3962    0.0002 C   0  0  0  0  0  0  0  0  0  0  0  0
   -1.1927    0.6854   -0.0052 C   0  0  0  0  0  0  0  0  0  0  0  0
   -2.0611    1.1765   -0.0138 H   0  0  0  0  0  0  0  0  0  0  0  0
   -1.1913   -0.6954    0.0000 C   0  0  0  0  0  0  0  0  0  0  0  0
   -2.0700   -1.1936    0.0007 H   0  0  0  0  0  0  0  0  0  0  0  0
    0.0017   -1.3817    0.0056 C   0  0  0  0  0  0  0  0  0  0  0  0
   -0.0018   -2.3872    0.0135 H   0  0  0  0  0  0  0  0  0  0  0  0
    1.1913   -0.6943    0.0000 C   0  0  0  0  0  0  0  0  0  0  0  0
    2.0771   -1.1929   -0.0016 H   0  0  0  0  0  0  0  0  0  0  0  0
    1.1912    0.6897   -0.0006 C   0  0  0  0  0  0  0  0  0  0  0  0
    2.0612    1.1853   -0.0030 H   0  0  0  0  0  0  0  0  0  0  0  0
  1  5  1  0
  5  6  1  0
  5  7  2  0
  1  2  1  0
  1  3  1  0
  1  4  1  0
  8 12  1  0
 12 13  2  0
 13 15  1  0
 15 17  2  0
 17 19  1  0
 19 21  2  0
 21 12  1  0
  8  9  1  0
  8 10  1  0
  8 11  1  0
 13 14  1  0
 15 16  1  0
 17 18  1  0
 19 20  1  0
 21 22  1  0
M  CHG  1   6  -1
M  END
>  <PDB_ID>  (2430) 
pdb5jo7

>  <RESIDUE_NAME>  (2430) 
GLU   PHE

>  <FRAG_NAME>  (2430) 
ACET   MBZ

>  <FRAG_ATOM_NUM>  (2430) 
fragi: 7  fragj: 15

>  <atom.prop.CHAIN_ID>  (2430) 
A A A A A A A Z Z Z Z Z Z Z Z Z Z Z Z Z Z Z

>  <atom.prop.IS_HEAVY_ATOM>  (2430) 
1 0 0 0 1 1 1 1 0 0 0 1 1 0 1 0 1 0 1 0 1 0

>  <DIFUSE_FUNC_ATOM>  (2430) 
atom 6   atom 7   

>  <FINAL_SINGLE_POINT_ENERGY>  (2430) 
0

>  <NONCOV_INTER_ENERGY_QM>  (2430) 
0

>  <FF_Energy>  (2430) 
2.54

>  <QM_Energy>  (2430) 
-5.77

>  <source>  (2430) 
ACET_MBZ_02

>  <Index>  (2430) 
33575

$$$$
ACET-pdb6mfg-E-GLU-6:MBZ-pdb6mfg-F-PHE-47
     RDKit          3D

 22 21  0  0  0  0  0  0  0  0999 V2000
   -0.5923    1.6927   -4.0855 C   0  0  0  0  0  0  0  0  0  0  0  0
   -0.4186    2.6504   -3.9429 H   0  0  0  0  0  0  0  0  0  0  0  0
   -0.7894    1.4883   -5.0277 H   0  0  0  0  0  0  0  0  0  0  0  0
    0.3038    1.1417   -3.7999 H   0  0  0  0  0  0  0  0  0  0  0  0
   -1.8278    1.3226   -3.2671 C   0  0  0  0  0  0  0  0  0  0  0  0
   -2.2251    0.1394   -3.2646 O   0  0  0  0  0  1  0  0  0  0  0  0
   -2.4196    2.2249   -2.6362 O   0  0  0  0  0  0  0  0  0  0  0  0
   -0.0049    2.9012    0.0041 C   0  0  0  0  0  0  0  0  0  0  0  0
   -0.6479    3.2065   -0.6792 H   0  0  0  0  0  0  0  0  0  0  0  0
    0.9113    3.2095   -0.1936 H   0  0  0  0  0  0  0  0  0  0  0  0
   -0.3034    3.3303    0.9606 H   0  0  0  0  0  0  0  0  0  0  0  0
   -0.0006    1.3969   -0.0003 C   0  0  0  0  0  0  0  0  0  0  0  0
   -1.1907    0.6886    0.0000 C   0  0  0  0  0  0  0  0  0  0  0  0
   -2.0600    1.1788   -0.0009 H   0  0  0  0  0  0  0  0  0  0  0  0
   -1.1940   -0.6959   -0.0000 C   0  0  0  0  0  0  0  0  0  0  0  0
   -2.0727   -1.1901    0.0019 H   0  0  0  0  0  0  0  0  0  0  0  0
   -0.0006   -1.3862   -0.0006 C   0  0  0  0  0  0  0  0  0  0  0  0
   -0.0029   -2.3881   -0.0022 H   0  0  0  0  0  0  0  0  0  0  0  0
    1.1940   -0.6938    0.0000 C   0  0  0  0  0  0  0  0  0  0  0  0
    2.0773   -1.1935    0.0013 H   0  0  0  0  0  0  0  0  0  0  0  0
    1.1919    0.6904    0.0009 C   0  0  0  0  0  0  0  0  0  0  0  0
    2.0614    1.1876    0.0018 H   0  0  0  0  0  0  0  0  0  0  0  0
  1  5  1  0
  5  6  1  0
  5  7  2  0
  1  2  1  0
  1  3  1  0
  1  4  1  0
  8 12  1  0
 12 13  2  0
 13 15  1  0
 15 17  2  0
 17 19  1  0
 19 21  2  0
 21 12  1  0
  8  9  1  0
  8 10  1  0
  8 11  1  0
 13 14  1  0
 15 16  1  0
 17 18  1  0
 19 20  1  0
 21 22  1  0
M  CHG  1   6  -1
M  END
>  <PDB_ID>  (2431) 
pdb6mfg

>  <RESIDUE_NAME>  (2431) 
GLU   PHE

>  <FRAG_NAME>  (2431) 
ACET   MBZ

>  <FRAG_ATOM_NUM>  (2431) 
fragi: 7  fragj: 15

>  <atom.prop.CHAIN_ID>  (2431) 
A A A A A A A Z Z Z Z Z Z Z Z Z Z Z Z Z Z Z

>  <atom.prop.IS_HEAVY_ATOM>  (2431) 
1 0 0 0 1 1 1 1 0 0 0 1 1 0 1 0 1 0 1 0 1 0

>  <DIFUSE_FUNC_ATOM>  (2431) 
atom 6   atom 7   

>  <FINAL_SINGLE_POINT_ENERGY>  (2431) 
0

>  <NONCOV_INTER_ENERGY_QM>  (2431) 
0

>  <FF_Energy>  (2431) 
-0.05

>  <QM_Energy>  (2431) 
-5.39

>  <source>  (2431) 
ACET_MBZ_02

>  <Index>  (2431) 
33664

$$$$
ACET-pdb6mg6-A-GLU-54:MBZ-pdb6mg6-A-PHE-128
     RDKit          3D

 22 21  0  0  0  0  0  0  0  0999 V2000
    0.1270    1.0412   -3.2416 C   0  0  0  0  0  0  0  0  0  0  0  0
   -0.3585    0.1939   -3.3729 H   0  0  0  0  0  0  0  0  0  0  0  0
    0.6367    1.0442   -2.3986 H   0  0  0  0  0  0  0  0  0  0  0  0
    0.8137    1.1906   -4.0748 H   0  0  0  0  0  0  0  0  0  0  0  0
   -0.9246    2.1435   -3.1290 C   0  0  0  0  0  0  0  0  0  0  0  0
   -0.6043    3.3415   -3.3333 O   0  0  0  0  0  1  0  0  0  0  0  0
   -2.0889    1.7941   -2.8405 O   0  0  0  0  0  0  0  0  0  0  0  0
   -0.0165    2.8845   -0.0083 C   0  0  0  0  0  0  0  0  0  0  0  0
   -0.6592    3.1836   -0.6967 H   0  0  0  0  0  0  0  0  0  0  0  0
    0.8988    3.1998   -0.2052 H   0  0  0  0  0  0  0  0  0  0  0  0
   -0.3222    3.3106    0.9473 H   0  0  0  0  0  0  0  0  0  0  0  0
   -0.0019    1.3917   -0.0041 C   0  0  0  0  0  0  0  0  0  0  0  0
   -1.1966    0.6833    0.0058 C   0  0  0  0  0  0  0  0  0  0  0  0
   -2.0630    1.1766    0.0159 H   0  0  0  0  0  0  0  0  0  0  0  0
   -1.1983   -0.6969   -0.0000 C   0  0  0  0  0  0  0  0  0  0  0  0
   -2.0711   -1.1973    0.0002 H   0  0  0  0  0  0  0  0  0  0  0  0
    0.0045   -1.3836   -0.0046 C   0  0  0  0  0  0  0  0  0  0  0  0
    0.0045   -2.3848   -0.0120 H   0  0  0  0  0  0  0  0  0  0  0  0
    1.1983   -0.6858    0.0000 C   0  0  0  0  0  0  0  0  0  0  0  0
    2.0825   -1.1873    0.0027 H   0  0  0  0  0  0  0  0  0  0  0  0
    1.1940    0.6913    0.0029 C   0  0  0  0  0  0  0  0  0  0  0  0
    2.0595    1.1940    0.0096 H   0  0  0  0  0  0  0  0  0  0  0  0
  1  5  1  0
  5  6  1  0
  5  7  2  0
  1  2  1  0
  1  3  1  0
  1  4  1  0
  8 12  1  0
 12 13  2  0
 13 15  1  0
 15 17  2  0
 17 19  1  0
 19 21  2  0
 21 12  1  0
  8  9  1  0
  8 10  1  0
  8 11  1  0
 13 14  1  0
 15 16  1  0
 17 18  1  0
 19 20  1  0
 21 22  1  0
M  CHG  1   6  -1
M  END
>  <PDB_ID>  (2432) 
pdb6mg6

>  <RESIDUE_NAME>  (2432) 
GLU   PHE

>  <FRAG_NAME>  (2432) 
ACET   MBZ

>  <FRAG_ATOM_NUM>  (2432) 
fragi: 7  fragj: 15

>  <atom.prop.CHAIN_ID>  (2432) 
A A A A A A A Z Z Z Z Z Z Z Z Z Z Z Z Z Z Z

>  <atom.prop.IS_HEAVY_ATOM>  (2432) 
1 0 0 0 1 1 1 1 0 0 0 1 1 0 1 0 1 0 1 0 1 0

>  <DIFUSE_FUNC_ATOM>  (2432) 
atom 6   atom 7   

>  <FINAL_SINGLE_POINT_ENERGY>  (2432) 
0

>  <NONCOV_INTER_ENERGY_QM>  (2432) 
0

>  <FF_Energy>  (2432) 
2.62

>  <QM_Energy>  (2432) 
-4.77

>  <source>  (2432) 
ACET_MBZ_02

>  <Index>  (2432) 
33682

$$$$
ACET-pdb6mgc-A-ASP-155:MBZ-pdb6mgc-A-PHE-206
     RDKit          3D

 22 21  0  0  0  0  0  0  0  0999 V2000
    4.5507    1.7835   -1.2581 C   0  0  0  0  0  0  0  0  0  0  0  0
    4.2569    1.7723   -0.3336 H   0  0  0  0  0  0  0  0  0  0  0  0
    5.2412    2.4543   -1.3766 H   0  0  0  0  0  0  0  0  0  0  0  0
    4.9637    0.8063   -1.5082 H   0  0  0  0  0  0  0  0  0  0  0  0
    3.3394    2.1848   -2.1389 C   0  0  0  0  0  0  0  0  0  0  0  0
    2.9991    1.4584   -3.0903 O   0  0  0  0  0  1  0  0  0  0  0  0
    2.7292    3.2235   -1.7891 O   0  0  0  0  0  0  0  0  0  0  0  0
   -0.0176    2.8954    0.0083 C   0  0  0  0  0  0  0  0  0  0  0  0
    0.9039    3.2013    0.0190 H   0  0  0  0  0  0  0  0  0  0  0  0
   -0.4744    3.1986    0.8082 H   0  0  0  0  0  0  0  0  0  0  0  0
   -0.5185    3.3119   -0.8656 H   0  0  0  0  0  0  0  0  0  0  0  0
   -0.0063    1.3895    0.0209 C   0  0  0  0  0  0  0  0  0  0  0  0
   -1.2053    0.6779    0.0011 C   0  0  0  0  0  0  0  0  0  0  0  0
   -2.0155    1.1350    0.0079 H   0  0  0  0  0  0  0  0  0  0  0  0
   -1.1957   -0.7116   -0.0000 C   0  0  0  0  0  0  0  0  0  0  0  0
   -1.9947   -1.1883   -0.0085 H   0  0  0  0  0  0  0  0  0  0  0  0
    0.0300   -1.3860   -0.0215 C   0  0  0  0  0  0  0  0  0  0  0  0
    0.0524   -2.3164   -0.0165 H   0  0  0  0  0  0  0  0  0  0  0  0
    1.1957   -0.6678   -0.0000 C   0  0  0  0  0  0  0  0  0  0  0  0
    2.0103   -1.1171   -0.0099 H   0  0  0  0  0  0  0  0  0  0  0  0
    1.1816    0.6981   -0.0006 C   0  0  0  0  0  0  0  0  0  0  0  0
    1.9859    1.1653    0.0055 H   0  0  0  0  0  0  0  0  0  0  0  0
  1  5  1  0
  5  6  1  0
  5  7  2  0
  1  2  1  0
  1  3  1  0
  1  4  1  0
  8 12  1  0
 12 13  2  0
 13 15  1  0
 15 17  2  0
 17 19  1  0
 19 21  2  0
 21 12  1  0
  8  9  1  0
  8 10  1  0
  8 11  1  0
 13 14  1  0
 15 16  1  0
 17 18  1  0
 19 20  1  0
 21 22  1  0
M  CHG  1   6  -1
M  END
>  <PDB_ID>  (2433) 
pdb6mgc

>  <RESIDUE_NAME>  (2433) 
ASP   PHE

>  <FRAG_NAME>  (2433) 
ACET   MBZ

>  <FRAG_ATOM_NUM>  (2433) 
fragi: 7  fragj: 15

>  <atom.prop.CHAIN_ID>  (2433) 
A A A A A A A Z Z Z Z Z Z Z Z Z Z Z Z Z Z Z

>  <atom.prop.IS_HEAVY_ATOM>  (2433) 
1 0 0 0 1 1 1 1 0 0 0 1 1 0 1 0 1 0 1 0 1 0

>  <DIFUSE_FUNC_ATOM>  (2433) 
atom 6   atom 7   

>  <FINAL_SINGLE_POINT_ENERGY>  (2433) 
0

>  <NONCOV_INTER_ENERGY_QM>  (2433) 
0

>  <FF_Energy>  (2433) 
-0.35

>  <QM_Energy>  (2433) 
-5.5

>  <source>  (2433) 
ACET_MBZ_02

>  <Index>  (2433) 
33692

$$$$
ACET-pdb5jpo-B-ASP-161:MBZ-pdb5jpo-B-PHE-151
     RDKit          3D

 22 21  0  0  0  0  0  0  0  0999 V2000
   -4.4991    2.9340    2.6644 C   0  0  0  0  0  0  0  0  0  0  0  0
   -4.2590    2.4241    3.4800 H   0  0  0  0  0  0  0  0  0  0  0  0
   -4.9282    2.3433    1.9931 H   0  0  0  0  0  0  0  0  0  0  0  0
   -5.2240    3.6964    2.9497 H   0  0  0  0  0  0  0  0  0  0  0  0
   -3.2527    3.5328    2.0719 C   0  0  0  0  0  0  0  0  0  0  0  0
   -3.2604    3.8117    0.8546 O   0  0  0  0  0  1  0  0  0  0  0  0
   -2.2746    3.7449    2.8322 O   0  0  0  0  0  0  0  0  0  0  0  0
   -0.0010    2.9301   -0.0114 C   0  0  0  0  0  0  0  0  0  0  0  0
    0.9224    3.2302    0.1637 H   0  0  0  0  0  0  0  0  0  0  0  0
   -0.6229    3.2333    0.6913 H   0  0  0  0  0  0  0  0  0  0  0  0
   -0.3225    3.3691   -0.9558 H   0  0  0  0  0  0  0  0  0  0  0  0
   -0.0025    1.4092   -0.0059 C   0  0  0  0  0  0  0  0  0  0  0  0
   -1.2000    0.6936    0.0034 C   0  0  0  0  0  0  0  0  0  0  0  0
   -2.0675    1.1795    0.0110 H   0  0  0  0  0  0  0  0  0  0  0  0
   -1.2008   -0.7037    0.0000 C   0  0  0  0  0  0  0  0  0  0  0  0
   -2.0740   -1.1986   -0.0051 H   0  0  0  0  0  0  0  0  0  0  0  0
    0.0079   -1.3996    0.0050 C   0  0  0  0  0  0  0  0  0  0  0  0
    0.0054   -2.3961    0.0113 H   0  0  0  0  0  0  0  0  0  0  0  0
    1.2008   -0.6960   -0.0000 C   0  0  0  0  0  0  0  0  0  0  0  0
    2.0876   -1.1893   -0.0009 H   0  0  0  0  0  0  0  0  0  0  0  0
    1.1946    0.6964   -0.0025 C   0  0  0  0  0  0  0  0  0  0  0  0
    2.0630    1.1934   -0.0026 H   0  0  0  0  0  0  0  0  0  0  0  0
  1  5  1  0
  5  6  1  0
  5  7  2  0
  1  2  1  0
  1  3  1  0
  1  4  1  0
  8 12  1  0
 12 13  2  0
 13 15  1  0
 15 17  2  0
 17 19  1  0
 19 21  2  0
 21 12  1  0
  8  9  1  0
  8 10  1  0
  8 11  1  0
 13 14  1  0
 15 16  1  0
 17 18  1  0
 19 20  1  0
 21 22  1  0
M  CHG  1   6  -1
M  END
>  <PDB_ID>  (2434) 
pdb5jpo

>  <RESIDUE_NAME>  (2434) 
ASP   PHE

>  <FRAG_NAME>  (2434) 
ACET   MBZ

>  <FRAG_ATOM_NUM>  (2434) 
fragi: 7  fragj: 15

>  <atom.prop.CHAIN_ID>  (2434) 
A A A A A A A Z Z Z Z Z Z Z Z Z Z Z Z Z Z Z

>  <atom.prop.IS_HEAVY_ATOM>  (2434) 
1 0 0 0 1 1 1 1 0 0 0 1 1 0 1 0 1 0 1 0 1 0

>  <DIFUSE_FUNC_ATOM>  (2434) 
atom 6   atom 7   

>  <FINAL_SINGLE_POINT_ENERGY>  (2434) 
0

>  <NONCOV_INTER_ENERGY_QM>  (2434) 
0

>  <FF_Energy>  (2434) 
-1.89

>  <QM_Energy>  (2434) 
-7.67

>  <source>  (2434) 
ACET_MBZ_02

>  <Index>  (2434) 
33758

$$$$
ACET-pdb6mhk-A-GLU-93:MBZ-pdb6mhk-A-PHE-581
     RDKit          3D

 22 21  0  0  0  0  0  0  0  0999 V2000
    0.3895    0.2752    3.8943 C   0  0  0  0  0  0  0  0  0  0  0  0
   -0.2139   -0.1194    3.2292 H   0  0  0  0  0  0  0  0  0  0  0  0
    0.0469    0.1926    4.8105 H   0  0  0  0  0  0  0  0  0  0  0  0
    1.3513   -0.2343    3.8351 H   0  0  0  0  0  0  0  0  0  0  0  0
    0.4891    1.7741    3.5825 C   0  0  0  0  0  0  0  0  0  0  0  0
    1.6134    2.3227    3.3929 O   0  0  0  0  0  1  0  0  0  0  0  0
   -0.5656    2.4330    3.5246 O   0  0  0  0  0  0  0  0  0  0  0  0
    0.0088    2.8677   -0.0363 C   0  0  0  0  0  0  0  0  0  0  0  0
    0.9287    3.1847    0.1443 H   0  0  0  0  0  0  0  0  0  0  0  0
   -0.6261    3.2053    0.6431 H   0  0  0  0  0  0  0  0  0  0  0  0
   -0.2905    3.3071   -0.9878 H   0  0  0  0  0  0  0  0  0  0  0  0
   -0.0083    1.3939   -0.0273 C   0  0  0  0  0  0  0  0  0  0  0  0
   -1.1840    0.7225    0.0220 C   0  0  0  0  0  0  0  0  0  0  0  0
   -2.0526    1.2172    0.0737 H   0  0  0  0  0  0  0  0  0  0  0  0
   -1.2028   -0.6543    0.0000 C   0  0  0  0  0  0  0  0  0  0  0  0
   -2.0900   -1.1450   -0.0163 H   0  0  0  0  0  0  0  0  0  0  0  0
   -0.0114   -1.3919    0.0019 C   0  0  0  0  0  0  0  0  0  0  0  0
   -0.0550   -2.3895    0.0046 H   0  0  0  0  0  0  0  0  0  0  0  0
    1.2028   -0.7372    0.0000 C   0  0  0  0  0  0  0  0  0  0  0  0
    2.0710   -1.2353   -0.0028 H   0  0  0  0  0  0  0  0  0  0  0  0
    1.2038    0.6669    0.0033 C   0  0  0  0  0  0  0  0  0  0  0  0
    2.0667    1.1605    0.0266 H   0  0  0  0  0  0  0  0  0  0  0  0
  1  5  1  0
  5  6  1  0
  5  7  2  0
  1  2  1  0
  1  3  1  0
  1  4  1  0
  8 12  1  0
 12 13  2  0
 13 15  1  0
 15 17  2  0
 17 19  1  0
 19 21  2  0
 21 12  1  0
  8  9  1  0
  8 10  1  0
  8 11  1  0
 13 14  1  0
 15 16  1  0
 17 18  1  0
 19 20  1  0
 21 22  1  0
M  CHG  1   6  -1
M  END
>  <PDB_ID>  (2435) 
pdb6mhk

>  <RESIDUE_NAME>  (2435) 
GLU   PHE

>  <FRAG_NAME>  (2435) 
ACET   MBZ

>  <FRAG_ATOM_NUM>  (2435) 
fragi: 7  fragj: 15

>  <atom.prop.CHAIN_ID>  (2435) 
A A A A A A A Z Z Z Z Z Z Z Z Z Z Z Z Z Z Z

>  <atom.prop.IS_HEAVY_ATOM>  (2435) 
1 0 0 0 1 1 1 1 0 0 0 1 1 0 1 0 1 0 1 0 1 0

>  <DIFUSE_FUNC_ATOM>  (2435) 
atom 6   atom 7   

>  <FINAL_SINGLE_POINT_ENERGY>  (2435) 
0

>  <NONCOV_INTER_ENERGY_QM>  (2435) 
0

>  <FF_Energy>  (2435) 
-0.17

>  <QM_Energy>  (2435) 
-5.43

>  <source>  (2435) 
ACET_MBZ_02

>  <Index>  (2435) 
33836

$$$$
ACET-pdb6mhk-B-GLU-93:MBZ-pdb6mhk-B-PHE-581
     RDKit          3D

 22 21  0  0  0  0  0  0  0  0999 V2000
    0.4847    0.3746    3.9635 C   0  0  0  0  0  0  0  0  0  0  0  0
   -0.2048   -0.0381    3.3854 H   0  0  0  0  0  0  0  0  0  0  0  0
    0.2365    0.3051    4.9196 H   0  0  0  0  0  0  0  0  0  0  0  0
    1.4276   -0.1497    3.8081 H   0  0  0  0  0  0  0  0  0  0  0  0
    0.5127    1.8756    3.6199 C   0  0  0  0  0  0  0  0  0  0  0  0
    1.5567    2.4580    3.4696 O   0  0  0  0  0  1  0  0  0  0  0  0
   -0.5301    2.4536    3.4770 O   0  0  0  0  0  0  0  0  0  0  0  0
   -0.0209    2.9062   -0.0082 C   0  0  0  0  0  0  0  0  0  0  0  0
    0.8947    3.2242    0.1884 H   0  0  0  0  0  0  0  0  0  0  0  0
   -0.6629    3.2095    0.6801 H   0  0  0  0  0  0  0  0  0  0  0  0
   -0.3260    3.3382   -0.9613 H   0  0  0  0  0  0  0  0  0  0  0  0
   -0.0012    1.3961    0.0072 C   0  0  0  0  0  0  0  0  0  0  0  0
   -1.1915    0.6768   -0.0028 C   0  0  0  0  0  0  0  0  0  0  0  0
   -2.0643    1.1701   -0.0131 H   0  0  0  0  0  0  0  0  0  0  0  0
   -1.2087   -0.7139    0.0000 C   0  0  0  0  0  0  0  0  0  0  0  0
   -2.0730   -1.2085    0.0098 H   0  0  0  0  0  0  0  0  0  0  0  0
    0.0100   -1.4010   -0.0091 C   0  0  0  0  0  0  0  0  0  0  0  0
    0.0215   -2.3933   -0.0224 H   0  0  0  0  0  0  0  0  0  0  0  0
    1.2087   -0.6776   -0.0000 C   0  0  0  0  0  0  0  0  0  0  0  0
    2.0951   -1.1618    0.0050 H   0  0  0  0  0  0  0  0  0  0  0  0
    1.1827    0.7195    0.0047 C   0  0  0  0  0  0  0  0  0  0  0  0
    2.0537    1.2175    0.0051 H   0  0  0  0  0  0  0  0  0  0  0  0
  1  5  1  0
  5  6  1  0
  5  7  2  0
  1  2  1  0
  1  3  1  0
  1  4  1  0
  8 12  1  0
 12 13  2  0
 13 15  1  0
 15 17  2  0
 17 19  1  0
 19 21  2  0
 21 12  1  0
  8  9  1  0
  8 10  1  0
  8 11  1  0
 13 14  1  0
 15 16  1  0
 17 18  1  0
 19 20  1  0
 21 22  1  0
M  CHG  1   6  -1
M  END
>  <PDB_ID>  (2436) 
pdb6mhk

>  <RESIDUE_NAME>  (2436) 
GLU   PHE

>  <FRAG_NAME>  (2436) 
ACET   MBZ

>  <FRAG_ATOM_NUM>  (2436) 
fragi: 7  fragj: 15

>  <atom.prop.CHAIN_ID>  (2436) 
A A A A A A A Z Z Z Z Z Z Z Z Z Z Z Z Z Z Z

>  <atom.prop.IS_HEAVY_ATOM>  (2436) 
1 0 0 0 1 1 1 1 0 0 0 1 1 0 1 0 1 0 1 0 1 0

>  <DIFUSE_FUNC_ATOM>  (2436) 
atom 6   atom 7   

>  <FINAL_SINGLE_POINT_ENERGY>  (2436) 
0

>  <NONCOV_INTER_ENERGY_QM>  (2436) 
0

>  <FF_Energy>  (2436) 
0.04

>  <QM_Energy>  (2436) 
-5.16

>  <source>  (2436) 
ACET_MBZ_02

>  <Index>  (2436) 
33839

$$$$
ACET-pdb5joz-A-ASP-529:MBZ-pdb5joz-A-PHE-390
     RDKit          3D

 22 21  0  0  0  0  0  0  0  0999 V2000
    5.3566    4.1852   -1.3594 C   0  0  0  0  0  0  0  0  0  0  0  0
    5.6636    4.1946   -2.3018 H   0  0  0  0  0  0  0  0  0  0  0  0
    5.8733    3.5303   -0.8250 H   0  0  0  0  0  0  0  0  0  0  0  0
    5.5361    5.1751   -0.9398 H   0  0  0  0  0  0  0  0  0  0  0  0
    3.8709    3.7719   -1.3353 C   0  0  0  0  0  0  0  0  0  0  0  0
    3.0223    4.5192   -0.7931 O   0  0  0  0  0  1  0  0  0  0  0  0
    3.5531    2.6776   -1.8688 O   0  0  0  0  0  0  0  0  0  0  0  0
   -0.0022    2.8899   -0.0097 C   0  0  0  0  0  0  0  0  0  0  0  0
    0.9170    3.2006    0.1720 H   0  0  0  0  0  0  0  0  0  0  0  0
   -0.6352    3.2042    0.6802 H   0  0  0  0  0  0  0  0  0  0  0  0
   -0.3149    3.3050   -0.9679 H   0  0  0  0  0  0  0  0  0  0  0  0
   -0.0001    1.3972    0.0071 C   0  0  0  0  0  0  0  0  0  0  0  0
   -1.2006    0.6935   -0.0090 C   0  0  0  0  0  0  0  0  0  0  0  0
   -2.0640    1.1818   -0.0279 H   0  0  0  0  0  0  0  0  0  0  0  0
   -1.2011   -0.6999    0.0000 C   0  0  0  0  0  0  0  0  0  0  0  0
   -2.0762   -1.1948    0.0021 H   0  0  0  0  0  0  0  0  0  0  0  0
    0.0024   -1.3889    0.0073 C   0  0  0  0  0  0  0  0  0  0  0  0
    0.0016   -2.3899    0.0171 H   0  0  0  0  0  0  0  0  0  0  0  0
    1.2011   -0.6919   -0.0000 C   0  0  0  0  0  0  0  0  0  0  0  0
    2.0828   -1.1945    0.0001 H   0  0  0  0  0  0  0  0  0  0  0  0
    1.1984    0.6901   -0.0054 C   0  0  0  0  0  0  0  0  0  0  0  0
    2.0646    1.1908   -0.0193 H   0  0  0  0  0  0  0  0  0  0  0  0
  1  5  1  0
  5  6  1  0
  5  7  2  0
  1  2  1  0
  1  3  1  0
  1  4  1  0
  8 12  1  0
 12 13  2  0
 13 15  1  0
 15 17  2  0
 17 19  1  0
 19 21  2  0
 21 12  1  0
  8  9  1  0
  8 10  1  0
  8 11  1  0
 13 14  1  0
 15 16  1  0
 17 18  1  0
 19 20  1  0
 21 22  1  0
M  CHG  1   6  -1
M  END
>  <PDB_ID>  (2437) 
pdb5joz

>  <RESIDUE_NAME>  (2437) 
ASP   PHE

>  <FRAG_NAME>  (2437) 
ACET   MBZ

>  <FRAG_ATOM_NUM>  (2437) 
fragi: 7  fragj: 15

>  <atom.prop.CHAIN_ID>  (2437) 
A A A A A A A Z Z Z Z Z Z Z Z Z Z Z Z Z Z Z

>  <atom.prop.IS_HEAVY_ATOM>  (2437) 
1 0 0 0 1 1 1 1 0 0 0 1 1 0 1 0 1 0 1 0 1 0

>  <DIFUSE_FUNC_ATOM>  (2437) 
atom 6   atom 7   

>  <FINAL_SINGLE_POINT_ENERGY>  (2437) 
0

>  <NONCOV_INTER_ENERGY_QM>  (2437) 
0

>  <FF_Energy>  (2437) 
-2.11

>  <QM_Energy>  (2437) 
-7.31

>  <source>  (2437) 
ACET_MBZ_02

>  <Index>  (2437) 
33904

$$$$
ACET-pdb5jwz-B-ASP-41:MBZ-pdb5jwz-B-PHE-22
     RDKit          3D

 22 21  0  0  0  0  0  0  0  0999 V2000
    4.9727    2.3963    2.3016 C   0  0  0  0  0  0  0  0  0  0  0  0
    5.8635    2.3496    1.8558 H   0  0  0  0  0  0  0  0  0  0  0  0
    4.5662    1.4865    2.3426 H   0  0  0  0  0  0  0  0  0  0  0  0
    5.1327    2.7344    3.3254 H   0  0  0  0  0  0  0  0  0  0  0  0
    4.0640    3.3023    1.4861 C   0  0  0  0  0  0  0  0  0  0  0  0
    3.6576    4.3892    1.9542 O   0  0  0  0  0  1  0  0  0  0  0  0
    3.7649    2.9065    0.3323 O   0  0  0  0  0  0  0  0  0  0  0  0
    0.0332    2.9086   -0.0405 C   0  0  0  0  0  0  0  0  0  0  0  0
   -0.1225    3.1870   -0.9810 H   0  0  0  0  0  0  0  0  0  0  0  0
    0.9306    3.2061    0.2662 H   0  0  0  0  0  0  0  0  0  0  0  0
   -0.7096    3.4113    0.5790 H   0  0  0  0  0  0  0  0  0  0  0  0
    0.0013    1.4028    0.0089 C   0  0  0  0  0  0  0  0  0  0  0  0
   -1.1952    0.6932   -0.0100 C   0  0  0  0  0  0  0  0  0  0  0  0
   -2.0619    1.1838   -0.0320 H   0  0  0  0  0  0  0  0  0  0  0  0
   -1.1994   -0.6963   -0.0000 C   0  0  0  0  0  0  0  0  0  0  0  0
   -2.0779   -1.1899    0.0059 H   0  0  0  0  0  0  0  0  0  0  0  0
   -0.0011   -1.3948    0.0032 C   0  0  0  0  0  0  0  0  0  0  0  0
   -0.0061   -2.3931    0.0074 H   0  0  0  0  0  0  0  0  0  0  0  0
    1.1994   -0.6987    0.0000 C   0  0  0  0  0  0  0  0  0  0  0  0
    2.0809   -1.1951    0.0009 H   0  0  0  0  0  0  0  0  0  0  0  0
    1.1950    0.6938   -0.0021 C   0  0  0  0  0  0  0  0  0  0  0  0
    2.0646    1.1889   -0.0121 H   0  0  0  0  0  0  0  0  0  0  0  0
  1  5  1  0
  5  6  1  0
  5  7  2  0
  1  2  1  0
  1  3  1  0
  1  4  1  0
  8 12  1  0
 12 13  2  0
 13 15  1  0
 15 17  2  0
 17 19  1  0
 19 21  2  0
 21 12  1  0
  8  9  1  0
  8 10  1  0
  8 11  1  0
 13 14  1  0
 15 16  1  0
 17 18  1  0
 19 20  1  0
 21 22  1  0
M  CHG  1   6  -1
M  END
>  <PDB_ID>  (2438) 
pdb5jwz

>  <RESIDUE_NAME>  (2438) 
ASP   PHE

>  <FRAG_NAME>  (2438) 
ACET   MBZ

>  <FRAG_ATOM_NUM>  (2438) 
fragi: 7  fragj: 15

>  <atom.prop.CHAIN_ID>  (2438) 
A A A A A A A Z Z Z Z Z Z Z Z Z Z Z Z Z Z Z

>  <atom.prop.IS_HEAVY_ATOM>  (2438) 
1 0 0 0 1 1 1 1 0 0 0 1 1 0 1 0 1 0 1 0 1 0

>  <DIFUSE_FUNC_ATOM>  (2438) 
atom 6   atom 7   

>  <FINAL_SINGLE_POINT_ENERGY>  (2438) 
0

>  <NONCOV_INTER_ENERGY_QM>  (2438) 
0

>  <FF_Energy>  (2438) 
-2.57

>  <QM_Energy>  (2438) 
-8.14

>  <source>  (2438) 
ACET_MBZ_02

>  <Index>  (2438) 
34064

$$$$
ACET-pdb5jxf-D-GLU-399:MBZ-pdb5jxf-D-PHE-440
     RDKit          3D

 22 21  0  0  0  0  0  0  0  0999 V2000
   -5.3972   -1.3634   -1.0672 C   0  0  0  0  0  0  0  0  0  0  0  0
   -5.4131   -0.3945   -0.9111 H   0  0  0  0  0  0  0  0  0  0  0  0
   -6.2625   -1.7083   -1.3768 H   0  0  0  0  0  0  0  0  0  0  0  0
   -4.6648   -1.5580   -1.8506 H   0  0  0  0  0  0  0  0  0  0  0  0
   -5.0757   -2.0468    0.2733 C   0  0  0  0  0  0  0  0  0  0  0  0
   -4.0168   -1.7558    0.8435 O   0  0  0  0  0  1  0  0  0  0  0  0
   -5.8546   -2.9094    0.7268 O   0  0  0  0  0  0  0  0  0  0  0  0
    0.0034    2.9027   -0.0058 C   0  0  0  0  0  0  0  0  0  0  0  0
   -0.6758    3.2052   -0.6591 H   0  0  0  0  0  0  0  0  0  0  0  0
    0.9088    3.2047   -0.2663 H   0  0  0  0  0  0  0  0  0  0  0  0
   -0.2351    3.3533    0.9577 H   0  0  0  0  0  0  0  0  0  0  0  0
    0.0010    1.3971    0.0022 C   0  0  0  0  0  0  0  0  0  0  0  0
   -1.1906    0.6924   -0.0003 C   0  0  0  0  0  0  0  0  0  0  0  0
   -2.0584    1.1835   -0.0033 H   0  0  0  0  0  0  0  0  0  0  0  0
   -1.1939   -0.6919    0.0000 C   0  0  0  0  0  0  0  0  0  0  0  0
   -2.0749   -1.1856    0.0005 H   0  0  0  0  0  0  0  0  0  0  0  0
   -0.0025   -1.3863    0.0022 C   0  0  0  0  0  0  0  0  0  0  0  0
   -0.0091   -2.3886    0.0046 H   0  0  0  0  0  0  0  0  0  0  0  0
    1.1939   -0.6985   -0.0000 C   0  0  0  0  0  0  0  0  0  0  0  0
    2.0760   -1.1982    0.0033 H   0  0  0  0  0  0  0  0  0  0  0  0
    1.1921    0.6872   -0.0041 C   0  0  0  0  0  0  0  0  0  0  0  0
    2.0627    1.1825   -0.0129 H   0  0  0  0  0  0  0  0  0  0  0  0
  1  5  1  0
  5  6  1  0
  5  7  2  0
  1  2  1  0
  1  3  1  0
  1  4  1  0
  8 12  1  0
 12 13  2  0
 13 15  1  0
 15 17  2  0
 17 19  1  0
 19 21  2  0
 21 12  1  0
  8  9  1  0
  8 10  1  0
  8 11  1  0
 13 14  1  0
 15 16  1  0
 17 18  1  0
 19 20  1  0
 21 22  1  0
M  CHG  1   6  -1
M  END
>  <PDB_ID>  (2439) 
pdb5jxf

>  <RESIDUE_NAME>  (2439) 
GLU   PHE

>  <FRAG_NAME>  (2439) 
ACET   MBZ

>  <FRAG_ATOM_NUM>  (2439) 
fragi: 7  fragj: 15

>  <atom.prop.CHAIN_ID>  (2439) 
A A A A A A A Z Z Z Z Z Z Z Z Z Z Z Z Z Z Z

>  <atom.prop.IS_HEAVY_ATOM>  (2439) 
1 0 0 0 1 1 1 1 0 0 0 1 1 0 1 0 1 0 1 0 1 0

>  <DIFUSE_FUNC_ATOM>  (2439) 
atom 6   atom 7   

>  <FINAL_SINGLE_POINT_ENERGY>  (2439) 
0

>  <NONCOV_INTER_ENERGY_QM>  (2439) 
0

>  <FF_Energy>  (2439) 
-0.65

>  <QM_Energy>  (2439) 
-5.8

>  <source>  (2439) 
ACET_MBZ_02

>  <Index>  (2439) 
34103

$$$$
ACET-pdb5jxu-B-ASP-300:MBZ-pdb5jxu-B-PHE-304
     RDKit          3D

 22 21  0  0  0  0  0  0  0  0999 V2000
    2.5376    5.6240   -3.6696 C   0  0  0  0  0  0  0  0  0  0  0  0
    3.3500    5.3498   -4.1716 H   0  0  0  0  0  0  0  0  0  0  0  0
    2.7317    6.4168   -3.1025 H   0  0  0  0  0  0  0  0  0  0  0  0
    1.7761    5.9093   -4.3955 H   0  0  0  0  0  0  0  0  0  0  0  0
    2.1068    4.4734   -2.7717 C   0  0  0  0  0  0  0  0  0  0  0  0
    1.1385    3.7600   -3.1062 O   0  0  0  0  0  1  0  0  0  0  0  0
    2.7534    4.2809   -1.7203 O   0  0  0  0  0  0  0  0  0  0  0  0
    0.0059    2.8974    0.0013 C   0  0  0  0  0  0  0  0  0  0  0  0
    0.8362    3.2006   -0.4425 H   0  0  0  0  0  0  0  0  0  0  0  0
   -0.0308    3.2031    0.9412 H   0  0  0  0  0  0  0  0  0  0  0  0
   -0.8365    3.3431   -0.5276 H   0  0  0  0  0  0  0  0  0  0  0  0
   -0.0001    1.3945    0.0007 C   0  0  0  0  0  0  0  0  0  0  0  0
   -1.1915    0.6881   -0.0007 C   0  0  0  0  0  0  0  0  0  0  0  0
   -2.0598    1.1800   -0.0036 H   0  0  0  0  0  0  0  0  0  0  0  0
   -1.1938   -0.6935    0.0000 C   0  0  0  0  0  0  0  0  0  0  0  0
   -2.0726   -1.1905    0.0017 H   0  0  0  0  0  0  0  0  0  0  0  0
    0.0004   -1.3843    0.0002 C   0  0  0  0  0  0  0  0  0  0  0  0
   -0.0029   -2.3863    0.0002 H   0  0  0  0  0  0  0  0  0  0  0  0
    1.1938   -0.6929    0.0000 C   0  0  0  0  0  0  0  0  0  0  0  0
    2.0773   -1.1934    0.0014 H   0  0  0  0  0  0  0  0  0  0  0  0
    1.1912    0.6880   -0.0002 C   0  0  0  0  0  0  0  0  0  0  0  0
    2.0604    1.1867   -0.0017 H   0  0  0  0  0  0  0  0  0  0  0  0
  1  5  1  0
  5  6  1  0
  5  7  2  0
  1  2  1  0
  1  3  1  0
  1  4  1  0
  8 12  1  0
 12 13  2  0
 13 15  1  0
 15 17  2  0
 17 19  1  0
 19 21  2  0
 21 12  1  0
  8  9  1  0
  8 10  1  0
  8 11  1  0
 13 14  1  0
 15 16  1  0
 17 18  1  0
 19 20  1  0
 21 22  1  0
M  CHG  1   6  -1
M  END
>  <PDB_ID>  (2440) 
pdb5jxu

>  <RESIDUE_NAME>  (2440) 
ASP   PHE

>  <FRAG_NAME>  (2440) 
ACET   MBZ

>  <FRAG_ATOM_NUM>  (2440) 
fragi: 7  fragj: 15

>  <atom.prop.CHAIN_ID>  (2440) 
A A A A A A A Z Z Z Z Z Z Z Z Z Z Z Z Z Z Z

>  <atom.prop.IS_HEAVY_ATOM>  (2440) 
1 0 0 0 1 1 1 1 0 0 0 1 1 0 1 0 1 0 1 0 1 0

>  <DIFUSE_FUNC_ATOM>  (2440) 
atom 6   atom 7   

>  <FINAL_SINGLE_POINT_ENERGY>  (2440) 
0

>  <NONCOV_INTER_ENERGY_QM>  (2440) 
0

>  <FF_Energy>  (2440) 
-0.76

>  <QM_Energy>  (2440) 
-6.62

>  <source>  (2440) 
ACET_MBZ_02

>  <Index>  (2440) 
34123

$$$$
ACET-pdb5jy6-C-GLU-95:MBZ-pdb5jy6-C-PHE-100
     RDKit          3D

 22 21  0  0  0  0  0  0  0  0999 V2000
    3.3941    4.9670    0.7298 C   0  0  0  0  0  0  0  0  0  0  0  0
    2.4990    5.0802    1.1286 H   0  0  0  0  0  0  0  0  0  0  0  0
    3.4315    5.3286   -0.1879 H   0  0  0  0  0  0  0  0  0  0  0  0
    4.1109    5.5142    1.3421 H   0  0  0  0  0  0  0  0  0  0  0  0
    3.6683    3.4701    0.6407 C   0  0  0  0  0  0  0  0  0  0  0  0
    3.7139    2.8015    1.6976 O   0  0  0  0  0  1  0  0  0  0  0  0
    3.8400    2.9615   -0.4885 O   0  0  0  0  0  0  0  0  0  0  0  0
   -0.0060    2.9207   -0.0293 C   0  0  0  0  0  0  0  0  0  0  0  0
    0.9181    3.2288    0.1166 H   0  0  0  0  0  0  0  0  0  0  0  0
   -0.6157    3.2382    0.6768 H   0  0  0  0  0  0  0  0  0  0  0  0
   -0.3509    3.3295   -0.9790 H   0  0  0  0  0  0  0  0  0  0  0  0
   -0.0011    1.4063    0.0073 C   0  0  0  0  0  0  0  0  0  0  0  0
   -1.1988    0.6953    0.0007 C   0  0  0  0  0  0  0  0  0  0  0  0
   -2.0652    1.1838   -0.0047 H   0  0  0  0  0  0  0  0  0  0  0  0
   -1.1991   -0.6955   -0.0000 C   0  0  0  0  0  0  0  0  0  0  0  0
   -2.0767   -1.1911    0.0030 H   0  0  0  0  0  0  0  0  0  0  0  0
    0.0013   -1.3948   -0.0022 C   0  0  0  0  0  0  0  0  0  0  0  0
   -0.0061   -2.3927   -0.0059 H   0  0  0  0  0  0  0  0  0  0  0  0
    1.1991   -0.7012    0.0000 C   0  0  0  0  0  0  0  0  0  0  0  0
    2.0820   -1.1999    0.0069 H   0  0  0  0  0  0  0  0  0  0  0  0
    1.1987    0.6898   -0.0058 C   0  0  0  0  0  0  0  0  0  0  0  0
    2.0656    1.1854   -0.0203 H   0  0  0  0  0  0  0  0  0  0  0  0
  1  5  1  0
  5  6  1  0
  5  7  2  0
  1  2  1  0
  1  3  1  0
  1  4  1  0
  8 12  1  0
 12 13  2  0
 13 15  1  0
 15 17  2  0
 17 19  1  0
 19 21  2  0
 21 12  1  0
  8  9  1  0
  8 10  1  0
  8 11  1  0
 13 14  1  0
 15 16  1  0
 17 18  1  0
 19 20  1  0
 21 22  1  0
M  CHG  1   6  -1
M  END
>  <PDB_ID>  (2441) 
pdb5jy6

>  <RESIDUE_NAME>  (2441) 
GLU   PHE

>  <FRAG_NAME>  (2441) 
ACET   MBZ

>  <FRAG_ATOM_NUM>  (2441) 
fragi: 7  fragj: 15

>  <atom.prop.CHAIN_ID>  (2441) 
A A A A A A A Z Z Z Z Z Z Z Z Z Z Z Z Z Z Z

>  <atom.prop.IS_HEAVY_ATOM>  (2441) 
1 0 0 0 1 1 1 1 0 0 0 1 1 0 1 0 1 0 1 0 1 0

>  <DIFUSE_FUNC_ATOM>  (2441) 
atom 6   atom 7   

>  <FINAL_SINGLE_POINT_ENERGY>  (2441) 
0

>  <NONCOV_INTER_ENERGY_QM>  (2441) 
0

>  <FF_Energy>  (2441) 
-2.29

>  <QM_Energy>  (2441) 
-8.01

>  <source>  (2441) 
ACET_MBZ_02

>  <Index>  (2441) 
34162

$$$$
ACET-pdb5k04-A-GLU-154:MBZ-pdb5k04-A-PHE-121
     RDKit          3D

 22 21  0  0  0  0  0  0  0  0999 V2000
    4.7563    1.4909   -0.3211 C   0  0  0  0  0  0  0  0  0  0  0  0
    4.9306    0.5556   -0.5709 H   0  0  0  0  0  0  0  0  0  0  0  0
    4.2886    1.5641    0.5409 H   0  0  0  0  0  0  0  0  0  0  0  0
    5.7151    2.0018   -0.2325 H   0  0  0  0  0  0  0  0  0  0  0  0
    3.8541    2.0913   -1.3857 C   0  0  0  0  0  0  0  0  0  0  0  0
    3.7765    3.3364   -1.4812 O   0  0  0  0  0  1  0  0  0  0  0  0
    3.2254    1.3082   -2.1334 O   0  0  0  0  0  0  0  0  0  0  0  0
    0.0126    2.9064    0.0014 C   0  0  0  0  0  0  0  0  0  0  0  0
    0.8957    3.2041   -0.3286 H   0  0  0  0  0  0  0  0  0  0  0  0
   -0.1458    3.2114    0.9288 H   0  0  0  0  0  0  0  0  0  0  0  0
   -0.7490    3.3617   -0.6316 H   0  0  0  0  0  0  0  0  0  0  0  0
   -0.0016    1.3988   -0.0021 C   0  0  0  0  0  0  0  0  0  0  0  0
   -1.1911    0.6981    0.0005 C   0  0  0  0  0  0  0  0  0  0  0  0
   -2.0598    1.1836    0.0016 H   0  0  0  0  0  0  0  0  0  0  0  0
   -1.1918   -0.6923    0.0000 C   0  0  0  0  0  0  0  0  0  0  0  0
   -2.0712   -1.1859   -0.0003 H   0  0  0  0  0  0  0  0  0  0  0  0
    0.0044   -1.3877    0.0015 C   0  0  0  0  0  0  0  0  0  0  0  0
   -0.0072   -2.3899    0.0033 H   0  0  0  0  0  0  0  0  0  0  0  0
    1.1918   -0.7016   -0.0000 C   0  0  0  0  0  0  0  0  0  0  0  0
    2.0788   -1.1970    0.0003 H   0  0  0  0  0  0  0  0  0  0  0  0
    1.1883    0.6847    0.0001 C   0  0  0  0  0  0  0  0  0  0  0  0
    2.0605    1.1802    0.0009 H   0  0  0  0  0  0  0  0  0  0  0  0
  1  5  1  0
  5  6  1  0
  5  7  2  0
  1  2  1  0
  1  3  1  0
  1  4  1  0
  8 12  1  0
 12 13  2  0
 13 15  1  0
 15 17  2  0
 17 19  1  0
 19 21  2  0
 21 12  1  0
  8  9  1  0
  8 10  1  0
  8 11  1  0
 13 14  1  0
 15 16  1  0
 17 18  1  0
 19 20  1  0
 21 22  1  0
M  CHG  1   6  -1
M  END
>  <PDB_ID>  (2442) 
pdb5k04

>  <RESIDUE_NAME>  (2442) 
GLU   PHE

>  <FRAG_NAME>  (2442) 
ACET   MBZ

>  <FRAG_ATOM_NUM>  (2442) 
fragi: 7  fragj: 15

>  <atom.prop.CHAIN_ID>  (2442) 
A A A A A A A Z Z Z Z Z Z Z Z Z Z Z Z Z Z Z

>  <atom.prop.IS_HEAVY_ATOM>  (2442) 
1 0 0 0 1 1 1 1 0 0 0 1 1 0 1 0 1 0 1 0 1 0

>  <DIFUSE_FUNC_ATOM>  (2442) 
atom 6   atom 7   

>  <FINAL_SINGLE_POINT_ENERGY>  (2442) 
0

>  <NONCOV_INTER_ENERGY_QM>  (2442) 
0

>  <FF_Energy>  (2442) 
1.41

>  <QM_Energy>  (2442) 
-4.55

>  <source>  (2442) 
ACET_MBZ_02

>  <Index>  (2442) 
34253

$$$$
ACET-pdb6ms8-B-GLU-36:MBZ-pdb6ms8-B-PHE-45
     RDKit          3D

 22 21  0  0  0  0  0  0  0  0999 V2000
    4.1753   -4.1155    1.0040 C   0  0  0  0  0  0  0  0  0  0  0  0
    4.4021   -4.7684    0.3233 H   0  0  0  0  0  0  0  0  0  0  0  0
    3.2134   -4.0025    1.0470 H   0  0  0  0  0  0  0  0  0  0  0  0
    4.5336   -4.4697    1.9707 H   0  0  0  0  0  0  0  0  0  0  0  0
    4.7852   -2.7884    0.5994 C   0  0  0  0  0  0  0  0  0  0  0  0
    4.0305   -1.8032    0.4733 O   0  0  0  0  0  1  0  0  0  0  0  0
    6.0179   -2.7334    0.4112 O   0  0  0  0  0  0  0  0  0  0  0  0
    0.0127    2.8847   -0.0162 C   0  0  0  0  0  0  0  0  0  0  0  0
   -0.3422    3.1656   -0.8735 H   0  0  0  0  0  0  0  0  0  0  0  0
    0.9355    3.1726    0.0654 H   0  0  0  0  0  0  0  0  0  0  0  0
   -0.5710    3.3543    0.7755 H   0  0  0  0  0  0  0  0  0  0  0  0
    0.0005    1.3909    0.0112 C   0  0  0  0  0  0  0  0  0  0  0  0
   -1.1914    0.6870   -0.0064 C   0  0  0  0  0  0  0  0  0  0  0  0
   -1.9979    1.1487   -0.0030 H   0  0  0  0  0  0  0  0  0  0  0  0
   -1.1937   -0.6942   -0.0000 C   0  0  0  0  0  0  0  0  0  0  0  0
   -1.9989   -1.1589    0.0006 H   0  0  0  0  0  0  0  0  0  0  0  0
    0.0016   -1.3827   -0.0008 C   0  0  0  0  0  0  0  0  0  0  0  0
    0.0040   -2.3134    0.0032 H   0  0  0  0  0  0  0  0  0  0  0  0
    1.1937   -0.6882   -0.0000 C   0  0  0  0  0  0  0  0  0  0  0  0
    2.0014   -1.1508   -0.0004 H   0  0  0  0  0  0  0  0  0  0  0  0
    1.1894    0.6872   -0.0040 C   0  0  0  0  0  0  0  0  0  0  0  0
    1.9965    1.1492   -0.0028 H   0  0  0  0  0  0  0  0  0  0  0  0
  1  5  1  0
  5  6  1  0
  5  7  2  0
  1  2  1  0
  1  3  1  0
  1  4  1  0
  8 12  1  0
 12 13  2  0
 13 15  1  0
 15 17  2  0
 17 19  1  0
 19 21  2  0
 21 12  1  0
  8  9  1  0
  8 10  1  0
  8 11  1  0
 13 14  1  0
 15 16  1  0
 17 18  1  0
 19 20  1  0
 21 22  1  0
M  CHG  1   6  -1
M  END
>  <PDB_ID>  (2443) 
pdb6ms8

>  <RESIDUE_NAME>  (2443) 
GLU   PHE

>  <FRAG_NAME>  (2443) 
ACET   MBZ

>  <FRAG_ATOM_NUM>  (2443) 
fragi: 7  fragj: 15

>  <atom.prop.CHAIN_ID>  (2443) 
A A A A A A A Z Z Z Z Z Z Z Z Z Z Z Z Z Z Z

>  <atom.prop.IS_HEAVY_ATOM>  (2443) 
1 0 0 0 1 1 1 1 0 0 0 1 1 0 1 0 1 0 1 0 1 0

>  <DIFUSE_FUNC_ATOM>  (2443) 
atom 6   atom 7   

>  <FINAL_SINGLE_POINT_ENERGY>  (2443) 
0

>  <NONCOV_INTER_ENERGY_QM>  (2443) 
0

>  <FF_Energy>  (2443) 
-0.39

>  <QM_Energy>  (2443) 
-5.63

>  <source>  (2443) 
ACET_MBZ_02

>  <Index>  (2443) 
34324

$$$$
ACET-pdb5k2m-E-ASP-50:MBZ-pdb5k2m-A-PHE-54
     RDKit          3D

 22 21  0  0  0  0  0  0  0  0999 V2000
    4.3173    1.0377   -1.6953 C   0  0  0  0  0  0  0  0  0  0  0  0
    3.5391    0.8406   -2.2813 H   0  0  0  0  0  0  0  0  0  0  0  0
    4.2884    0.4751   -0.8780 H   0  0  0  0  0  0  0  0  0  0  0  0
    5.2249    0.7884   -2.2451 H   0  0  0  0  0  0  0  0  0  0  0  0
    4.2615    2.4977   -1.2854 C   0  0  0  0  0  0  0  0  0  0  0  0
    5.3341    3.1423   -1.2007 O   0  0  0  0  0  1  0  0  0  0  0  0
    3.1414    2.9906   -1.0324 O   0  0  0  0  0  0  0  0  0  0  0  0
   -0.0160    2.8959   -0.0378 C   0  0  0  0  0  0  0  0  0  0  0  0
    0.9072    3.2209    0.0718 H   0  0  0  0  0  0  0  0  0  0  0  0
   -0.6107    3.2224    0.6753 H   0  0  0  0  0  0  0  0  0  0  0  0
   -0.3926    3.2823   -0.9848 H   0  0  0  0  0  0  0  0  0  0  0  0
    0.0015    1.4005    0.0101 C   0  0  0  0  0  0  0  0  0  0  0  0
   -1.1952    0.6909   -0.0032 C   0  0  0  0  0  0  0  0  0  0  0  0
   -2.0616    1.1807   -0.0162 H   0  0  0  0  0  0  0  0  0  0  0  0
   -1.1999   -0.6999    0.0000 C   0  0  0  0  0  0  0  0  0  0  0  0
   -2.0753   -1.1931    0.0020 H   0  0  0  0  0  0  0  0  0  0  0  0
    0.0017   -1.3922    0.0021 C   0  0  0  0  0  0  0  0  0  0  0  0
    0.0000   -2.3912    0.0046 H   0  0  0  0  0  0  0  0  0  0  0  0
    1.1999   -0.6934    0.0000 C   0  0  0  0  0  0  0  0  0  0  0  0
    2.0829   -1.1901    0.0065 H   0  0  0  0  0  0  0  0  0  0  0  0
    1.1921    0.6941   -0.0090 C   0  0  0  0  0  0  0  0  0  0  0  0
    2.0627    1.1918   -0.0306 H   0  0  0  0  0  0  0  0  0  0  0  0
  1  5  1  0
  5  6  1  0
  5  7  2  0
  1  2  1  0
  1  3  1  0
  1  4  1  0
  8 12  1  0
 12 13  2  0
 13 15  1  0
 15 17  2  0
 17 19  1  0
 19 21  2  0
 21 12  1  0
  8  9  1  0
  8 10  1  0
  8 11  1  0
 13 14  1  0
 15 16  1  0
 17 18  1  0
 19 20  1  0
 21 22  1  0
M  CHG  1   6  -1
M  END
>  <PDB_ID>  (2444) 
pdb5k2m

>  <RESIDUE_NAME>  (2444) 
ASP   PHE

>  <FRAG_NAME>  (2444) 
ACET   MBZ

>  <FRAG_ATOM_NUM>  (2444) 
fragi: 7  fragj: 15

>  <atom.prop.CHAIN_ID>  (2444) 
A A A A A A A Z Z Z Z Z Z Z Z Z Z Z Z Z Z Z

>  <atom.prop.IS_HEAVY_ATOM>  (2444) 
1 0 0 0 1 1 1 1 0 0 0 1 1 0 1 0 1 0 1 0 1 0

>  <DIFUSE_FUNC_ATOM>  (2444) 
atom 6   atom 7   

>  <FINAL_SINGLE_POINT_ENERGY>  (2444) 
0

>  <NONCOV_INTER_ENERGY_QM>  (2444) 
0

>  <FF_Energy>  (2444) 
-1.19

>  <QM_Energy>  (2444) 
-7.64

>  <source>  (2444) 
ACET_MBZ_02

>  <Index>  (2444) 
34332

$$$$
ACET-pdb5k2m-K-ASP-50:MBZ-pdb5k2m-G-PHE-54
     RDKit          3D

 22 21  0  0  0  0  0  0  0  0999 V2000
    4.3236    0.8475   -1.3611 C   0  0  0  0  0  0  0  0  0  0  0  0
    3.5959    0.7909   -2.0329 H   0  0  0  0  0  0  0  0  0  0  0  0
    4.1367    0.2529   -0.5901 H   0  0  0  0  0  0  0  0  0  0  0  0
    5.2481    0.5138   -1.8324 H   0  0  0  0  0  0  0  0  0  0  0  0
    4.4045    2.2877   -0.8555 C   0  0  0  0  0  0  0  0  0  0  0  0
    5.4946    2.7191   -0.4121 O   0  0  0  0  0  1  0  0  0  0  0  0
    3.3712    2.9850   -0.8976 O   0  0  0  0  0  0  0  0  0  0  0  0
   -0.0073    2.8920   -0.0186 C   0  0  0  0  0  0  0  0  0  0  0  0
    0.9039    3.2066    0.1887 H   0  0  0  0  0  0  0  0  0  0  0  0
   -0.6629    3.2068    0.6474 H   0  0  0  0  0  0  0  0  0  0  0  0
   -0.2916    3.2979   -0.9894 H   0  0  0  0  0  0  0  0  0  0  0  0
   -0.0005    1.3950    0.0075 C   0  0  0  0  0  0  0  0  0  0  0  0
   -1.1931    0.6919   -0.0035 C   0  0  0  0  0  0  0  0  0  0  0  0
   -2.0600    1.1808   -0.0152 H   0  0  0  0  0  0  0  0  0  0  0  0
   -1.1932   -0.6940    0.0000 C   0  0  0  0  0  0  0  0  0  0  0  0
   -2.0699   -1.1917   -0.0033 H   0  0  0  0  0  0  0  0  0  0  0  0
    0.0057   -1.3855    0.0097 C   0  0  0  0  0  0  0  0  0  0  0  0
   -0.0011   -2.3879    0.0232 H   0  0  0  0  0  0  0  0  0  0  0  0
    1.1932   -0.6950   -0.0000 C   0  0  0  0  0  0  0  0  0  0  0  0
    2.0794   -1.1914    0.0041 H   0  0  0  0  0  0  0  0  0  0  0  0
    1.1879    0.6876   -0.0137 C   0  0  0  0  0  0  0  0  0  0  0  0
    2.0590    1.1847   -0.0402 H   0  0  0  0  0  0  0  0  0  0  0  0
  1  5  1  0
  5  6  1  0
  5  7  2  0
  1  2  1  0
  1  3  1  0
  1  4  1  0
  8 12  1  0
 12 13  2  0
 13 15  1  0
 15 17  2  0
 17 19  1  0
 19 21  2  0
 21 12  1  0
  8  9  1  0
  8 10  1  0
  8 11  1  0
 13 14  1  0
 15 16  1  0
 17 18  1  0
 19 20  1  0
 21 22  1  0
M  CHG  1   6  -1
M  END
>  <PDB_ID>  (2445) 
pdb5k2m

>  <RESIDUE_NAME>  (2445) 
ASP   PHE

>  <FRAG_NAME>  (2445) 
ACET   MBZ

>  <FRAG_ATOM_NUM>  (2445) 
fragi: 7  fragj: 15

>  <atom.prop.CHAIN_ID>  (2445) 
A A A A A A A Z Z Z Z Z Z Z Z Z Z Z Z Z Z Z

>  <atom.prop.IS_HEAVY_ATOM>  (2445) 
1 0 0 0 1 1 1 1 0 0 0 1 1 0 1 0 1 0 1 0 1 0

>  <DIFUSE_FUNC_ATOM>  (2445) 
atom 6   atom 7   

>  <FINAL_SINGLE_POINT_ENERGY>  (2445) 
0

>  <NONCOV_INTER_ENERGY_QM>  (2445) 
0

>  <FF_Energy>  (2445) 
-1.21

>  <QM_Energy>  (2445) 
-7.16

>  <source>  (2445) 
ACET_MBZ_02

>  <Index>  (2445) 
34351

$$$$
ACET-pdb5k2m-N-ASP-50:MBZ-pdb5k2m-J-PHE-54
     RDKit          3D

 22 21  0  0  0  0  0  0  0  0999 V2000
    4.2860    1.1830   -1.6901 C   0  0  0  0  0  0  0  0  0  0  0  0
    3.4757    0.9784   -2.2244 H   0  0  0  0  0  0  0  0  0  0  0  0
    4.3236    0.6145   -0.8790 H   0  0  0  0  0  0  0  0  0  0  0  0
    5.1609    0.9621   -2.3016 H   0  0  0  0  0  0  0  0  0  0  0  0
    4.2176    2.6514   -1.2497 C   0  0  0  0  0  0  0  0  0  0  0  0
    5.2639    3.3550   -1.2291 O   0  0  0  0  0  1  0  0  0  0  0  0
    3.0973    3.0991   -0.9174 O   0  0  0  0  0  0  0  0  0  0  0  0
   -0.0207    2.9081   -0.0339 C   0  0  0  0  0  0  0  0  0  0  0  0
    0.9040    3.2274    0.0609 H   0  0  0  0  0  0  0  0  0  0  0  0
   -0.6022    3.2271    0.6923 H   0  0  0  0  0  0  0  0  0  0  0  0
   -0.4138    3.2990   -0.9723 H   0  0  0  0  0  0  0  0  0  0  0  0
   -0.0021    1.4006    0.0091 C   0  0  0  0  0  0  0  0  0  0  0  0
   -1.1958    0.6850    0.0025 C   0  0  0  0  0  0  0  0  0  0  0  0
   -2.0645    1.1747   -0.0022 H   0  0  0  0  0  0  0  0  0  0  0  0
   -1.1970   -0.7021    0.0000 C   0  0  0  0  0  0  0  0  0  0  0  0
   -2.0704   -1.2008    0.0002 H   0  0  0  0  0  0  0  0  0  0  0  0
    0.0085   -1.3916   -0.0003 C   0  0  0  0  0  0  0  0  0  0  0  0
    0.0073   -2.3904   -0.0011 H   0  0  0  0  0  0  0  0  0  0  0  0
    1.1970   -0.6896   -0.0000 C   0  0  0  0  0  0  0  0  0  0  0  0
    2.0859   -1.1829    0.0103 H   0  0  0  0  0  0  0  0  0  0  0  0
    1.1894    0.6976   -0.0113 C   0  0  0  0  0  0  0  0  0  0  0  0
    2.0592    1.1948   -0.0351 H   0  0  0  0  0  0  0  0  0  0  0  0
  1  5  1  0
  5  6  1  0
  5  7  2  0
  1  2  1  0
  1  3  1  0
  1  4  1  0
  8 12  1  0
 12 13  2  0
 13 15  1  0
 15 17  2  0
 17 19  1  0
 19 21  2  0
 21 12  1  0
  8  9  1  0
  8 10  1  0
  8 11  1  0
 13 14  1  0
 15 16  1  0
 17 18  1  0
 19 20  1  0
 21 22  1  0
M  CHG  1   6  -1
M  END
>  <PDB_ID>  (2446) 
pdb5k2m

>  <RESIDUE_NAME>  (2446) 
ASP   PHE

>  <FRAG_NAME>  (2446) 
ACET   MBZ

>  <FRAG_ATOM_NUM>  (2446) 
fragi: 7  fragj: 15

>  <atom.prop.CHAIN_ID>  (2446) 
A A A A A A A Z Z Z Z Z Z Z Z Z Z Z Z Z Z Z

>  <atom.prop.IS_HEAVY_ATOM>  (2446) 
1 0 0 0 1 1 1 1 0 0 0 1 1 0 1 0 1 0 1 0 1 0

>  <DIFUSE_FUNC_ATOM>  (2446) 
atom 6   atom 7   

>  <FINAL_SINGLE_POINT_ENERGY>  (2446) 
0

>  <NONCOV_INTER_ENERGY_QM>  (2446) 
0

>  <FF_Energy>  (2446) 
-1.06

>  <QM_Energy>  (2446) 
-7.79

>  <source>  (2446) 
ACET_MBZ_02

>  <Index>  (2446) 
34365

$$$$
ACET-pdb5k52-A-ASP-79:MBZ-pdb5k52-A-PHE-82
     RDKit          3D

 22 21  0  0  0  0  0  0  0  0999 V2000
    1.0551    5.1561   -3.4278 C   0  0  0  0  0  0  0  0  0  0  0  0
    0.7116    5.2373   -4.3503 H   0  0  0  0  0  0  0  0  0  0  0  0
    1.5234    4.2978   -3.2910 H   0  0  0  0  0  0  0  0  0  0  0  0
    1.7603    5.9677   -3.2485 H   0  0  0  0  0  0  0  0  0  0  0  0
   -0.1645    5.1967   -2.4581 C   0  0  0  0  0  0  0  0  0  0  0  0
   -0.0625    5.8798   -1.4164 O   0  0  0  0  0  1  0  0  0  0  0  0
   -1.2098    4.5552   -2.7266 O   0  0  0  0  0  0  0  0  0  0  0  0
   -0.0079    2.9179   -0.0443 C   0  0  0  0  0  0  0  0  0  0  0  0
   -0.8203    3.2040   -0.5354 H   0  0  0  0  0  0  0  0  0  0  0  0
    0.8131    3.2103   -0.5178 H   0  0  0  0  0  0  0  0  0  0  0  0
   -0.0208    3.3894    0.9384 H   0  0  0  0  0  0  0  0  0  0  0  0
   -0.0024    1.4156   -0.0036 C   0  0  0  0  0  0  0  0  0  0  0  0
   -1.2006    0.6998    0.0086 C   0  0  0  0  0  0  0  0  0  0  0  0
   -2.0689    1.1780    0.0222 H   0  0  0  0  0  0  0  0  0  0  0  0
   -1.1995   -0.7112    0.0000 C   0  0  0  0  0  0  0  0  0  0  0  0
   -2.0758   -1.1997   -0.0159 H   0  0  0  0  0  0  0  0  0  0  0  0
    0.0081   -1.4126    0.0155 C   0  0  0  0  0  0  0  0  0  0  0  0
    0.0082   -2.4026    0.0365 H   0  0  0  0  0  0  0  0  0  0  0  0
    1.1995   -0.6976   -0.0000 C   0  0  0  0  0  0  0  0  0  0  0  0
    2.0910   -1.1853    0.0048 H   0  0  0  0  0  0  0  0  0  0  0  0
    1.1950    0.7059   -0.0206 C   0  0  0  0  0  0  0  0  0  0  0  0
    2.0639    1.1959   -0.0490 H   0  0  0  0  0  0  0  0  0  0  0  0
  1  5  1  0
  5  6  1  0
  5  7  2  0
  1  2  1  0
  1  3  1  0
  1  4  1  0
  8 12  1  0
 12 13  2  0
 13 15  1  0
 15 17  2  0
 17 19  1  0
 19 21  2  0
 21 12  1  0
  8  9  1  0
  8 10  1  0
  8 11  1  0
 13 14  1  0
 15 16  1  0
 17 18  1  0
 19 20  1  0
 21 22  1  0
M  CHG  1   6  -1
M  END
>  <PDB_ID>  (2447) 
pdb5k52

>  <RESIDUE_NAME>  (2447) 
ASP   PHE

>  <FRAG_NAME>  (2447) 
ACET   MBZ

>  <FRAG_ATOM_NUM>  (2447) 
fragi: 7  fragj: 15

>  <atom.prop.CHAIN_ID>  (2447) 
A A A A A A A Z Z Z Z Z Z Z Z Z Z Z Z Z Z Z

>  <atom.prop.IS_HEAVY_ATOM>  (2447) 
1 0 0 0 1 1 1 1 0 0 0 1 1 0 1 0 1 0 1 0 1 0

>  <DIFUSE_FUNC_ATOM>  (2447) 
atom 6   atom 7   

>  <FINAL_SINGLE_POINT_ENERGY>  (2447) 
0

>  <NONCOV_INTER_ENERGY_QM>  (2447) 
0

>  <FF_Energy>  (2447) 
-0.77

>  <QM_Energy>  (2447) 
-5.98

>  <source>  (2447) 
ACET_MBZ_02

>  <Index>  (2447) 
34481

$$$$
ACET-pdb5jxu-B-ASP-152:MBZ-pdb5jxu-B-PHE-149
     RDKit          3D

 22 21  0  0  0  0  0  0  0  0999 V2000
    3.7419    5.5398   -0.9850 C   0  0  0  0  0  0  0  0  0  0  0  0
    3.0730    5.7966   -1.6750 H   0  0  0  0  0  0  0  0  0  0  0  0
    4.6585    5.5549   -1.3690 H   0  0  0  0  0  0  0  0  0  0  0  0
    3.7006    6.2802   -0.1860 H   0  0  0  0  0  0  0  0  0  0  0  0
    3.4347    4.1349   -0.5052 C   0  0  0  0  0  0  0  0  0  0  0  0
    3.3773    3.9134    0.7233 O   0  0  0  0  0  1  0  0  0  0  0  0
    3.2684    3.2450   -1.3651 O   0  0  0  0  0  0  0  0  0  0  0  0
   -0.0007    2.8998   -0.0100 C   0  0  0  0  0  0  0  0  0  0  0  0
    0.8990    3.2076    0.2554 H   0  0  0  0  0  0  0  0  0  0  0  0
   -0.6922    3.2086    0.6228 H   0  0  0  0  0  0  0  0  0  0  0  0
   -0.2265    3.3277   -0.9868 H   0  0  0  0  0  0  0  0  0  0  0  0
    0.0001    1.3953   -0.0005 C   0  0  0  0  0  0  0  0  0  0  0  0
   -1.1917    0.6886   -0.0010 C   0  0  0  0  0  0  0  0  0  0  0  0
   -2.0601    1.1796   -0.0029 H   0  0  0  0  0  0  0  0  0  0  0  0
   -1.1945   -0.6943   -0.0000 C   0  0  0  0  0  0  0  0  0  0  0  0
   -2.0734   -1.1902    0.0006 H   0  0  0  0  0  0  0  0  0  0  0  0
   -0.0003   -1.3859    0.0028 C   0  0  0  0  0  0  0  0  0  0  0  0
   -0.0037   -2.3873    0.0069 H   0  0  0  0  0  0  0  0  0  0  0  0
    1.1945   -0.6933    0.0000 C   0  0  0  0  0  0  0  0  0  0  0  0
    2.0777   -1.1938    0.0006 H   0  0  0  0  0  0  0  0  0  0  0  0
    1.1919    0.6896   -0.0014 C   0  0  0  0  0  0  0  0  0  0  0  0
    2.0611    1.1868   -0.0036 H   0  0  0  0  0  0  0  0  0  0  0  0
  1  5  1  0
  5  6  1  0
  5  7  2  0
  1  2  1  0
  1  3  1  0
  1  4  1  0
  8 12  1  0
 12 13  2  0
 13 15  1  0
 15 17  2  0
 17 19  1  0
 19 21  2  0
 21 12  1  0
  8  9  1  0
  8 10  1  0
  8 11  1  0
 13 14  1  0
 15 16  1  0
 17 18  1  0
 19 20  1  0
 21 22  1  0
M  CHG  1   6  -1
M  END
>  <PDB_ID>  (2448) 
pdb5jxu

>  <RESIDUE_NAME>  (2448) 
ASP   PHE

>  <FRAG_NAME>  (2448) 
ACET   MBZ

>  <FRAG_ATOM_NUM>  (2448) 
fragi: 7  fragj: 15

>  <atom.prop.CHAIN_ID>  (2448) 
A A A A A A A Z Z Z Z Z Z Z Z Z Z Z Z Z Z Z

>  <atom.prop.IS_HEAVY_ATOM>  (2448) 
1 0 0 0 1 1 1 1 0 0 0 1 1 0 1 0 1 0 1 0 1 0

>  <DIFUSE_FUNC_ATOM>  (2448) 
atom 6   atom 7   

>  <FINAL_SINGLE_POINT_ENERGY>  (2448) 
0

>  <NONCOV_INTER_ENERGY_QM>  (2448) 
0

>  <FF_Energy>  (2448) 
-2.44

>  <QM_Energy>  (2448) 
-8.74

>  <source>  (2448) 
ACET_MBZ_02

>  <Index>  (2448) 
34540

$$$$
ACET-pdb6mym-A-ASP-419:MBZ-pdb6mym-B-PHE-392
     RDKit          3D

 22 21  0  0  0  0  0  0  0  0999 V2000
   -4.6676   -3.7099    0.7290 C   0  0  0  0  0  0  0  0  0  0  0  0
   -3.7585   -3.9485    1.0534 H   0  0  0  0  0  0  0  0  0  0  0  0
   -4.9122   -4.2684   -0.0559 H   0  0  0  0  0  0  0  0  0  0  0  0
   -5.3777   -3.9219    1.5283 H   0  0  0  0  0  0  0  0  0  0  0  0
   -4.6730   -2.2577    0.3166 C   0  0  0  0  0  0  0  0  0  0  0  0
   -5.4105   -1.4535    0.9336 O   0  0  0  0  0  1  0  0  0  0  0  0
   -3.9440   -1.9285   -0.6395 O   0  0  0  0  0  0  0  0  0  0  0  0
   -0.0151    2.9078   -0.0128 C   0  0  0  0  0  0  0  0  0  0  0  0
    0.6106    3.2274    0.6840 H   0  0  0  0  0  0  0  0  0  0  0  0
   -0.9397    3.2066    0.1728 H   0  0  0  0  0  0  0  0  0  0  0  0
    0.2904    3.3552   -0.9587 H   0  0  0  0  0  0  0  0  0  0  0  0
    0.0005    1.3984    0.0012 C   0  0  0  0  0  0  0  0  0  0  0  0
   -1.1936    0.6877   -0.0014 C   0  0  0  0  0  0  0  0  0  0  0  0
   -2.0615    1.1796   -0.0058 H   0  0  0  0  0  0  0  0  0  0  0  0
   -1.1978   -0.6966   -0.0000 C   0  0  0  0  0  0  0  0  0  0  0  0
   -2.0750   -1.1931    0.0015 H   0  0  0  0  0  0  0  0  0  0  0  0
    0.0011   -1.3905    0.0008 C   0  0  0  0  0  0  0  0  0  0  0  0
   -0.0002   -2.3894    0.0015 H   0  0  0  0  0  0  0  0  0  0  0  0
    1.1978   -0.6912    0.0000 C   0  0  0  0  0  0  0  0  0  0  0  0
    2.0808   -1.1904    0.0015 H   0  0  0  0  0  0  0  0  0  0  0  0
    1.1921    0.6923   -0.0005 C   0  0  0  0  0  0  0  0  0  0  0  0
    2.0623    1.1906   -0.0030 H   0  0  0  0  0  0  0  0  0  0  0  0
  1  5  1  0
  5  6  1  0
  5  7  2  0
  1  2  1  0
  1  3  1  0
  1  4  1  0
  8 12  1  0
 12 13  2  0
 13 15  1  0
 15 17  2  0
 17 19  1  0
 19 21  2  0
 21 12  1  0
  8  9  1  0
  8 10  1  0
  8 11  1  0
 13 14  1  0
 15 16  1  0
 17 18  1  0
 19 20  1  0
 21 22  1  0
M  CHG  1   6  -1
M  END
>  <PDB_ID>  (2449) 
pdb6mym

>  <RESIDUE_NAME>  (2449) 
ASP   PHE

>  <FRAG_NAME>  (2449) 
ACET   MBZ

>  <FRAG_ATOM_NUM>  (2449) 
fragi: 7  fragj: 15

>  <atom.prop.CHAIN_ID>  (2449) 
A A A A A A A Z Z Z Z Z Z Z Z Z Z Z Z Z Z Z

>  <atom.prop.IS_HEAVY_ATOM>  (2449) 
1 0 0 0 1 1 1 1 0 0 0 1 1 0 1 0 1 0 1 0 1 0

>  <DIFUSE_FUNC_ATOM>  (2449) 
atom 6   atom 7   

>  <FINAL_SINGLE_POINT_ENERGY>  (2449) 
0

>  <NONCOV_INTER_ENERGY_QM>  (2449) 
0

>  <FF_Energy>  (2449) 
0.92

>  <QM_Energy>  (2449) 
-6.01

>  <source>  (2449) 
ACET_MBZ_02

>  <Index>  (2449) 
34544

$$$$
ACET-pdb6myw-D-ASP-352:MBZ-pdb6myw-A-PHE-297
     RDKit          3D

 22 21  0  0  0  0  0  0  0  0999 V2000
    4.2229    6.2472    0.0456 C   0  0  0  0  0  0  0  0  0  0  0  0
    3.3580    6.6261    0.3746 H   0  0  0  0  0  0  0  0  0  0  0  0
    4.3323    6.4584   -0.9240 H   0  0  0  0  0  0  0  0  0  0  0  0
    5.0333    6.7306    0.5913 H   0  0  0  0  0  0  0  0  0  0  0  0
    4.1928    4.7519    0.2161 C   0  0  0  0  0  0  0  0  0  0  0  0
    5.2438    4.1643    0.4093 O   0  0  0  0  0  1  0  0  0  0  0  0
    3.1175    4.1785    0.0035 O   0  0  0  0  0  0  0  0  0  0  0  0
   -0.0115    2.8774   -0.0360 C   0  0  0  0  0  0  0  0  0  0  0  0
   -0.5597    3.1694   -0.7954 H   0  0  0  0  0  0  0  0  0  0  0  0
    0.9169    3.1896   -0.0976 H   0  0  0  0  0  0  0  0  0  0  0  0
   -0.4476    3.2885    0.8745 H   0  0  0  0  0  0  0  0  0  0  0  0
   -0.0030    1.3858   -0.0103 C   0  0  0  0  0  0  0  0  0  0  0  0
   -1.1908    0.6806   -0.0166 C   0  0  0  0  0  0  0  0  0  0  0  0
   -2.0594    1.1669   -0.0347 H   0  0  0  0  0  0  0  0  0  0  0  0
   -1.1807   -0.6964    0.0000 C   0  0  0  0  0  0  0  0  0  0  0  0
   -2.0635   -1.1974    0.0049 H   0  0  0  0  0  0  0  0  0  0  0  0
    0.0045   -1.3795    0.0108 C   0  0  0  0  0  0  0  0  0  0  0  0
    0.0056   -2.3820    0.0259 H   0  0  0  0  0  0  0  0  0  0  0  0
    1.1807   -0.6837   -0.0000 C   0  0  0  0  0  0  0  0  0  0  0  0
    2.0751   -1.1852   -0.0190 H   0  0  0  0  0  0  0  0  0  0  0  0
    1.1893    0.6932    0.0161 C   0  0  0  0  0  0  0  0  0  0  0  0
    2.0540    1.1889    0.0461 H   0  0  0  0  0  0  0  0  0  0  0  0
  1  5  1  0
  5  6  1  0
  5  7  2  0
  1  2  1  0
  1  3  1  0
  1  4  1  0
  8 12  1  0
 12 13  2  0
 13 15  1  0
 15 17  2  0
 17 19  1  0
 19 21  2  0
 21 12  1  0
  8  9  1  0
  8 10  1  0
  8 11  1  0
 13 14  1  0
 15 16  1  0
 17 18  1  0
 19 20  1  0
 21 22  1  0
M  CHG  1   6  -1
M  END
>  <PDB_ID>  (2450) 
pdb6myw

>  <RESIDUE_NAME>  (2450) 
ASP   PHE

>  <FRAG_NAME>  (2450) 
ACET   MBZ

>  <FRAG_ATOM_NUM>  (2450) 
fragi: 7  fragj: 15

>  <atom.prop.CHAIN_ID>  (2450) 
A A A A A A A Z Z Z Z Z Z Z Z Z Z Z Z Z Z Z

>  <atom.prop.IS_HEAVY_ATOM>  (2450) 
1 0 0 0 1 1 1 1 0 0 0 1 1 0 1 0 1 0 1 0 1 0

>  <DIFUSE_FUNC_ATOM>  (2450) 
atom 6   atom 7   

>  <FINAL_SINGLE_POINT_ENERGY>  (2450) 
0

>  <NONCOV_INTER_ENERGY_QM>  (2450) 
0

>  <FF_Energy>  (2450) 
-1.65

>  <QM_Energy>  (2450) 
-6.92

>  <source>  (2450) 
ACET_MBZ_02

>  <Index>  (2450) 
34562

$$$$
ACET-pdb6myw-A-ASP-352:MBZ-pdb6myw-C-PHE-297
     RDKit          3D

 22 21  0  0  0  0  0  0  0  0999 V2000
    4.0995    6.1831    0.2299 C   0  0  0  0  0  0  0  0  0  0  0  0
    3.2145    6.5239    0.5734 H   0  0  0  0  0  0  0  0  0  0  0  0
    4.1746    6.4314   -0.7444 H   0  0  0  0  0  0  0  0  0  0  0  0
    4.8947    6.6927    0.7741 H   0  0  0  0  0  0  0  0  0  0  0  0
    4.0980    4.6724    0.3350 C   0  0  0  0  0  0  0  0  0  0  0  0
    5.1721    4.1179    0.5372 O   0  0  0  0  0  1  0  0  0  0  0  0
    3.0590    4.0810    0.0858 O   0  0  0  0  0  0  0  0  0  0  0  0
    0.0302    2.8753    0.0665 C   0  0  0  0  0  0  0  0  0  0  0  0
   -0.4967    3.2285   -0.6834 H   0  0  0  0  0  0  0  0  0  0  0  0
    0.9673    3.1717    0.0381 H   0  0  0  0  0  0  0  0  0  0  0  0
   -0.4106    3.2501    0.9903 H   0  0  0  0  0  0  0  0  0  0  0  0
    0.0032    1.3895    0.0045 C   0  0  0  0  0  0  0  0  0  0  0  0
   -1.1997    0.6931    0.0120 C   0  0  0  0  0  0  0  0  0  0  0  0
   -2.0600    1.1780    0.0245 H   0  0  0  0  0  0  0  0  0  0  0  0
   -1.1883   -0.6984   -0.0000 C   0  0  0  0  0  0  0  0  0  0  0  0
   -2.0641   -1.1991    0.0326 H   0  0  0  0  0  0  0  0  0  0  0  0
    0.0125   -1.3858   -0.0543 C   0  0  0  0  0  0  0  0  0  0  0  0
    0.0104   -2.3811   -0.1332 H   0  0  0  0  0  0  0  0  0  0  0  0
    1.1883   -0.6852   -0.0000 C   0  0  0  0  0  0  0  0  0  0  0  0
    2.0818   -1.1836    0.0143 H   0  0  0  0  0  0  0  0  0  0  0  0
    1.1840    0.6869    0.0379 C   0  0  0  0  0  0  0  0  0  0  0  0
    2.0568    1.1848    0.0899 H   0  0  0  0  0  0  0  0  0  0  0  0
  1  5  1  0
  5  6  1  0
  5  7  2  0
  1  2  1  0
  1  3  1  0
  1  4  1  0
  8 12  1  0
 12 13  2  0
 13 15  1  0
 15 17  2  0
 17 19  1  0
 19 21  2  0
 21 12  1  0
  8  9  1  0
  8 10  1  0
  8 11  1  0
 13 14  1  0
 15 16  1  0
 17 18  1  0
 19 20  1  0
 21 22  1  0
M  CHG  1   6  -1
M  END
>  <PDB_ID>  (2451) 
pdb6myw

>  <RESIDUE_NAME>  (2451) 
ASP   PHE

>  <FRAG_NAME>  (2451) 
ACET   MBZ

>  <FRAG_ATOM_NUM>  (2451) 
fragi: 7  fragj: 15

>  <atom.prop.CHAIN_ID>  (2451) 
A A A A A A A Z Z Z Z Z Z Z Z Z Z Z Z Z Z Z

>  <atom.prop.IS_HEAVY_ATOM>  (2451) 
1 0 0 0 1 1 1 1 0 0 0 1 1 0 1 0 1 0 1 0 1 0

>  <DIFUSE_FUNC_ATOM>  (2451) 
atom 6   atom 7   

>  <FINAL_SINGLE_POINT_ENERGY>  (2451) 
0

>  <NONCOV_INTER_ENERGY_QM>  (2451) 
0

>  <FF_Energy>  (2451) 
-1.2

>  <QM_Energy>  (2451) 
-7.12

>  <source>  (2451) 
ACET_MBZ_02

>  <Index>  (2451) 
34566

$$$$
ACET-pdb6myw-B-ASP-352:MBZ-pdb6myw-D-PHE-297
     RDKit          3D

 22 21  0  0  0  0  0  0  0  0999 V2000
    4.1189    6.0465    0.1066 C   0  0  0  0  0  0  0  0  0  0  0  0
    3.2501    6.3877    0.4773 H   0  0  0  0  0  0  0  0  0  0  0  0
    4.1690    6.2795   -0.8684 H   0  0  0  0  0  0  0  0  0  0  0  0
    4.9299    6.5645    0.6185 H   0  0  0  0  0  0  0  0  0  0  0  0
    4.1514    4.5540    0.2498 C   0  0  0  0  0  0  0  0  0  0  0  0
    5.2273    4.0361    0.5273 O   0  0  0  0  0  1  0  0  0  0  0  0
    3.0956    3.9534    0.0298 O   0  0  0  0  0  0  0  0  0  0  0  0
    0.0321    2.9018   -0.0028 C   0  0  0  0  0  0  0  0  0  0  0  0
   -0.4986    3.2280   -0.7720 H   0  0  0  0  0  0  0  0  0  0  0  0
    0.9770    3.1897   -0.0739 H   0  0  0  0  0  0  0  0  0  0  0  0
   -0.3858    3.3380    0.9045 H   0  0  0  0  0  0  0  0  0  0  0  0
    0.0039    1.4006   -0.0253 C   0  0  0  0  0  0  0  0  0  0  0  0
   -1.1797    0.6919    0.0023 C   0  0  0  0  0  0  0  0  0  0  0  0
   -2.0525    1.1807    0.0233 H   0  0  0  0  0  0  0  0  0  0  0  0
   -1.1818   -0.6903    0.0000 C   0  0  0  0  0  0  0  0  0  0  0  0
   -2.0702   -1.1814   -0.0018 H   0  0  0  0  0  0  0  0  0  0  0  0
   -0.0021   -1.3905    0.0016 C   0  0  0  0  0  0  0  0  0  0  0  0
   -0.0089   -2.3887    0.0033 H   0  0  0  0  0  0  0  0  0  0  0  0
    1.1818   -0.6973   -0.0000 C   0  0  0  0  0  0  0  0  0  0  0  0
    2.0712   -1.1926   -0.0155 H   0  0  0  0  0  0  0  0  0  0  0  0
    1.1779    0.6856    0.0215 C   0  0  0  0  0  0  0  0  0  0  0  0
    2.0566    1.1767    0.0720 H   0  0  0  0  0  0  0  0  0  0  0  0
  1  5  1  0
  5  6  1  0
  5  7  2  0
  1  2  1  0
  1  3  1  0
  1  4  1  0
  8 12  1  0
 12 13  2  0
 13 15  1  0
 15 17  2  0
 17 19  1  0
 19 21  2  0
 21 12  1  0
  8  9  1  0
  8 10  1  0
  8 11  1  0
 13 14  1  0
 15 16  1  0
 17 18  1  0
 19 20  1  0
 21 22  1  0
M  CHG  1   6  -1
M  END
>  <PDB_ID>  (2452) 
pdb6myw

>  <RESIDUE_NAME>  (2452) 
ASP   PHE

>  <FRAG_NAME>  (2452) 
ACET   MBZ

>  <FRAG_ATOM_NUM>  (2452) 
fragi: 7  fragj: 15

>  <atom.prop.CHAIN_ID>  (2452) 
A A A A A A A Z Z Z Z Z Z Z Z Z Z Z Z Z Z Z

>  <atom.prop.IS_HEAVY_ATOM>  (2452) 
1 0 0 0 1 1 1 1 0 0 0 1 1 0 1 0 1 0 1 0 1 0

>  <DIFUSE_FUNC_ATOM>  (2452) 
atom 6   atom 7   

>  <FINAL_SINGLE_POINT_ENERGY>  (2452) 
0

>  <NONCOV_INTER_ENERGY_QM>  (2452) 
0

>  <FF_Energy>  (2452) 
-1.09

>  <QM_Energy>  (2452) 
-7.34

>  <source>  (2452) 
ACET_MBZ_02

>  <Index>  (2452) 
34567

$$$$
ACET-pdb6n0v-B-GLU-126:MBZ-pdb6n0v-B-PHE-122
     RDKit          3D

 22 21  0  0  0  0  0  0  0  0999 V2000
    2.7559    3.6880   -2.1213 C   0  0  0  0  0  0  0  0  0  0  0  0
    1.9228    3.9562   -1.6923 H   0  0  0  0  0  0  0  0  0  0  0  0
    2.7014    2.8310   -2.5827 H   0  0  0  0  0  0  0  0  0  0  0  0
    3.0661    4.4608   -2.8245 H   0  0  0  0  0  0  0  0  0  0  0  0
    3.7971    3.5365   -1.0195 C   0  0  0  0  0  0  0  0  0  0  0  0
    3.4296    3.5930    0.1761 O   0  0  0  0  0  1  0  0  0  0  0  0
    4.9945    3.3789   -1.3629 O   0  0  0  0  0  0  0  0  0  0  0  0
    0.0077    2.8815    0.0383 C   0  0  0  0  0  0  0  0  0  0  0  0
   -0.8257    3.2085   -0.3765 H   0  0  0  0  0  0  0  0  0  0  0  0
    0.8056    3.2001   -0.4459 H   0  0  0  0  0  0  0  0  0  0  0  0
    0.0530    3.2814    1.0513 H   0  0  0  0  0  0  0  0  0  0  0  0
   -0.0009    1.3907    0.0002 C   0  0  0  0  0  0  0  0  0  0  0  0
   -1.1940    0.6896    0.0105 C   0  0  0  0  0  0  0  0  0  0  0  0
   -2.0599    1.1836    0.0239 H   0  0  0  0  0  0  0  0  0  0  0  0
   -1.1984   -0.6895    0.0000 C   0  0  0  0  0  0  0  0  0  0  0  0
   -2.0721   -1.1896    0.0055 H   0  0  0  0  0  0  0  0  0  0  0  0
    0.0045   -1.3826   -0.0158 C   0  0  0  0  0  0  0  0  0  0  0  0
   -0.0044   -2.3847   -0.0388 H   0  0  0  0  0  0  0  0  0  0  0  0
    1.1984   -0.6941    0.0000 C   0  0  0  0  0  0  0  0  0  0  0  0
    2.0803   -1.1926    0.0097 H   0  0  0  0  0  0  0  0  0  0  0  0
    1.1903    0.6860    0.0051 C   0  0  0  0  0  0  0  0  0  0  0  0
    2.0601    1.1870    0.0115 H   0  0  0  0  0  0  0  0  0  0  0  0
  1  5  1  0
  5  6  1  0
  5  7  2  0
  1  2  1  0
  1  3  1  0
  1  4  1  0
  8 12  1  0
 12 13  2  0
 13 15  1  0
 15 17  2  0
 17 19  1  0
 19 21  2  0
 21 12  1  0
  8  9  1  0
  8 10  1  0
  8 11  1  0
 13 14  1  0
 15 16  1  0
 17 18  1  0
 19 20  1  0
 21 22  1  0
M  CHG  1   6  -1
M  END
>  <PDB_ID>  (2453) 
pdb6n0v

>  <RESIDUE_NAME>  (2453) 
GLU   PHE

>  <FRAG_NAME>  (2453) 
ACET   MBZ

>  <FRAG_ATOM_NUM>  (2453) 
fragi: 7  fragj: 15

>  <atom.prop.CHAIN_ID>  (2453) 
A A A A A A A Z Z Z Z Z Z Z Z Z Z Z Z Z Z Z

>  <atom.prop.IS_HEAVY_ATOM>  (2453) 
1 0 0 0 1 1 1 1 0 0 0 1 1 0 1 0 1 0 1 0 1 0

>  <DIFUSE_FUNC_ATOM>  (2453) 
atom 6   atom 7   

>  <FINAL_SINGLE_POINT_ENERGY>  (2453) 
0

>  <NONCOV_INTER_ENERGY_QM>  (2453) 
0

>  <FF_Energy>  (2453) 
-0.21

>  <QM_Energy>  (2453) 
-5.44

>  <source>  (2453) 
ACET_MBZ_02

>  <Index>  (2453) 
34642

$$$$
ACET-pdb6n0v-B-ASP-119:MBZ-pdb6n0v-B-PHE-250
     RDKit          3D

 22 21  0  0  0  0  0  0  0  0999 V2000
    1.5052    1.2102   -3.8827 C   0  0  0  0  0  0  0  0  0  0  0  0
    1.7409    0.5628   -3.1674 H   0  0  0  0  0  0  0  0  0  0  0  0
    2.2533    1.3025   -4.5290 H   0  0  0  0  0  0  0  0  0  0  0  0
    0.6359    0.8272   -4.4171 H   0  0  0  0  0  0  0  0  0  0  0  0
    1.2648    2.5842   -3.2261 C   0  0  0  0  0  0  0  0  0  0  0  0
    2.2102    3.0980   -2.5800 O   0  0  0  0  0  1  0  0  0  0  0  0
    0.1492    3.1446   -3.3590 O   0  0  0  0  0  0  0  0  0  0  0  0
    0.0135    2.9104   -0.0194 C   0  0  0  0  0  0  0  0  0  0  0  0
   -0.2743    3.2100   -0.9195 H   0  0  0  0  0  0  0  0  0  0  0  0
    0.9374    3.2144    0.1742 H   0  0  0  0  0  0  0  0  0  0  0  0
   -0.6478    3.3755    0.7116 H   0  0  0  0  0  0  0  0  0  0  0  0
    0.0034    1.4108   -0.0027 C   0  0  0  0  0  0  0  0  0  0  0  0
   -1.1996    0.6979   -0.0055 C   0  0  0  0  0  0  0  0  0  0  0  0
   -2.0654    1.1778   -0.0125 H   0  0  0  0  0  0  0  0  0  0  0  0
   -1.2029   -0.7178   -0.0000 C   0  0  0  0  0  0  0  0  0  0  0  0
   -2.0796   -1.2008   -0.0066 H   0  0  0  0  0  0  0  0  0  0  0  0
    0.0008   -1.4066    0.0162 C   0  0  0  0  0  0  0  0  0  0  0  0
    0.0129   -2.3994    0.0387 H   0  0  0  0  0  0  0  0  0  0  0  0
    1.2029   -0.6882    0.0000 C   0  0  0  0  0  0  0  0  0  0  0  0
    2.0876   -1.1851   -0.0042 H   0  0  0  0  0  0  0  0  0  0  0  0
    1.1954    0.7039   -0.0080 C   0  0  0  0  0  0  0  0  0  0  0  0
    2.0658    1.1993   -0.0187 H   0  0  0  0  0  0  0  0  0  0  0  0
  1  5  1  0
  5  6  1  0
  5  7  2  0
  1  2  1  0
  1  3  1  0
  1  4  1  0
  8 12  1  0
 12 13  2  0
 13 15  1  0
 15 17  2  0
 17 19  1  0
 19 21  2  0
 21 12  1  0
  8  9  1  0
  8 10  1  0
  8 11  1  0
 13 14  1  0
 15 16  1  0
 17 18  1  0
 19 20  1  0
 21 22  1  0
M  CHG  1   6  -1
M  END
>  <PDB_ID>  (2454) 
pdb6n0v

>  <RESIDUE_NAME>  (2454) 
ASP   PHE

>  <FRAG_NAME>  (2454) 
ACET   MBZ

>  <FRAG_ATOM_NUM>  (2454) 
fragi: 7  fragj: 15

>  <atom.prop.CHAIN_ID>  (2454) 
A A A A A A A Z Z Z Z Z Z Z Z Z Z Z Z Z Z Z

>  <atom.prop.IS_HEAVY_ATOM>  (2454) 
1 0 0 0 1 1 1 1 0 0 0 1 1 0 1 0 1 0 1 0 1 0

>  <DIFUSE_FUNC_ATOM>  (2454) 
atom 6   atom 7   

>  <FINAL_SINGLE_POINT_ENERGY>  (2454) 
0

>  <NONCOV_INTER_ENERGY_QM>  (2454) 
0

>  <FF_Energy>  (2454) 
-0.65

>  <QM_Energy>  (2454) 
-7.43

>  <source>  (2454) 
ACET_MBZ_02

>  <Index>  (2454) 
34652

$$$$
ACET-pdb6n1y-C-GLU-59:MBZ-pdb6n1y-A-PHE-37
     RDKit          3D

 22 21  0  0  0  0  0  0  0  0999 V2000
    4.8283    0.9924   -1.6595 C   0  0  0  0  0  0  0  0  0  0  0  0
    4.0248    0.7063   -2.1593 H   0  0  0  0  0  0  0  0  0  0  0  0
    5.2273    0.2405   -1.1577 H   0  0  0  0  0  0  0  0  0  0  0  0
    5.5645    1.3542   -2.3772 H   0  0  0  0  0  0  0  0  0  0  0  0
    4.3866    2.0325   -0.6437 C   0  0  0  0  0  0  0  0  0  0  0  0
    3.6381    2.9470   -1.0461 O   0  0  0  0  0  1  0  0  0  0  0  0
    4.7966    1.9308    0.5465 O   0  0  0  0  0  0  0  0  0  0  0  0
   -0.0020    2.9058   -0.0014 C   0  0  0  0  0  0  0  0  0  0  0  0
    0.8731    3.2121    0.3411 H   0  0  0  0  0  0  0  0  0  0  0  0
   -0.7432    3.2106    0.5763 H   0  0  0  0  0  0  0  0  0  0  0  0
   -0.1466    3.3400   -0.9907 H   0  0  0  0  0  0  0  0  0  0  0  0
    0.0001    1.3989    0.0050 C   0  0  0  0  0  0  0  0  0  0  0  0
   -1.1929    0.6894   -0.0040 C   0  0  0  0  0  0  0  0  0  0  0  0
   -2.0608    1.1770   -0.0142 H   0  0  0  0  0  0  0  0  0  0  0  0
   -1.1915   -0.6981    0.0000 C   0  0  0  0  0  0  0  0  0  0  0  0
   -2.0717   -1.1923    0.0048 H   0  0  0  0  0  0  0  0  0  0  0  0
    0.0009   -1.3864   -0.0011 C   0  0  0  0  0  0  0  0  0  0  0  0
   -0.0020   -2.3895   -0.0035 H   0  0  0  0  0  0  0  0  0  0  0  0
    1.1915   -0.6951    0.0000 C   0  0  0  0  0  0  0  0  0  0  0  0
    2.0775   -1.1938    0.0022 H   0  0  0  0  0  0  0  0  0  0  0  0
    1.1919    0.6913    0.0001 C   0  0  0  0  0  0  0  0  0  0  0  0
    2.0613    1.1861   -0.0039 H   0  0  0  0  0  0  0  0  0  0  0  0
  1  5  1  0
  5  6  1  0
  5  7  2  0
  1  2  1  0
  1  3  1  0
  1  4  1  0
  8 12  1  0
 12 13  2  0
 13 15  1  0
 15 17  2  0
 17 19  1  0
 19 21  2  0
 21 12  1  0
  8  9  1  0
  8 10  1  0
  8 11  1  0
 13 14  1  0
 15 16  1  0
 17 18  1  0
 19 20  1  0
 21 22  1  0
M  CHG  1   6  -1
M  END
>  <PDB_ID>  (2455) 
pdb6n1y

>  <RESIDUE_NAME>  (2455) 
GLU   PHE

>  <FRAG_NAME>  (2455) 
ACET   MBZ

>  <FRAG_ATOM_NUM>  (2455) 
fragi: 7  fragj: 15

>  <atom.prop.CHAIN_ID>  (2455) 
A A A A A A A Z Z Z Z Z Z Z Z Z Z Z Z Z Z Z

>  <atom.prop.IS_HEAVY_ATOM>  (2455) 
1 0 0 0 1 1 1 1 0 0 0 1 1 0 1 0 1 0 1 0 1 0

>  <DIFUSE_FUNC_ATOM>  (2455) 
atom 6   atom 7   

>  <FINAL_SINGLE_POINT_ENERGY>  (2455) 
0

>  <NONCOV_INTER_ENERGY_QM>  (2455) 
0

>  <FF_Energy>  (2455) 
-2.09

>  <QM_Energy>  (2455) 
-7.14

>  <source>  (2455) 
ACET_MBZ_02

>  <Index>  (2455) 
34732

$$$$
ACET-pdb6n1y-A-GLU-59:MBZ-pdb6n1y-C-PHE-37
     RDKit          3D

 22 21  0  0  0  0  0  0  0  0999 V2000
    4.7793    0.8494   -1.6684 C   0  0  0  0  0  0  0  0  0  0  0  0
    3.9488    0.6285   -2.1556 H   0  0  0  0  0  0  0  0  0  0  0  0
    5.1541    0.0540   -1.2171 H   0  0  0  0  0  0  0  0  0  0  0  0
    5.5120    1.2102   -2.3904 H   0  0  0  0  0  0  0  0  0  0  0  0
    4.4210    1.8574   -0.5918 C   0  0  0  0  0  0  0  0  0  0  0  0
    3.7306    2.8386   -0.9217 O   0  0  0  0  0  1  0  0  0  0  0  0
    4.8415    1.6688    0.5704 O   0  0  0  0  0  0  0  0  0  0  0  0
    0.0007    2.9054   -0.0077 C   0  0  0  0  0  0  0  0  0  0  0  0
    0.8766    3.2120    0.3297 H   0  0  0  0  0  0  0  0  0  0  0  0
   -0.7391    3.2143    0.5702 H   0  0  0  0  0  0  0  0  0  0  0  0
   -0.1460    3.3354   -0.9985 H   0  0  0  0  0  0  0  0  0  0  0  0
    0.0002    1.3996    0.0036 C   0  0  0  0  0  0  0  0  0  0  0  0
   -1.1918    0.6905   -0.0036 C   0  0  0  0  0  0  0  0  0  0  0  0
   -2.0599    1.1793   -0.0127 H   0  0  0  0  0  0  0  0  0  0  0  0
   -1.1913   -0.6956   -0.0000 C   0  0  0  0  0  0  0  0  0  0  0  0
   -2.0725   -1.1902    0.0071 H   0  0  0  0  0  0  0  0  0  0  0  0
    0.0001   -1.3873   -0.0037 C   0  0  0  0  0  0  0  0  0  0  0  0
   -0.0041   -2.3894   -0.0097 H   0  0  0  0  0  0  0  0  0  0  0  0
    1.1913   -0.6971   -0.0000 C   0  0  0  0  0  0  0  0  0  0  0  0
    2.0763   -1.1955    0.0016 H   0  0  0  0  0  0  0  0  0  0  0  0
    1.1915    0.6899    0.0038 C   0  0  0  0  0  0  0  0  0  0  0  0
    2.0626    1.1838    0.0062 H   0  0  0  0  0  0  0  0  0  0  0  0
  1  5  1  0
  5  6  1  0
  5  7  2  0
  1  2  1  0
  1  3  1  0
  1  4  1  0
  8 12  1  0
 12 13  2  0
 13 15  1  0
 15 17  2  0
 17 19  1  0
 19 21  2  0
 21 12  1  0
  8  9  1  0
  8 10  1  0
  8 11  1  0
 13 14  1  0
 15 16  1  0
 17 18  1  0
 19 20  1  0
 21 22  1  0
M  CHG  1   6  -1
M  END
>  <PDB_ID>  (2456) 
pdb6n1y

>  <RESIDUE_NAME>  (2456) 
GLU   PHE

>  <FRAG_NAME>  (2456) 
ACET   MBZ

>  <FRAG_ATOM_NUM>  (2456) 
fragi: 7  fragj: 15

>  <atom.prop.CHAIN_ID>  (2456) 
A A A A A A A Z Z Z Z Z Z Z Z Z Z Z Z Z Z Z

>  <atom.prop.IS_HEAVY_ATOM>  (2456) 
1 0 0 0 1 1 1 1 0 0 0 1 1 0 1 0 1 0 1 0 1 0

>  <DIFUSE_FUNC_ATOM>  (2456) 
atom 6   atom 7   

>  <FINAL_SINGLE_POINT_ENERGY>  (2456) 
0

>  <NONCOV_INTER_ENERGY_QM>  (2456) 
0

>  <FF_Energy>  (2456) 
-1.96

>  <QM_Energy>  (2456) 
-7.18

>  <source>  (2456) 
ACET_MBZ_02

>  <Index>  (2456) 
34759

$$$$
ACET-pdb6n5z-A-ASP-43:MBZ-pdb6n5z-A-PHE-99
     RDKit          3D

 22 21  0  0  0  0  0  0  0  0999 V2000
    3.2509    2.9628    1.8117 C   0  0  0  0  0  0  0  0  0  0  0  0
    3.9991    3.5745    1.6046 H   0  0  0  0  0  0  0  0  0  0  0  0
    2.7704    2.6897    0.9939 H   0  0  0  0  0  0  0  0  0  0  0  0
    3.6535    2.0717    2.2934 H   0  0  0  0  0  0  0  0  0  0  0  0
    2.2465    3.7295    2.7217 C   0  0  0  0  0  0  0  0  0  0  0  0
    2.2604    4.9905    2.6922 O   0  0  0  0  0  1  0  0  0  0  0  0
    1.4637    3.0807    3.4715 O   0  0  0  0  0  0  0  0  0  0  0  0
    0.0046    2.9091   -0.0102 C   0  0  0  0  0  0  0  0  0  0  0  0
    0.9075    3.2139    0.2518 H   0  0  0  0  0  0  0  0  0  0  0  0
   -0.6806    3.2190    0.6327 H   0  0  0  0  0  0  0  0  0  0  0  0
   -0.2265    3.3485   -0.9805 H   0  0  0  0  0  0  0  0  0  0  0  0
    0.0014    1.4040   -0.0035 C   0  0  0  0  0  0  0  0  0  0  0  0
   -1.1932    0.6977   -0.0030 C   0  0  0  0  0  0  0  0  0  0  0  0
   -2.0616    1.1834   -0.0061 H   0  0  0  0  0  0  0  0  0  0  0  0
   -1.1988   -0.7015   -0.0000 C   0  0  0  0  0  0  0  0  0  0  0  0
   -2.0789   -1.1876    0.0030 H   0  0  0  0  0  0  0  0  0  0  0  0
   -0.0045   -1.3939    0.0002 C   0  0  0  0  0  0  0  0  0  0  0  0
   -0.0038   -2.3935   -0.0004 H   0  0  0  0  0  0  0  0  0  0  0  0
    1.1988   -0.6970    0.0000 C   0  0  0  0  0  0  0  0  0  0  0  0
    2.0790   -1.1979   -0.0029 H   0  0  0  0  0  0  0  0  0  0  0  0
    1.1963    0.6908    0.0063 C   0  0  0  0  0  0  0  0  0  0  0  0
    2.0662    1.1873    0.0171 H   0  0  0  0  0  0  0  0  0  0  0  0
  1  5  1  0
  5  6  1  0
  5  7  2  0
  1  2  1  0
  1  3  1  0
  1  4  1  0
  8 12  1  0
 12 13  2  0
 13 15  1  0
 15 17  2  0
 17 19  1  0
 19 21  2  0
 21 12  1  0
  8  9  1  0
  8 10  1  0
  8 11  1  0
 13 14  1  0
 15 16  1  0
 17 18  1  0
 19 20  1  0
 21 22  1  0
M  CHG  1   6  -1
M  END
>  <PDB_ID>  (2457) 
pdb6n5z

>  <RESIDUE_NAME>  (2457) 
ASP   PHE

>  <FRAG_NAME>  (2457) 
ACET   MBZ

>  <FRAG_ATOM_NUM>  (2457) 
fragi: 7  fragj: 15

>  <atom.prop.CHAIN_ID>  (2457) 
A A A A A A A Z Z Z Z Z Z Z Z Z Z Z Z Z Z Z

>  <atom.prop.IS_HEAVY_ATOM>  (2457) 
1 0 0 0 1 1 1 1 0 0 0 1 1 0 1 0 1 0 1 0 1 0

>  <DIFUSE_FUNC_ATOM>  (2457) 
atom 6   atom 7   

>  <FINAL_SINGLE_POINT_ENERGY>  (2457) 
0

>  <NONCOV_INTER_ENERGY_QM>  (2457) 
0

>  <FF_Energy>  (2457) 
4.68

>  <QM_Energy>  (2457) 
-2.88

>  <source>  (2457) 
ACET_MBZ_02

>  <Index>  (2457) 
34870

$$$$
ACET-pdb5kar-A-ASP-209:MBZ-pdb5kar-A-PHE-214
     RDKit          3D

 22 21  0  0  0  0  0  0  0  0999 V2000
    4.7979    3.6510   -0.5273 C   0  0  0  0  0  0  0  0  0  0  0  0
    4.7342    3.5774    0.4384 H   0  0  0  0  0  0  0  0  0  0  0  0
    5.4249    4.3515   -0.7649 H   0  0  0  0  0  0  0  0  0  0  0  0
    5.1531    2.7033   -0.9321 H   0  0  0  0  0  0  0  0  0  0  0  0
    3.4293    4.0481   -1.0576 C   0  0  0  0  0  0  0  0  0  0  0  0
    2.7943    3.2214   -1.7559 O   0  0  0  0  0  1  0  0  0  0  0  0
    2.9447    5.1503   -0.7634 O   0  0  0  0  0  0  0  0  0  0  0  0
    0.0021    2.8995    0.0498 C   0  0  0  0  0  0  0  0  0  0  0  0
    0.9273    3.1931    0.0436 H   0  0  0  0  0  0  0  0  0  0  0  0
   -0.4183    3.1643    0.8835 H   0  0  0  0  0  0  0  0  0  0  0  0
   -0.5226    3.3828   -0.7743 H   0  0  0  0  0  0  0  0  0  0  0  0
    0.0010    1.3968   -0.0054 C   0  0  0  0  0  0  0  0  0  0  0  0
   -1.1869    0.6898    0.0036 C   0  0  0  0  0  0  0  0  0  0  0  0
   -1.9961    1.1499    0.0139 H   0  0  0  0  0  0  0  0  0  0  0  0
   -1.1877   -0.7055   -0.0000 C   0  0  0  0  0  0  0  0  0  0  0  0
   -1.9910   -1.1738   -0.0039 H   0  0  0  0  0  0  0  0  0  0  0  0
   -0.0013   -1.3760    0.0020 C   0  0  0  0  0  0  0  0  0  0  0  0
    0.0021   -2.3062   -0.0145 H   0  0  0  0  0  0  0  0  0  0  0  0
    1.1877   -0.6922    0.0000 C   0  0  0  0  0  0  0  0  0  0  0  0
    1.9930   -1.1585   -0.0066 H   0  0  0  0  0  0  0  0  0  0  0  0
    1.1873    0.6871   -0.0003 C   0  0  0  0  0  0  0  0  0  0  0  0
    1.9968    1.1458    0.0107 H   0  0  0  0  0  0  0  0  0  0  0  0
  1  5  1  0
  5  6  1  0
  5  7  2  0
  1  2  1  0
  1  3  1  0
  1  4  1  0
  8 12  1  0
 12 13  2  0
 13 15  1  0
 15 17  2  0
 17 19  1  0
 19 21  2  0
 21 12  1  0
  8  9  1  0
  8 10  1  0
  8 11  1  0
 13 14  1  0
 15 16  1  0
 17 18  1  0
 19 20  1  0
 21 22  1  0
M  CHG  1   6  -1
M  END
>  <PDB_ID>  (2458) 
pdb5kar

>  <RESIDUE_NAME>  (2458) 
ASP   PHE

>  <FRAG_NAME>  (2458) 
ACET   MBZ

>  <FRAG_ATOM_NUM>  (2458) 
fragi: 7  fragj: 15

>  <atom.prop.CHAIN_ID>  (2458) 
A A A A A A A Z Z Z Z Z Z Z Z Z Z Z Z Z Z Z

>  <atom.prop.IS_HEAVY_ATOM>  (2458) 
1 0 0 0 1 1 1 1 0 0 0 1 1 0 1 0 1 0 1 0 1 0

>  <DIFUSE_FUNC_ATOM>  (2458) 
atom 6   atom 7   

>  <FINAL_SINGLE_POINT_ENERGY>  (2458) 
0

>  <NONCOV_INTER_ENERGY_QM>  (2458) 
0

>  <FF_Energy>  (2458) 
-1.57

>  <QM_Energy>  (2458) 
-6.66

>  <source>  (2458) 
ACET_MBZ_02

>  <Index>  (2458) 
34880

$$$$
ACET-pdb6nal-A-GLU-157:MBZ-pdb6nal-A-PHE-179
     RDKit          3D

 22 21  0  0  0  0  0  0  0  0999 V2000
    4.5234    0.1836    1.5412 C   0  0  0  0  0  0  0  0  0  0  0  0
    5.4231    0.2116    1.1790 H   0  0  0  0  0  0  0  0  0  0  0  0
    3.9500   -0.3414    0.9621 H   0  0  0  0  0  0  0  0  0  0  0  0
    4.5514   -0.2773    2.5286 H   0  0  0  0  0  0  0  0  0  0  0  0
    3.9748    1.6324    1.5751 C   0  0  0  0  0  0  0  0  0  0  0  0
    3.3514    2.0221    2.6181 O   0  0  0  0  0  1  0  0  0  0  0  0
    4.1457    2.3668    0.5547 O   0  0  0  0  0  0  0  0  0  0  0  0
   -0.0067    2.8623    0.0135 C   0  0  0  0  0  0  0  0  0  0  0  0
    0.8054    3.1635    0.4484 H   0  0  0  0  0  0  0  0  0  0  0  0
   -0.7825    3.1577    0.5162 H   0  0  0  0  0  0  0  0  0  0  0  0
   -0.0510    3.2899   -0.9882 H   0  0  0  0  0  0  0  0  0  0  0  0
   -0.0024    1.3791    0.0101 C   0  0  0  0  0  0  0  0  0  0  0  0
   -1.1808    0.6755   -0.0123 C   0  0  0  0  0  0  0  0  0  0  0  0
   -1.9895    1.1334   -0.0362 H   0  0  0  0  0  0  0  0  0  0  0  0
   -1.1751   -0.6916   -0.0000 C   0  0  0  0  0  0  0  0  0  0  0  0
   -1.9788   -1.1602    0.0025 H   0  0  0  0  0  0  0  0  0  0  0  0
    0.0038   -1.3631    0.0081 C   0  0  0  0  0  0  0  0  0  0  0  0
    0.0076   -2.2928    0.0192 H   0  0  0  0  0  0  0  0  0  0  0  0
    1.1751   -0.6824    0.0000 C   0  0  0  0  0  0  0  0  0  0  0  0
    1.9805   -1.1472   -0.0014 H   0  0  0  0  0  0  0  0  0  0  0  0
    1.1794    0.6826   -0.0059 C   0  0  0  0  0  0  0  0  0  0  0  0
    1.9878    1.1424   -0.0193 H   0  0  0  0  0  0  0  0  0  0  0  0
  1  5  1  0
  5  6  1  0
  5  7  2  0
  1  2  1  0
  1  3  1  0
  1  4  1  0
  8 12  1  0
 12 13  2  0
 13 15  1  0
 15 17  2  0
 17 19  1  0
 19 21  2  0
 21 12  1  0
  8  9  1  0
  8 10  1  0
  8 11  1  0
 13 14  1  0
 15 16  1  0
 17 18  1  0
 19 20  1  0
 21 22  1  0
M  CHG  1   6  -1
M  END
>  <PDB_ID>  (2459) 
pdb6nal

>  <RESIDUE_NAME>  (2459) 
GLU   PHE

>  <FRAG_NAME>  (2459) 
ACET   MBZ

>  <FRAG_ATOM_NUM>  (2459) 
fragi: 7  fragj: 15

>  <atom.prop.CHAIN_ID>  (2459) 
A A A A A A A Z Z Z Z Z Z Z Z Z Z Z Z Z Z Z

>  <atom.prop.IS_HEAVY_ATOM>  (2459) 
1 0 0 0 1 1 1 1 0 0 0 1 1 0 1 0 1 0 1 0 1 0

>  <DIFUSE_FUNC_ATOM>  (2459) 
atom 6   atom 7   

>  <FINAL_SINGLE_POINT_ENERGY>  (2459) 
0

>  <NONCOV_INTER_ENERGY_QM>  (2459) 
0

>  <FF_Energy>  (2459) 
-1.23

>  <QM_Energy>  (2459) 
-6.32

>  <source>  (2459) 
ACET_MBZ_02

>  <Index>  (2459) 
35056

$$$$
ACET-pdb6mpr-A-ASP-218:MBZ-pdb6mpr-A-PHE-66
     RDKit          3D

 22 21  0  0  0  0  0  0  0  0999 V2000
   -3.3761   -0.0364   -3.2607 C   0  0  0  0  0  0  0  0  0  0  0  0
   -4.2302   -0.1808   -3.7456 H   0  0  0  0  0  0  0  0  0  0  0  0
   -3.1233   -0.8481   -2.7496 H   0  0  0  0  0  0  0  0  0  0  0  0
   -2.5967    0.1583   -3.9974 H   0  0  0  0  0  0  0  0  0  0  0  0
   -3.5779    1.1206   -2.2607 C   0  0  0  0  0  0  0  0  0  0  0  0
   -2.8139    2.1078   -2.2820 O   0  0  0  0  0  1  0  0  0  0  0  0
   -4.5110    1.0154   -1.4279 O   0  0  0  0  0  0  0  0  0  0  0  0
    0.0135    2.8891   -0.0163 C   0  0  0  0  0  0  0  0  0  0  0  0
   -0.4963    3.1905   -0.8126 H   0  0  0  0  0  0  0  0  0  0  0  0
    0.9573    3.1913   -0.0685 H   0  0  0  0  0  0  0  0  0  0  0  0
   -0.4353    3.3557    0.8606 H   0  0  0  0  0  0  0  0  0  0  0  0
    0.0033    1.3942    0.0043 C   0  0  0  0  0  0  0  0  0  0  0  0
   -1.1927    0.6906    0.0063 C   0  0  0  0  0  0  0  0  0  0  0  0
   -2.0593    1.1780    0.0109 H   0  0  0  0  0  0  0  0  0  0  0  0
   -1.1953   -0.7041    0.0000 C   0  0  0  0  0  0  0  0  0  0  0  0
   -2.0726   -1.1947   -0.0022 H   0  0  0  0  0  0  0  0  0  0  0  0
   -0.0002   -1.3855   -0.0010 C   0  0  0  0  0  0  0  0  0  0  0  0
    0.0043   -2.3888   -0.0030 H   0  0  0  0  0  0  0  0  0  0  0  0
    1.1953   -0.6891   -0.0000 C   0  0  0  0  0  0  0  0  0  0  0  0
    2.0784   -1.1884    0.0094 H   0  0  0  0  0  0  0  0  0  0  0  0
    1.1896    0.6938   -0.0096 C   0  0  0  0  0  0  0  0  0  0  0  0
    2.0608    1.1904   -0.0276 H   0  0  0  0  0  0  0  0  0  0  0  0
  1  5  1  0
  5  6  1  0
  5  7  2  0
  1  2  1  0
  1  3  1  0
  1  4  1  0
  8 12  1  0
 12 13  2  0
 13 15  1  0
 15 17  2  0
 17 19  1  0
 19 21  2  0
 21 12  1  0
  8  9  1  0
  8 10  1  0
  8 11  1  0
 13 14  1  0
 15 16  1  0
 17 18  1  0
 19 20  1  0
 21 22  1  0
M  CHG  1   6  -1
M  END
>  <PDB_ID>  (2460) 
pdb6mpr

>  <RESIDUE_NAME>  (2460) 
ASP   PHE

>  <FRAG_NAME>  (2460) 
ACET   MBZ

>  <FRAG_ATOM_NUM>  (2460) 
fragi: 7  fragj: 15

>  <atom.prop.CHAIN_ID>  (2460) 
A A A A A A A Z Z Z Z Z Z Z Z Z Z Z Z Z Z Z

>  <atom.prop.IS_HEAVY_ATOM>  (2460) 
1 0 0 0 1 1 1 1 0 0 0 1 1 0 1 0 1 0 1 0 1 0

>  <DIFUSE_FUNC_ATOM>  (2460) 
atom 6   atom 7   

>  <FINAL_SINGLE_POINT_ENERGY>  (2460) 
0

>  <NONCOV_INTER_ENERGY_QM>  (2460) 
0

>  <FF_Energy>  (2460) 
-1.43

>  <QM_Energy>  (2460) 
-7.43

>  <source>  (2460) 
ACET_MBZ_02

>  <Index>  (2460) 
35079

$$$$
ACET-pdb5kgl-B-ASP-143:MBZ-pdb5kgl-B-PHE-187
     RDKit          3D

 22 21  0  0  0  0  0  0  0  0999 V2000
   -2.7580   -4.0369    2.2973 C   0  0  0  0  0  0  0  0  0  0  0  0
   -3.1988   -4.9062    2.5056 H   0  0  0  0  0  0  0  0  0  0  0  0
   -3.4407   -3.3140    2.2420 H   0  0  0  0  0  0  0  0  0  0  0  0
   -2.0871   -3.7983    3.1226 H   0  0  0  0  0  0  0  0  0  0  0  0
   -2.0522   -4.1505    0.9713 C   0  0  0  0  0  0  0  0  0  0  0  0
   -0.8036   -4.1261    0.9505 O   0  0  0  0  0  1  0  0  0  0  0  0
   -2.7563   -4.2632   -0.0554 O   0  0  0  0  0  0  0  0  0  0  0  0
    0.0117    2.8963    0.0068 C   0  0  0  0  0  0  0  0  0  0  0  0
    0.9426    3.1959   -0.1474 H   0  0  0  0  0  0  0  0  0  0  0  0
   -0.3195    3.1985    0.8891 H   0  0  0  0  0  0  0  0  0  0  0  0
   -0.6183    3.3469   -0.7602 H   0  0  0  0  0  0  0  0  0  0  0  0
    0.0013    1.3950   -0.0029 C   0  0  0  0  0  0  0  0  0  0  0  0
   -1.1840    0.6946   -0.0064 C   0  0  0  0  0  0  0  0  0  0  0  0
   -2.0555    1.1784   -0.0149 H   0  0  0  0  0  0  0  0  0  0  0  0
   -1.1881   -0.7002   -0.0000 C   0  0  0  0  0  0  0  0  0  0  0  0
   -2.0740   -1.1848    0.0090 H   0  0  0  0  0  0  0  0  0  0  0  0
   -0.0068   -1.3841   -0.0038 C   0  0  0  0  0  0  0  0  0  0  0  0
   -0.0001   -2.3864   -0.0102 H   0  0  0  0  0  0  0  0  0  0  0  0
    1.1881   -0.6864    0.0000 C   0  0  0  0  0  0  0  0  0  0  0  0
    2.0712   -1.1961   -0.0054 H   0  0  0  0  0  0  0  0  0  0  0  0
    1.1895    0.6812    0.0130 C   0  0  0  0  0  0  0  0  0  0  0  0
    2.0602    1.1836    0.0339 H   0  0  0  0  0  0  0  0  0  0  0  0
  1  5  1  0
  5  6  1  0
  5  7  2  0
  1  2  1  0
  1  3  1  0
  1  4  1  0
  8 12  1  0
 12 13  2  0
 13 15  1  0
 15 17  2  0
 17 19  1  0
 19 21  2  0
 21 12  1  0
  8  9  1  0
  8 10  1  0
  8 11  1  0
 13 14  1  0
 15 16  1  0
 17 18  1  0
 19 20  1  0
 21 22  1  0
M  CHG  1   6  -1
M  END
>  <PDB_ID>  (2461) 
pdb5kgl

>  <RESIDUE_NAME>  (2461) 
ASP   PHE

>  <FRAG_NAME>  (2461) 
ACET   MBZ

>  <FRAG_ATOM_NUM>  (2461) 
fragi: 7  fragj: 15

>  <atom.prop.CHAIN_ID>  (2461) 
A A A A A A A Z Z Z Z Z Z Z Z Z Z Z Z Z Z Z

>  <atom.prop.IS_HEAVY_ATOM>  (2461) 
1 0 0 0 1 1 1 1 0 0 0 1 1 0 1 0 1 0 1 0 1 0

>  <DIFUSE_FUNC_ATOM>  (2461) 
atom 6   atom 7   

>  <FINAL_SINGLE_POINT_ENERGY>  (2461) 
0

>  <NONCOV_INTER_ENERGY_QM>  (2461) 
0

>  <FF_Energy>  (2461) 
-0.26

>  <QM_Energy>  (2461) 
-6.2

>  <source>  (2461) 
ACET_MBZ_02

>  <Index>  (2461) 
35125

$$$$
ACET-pdb6ncy-B-ASP-60:MBZ-pdb6ncy-B-PHE-64
     RDKit          3D

 22 21  0  0  0  0  0  0  0  0999 V2000
   -4.1152    5.5714   -1.3017 C   0  0  0  0  0  0  0  0  0  0  0  0
   -4.9647    5.4119   -1.7991 H   0  0  0  0  0  0  0  0  0  0  0  0
   -3.4662    6.0537   -1.8852 H   0  0  0  0  0  0  0  0  0  0  0  0
   -4.3401    6.2094   -0.4470 H   0  0  0  0  0  0  0  0  0  0  0  0
   -3.5153    4.2202   -0.9238 C   0  0  0  0  0  0  0  0  0  0  0  0
   -3.4171    3.8496    0.2744 O   0  0  0  0  0  1  0  0  0  0  0  0
   -3.1320    3.5007   -1.8737 O   0  0  0  0  0  0  0  0  0  0  0  0
    0.0059    2.9038   -0.0212 C   0  0  0  0  0  0  0  0  0  0  0  0
   -0.8363    3.2041   -0.4503 H   0  0  0  0  0  0  0  0  0  0  0  0
    0.7940    3.1966   -0.5467 H   0  0  0  0  0  0  0  0  0  0  0  0
    0.0662    3.3733    0.9607 H   0  0  0  0  0  0  0  0  0  0  0  0
    0.0004    1.3970    0.0028 C   0  0  0  0  0  0  0  0  0  0  0  0
   -1.1901    0.6959   -0.0061 C   0  0  0  0  0  0  0  0  0  0  0  0
   -2.0584    1.1850   -0.0180 H   0  0  0  0  0  0  0  0  0  0  0  0
   -1.1955   -0.6926   -0.0000 C   0  0  0  0  0  0  0  0  0  0  0  0
   -2.0762   -1.1837    0.0033 H   0  0  0  0  0  0  0  0  0  0  0  0
   -0.0022   -1.3871    0.0036 C   0  0  0  0  0  0  0  0  0  0  0  0
   -0.0090   -2.3895    0.0089 H   0  0  0  0  0  0  0  0  0  0  0  0
    1.1955   -0.6997   -0.0000 C   0  0  0  0  0  0  0  0  0  0  0  0
    2.0762   -1.1987   -0.0012 H   0  0  0  0  0  0  0  0  0  0  0  0
    1.1919    0.6867   -0.0004 C   0  0  0  0  0  0  0  0  0  0  0  0
    2.0627    1.1827   -0.0041 H   0  0  0  0  0  0  0  0  0  0  0  0
  1  5  1  0
  5  6  1  0
  5  7  2  0
  1  2  1  0
  1  3  1  0
  1  4  1  0
  8 12  1  0
 12 13  2  0
 13 15  1  0
 15 17  2  0
 17 19  1  0
 19 21  2  0
 21 12  1  0
  8  9  1  0
  8 10  1  0
  8 11  1  0
 13 14  1  0
 15 16  1  0
 17 18  1  0
 19 20  1  0
 21 22  1  0
M  CHG  1   6  -1
M  END
>  <PDB_ID>  (2462) 
pdb6ncy

>  <RESIDUE_NAME>  (2462) 
ASP   PHE

>  <FRAG_NAME>  (2462) 
ACET   MBZ

>  <FRAG_ATOM_NUM>  (2462) 
fragi: 7  fragj: 15

>  <atom.prop.CHAIN_ID>  (2462) 
A A A A A A A Z Z Z Z Z Z Z Z Z Z Z Z Z Z Z

>  <atom.prop.IS_HEAVY_ATOM>  (2462) 
1 0 0 0 1 1 1 1 0 0 0 1 1 0 1 0 1 0 1 0 1 0

>  <DIFUSE_FUNC_ATOM>  (2462) 
atom 6   atom 7   

>  <FINAL_SINGLE_POINT_ENERGY>  (2462) 
0

>  <NONCOV_INTER_ENERGY_QM>  (2462) 
0

>  <FF_Energy>  (2462) 
-2.34

>  <QM_Energy>  (2462) 
-8.39

>  <source>  (2462) 
ACET_MBZ_02

>  <Index>  (2462) 
35250

$$$$
ACET-pdb5kku-A-ASP-40:MBZ-pdb5kku-A-PHE-190
     RDKit          3D

 22 21  0  0  0  0  0  0  0  0999 V2000
   -4.3945    2.4623    2.9341 C   0  0  0  0  0  0  0  0  0  0  0  0
   -3.6880    2.8133    3.5467 H   0  0  0  0  0  0  0  0  0  0  0  0
   -4.6237    1.5246    3.1878 H   0  0  0  0  0  0  0  0  0  0  0  0
   -5.2868    3.0758    3.0582 H   0  0  0  0  0  0  0  0  0  0  0  0
   -3.8543    2.4634    1.5242 C   0  0  0  0  0  0  0  0  0  0  0  0
   -3.2152    3.3741    1.0763 O   0  0  0  0  0  1  0  0  0  0  0  0
   -4.1192    1.5211    0.8435 O   0  0  0  0  0  0  0  0  0  0  0  0
   -0.0037    2.8800    0.0241 C   0  0  0  0  0  0  0  0  0  0  0  0
    0.9172    3.1864    0.2231 H   0  0  0  0  0  0  0  0  0  0  0  0
   -0.6371    3.1824    0.7235 H   0  0  0  0  0  0  0  0  0  0  0  0
   -0.3084    3.3360   -0.9179 H   0  0  0  0  0  0  0  0  0  0  0  0
   -0.0051    1.3848    0.0081 C   0  0  0  0  0  0  0  0  0  0  0  0
   -1.1693    0.6854    0.0012 C   0  0  0  0  0  0  0  0  0  0  0  0
   -2.0506    1.1739   -0.0043 H   0  0  0  0  0  0  0  0  0  0  0  0
   -1.1756   -0.6860    0.0000 C   0  0  0  0  0  0  0  0  0  0  0  0
   -2.0638   -1.1775    0.0151 H   0  0  0  0  0  0  0  0  0  0  0  0
   -0.0023   -1.3730   -0.0196 C   0  0  0  0  0  0  0  0  0  0  0  0
   -0.0059   -2.3782   -0.0489 H   0  0  0  0  0  0  0  0  0  0  0  0
    1.1756   -0.6875   -0.0000 C   0  0  0  0  0  0  0  0  0  0  0  0
    2.0650   -1.1926    0.0084 H   0  0  0  0  0  0  0  0  0  0  0  0
    1.1767    0.6763    0.0103 C   0  0  0  0  0  0  0  0  0  0  0  0
    2.0503    1.1780    0.0184 H   0  0  0  0  0  0  0  0  0  0  0  0
  1  5  1  0
  5  6  1  0
  5  7  2  0
  1  2  1  0
  1  3  1  0
  1  4  1  0
  8 12  1  0
 12 13  2  0
 13 15  1  0
 15 17  2  0
 17 19  1  0
 19 21  2  0
 21 12  1  0
  8  9  1  0
  8 10  1  0
  8 11  1  0
 13 14  1  0
 15 16  1  0
 17 18  1  0
 19 20  1  0
 21 22  1  0
M  CHG  1   6  -1
M  END
>  <PDB_ID>  (2463) 
pdb5kku

>  <RESIDUE_NAME>  (2463) 
ASP   PHE

>  <FRAG_NAME>  (2463) 
ACET   MBZ

>  <FRAG_ATOM_NUM>  (2463) 
fragi: 7  fragj: 15

>  <atom.prop.CHAIN_ID>  (2463) 
A A A A A A A Z Z Z Z Z Z Z Z Z Z Z Z Z Z Z

>  <atom.prop.IS_HEAVY_ATOM>  (2463) 
1 0 0 0 1 1 1 1 0 0 0 1 1 0 1 0 1 0 1 0 1 0

>  <DIFUSE_FUNC_ATOM>  (2463) 
atom 6   atom 7   

>  <FINAL_SINGLE_POINT_ENERGY>  (2463) 
0

>  <NONCOV_INTER_ENERGY_QM>  (2463) 
0

>  <FF_Energy>  (2463) 
-1.63

>  <QM_Energy>  (2463) 
-9.38

>  <source>  (2463) 
ACET_MBZ_02

>  <Index>  (2463) 
35283

$$$$
ACET-pdb5kku-B-ASP-40:MBZ-pdb5kku-B-PHE-190
     RDKit          3D

 22 21  0  0  0  0  0  0  0  0999 V2000
   -4.2143    2.3693    3.2385 C   0  0  0  0  0  0  0  0  0  0  0  0
   -3.5062    2.8103    3.7787 H   0  0  0  0  0  0  0  0  0  0  0  0
   -4.3297    1.4244    3.5217 H   0  0  0  0  0  0  0  0  0  0  0  0
   -5.1536    2.8977    3.4012 H   0  0  0  0  0  0  0  0  0  0  0  0
   -3.7638    2.3747    1.7683 C   0  0  0  0  0  0  0  0  0  0  0  0
   -3.2062    3.3350    1.2643 O   0  0  0  0  0  1  0  0  0  0  0  0
   -4.0227    1.3842    1.1226 O   0  0  0  0  0  0  0  0  0  0  0  0
   -0.0061    2.8658    0.0172 C   0  0  0  0  0  0  0  0  0  0  0  0
    0.9311    3.1785    0.1161 H   0  0  0  0  0  0  0  0  0  0  0  0
   -0.5569    3.1582    0.7893 H   0  0  0  0  0  0  0  0  0  0  0  0
   -0.4184    3.3276   -0.8799 H   0  0  0  0  0  0  0  0  0  0  0  0
    0.0024    1.3749   -0.0094 C   0  0  0  0  0  0  0  0  0  0  0  0
   -1.1733    0.6720    0.0072 C   0  0  0  0  0  0  0  0  0  0  0  0
   -2.0473    1.1681    0.0234 H   0  0  0  0  0  0  0  0  0  0  0  0
   -1.1753   -0.6877    0.0000 C   0  0  0  0  0  0  0  0  0  0  0  0
   -2.0584   -1.1883   -0.0055 H   0  0  0  0  0  0  0  0  0  0  0  0
    0.0006   -1.3602    0.0022 C   0  0  0  0  0  0  0  0  0  0  0  0
    0.0009   -2.3715    0.0052 H   0  0  0  0  0  0  0  0  0  0  0  0
    1.1753   -0.6793    0.0000 C   0  0  0  0  0  0  0  0  0  0  0  0
    2.0649   -1.1822   -0.0004 H   0  0  0  0  0  0  0  0  0  0  0  0
    1.1703    0.6804    0.0000 C   0  0  0  0  0  0  0  0  0  0  0  0
    2.0487    1.1817    0.0067 H   0  0  0  0  0  0  0  0  0  0  0  0
  1  5  1  0
  5  6  1  0
  5  7  2  0
  1  2  1  0
  1  3  1  0
  1  4  1  0
  8 12  1  0
 12 13  2  0
 13 15  1  0
 15 17  2  0
 17 19  1  0
 19 21  2  0
 21 12  1  0
  8  9  1  0
  8 10  1  0
  8 11  1  0
 13 14  1  0
 15 16  1  0
 17 18  1  0
 19 20  1  0
 21 22  1  0
M  CHG  1   6  -1
M  END
>  <PDB_ID>  (2464) 
pdb5kku

>  <RESIDUE_NAME>  (2464) 
ASP   PHE

>  <FRAG_NAME>  (2464) 
ACET   MBZ

>  <FRAG_ATOM_NUM>  (2464) 
fragi: 7  fragj: 15

>  <atom.prop.CHAIN_ID>  (2464) 
A A A A A A A Z Z Z Z Z Z Z Z Z Z Z Z Z Z Z

>  <atom.prop.IS_HEAVY_ATOM>  (2464) 
1 0 0 0 1 1 1 1 0 0 0 1 1 0 1 0 1 0 1 0 1 0

>  <DIFUSE_FUNC_ATOM>  (2464) 
atom 6   atom 7   

>  <FINAL_SINGLE_POINT_ENERGY>  (2464) 
0

>  <NONCOV_INTER_ENERGY_QM>  (2464) 
0

>  <FF_Energy>  (2464) 
-1.58

>  <QM_Energy>  (2464) 
-8.95

>  <source>  (2464) 
ACET_MBZ_02

>  <Index>  (2464) 
35291

$$$$
ACET-pdb5kku-C-ASP-40:MBZ-pdb5kku-C-PHE-190
     RDKit          3D

 22 21  0  0  0  0  0  0  0  0999 V2000
   -4.1844    2.5726    3.4408 C   0  0  0  0  0  0  0  0  0  0  0  0
   -3.4159    2.8982    3.9854 H   0  0  0  0  0  0  0  0  0  0  0  0
   -4.4629    1.6686    3.7502 H   0  0  0  0  0  0  0  0  0  0  0  0
   -5.0199    3.2532    3.6050 H   0  0  0  0  0  0  0  0  0  0  0  0
   -3.7639    2.4904    1.9977 C   0  0  0  0  0  0  0  0  0  0  0  0
   -3.1676    3.4282    1.5320 O   0  0  0  0  0  1  0  0  0  0  0  0
   -4.1128    1.5184    1.3437 O   0  0  0  0  0  0  0  0  0  0  0  0
    0.0204    2.8802    0.0090 C   0  0  0  0  0  0  0  0  0  0  0  0
    0.9684    3.1741    0.0658 H   0  0  0  0  0  0  0  0  0  0  0  0
   -0.4850    3.1795    0.8110 H   0  0  0  0  0  0  0  0  0  0  0  0
   -0.4269    3.3513   -0.8662 H   0  0  0  0  0  0  0  0  0  0  0  0
    0.0057    1.3804   -0.0096 C   0  0  0  0  0  0  0  0  0  0  0  0
   -1.1767    0.6626    0.0075 C   0  0  0  0  0  0  0  0  0  0  0  0
   -2.0488    1.1591    0.0245 H   0  0  0  0  0  0  0  0  0  0  0  0
   -1.1704   -0.6954    0.0000 C   0  0  0  0  0  0  0  0  0  0  0  0
   -2.0548   -1.1991   -0.0138 H   0  0  0  0  0  0  0  0  0  0  0  0
    0.0029   -1.3622    0.0131 C   0  0  0  0  0  0  0  0  0  0  0  0
    0.0130   -2.3712    0.0325 H   0  0  0  0  0  0  0  0  0  0  0  0
    1.1704   -0.6682   -0.0000 C   0  0  0  0  0  0  0  0  0  0  0  0
    2.0655   -1.1737    0.0002 H   0  0  0  0  0  0  0  0  0  0  0  0
    1.1681    0.6827   -0.0110 C   0  0  0  0  0  0  0  0  0  0  0  0
    2.0490    1.1843   -0.0209 H   0  0  0  0  0  0  0  0  0  0  0  0
  1  5  1  0
  5  6  1  0
  5  7  2  0
  1  2  1  0
  1  3  1  0
  1  4  1  0
  8 12  1  0
 12 13  2  0
 13 15  1  0
 15 17  2  0
 17 19  1  0
 19 21  2  0
 21 12  1  0
  8  9  1  0
  8 10  1  0
  8 11  1  0
 13 14  1  0
 15 16  1  0
 17 18  1  0
 19 20  1  0
 21 22  1  0
M  CHG  1   6  -1
M  END
>  <PDB_ID>  (2465) 
pdb5kku

>  <RESIDUE_NAME>  (2465) 
ASP   PHE

>  <FRAG_NAME>  (2465) 
ACET   MBZ

>  <FRAG_ATOM_NUM>  (2465) 
fragi: 7  fragj: 15

>  <atom.prop.CHAIN_ID>  (2465) 
A A A A A A A Z Z Z Z Z Z Z Z Z Z Z Z Z Z Z

>  <atom.prop.IS_HEAVY_ATOM>  (2465) 
1 0 0 0 1 1 1 1 0 0 0 1 1 0 1 0 1 0 1 0 1 0

>  <DIFUSE_FUNC_ATOM>  (2465) 
atom 6   atom 7   

>  <FINAL_SINGLE_POINT_ENERGY>  (2465) 
0

>  <NONCOV_INTER_ENERGY_QM>  (2465) 
0

>  <FF_Energy>  (2465) 
-2.51

>  <QM_Energy>  (2465) 
-8.34

>  <source>  (2465) 
ACET_MBZ_02

>  <Index>  (2465) 
35295

$$$$
ACET-pdb5kis-A-GLU-198:MBZ-pdb5kis-A-PHE-251
     RDKit          3D

 22 21  0  0  0  0  0  0  0  0999 V2000
    4.2139    3.7685   -2.7650 C   0  0  0  0  0  0  0  0  0  0  0  0
    4.3907    3.1755   -3.5331 H   0  0  0  0  0  0  0  0  0  0  0  0
    4.6344    3.4304   -1.9391 H   0  0  0  0  0  0  0  0  0  0  0  0
    4.6387    4.7474   -2.9875 H   0  0  0  0  0  0  0  0  0  0  0  0
    2.7162    3.7918   -2.5390 C   0  0  0  0  0  0  0  0  0  0  0  0
    2.1158    4.8794   -2.3781 O   0  0  0  0  0  1  0  0  0  0  0  0
    2.1135    2.7011   -2.5288 O   0  0  0  0  0  0  0  0  0  0  0  0
    0.0135    2.9285    0.0111 C   0  0  0  0  0  0  0  0  0  0  0  0
    0.9224    3.2267   -0.2406 H   0  0  0  0  0  0  0  0  0  0  0  0
   -0.2183    3.2214    0.9276 H   0  0  0  0  0  0  0  0  0  0  0  0
   -0.6899    3.4024   -0.6735 H   0  0  0  0  0  0  0  0  0  0  0  0
    0.0000    1.4089   -0.0085 C   0  0  0  0  0  0  0  0  0  0  0  0
   -1.1966    0.6831    0.0056 C   0  0  0  0  0  0  0  0  0  0  0  0
   -2.0663    1.1706    0.0180 H   0  0  0  0  0  0  0  0  0  0  0  0
   -1.1964   -0.7096    0.0000 C   0  0  0  0  0  0  0  0  0  0  0  0
   -2.0722   -1.2037    0.0010 H   0  0  0  0  0  0  0  0  0  0  0  0
    0.0039   -1.3939   -0.0044 C   0  0  0  0  0  0  0  0  0  0  0  0
    0.0093   -2.3936   -0.0110 H   0  0  0  0  0  0  0  0  0  0  0  0
    1.1964   -0.6885   -0.0000 C   0  0  0  0  0  0  0  0  0  0  0  0
    2.0834   -1.1845   -0.0009 H   0  0  0  0  0  0  0  0  0  0  0  0
    1.1927    0.7000    0.0073 C   0  0  0  0  0  0  0  0  0  0  0  0
    2.0624    1.1954    0.0230 H   0  0  0  0  0  0  0  0  0  0  0  0
  1  5  1  0
  5  6  1  0
  5  7  2  0
  1  2  1  0
  1  3  1  0
  1  4  1  0
  8 12  1  0
 12 13  2  0
 13 15  1  0
 15 17  2  0
 17 19  1  0
 19 21  2  0
 21 12  1  0
  8  9  1  0
  8 10  1  0
  8 11  1  0
 13 14  1  0
 15 16  1  0
 17 18  1  0
 19 20  1  0
 21 22  1  0
M  CHG  1   6  -1
M  END
>  <PDB_ID>  (2466) 
pdb5kis

>  <RESIDUE_NAME>  (2466) 
GLU   PHE

>  <FRAG_NAME>  (2466) 
ACET   MBZ

>  <FRAG_ATOM_NUM>  (2466) 
fragi: 7  fragj: 15

>  <atom.prop.CHAIN_ID>  (2466) 
A A A A A A A Z Z Z Z Z Z Z Z Z Z Z Z Z Z Z

>  <atom.prop.IS_HEAVY_ATOM>  (2466) 
1 0 0 0 1 1 1 1 0 0 0 1 1 0 1 0 1 0 1 0 1 0

>  <DIFUSE_FUNC_ATOM>  (2466) 
atom 6   atom 7   

>  <FINAL_SINGLE_POINT_ENERGY>  (2466) 
0

>  <NONCOV_INTER_ENERGY_QM>  (2466) 
0

>  <FF_Energy>  (2466) 
-0.07

>  <QM_Energy>  (2466) 
-5.73

>  <source>  (2466) 
ACET_MBZ_02

>  <Index>  (2466) 
35331

$$$$
ACET-pdb5kmx-C-GLU-206:MBZ-pdb5kmx-C-PHE-119
     RDKit          3D

 22 21  0  0  0  0  0  0  0  0999 V2000
    0.8278    0.6987    4.0360 C   0  0  0  0  0  0  0  0  0  0  0  0
    0.4452    1.5942    4.1368 H   0  0  0  0  0  0  0  0  0  0  0  0
    1.1198    0.3114    4.8867 H   0  0  0  0  0  0  0  0  0  0  0  0
    0.0637    0.0486    3.6098 H   0  0  0  0  0  0  0  0  0  0  0  0
    2.0459    0.8142    3.1377 C   0  0  0  0  0  0  0  0  0  0  0  0
    2.4138    1.9519    2.7724 O   0  0  0  0  0  1  0  0  0  0  0  0
    2.6395   -0.2360    2.7992 O   0  0  0  0  0  0  0  0  0  0  0  0
   -0.0005    2.8939    0.0001 C   0  0  0  0  0  0  0  0  0  0  0  0
    0.8790    3.2013    0.3311 H   0  0  0  0  0  0  0  0  0  0  0  0
   -0.7332    3.2007    0.5892 H   0  0  0  0  0  0  0  0  0  0  0  0
   -0.1586    3.3333   -0.9849 H   0  0  0  0  0  0  0  0  0  0  0  0
   -0.0000    1.3940   -0.0004 C   0  0  0  0  0  0  0  0  0  0  0  0
   -1.1917    0.6874    0.0009 C   0  0  0  0  0  0  0  0  0  0  0  0
   -2.0599    1.1805    0.0013 H   0  0  0  0  0  0  0  0  0  0  0  0
   -1.1947   -0.6927    0.0000 C   0  0  0  0  0  0  0  0  0  0  0  0
   -2.0732   -1.1901    0.0008 H   0  0  0  0  0  0  0  0  0  0  0  0
   -0.0001   -1.3837    0.0004 C   0  0  0  0  0  0  0  0  0  0  0  0
   -0.0041   -2.3863    0.0002 H   0  0  0  0  0  0  0  0  0  0  0  0
    1.1947   -0.6931   -0.0000 C   0  0  0  0  0  0  0  0  0  0  0  0
    2.0778   -1.1944    0.0023 H   0  0  0  0  0  0  0  0  0  0  0  0
    1.1918    0.6881   -0.0009 C   0  0  0  0  0  0  0  0  0  0  0  0
    2.0611    1.1869   -0.0034 H   0  0  0  0  0  0  0  0  0  0  0  0
  1  5  1  0
  5  6  1  0
  5  7  2  0
  1  2  1  0
  1  3  1  0
  1  4  1  0
  8 12  1  0
 12 13  2  0
 13 15  1  0
 15 17  2  0
 17 19  1  0
 19 21  2  0
 21 12  1  0
  8  9  1  0
  8 10  1  0
  8 11  1  0
 13 14  1  0
 15 16  1  0
 17 18  1  0
 19 20  1  0
 21 22  1  0
M  CHG  1   6  -1
M  END
>  <PDB_ID>  (2467) 
pdb5kmx

>  <RESIDUE_NAME>  (2467) 
GLU   PHE

>  <FRAG_NAME>  (2467) 
ACET   MBZ

>  <FRAG_ATOM_NUM>  (2467) 
fragi: 7  fragj: 15

>  <atom.prop.CHAIN_ID>  (2467) 
A A A A A A A Z Z Z Z Z Z Z Z Z Z Z Z Z Z Z

>  <atom.prop.IS_HEAVY_ATOM>  (2467) 
1 0 0 0 1 1 1 1 0 0 0 1 1 0 1 0 1 0 1 0 1 0

>  <DIFUSE_FUNC_ATOM>  (2467) 
atom 6   atom 7   

>  <FINAL_SINGLE_POINT_ENERGY>  (2467) 
0

>  <NONCOV_INTER_ENERGY_QM>  (2467) 
0

>  <FF_Energy>  (2467) 
0.08

>  <QM_Energy>  (2467) 
-5.4

>  <source>  (2467) 
ACET_MBZ_02

>  <Index>  (2467) 
35342

$$$$
ACET-pdb6nhu-C-ASP-72:MBZ-pdb6nhu-C-PHE-180
     RDKit          3D

 22 21  0  0  0  0  0  0  0  0999 V2000
   -4.4242    2.1275    1.3771 C   0  0  0  0  0  0  0  0  0  0  0  0
   -3.5932    2.4453    1.8197 H   0  0  0  0  0  0  0  0  0  0  0  0
   -4.5682    1.1623    1.5602 H   0  0  0  0  0  0  0  0  0  0  0  0
   -5.2637    2.6801    1.7992 H   0  0  0  0  0  0  0  0  0  0  0  0
   -4.2861    2.3256   -0.1186 C   0  0  0  0  0  0  0  0  0  0  0  0
   -3.5470    3.2423   -0.5330 O   0  0  0  0  0  1  0  0  0  0  0  0
   -4.9174    1.5672   -0.8811 O   0  0  0  0  0  0  0  0  0  0  0  0
   -0.0004    2.9063   -0.0039 C   0  0  0  0  0  0  0  0  0  0  0  0
    0.7136    3.2127    0.6057 H   0  0  0  0  0  0  0  0  0  0  0  0
   -0.8895    3.2118    0.2984 H   0  0  0  0  0  0  0  0  0  0  0  0
    0.1870    3.3487   -0.9823 H   0  0  0  0  0  0  0  0  0  0  0  0
    0.0000    1.3984   -0.0031 C   0  0  0  0  0  0  0  0  0  0  0  0
   -1.1906    0.6908   -0.0016 C   0  0  0  0  0  0  0  0  0  0  0  0
   -2.0600    1.1809   -0.0026 H   0  0  0  0  0  0  0  0  0  0  0  0
   -1.1934   -0.6947    0.0000 C   0  0  0  0  0  0  0  0  0  0  0  0
   -2.0732   -1.1891    0.0012 H   0  0  0  0  0  0  0  0  0  0  0  0
   -0.0003   -1.3878    0.0019 C   0  0  0  0  0  0  0  0  0  0  0  0
   -0.0042   -2.3884    0.0042 H   0  0  0  0  0  0  0  0  0  0  0  0
    1.1934   -0.6952    0.0000 C   0  0  0  0  0  0  0  0  0  0  0  0
    2.0780   -1.1945   -0.0019 H   0  0  0  0  0  0  0  0  0  0  0  0
    1.1909    0.6886    0.0028 C   0  0  0  0  0  0  0  0  0  0  0  0
    2.0614    1.1858    0.0083 H   0  0  0  0  0  0  0  0  0  0  0  0
  1  5  1  0
  5  6  1  0
  5  7  2  0
  1  2  1  0
  1  3  1  0
  1  4  1  0
  8 12  1  0
 12 13  2  0
 13 15  1  0
 15 17  2  0
 17 19  1  0
 19 21  2  0
 21 12  1  0
  8  9  1  0
  8 10  1  0
  8 11  1  0
 13 14  1  0
 15 16  1  0
 17 18  1  0
 19 20  1  0
 21 22  1  0
M  CHG  1   6  -1
M  END
>  <PDB_ID>  (2468) 
pdb6nhu

>  <RESIDUE_NAME>  (2468) 
ASP   PHE

>  <FRAG_NAME>  (2468) 
ACET   MBZ

>  <FRAG_ATOM_NUM>  (2468) 
fragi: 7  fragj: 15

>  <atom.prop.CHAIN_ID>  (2468) 
A A A A A A A Z Z Z Z Z Z Z Z Z Z Z Z Z Z Z

>  <atom.prop.IS_HEAVY_ATOM>  (2468) 
1 0 0 0 1 1 1 1 0 0 0 1 1 0 1 0 1 0 1 0 1 0

>  <DIFUSE_FUNC_ATOM>  (2468) 
atom 6   atom 7   

>  <FINAL_SINGLE_POINT_ENERGY>  (2468) 
0

>  <NONCOV_INTER_ENERGY_QM>  (2468) 
0

>  <FF_Energy>  (2468) 
-1.79

>  <QM_Energy>  (2468) 
-7.09

>  <source>  (2468) 
ACET_MBZ_02

>  <Index>  (2468) 
35366

$$$$
ACET-pdb5ko7-A-GLU-19:MBZ-pdb5ko7-A-PHE-15
     RDKit          3D

 22 21  0  0  0  0  0  0  0  0999 V2000
   -0.5603    2.8150    3.6261 C   0  0  0  0  0  0  0  0  0  0  0  0
    0.1217    2.2328    3.2567 H   0  0  0  0  0  0  0  0  0  0  0  0
   -0.6016    2.7110    4.5892 H   0  0  0  0  0  0  0  0  0  0  0  0
   -0.3115    3.8495    3.3894 H   0  0  0  0  0  0  0  0  0  0  0  0
   -1.8985    2.3986    3.0490 C   0  0  0  0  0  0  0  0  0  0  0  0
   -2.5416    3.2317    2.3753 O   0  0  0  0  0  1  0  0  0  0  0  0
   -2.3117    1.2403    3.2704 O   0  0  0  0  0  0  0  0  0  0  0  0
    0.0005    2.8948    0.0004 C   0  0  0  0  0  0  0  0  0  0  0  0
    0.8476    3.1905    0.3665 H   0  0  0  0  0  0  0  0  0  0  0  0
   -0.7263    3.1911    0.5704 H   0  0  0  0  0  0  0  0  0  0  0  0
   -0.1280    3.3336   -0.9892 H   0  0  0  0  0  0  0  0  0  0  0  0
   -0.0002    1.3940   -0.0007 C   0  0  0  0  0  0  0  0  0  0  0  0
   -1.1911    0.6890    0.0011 C   0  0  0  0  0  0  0  0  0  0  0  0
   -1.9987    1.1497    0.0009 H   0  0  0  0  0  0  0  0  0  0  0  0
   -1.1940   -0.6927   -0.0000 C   0  0  0  0  0  0  0  0  0  0  0  0
   -2.0004   -1.1566    0.0003 H   0  0  0  0  0  0  0  0  0  0  0  0
   -0.0002   -1.3842   -0.0005 C   0  0  0  0  0  0  0  0  0  0  0  0
    0.0001   -2.3141   -0.0002 H   0  0  0  0  0  0  0  0  0  0  0  0
    1.1940   -0.6939    0.0000 C   0  0  0  0  0  0  0  0  0  0  0  0
    2.0007   -1.1577   -0.0002 H   0  0  0  0  0  0  0  0  0  0  0  0
    1.1915    0.6878    0.0001 C   0  0  0  0  0  0  0  0  0  0  0  0
    1.9988    1.1490   -0.0004 H   0  0  0  0  0  0  0  0  0  0  0  0
  1  5  1  0
  5  6  1  0
  5  7  2  0
  1  2  1  0
  1  3  1  0
  1  4  1  0
  8 12  1  0
 12 13  2  0
 13 15  1  0
 15 17  2  0
 17 19  1  0
 19 21  2  0
 21 12  1  0
  8  9  1  0
  8 10  1  0
  8 11  1  0
 13 14  1  0
 15 16  1  0
 17 18  1  0
 19 20  1  0
 21 22  1  0
M  CHG  1   6  -1
M  END
>  <PDB_ID>  (2469) 
pdb5ko7

>  <RESIDUE_NAME>  (2469) 
GLU   PHE

>  <FRAG_NAME>  (2469) 
ACET   MBZ

>  <FRAG_ATOM_NUM>  (2469) 
fragi: 7  fragj: 15

>  <atom.prop.CHAIN_ID>  (2469) 
A A A A A A A Z Z Z Z Z Z Z Z Z Z Z Z Z Z Z

>  <atom.prop.IS_HEAVY_ATOM>  (2469) 
1 0 0 0 1 1 1 1 0 0 0 1 1 0 1 0 1 0 1 0 1 0

>  <DIFUSE_FUNC_ATOM>  (2469) 
atom 6   atom 7   

>  <FINAL_SINGLE_POINT_ENERGY>  (2469) 
0

>  <NONCOV_INTER_ENERGY_QM>  (2469) 
0

>  <FF_Energy>  (2469) 
-0.89

>  <QM_Energy>  (2469) 
-5.95

>  <source>  (2469) 
ACET_MBZ_02

>  <Index>  (2469) 
35409

$$$$
ACET-pdb6nih-A-GLU-179:MBZ-pdb6nih-A-PHE-204
     RDKit          3D

 22 21  0  0  0  0  0  0  0  0999 V2000
   -5.5268    3.8880    0.2640 C   0  0  0  0  0  0  0  0  0  0  0  0
   -5.6045    3.5141    1.1556 H   0  0  0  0  0  0  0  0  0  0  0  0
   -6.1482    3.4463   -0.3358 H   0  0  0  0  0  0  0  0  0  0  0  0
   -5.7666    4.9506    0.3028 H   0  0  0  0  0  0  0  0  0  0  0  0
   -4.1272    3.6135   -0.2337 C   0  0  0  0  0  0  0  0  0  0  0  0
   -3.6536    4.3399   -1.1325 O   0  0  0  0  0  1  0  0  0  0  0  0
   -3.4983    2.6641    0.2740 O   0  0  0  0  0  0  0  0  0  0  0  0
    0.0093    2.9006   -0.0094 C   0  0  0  0  0  0  0  0  0  0  0  0
    0.8991    3.1950    0.2385 H   0  0  0  0  0  0  0  0  0  0  0  0
   -0.6366    3.2082    0.6451 H   0  0  0  0  0  0  0  0  0  0  0  0
   -0.2440    3.3257   -0.9806 H   0  0  0  0  0  0  0  0  0  0  0  0
    0.0004    1.3953    0.0057 C   0  0  0  0  0  0  0  0  0  0  0  0
   -1.1903    0.6904   -0.0036 C   0  0  0  0  0  0  0  0  0  0  0  0
   -1.9988    1.1512   -0.0117 H   0  0  0  0  0  0  0  0  0  0  0  0
   -1.1928   -0.6940    0.0000 C   0  0  0  0  0  0  0  0  0  0  0  0
   -1.9995   -1.1575    0.0020 H   0  0  0  0  0  0  0  0  0  0  0  0
    0.0003   -1.3850   -0.0002 C   0  0  0  0  0  0  0  0  0  0  0  0
   -0.0003   -2.3155   -0.0006 H   0  0  0  0  0  0  0  0  0  0  0  0
    1.1928   -0.6942   -0.0000 C   0  0  0  0  0  0  0  0  0  0  0  0
    1.9989   -1.1579    0.0013 H   0  0  0  0  0  0  0  0  0  0  0  0
    1.1896    0.6876   -0.0019 C   0  0  0  0  0  0  0  0  0  0  0  0
    1.9975    1.1481   -0.0094 H   0  0  0  0  0  0  0  0  0  0  0  0
  1  5  1  0
  5  6  1  0
  5  7  2  0
  1  2  1  0
  1  3  1  0
  1  4  1  0
  8 12  1  0
 12 13  2  0
 13 15  1  0
 15 17  2  0
 17 19  1  0
 19 21  2  0
 21 12  1  0
  8  9  1  0
  8 10  1  0
  8 11  1  0
 13 14  1  0
 15 16  1  0
 17 18  1  0
 19 20  1  0
 21 22  1  0
M  CHG  1   6  -1
M  END
>  <PDB_ID>  (2470) 
pdb6nih

>  <RESIDUE_NAME>  (2470) 
GLU   PHE

>  <FRAG_NAME>  (2470) 
ACET   MBZ

>  <FRAG_ATOM_NUM>  (2470) 
fragi: 7  fragj: 15

>  <atom.prop.CHAIN_ID>  (2470) 
A A A A A A A Z Z Z Z Z Z Z Z Z Z Z Z Z Z Z

>  <atom.prop.IS_HEAVY_ATOM>  (2470) 
1 0 0 0 1 1 1 1 0 0 0 1 1 0 1 0 1 0 1 0 1 0

>  <DIFUSE_FUNC_ATOM>  (2470) 
atom 6   atom 7   

>  <FINAL_SINGLE_POINT_ENERGY>  (2470) 
0

>  <NONCOV_INTER_ENERGY_QM>  (2470) 
0

>  <FF_Energy>  (2470) 
0.36

>  <QM_Energy>  (2470) 
-7.9

>  <source>  (2470) 
ACET_MBZ_02

>  <Index>  (2470) 
35459

$$$$
ACET-pdb6nih-B-GLU-179:MBZ-pdb6nih-B-PHE-204
     RDKit          3D

 22 21  0  0  0  0  0  0  0  0999 V2000
   -5.2359    3.1809    1.0241 C   0  0  0  0  0  0  0  0  0  0  0  0
   -5.1824    3.2841    1.9869 H   0  0  0  0  0  0  0  0  0  0  0  0
   -5.4847    2.2710    0.8012 H   0  0  0  0  0  0  0  0  0  0  0  0
   -5.9920    3.8622    0.6339 H   0  0  0  0  0  0  0  0  0  0  0  0
   -3.8587    3.4500    0.4434 C   0  0  0  0  0  0  0  0  0  0  0  0
   -3.7672    3.7772   -0.7572 O   0  0  0  0  0  1  0  0  0  0  0  0
   -2.8695    3.3556    1.1966 O   0  0  0  0  0  0  0  0  0  0  0  0
   -0.0166    2.8907   -0.0028 C   0  0  0  0  0  0  0  0  0  0  0  0
    0.8835    3.1973    0.1907 H   0  0  0  0  0  0  0  0  0  0  0  0
   -0.6237    3.1807    0.6947 H   0  0  0  0  0  0  0  0  0  0  0  0
   -0.3384    3.3217   -0.9509 H   0  0  0  0  0  0  0  0  0  0  0  0
   -0.0000    1.3927   -0.0044 C   0  0  0  0  0  0  0  0  0  0  0  0
   -1.1887    0.6858    0.0040 C   0  0  0  0  0  0  0  0  0  0  0  0
   -1.9964    1.1466    0.0113 H   0  0  0  0  0  0  0  0  0  0  0  0
   -1.1940   -0.6928   -0.0000 C   0  0  0  0  0  0  0  0  0  0  0  0
   -2.0005   -1.1558   -0.0037 H   0  0  0  0  0  0  0  0  0  0  0  0
   -0.0034   -1.3839    0.0008 C   0  0  0  0  0  0  0  0  0  0  0  0
   -0.0040   -2.3141    0.0028 H   0  0  0  0  0  0  0  0  0  0  0  0
    1.1940   -0.6915   -0.0000 C   0  0  0  0  0  0  0  0  0  0  0  0
    1.9996   -1.1567   -0.0002 H   0  0  0  0  0  0  0  0  0  0  0  0
    1.1921    0.6897   -0.0004 C   0  0  0  0  0  0  0  0  0  0  0  0
    1.9991    1.1522    0.0017 H   0  0  0  0  0  0  0  0  0  0  0  0
  1  5  1  0
  5  6  1  0
  5  7  2  0
  1  2  1  0
  1  3  1  0
  1  4  1  0
  8 12  1  0
 12 13  2  0
 13 15  1  0
 15 17  2  0
 17 19  1  0
 19 21  2  0
 21 12  1  0
  8  9  1  0
  8 10  1  0
  8 11  1  0
 13 14  1  0
 15 16  1  0
 17 18  1  0
 19 20  1  0
 21 22  1  0
M  CHG  1   6  -1
M  END
>  <PDB_ID>  (2471) 
pdb6nih

>  <RESIDUE_NAME>  (2471) 
GLU   PHE

>  <FRAG_NAME>  (2471) 
ACET   MBZ

>  <FRAG_ATOM_NUM>  (2471) 
fragi: 7  fragj: 15

>  <atom.prop.CHAIN_ID>  (2471) 
A A A A A A A Z Z Z Z Z Z Z Z Z Z Z Z Z Z Z

>  <atom.prop.IS_HEAVY_ATOM>  (2471) 
1 0 0 0 1 1 1 1 0 0 0 1 1 0 1 0 1 0 1 0 1 0

>  <DIFUSE_FUNC_ATOM>  (2471) 
atom 6   atom 7   

>  <FINAL_SINGLE_POINT_ENERGY>  (2471) 
0

>  <NONCOV_INTER_ENERGY_QM>  (2471) 
0

>  <FF_Energy>  (2471) 
-1.18

>  <QM_Energy>  (2471) 
-7.81

>  <source>  (2471) 
ACET_MBZ_02

>  <Index>  (2471) 
35461

$$$$
ACET-pdb5koi-C-GLU-244:MBZ-pdb5koi-B-PHE-247
     RDKit          3D

 22 21  0  0  0  0  0  0  0  0999 V2000
    4.3994    5.5281    1.3552 C   0  0  0  0  0  0  0  0  0  0  0  0
    4.3584    6.1312    0.5777 H   0  0  0  0  0  0  0  0  0  0  0  0
    5.3204    5.2309    1.5408 H   0  0  0  0  0  0  0  0  0  0  0  0
    4.0364    6.0740    2.2260 H   0  0  0  0  0  0  0  0  0  0  0  0
    3.5779    4.2859    1.0155 C   0  0  0  0  0  0  0  0  0  0  0  0
    2.7026    3.8755    1.8159 O   0  0  0  0  0  1  0  0  0  0  0  0
    3.8178    3.7076   -0.0725 O   0  0  0  0  0  0  0  0  0  0  0  0
   -0.0056    2.9033   -0.0188 C   0  0  0  0  0  0  0  0  0  0  0  0
    0.7700    3.2226    0.5026 H   0  0  0  0  0  0  0  0  0  0  0  0
   -0.8581    3.2109    0.3727 H   0  0  0  0  0  0  0  0  0  0  0  0
    0.0715    3.3169   -1.0244 H   0  0  0  0  0  0  0  0  0  0  0  0
    0.0032    1.4031    0.0074 C   0  0  0  0  0  0  0  0  0  0  0  0
   -1.1903    0.6910   -0.0094 C   0  0  0  0  0  0  0  0  0  0  0  0
   -2.0591    1.1816   -0.0295 H   0  0  0  0  0  0  0  0  0  0  0  0
   -1.1950   -0.6977    0.0000 C   0  0  0  0  0  0  0  0  0  0  0  0
   -2.0806   -1.1856    0.0065 H   0  0  0  0  0  0  0  0  0  0  0  0
   -0.0109   -1.3945    0.0018 C   0  0  0  0  0  0  0  0  0  0  0  0
   -0.0143   -2.3957    0.0040 H   0  0  0  0  0  0  0  0  0  0  0  0
    1.1950   -0.7051    0.0000 C   0  0  0  0  0  0  0  0  0  0  0  0
    2.0746   -1.1992    0.0003 H   0  0  0  0  0  0  0  0  0  0  0  0
    1.1979    0.7032    0.0002 C   0  0  0  0  0  0  0  0  0  0  0  0
    2.0662    1.1870   -0.0058 H   0  0  0  0  0  0  0  0  0  0  0  0
  1  5  1  0
  5  6  1  0
  5  7  2  0
  1  2  1  0
  1  3  1  0
  1  4  1  0
  8 12  1  0
 12 13  2  0
 13 15  1  0
 15 17  2  0
 17 19  1  0
 19 21  2  0
 21 12  1  0
  8  9  1  0
  8 10  1  0
  8 11  1  0
 13 14  1  0
 15 16  1  0
 17 18  1  0
 19 20  1  0
 21 22  1  0
M  CHG  1   6  -1
M  END
>  <PDB_ID>  (2472) 
pdb5koi

>  <RESIDUE_NAME>  (2472) 
GLU   PHE

>  <FRAG_NAME>  (2472) 
ACET   MBZ

>  <FRAG_ATOM_NUM>  (2472) 
fragi: 7  fragj: 15

>  <atom.prop.CHAIN_ID>  (2472) 
A A A A A A A Z Z Z Z Z Z Z Z Z Z Z Z Z Z Z

>  <atom.prop.IS_HEAVY_ATOM>  (2472) 
1 0 0 0 1 1 1 1 0 0 0 1 1 0 1 0 1 0 1 0 1 0

>  <DIFUSE_FUNC_ATOM>  (2472) 
atom 6   atom 7   

>  <FINAL_SINGLE_POINT_ENERGY>  (2472) 
0

>  <NONCOV_INTER_ENERGY_QM>  (2472) 
0

>  <FF_Energy>  (2472) 
-1.93

>  <QM_Energy>  (2472) 
-8.44

>  <source>  (2472) 
ACET_MBZ_02

>  <Index>  (2472) 
35468

$$$$
ACET-pdb5koi-A-GLU-244:MBZ-pdb5koi-D-PHE-247
     RDKit          3D

 22 21  0  0  0  0  0  0  0  0999 V2000
    4.3331    5.6240    1.4474 C   0  0  0  0  0  0  0  0  0  0  0  0
    4.3074    6.2453    0.6878 H   0  0  0  0  0  0  0  0  0  0  0  0
    5.2478    5.3450    1.6724 H   0  0  0  0  0  0  0  0  0  0  0  0
    3.9132    6.1354    2.3135 H   0  0  0  0  0  0  0  0  0  0  0  0
    3.5540    4.3716    1.0471 C   0  0  0  0  0  0  0  0  0  0  0  0
    2.7194    3.8938    1.8425 O   0  0  0  0  0  1  0  0  0  0  0  0
    3.7791    3.8523   -0.0731 O   0  0  0  0  0  0  0  0  0  0  0  0
   -0.0085    2.9045   -0.0054 C   0  0  0  0  0  0  0  0  0  0  0  0
    0.7750    3.2177    0.5074 H   0  0  0  0  0  0  0  0  0  0  0  0
   -0.8544    3.2101    0.4012 H   0  0  0  0  0  0  0  0  0  0  0  0
    0.0544    3.3306   -1.0067 H   0  0  0  0  0  0  0  0  0  0  0  0
   -0.0026    1.4062    0.0026 C   0  0  0  0  0  0  0  0  0  0  0  0
   -1.1967    0.6995   -0.0019 C   0  0  0  0  0  0  0  0  0  0  0  0
   -2.0661    1.1873   -0.0076 H   0  0  0  0  0  0  0  0  0  0  0  0
   -1.2074   -0.7004   -0.0000 C   0  0  0  0  0  0  0  0  0  0  0  0
   -2.0832   -1.1884   -0.0008 H   0  0  0  0  0  0  0  0  0  0  0  0
   -0.0012   -1.4017    0.0046 C   0  0  0  0  0  0  0  0  0  0  0  0
   -0.0078   -2.3990    0.0103 H   0  0  0  0  0  0  0  0  0  0  0  0
    1.2074   -0.7059   -0.0000 C   0  0  0  0  0  0  0  0  0  0  0  0
    2.0859   -1.1966    0.0020 H   0  0  0  0  0  0  0  0  0  0  0  0
    1.2005    0.7024   -0.0053 C   0  0  0  0  0  0  0  0  0  0  0  0
    2.0655    1.1932   -0.0157 H   0  0  0  0  0  0  0  0  0  0  0  0
  1  5  1  0
  5  6  1  0
  5  7  2  0
  1  2  1  0
  1  3  1  0
  1  4  1  0
  8 12  1  0
 12 13  2  0
 13 15  1  0
 15 17  2  0
 17 19  1  0
 19 21  2  0
 21 12  1  0
  8  9  1  0
  8 10  1  0
  8 11  1  0
 13 14  1  0
 15 16  1  0
 17 18  1  0
 19 20  1  0
 21 22  1  0
M  CHG  1   6  -1
M  END
>  <PDB_ID>  (2473) 
pdb5koi

>  <RESIDUE_NAME>  (2473) 
GLU   PHE

>  <FRAG_NAME>  (2473) 
ACET   MBZ

>  <FRAG_ATOM_NUM>  (2473) 
fragi: 7  fragj: 15

>  <atom.prop.CHAIN_ID>  (2473) 
A A A A A A A Z Z Z Z Z Z Z Z Z Z Z Z Z Z Z

>  <atom.prop.IS_HEAVY_ATOM>  (2473) 
1 0 0 0 1 1 1 1 0 0 0 1 1 0 1 0 1 0 1 0 1 0

>  <DIFUSE_FUNC_ATOM>  (2473) 
atom 6   atom 7   

>  <FINAL_SINGLE_POINT_ENERGY>  (2473) 
0

>  <NONCOV_INTER_ENERGY_QM>  (2473) 
0

>  <FF_Energy>  (2473) 
-1.94

>  <QM_Energy>  (2473) 
-8.26

>  <source>  (2473) 
ACET_MBZ_02

>  <Index>  (2473) 
35470

$$$$
ACET-pdb5kf6-A-GLU-671:MBZ-pdb5kf6-A-PHE-708
     RDKit          3D

 22 21  0  0  0  0  0  0  0  0999 V2000
   -4.6134    4.5895    2.6885 C   0  0  0  0  0  0  0  0  0  0  0  0
   -5.2204    5.0665    2.0872 H   0  0  0  0  0  0  0  0  0  0  0  0
   -4.2450    5.1615    3.3918 H   0  0  0  0  0  0  0  0  0  0  0  0
   -5.1767    3.7880    3.1663 H   0  0  0  0  0  0  0  0  0  0  0  0
   -3.4684    4.0538    1.8724 C   0  0  0  0  0  0  0  0  0  0  0  0
   -3.4687    2.8340    1.5830 O   0  0  0  0  0  1  0  0  0  0  0  0
   -2.5642    4.8452    1.5346 O   0  0  0  0  0  0  0  0  0  0  0  0
    0.0115    2.9288    0.0264 C   0  0  0  0  0  0  0  0  0  0  0  0
    0.9120    3.2247   -0.2556 H   0  0  0  0  0  0  0  0  0  0  0  0
   -0.1858    3.2133    0.9533 H   0  0  0  0  0  0  0  0  0  0  0  0
   -0.7205    3.3941   -0.6337 H   0  0  0  0  0  0  0  0  0  0  0  0
    0.0032    1.4049    0.0048 C   0  0  0  0  0  0  0  0  0  0  0  0
   -1.1887    0.7009    0.0050 C   0  0  0  0  0  0  0  0  0  0  0  0
   -2.0571    1.1971    0.0074 H   0  0  0  0  0  0  0  0  0  0  0  0
   -1.2043   -0.6846   -0.0000 C   0  0  0  0  0  0  0  0  0  0  0  0
   -2.0884   -1.1723    0.0040 H   0  0  0  0  0  0  0  0  0  0  0  0
   -0.0130   -1.4020   -0.0082 C   0  0  0  0  0  0  0  0  0  0  0  0
   -0.0259   -2.3957   -0.0203 H   0  0  0  0  0  0  0  0  0  0  0  0
    1.2043   -0.7119   -0.0000 C   0  0  0  0  0  0  0  0  0  0  0  0
    2.0763   -1.2084    0.0086 H   0  0  0  0  0  0  0  0  0  0  0  0
    1.1985    0.6927   -0.0017 C   0  0  0  0  0  0  0  0  0  0  0  0
    2.0696    1.1821   -0.0081 H   0  0  0  0  0  0  0  0  0  0  0  0
  1  5  1  0
  5  6  1  0
  5  7  2  0
  1  2  1  0
  1  3  1  0
  1  4  1  0
  8 12  1  0
 12 13  2  0
 13 15  1  0
 15 17  2  0
 17 19  1  0
 19 21  2  0
 21 12  1  0
  8  9  1  0
  8 10  1  0
  8 11  1  0
 13 14  1  0
 15 16  1  0
 17 18  1  0
 19 20  1  0
 21 22  1  0
M  CHG  1   6  -1
M  END
>  <PDB_ID>  (2474) 
pdb5kf6

>  <RESIDUE_NAME>  (2474) 
GLU   PHE

>  <FRAG_NAME>  (2474) 
ACET   MBZ

>  <FRAG_ATOM_NUM>  (2474) 
fragi: 7  fragj: 15

>  <atom.prop.CHAIN_ID>  (2474) 
A A A A A A A Z Z Z Z Z Z Z Z Z Z Z Z Z Z Z

>  <atom.prop.IS_HEAVY_ATOM>  (2474) 
1 0 0 0 1 1 1 1 0 0 0 1 1 0 1 0 1 0 1 0 1 0

>  <DIFUSE_FUNC_ATOM>  (2474) 
atom 6   atom 7   

>  <FINAL_SINGLE_POINT_ENERGY>  (2474) 
0

>  <NONCOV_INTER_ENERGY_QM>  (2474) 
0

>  <FF_Energy>  (2474) 
-2.11

>  <QM_Energy>  (2474) 
-7.54

>  <source>  (2474) 
ACET_MBZ_02

>  <Index>  (2474) 
35524

$$$$
ACET-pdb6nlx-D-GLU-95:MBZ-pdb6nlx-D-PHE-100
     RDKit          3D

 22 21  0  0  0  0  0  0  0  0999 V2000
    3.4381    5.0649    0.8278 C   0  0  0  0  0  0  0  0  0  0  0  0
    2.6377    5.1592    1.3915 H   0  0  0  0  0  0  0  0  0  0  0  0
    3.3229    5.4838   -0.0545 H   0  0  0  0  0  0  0  0  0  0  0  0
    4.2685    5.5579    1.3331 H   0  0  0  0  0  0  0  0  0  0  0  0
    3.6774    3.5883    0.6089 C   0  0  0  0  0  0  0  0  0  0  0  0
    3.7598    3.1781   -0.5676 O   0  0  0  0  0  1  0  0  0  0  0  0
    3.7841    2.8420    1.6079 O   0  0  0  0  0  0  0  0  0  0  0  0
   -0.0019    2.9024   -0.0034 C   0  0  0  0  0  0  0  0  0  0  0  0
    0.9316    3.2082   -0.1088 H   0  0  0  0  0  0  0  0  0  0  0  0
   -0.3902    3.2111    0.8514 H   0  0  0  0  0  0  0  0  0  0  0  0
   -0.5896    3.3338   -0.8138 H   0  0  0  0  0  0  0  0  0  0  0  0
    0.0002    1.3986    0.0039 C   0  0  0  0  0  0  0  0  0  0  0  0
   -1.1937    0.6896   -0.0035 C   0  0  0  0  0  0  0  0  0  0  0  0
   -2.0619    1.1814   -0.0129 H   0  0  0  0  0  0  0  0  0  0  0  0
   -1.1983   -0.6965    0.0000 C   0  0  0  0  0  0  0  0  0  0  0  0
   -2.0755   -1.1911    0.0028 H   0  0  0  0  0  0  0  0  0  0  0  0
   -0.0002   -1.3898    0.0011 C   0  0  0  0  0  0  0  0  0  0  0  0
   -0.0034   -2.3899    0.0023 H   0  0  0  0  0  0  0  0  0  0  0  0
    1.1983   -0.6955   -0.0000 C   0  0  0  0  0  0  0  0  0  0  0  0
    2.0805   -1.1928    0.0015 H   0  0  0  0  0  0  0  0  0  0  0  0
    1.1936    0.6936   -0.0015 C   0  0  0  0  0  0  0  0  0  0  0  0
    2.0628    1.1896   -0.0071 H   0  0  0  0  0  0  0  0  0  0  0  0
  1  5  1  0
  5  6  1  0
  5  7  2  0
  1  2  1  0
  1  3  1  0
  1  4  1  0
  8 12  1  0
 12 13  2  0
 13 15  1  0
 15 17  2  0
 17 19  1  0
 19 21  2  0
 21 12  1  0
  8  9  1  0
  8 10  1  0
  8 11  1  0
 13 14  1  0
 15 16  1  0
 17 18  1  0
 19 20  1  0
 21 22  1  0
M  CHG  1   6  -1
M  END
>  <PDB_ID>  (2475) 
pdb6nlx

>  <RESIDUE_NAME>  (2475) 
GLU   PHE

>  <FRAG_NAME>  (2475) 
ACET   MBZ

>  <FRAG_ATOM_NUM>  (2475) 
fragi: 7  fragj: 15

>  <atom.prop.CHAIN_ID>  (2475) 
A A A A A A A Z Z Z Z Z Z Z Z Z Z Z Z Z Z Z

>  <atom.prop.IS_HEAVY_ATOM>  (2475) 
1 0 0 0 1 1 1 1 0 0 0 1 1 0 1 0 1 0 1 0 1 0

>  <DIFUSE_FUNC_ATOM>  (2475) 
atom 6   atom 7   

>  <FINAL_SINGLE_POINT_ENERGY>  (2475) 
0

>  <NONCOV_INTER_ENERGY_QM>  (2475) 
0

>  <FF_Energy>  (2475) 
-2.81

>  <QM_Energy>  (2475) 
-8.13

>  <source>  (2475) 
ACET_MBZ_02

>  <Index>  (2475) 
35567

$$$$
ACET-pdb6mpr-B-ASP-218:MBZ-pdb6mpr-B-PHE-66
     RDKit          3D

 22 21  0  0  0  0  0  0  0  0999 V2000
   -3.2385    0.0622   -3.4405 C   0  0  0  0  0  0  0  0  0  0  0  0
   -4.0730   -0.0747   -3.9651 H   0  0  0  0  0  0  0  0  0  0  0  0
   -3.0035   -0.7665   -2.9429 H   0  0  0  0  0  0  0  0  0  0  0  0
   -2.4315    0.2733   -4.1422 H   0  0  0  0  0  0  0  0  0  0  0  0
   -3.4814    1.1849   -2.4279 C   0  0  0  0  0  0  0  0  0  0  0  0
   -2.6807    2.1508   -2.3567 O   0  0  0  0  0  1  0  0  0  0  0  0
   -4.4905    1.0894   -1.6857 O   0  0  0  0  0  0  0  0  0  0  0  0
    0.0097    2.8974   -0.0094 C   0  0  0  0  0  0  0  0  0  0  0  0
   -0.4934    3.2003   -0.8065 H   0  0  0  0  0  0  0  0  0  0  0  0
    0.9527    3.1975   -0.0486 H   0  0  0  0  0  0  0  0  0  0  0  0
   -0.4484    3.3567    0.8666 H   0  0  0  0  0  0  0  0  0  0  0  0
    0.0002    1.3942    0.0033 C   0  0  0  0  0  0  0  0  0  0  0  0
   -1.1921    0.6917   -0.0034 C   0  0  0  0  0  0  0  0  0  0  0  0
   -2.0599    1.1839   -0.0120 H   0  0  0  0  0  0  0  0  0  0  0  0
   -1.1977   -0.6924    0.0000 C   0  0  0  0  0  0  0  0  0  0  0  0
   -2.0762   -1.1861    0.0047 H   0  0  0  0  0  0  0  0  0  0  0  0
   -0.0028   -1.3844   -0.0007 C   0  0  0  0  0  0  0  0  0  0  0  0
   -0.0071   -2.3874   -0.0023 H   0  0  0  0  0  0  0  0  0  0  0  0
    1.1977   -0.6961   -0.0000 C   0  0  0  0  0  0  0  0  0  0  0  0
    2.0766   -1.1978    0.0016 H   0  0  0  0  0  0  0  0  0  0  0  0
    1.1946    0.6870    0.0008 C   0  0  0  0  0  0  0  0  0  0  0  0
    2.0629    1.1852   -0.0010 H   0  0  0  0  0  0  0  0  0  0  0  0
  1  5  1  0
  5  6  1  0
  5  7  2  0
  1  2  1  0
  1  3  1  0
  1  4  1  0
  8 12  1  0
 12 13  2  0
 13 15  1  0
 15 17  2  0
 17 19  1  0
 19 21  2  0
 21 12  1  0
  8  9  1  0
  8 10  1  0
  8 11  1  0
 13 14  1  0
 15 16  1  0
 17 18  1  0
 19 20  1  0
 21 22  1  0
M  CHG  1   6  -1
M  END
>  <PDB_ID>  (2476) 
pdb6mpr

>  <RESIDUE_NAME>  (2476) 
ASP   PHE

>  <FRAG_NAME>  (2476) 
ACET   MBZ

>  <FRAG_ATOM_NUM>  (2476) 
fragi: 7  fragj: 15

>  <atom.prop.CHAIN_ID>  (2476) 
A A A A A A A Z Z Z Z Z Z Z Z Z Z Z Z Z Z Z

>  <atom.prop.IS_HEAVY_ATOM>  (2476) 
1 0 0 0 1 1 1 1 0 0 0 1 1 0 1 0 1 0 1 0 1 0

>  <DIFUSE_FUNC_ATOM>  (2476) 
atom 6   atom 7   

>  <FINAL_SINGLE_POINT_ENERGY>  (2476) 
0

>  <NONCOV_INTER_ENERGY_QM>  (2476) 
0

>  <FF_Energy>  (2476) 
-1.4

>  <QM_Energy>  (2476) 
-7.27

>  <source>  (2476) 
ACET_MBZ_02

>  <Index>  (2476) 
35684

$$$$
ACET-pdb6ntr-C-ASP-93:MBZ-pdb6ntr-C-PHE-114
     RDKit          3D

 22 21  0  0  0  0  0  0  0  0999 V2000
    3.5587    4.5810    0.5966 C   0  0  0  0  0  0  0  0  0  0  0  0
    3.7953    5.2901    1.2530 H   0  0  0  0  0  0  0  0  0  0  0  0
    2.5713    4.4882    0.5295 H   0  0  0  0  0  0  0  0  0  0  0  0
    3.9335    4.8904   -0.3791 H   0  0  0  0  0  0  0  0  0  0  0  0
    4.1454    3.2717    1.0570 C   0  0  0  0  0  0  0  0  0  0  0  0
    5.2840    3.2672    1.5632 O   0  0  0  0  0  1  0  0  0  0  0  0
    3.4597    2.2413    0.9426 O   0  0  0  0  0  0  0  0  0  0  0  0
    0.0056    2.8950   -0.0003 C   0  0  0  0  0  0  0  0  0  0  0  0
    0.9230    3.1992    0.2144 H   0  0  0  0  0  0  0  0  0  0  0  0
   -0.6420    3.2025    0.6829 H   0  0  0  0  0  0  0  0  0  0  0  0
   -0.2778    3.3474   -0.9506 H   0  0  0  0  0  0  0  0  0  0  0  0
   -0.0001    1.3932   -0.0068 C   0  0  0  0  0  0  0  0  0  0  0  0
   -1.1873    0.6910    0.0071 C   0  0  0  0  0  0  0  0  0  0  0  0
   -2.0568    1.1812    0.0214 H   0  0  0  0  0  0  0  0  0  0  0  0
   -1.1919   -0.6928    0.0000 C   0  0  0  0  0  0  0  0  0  0  0  0
   -2.0716   -1.1867   -0.0033 H   0  0  0  0  0  0  0  0  0  0  0  0
    0.0011   -1.3831   -0.0008 C   0  0  0  0  0  0  0  0  0  0  0  0
   -0.0027   -2.3854   -0.0030 H   0  0  0  0  0  0  0  0  0  0  0  0
    1.1919   -0.6914    0.0000 C   0  0  0  0  0  0  0  0  0  0  0  0
    2.0764   -1.1925    0.0019 H   0  0  0  0  0  0  0  0  0  0  0  0
    1.1863    0.6831    0.0005 C   0  0  0  0  0  0  0  0  0  0  0  0
    2.0592    1.1844    0.0055 H   0  0  0  0  0  0  0  0  0  0  0  0
  1  5  1  0
  5  6  1  0
  5  7  2  0
  1  2  1  0
  1  3  1  0
  1  4  1  0
  8 12  1  0
 12 13  2  0
 13 15  1  0
 15 17  2  0
 17 19  1  0
 19 21  2  0
 21 12  1  0
  8  9  1  0
  8 10  1  0
  8 11  1  0
 13 14  1  0
 15 16  1  0
 17 18  1  0
 19 20  1  0
 21 22  1  0
M  CHG  1   6  -1
M  END
>  <PDB_ID>  (2477) 
pdb6ntr

>  <RESIDUE_NAME>  (2477) 
ASP   PHE

>  <FRAG_NAME>  (2477) 
ACET   MBZ

>  <FRAG_ATOM_NUM>  (2477) 
fragi: 7  fragj: 15

>  <atom.prop.CHAIN_ID>  (2477) 
A A A A A A A Z Z Z Z Z Z Z Z Z Z Z Z Z Z Z

>  <atom.prop.IS_HEAVY_ATOM>  (2477) 
1 0 0 0 1 1 1 1 0 0 0 1 1 0 1 0 1 0 1 0 1 0

>  <DIFUSE_FUNC_ATOM>  (2477) 
atom 6   atom 7   

>  <FINAL_SINGLE_POINT_ENERGY>  (2477) 
0

>  <NONCOV_INTER_ENERGY_QM>  (2477) 
0

>  <FF_Energy>  (2477) 
6.35

>  <QM_Energy>  (2477) 
-6.42

>  <source>  (2477) 
ACET_MBZ_02

>  <Index>  (2477) 
35747

$$$$
ACET-pdb5kvq-A-GLU-100:MBZ-pdb5kvq-A-PHE-127
     RDKit          3D

 22 21  0  0  0  0  0  0  0  0999 V2000
    4.1807    3.8309    3.8047 C   0  0  0  0  0  0  0  0  0  0  0  0
    4.1047    3.0640    4.3933 H   0  0  0  0  0  0  0  0  0  0  0  0
    3.8464    4.6209    4.2565 H   0  0  0  0  0  0  0  0  0  0  0  0
    5.2351    3.9856    3.5759 H   0  0  0  0  0  0  0  0  0  0  0  0
    3.2743    3.5750    2.5982 C   0  0  0  0  0  0  0  0  0  0  0  0
    3.6869    2.9871    1.5660 O   0  0  0  0  0  1  0  0  0  0  0  0
    2.0796    3.9539    2.7200 O   0  0  0  0  0  0  0  0  0  0  0  0
   -0.0030    2.8887   -0.0377 C   0  0  0  0  0  0  0  0  0  0  0  0
    0.7798    3.2010    0.4428 H   0  0  0  0  0  0  0  0  0  0  0  0
   -0.8081    3.1950    0.4088 H   0  0  0  0  0  0  0  0  0  0  0  0
    0.0173    3.2965   -1.0483 H   0  0  0  0  0  0  0  0  0  0  0  0
    0.0017    1.4016   -0.0049 C   0  0  0  0  0  0  0  0  0  0  0  0
   -1.1967    0.6791    0.0019 C   0  0  0  0  0  0  0  0  0  0  0  0
   -2.0091    1.1317   -0.0081 H   0  0  0  0  0  0  0  0  0  0  0  0
   -1.1811   -0.7111   -0.0000 C   0  0  0  0  0  0  0  0  0  0  0  0
   -1.9811   -1.1860    0.0100 H   0  0  0  0  0  0  0  0  0  0  0  0
   -0.0020   -1.3706    0.0072 C   0  0  0  0  0  0  0  0  0  0  0  0
    0.0039   -2.3006    0.0164 H   0  0  0  0  0  0  0  0  0  0  0  0
    1.1811   -0.6902   -0.0000 C   0  0  0  0  0  0  0  0  0  0  0  0
    1.9843   -1.1599    0.0049 H   0  0  0  0  0  0  0  0  0  0  0  0
    1.1969    0.6912   -0.0042 C   0  0  0  0  0  0  0  0  0  0  0  0
    2.0070    1.1470   -0.0139 H   0  0  0  0  0  0  0  0  0  0  0  0
  1  5  1  0
  5  6  1  0
  5  7  2  0
  1  2  1  0
  1  3  1  0
  1  4  1  0
  8 12  1  0
 12 13  2  0
 13 15  1  0
 15 17  2  0
 17 19  1  0
 19 21  2  0
 21 12  1  0
  8  9  1  0
  8 10  1  0
  8 11  1  0
 13 14  1  0
 15 16  1  0
 17 18  1  0
 19 20  1  0
 21 22  1  0
M  CHG  1   6  -1
M  END
>  <PDB_ID>  (2478) 
pdb5kvq

>  <RESIDUE_NAME>  (2478) 
GLU   PHE

>  <FRAG_NAME>  (2478) 
ACET   MBZ

>  <FRAG_ATOM_NUM>  (2478) 
fragi: 7  fragj: 15

>  <atom.prop.CHAIN_ID>  (2478) 
A A A A A A A Z Z Z Z Z Z Z Z Z Z Z Z Z Z Z

>  <atom.prop.IS_HEAVY_ATOM>  (2478) 
1 0 0 0 1 1 1 1 0 0 0 1 1 0 1 0 1 0 1 0 1 0

>  <DIFUSE_FUNC_ATOM>  (2478) 
atom 6   atom 7   

>  <FINAL_SINGLE_POINT_ENERGY>  (2478) 
0

>  <NONCOV_INTER_ENERGY_QM>  (2478) 
0

>  <FF_Energy>  (2478) 
-1.71

>  <QM_Energy>  (2478) 
-7.27

>  <source>  (2478) 
ACET_MBZ_02

>  <Index>  (2478) 
35750

$$$$
ACET-pdb6ntr-D-GLU-100:MBZ-pdb6ntr-D-PHE-107
     RDKit          3D

 22 21  0  0  0  0  0  0  0  0999 V2000
   -3.9096    0.1919   -1.4965 C   0  0  0  0  0  0  0  0  0  0  0  0
   -3.0060    0.4500   -1.1877 H   0  0  0  0  0  0  0  0  0  0  0  0
   -4.4193   -0.2528   -0.7745 H   0  0  0  0  0  0  0  0  0  0  0  0
   -4.4412    1.1032   -1.7705 H   0  0  0  0  0  0  0  0  0  0  0  0
   -3.7679   -0.7537   -2.6187 C   0  0  0  0  0  0  0  0  0  0  0  0
   -3.7454   -1.9731   -2.3923 O   0  0  0  0  0  1  0  0  0  0  0  0
   -3.6614   -0.2607   -3.7425 O   0  0  0  0  0  0  0  0  0  0  0  0
    0.0252    2.8658   -0.0076 C   0  0  0  0  0  0  0  0  0  0  0  0
   -0.2228    3.1715   -0.9218 H   0  0  0  0  0  0  0  0  0  0  0  0
    0.9478    3.1658    0.2168 H   0  0  0  0  0  0  0  0  0  0  0  0
   -0.6549    3.3489    0.6939 H   0  0  0  0  0  0  0  0  0  0  0  0
    0.0005    1.3775    0.0102 C   0  0  0  0  0  0  0  0  0  0  0  0
   -1.1736    0.6921   -0.0046 C   0  0  0  0  0  0  0  0  0  0  0  0
   -2.0461    1.1845   -0.0200 H   0  0  0  0  0  0  0  0  0  0  0  0
   -1.1800   -0.6779    0.0000 C   0  0  0  0  0  0  0  0  0  0  0  0
   -2.0669   -1.1720    0.0091 H   0  0  0  0  0  0  0  0  0  0  0  0
   -0.0028   -1.3715   -0.0054 C   0  0  0  0  0  0  0  0  0  0  0  0
   -0.0144   -2.3775   -0.0133 H   0  0  0  0  0  0  0  0  0  0  0  0
    1.1800   -0.6936   -0.0000 C   0  0  0  0  0  0  0  0  0  0  0  0
    2.0657   -1.1958    0.0057 H   0  0  0  0  0  0  0  0  0  0  0  0
    1.1759    0.6734   -0.0002 C   0  0  0  0  0  0  0  0  0  0  0  0
    2.0528    1.1739   -0.0085 H   0  0  0  0  0  0  0  0  0  0  0  0
  1  5  1  0
  5  6  1  0
  5  7  2  0
  1  2  1  0
  1  3  1  0
  1  4  1  0
  8 12  1  0
 12 13  2  0
 13 15  1  0
 15 17  2  0
 17 19  1  0
 19 21  2  0
 21 12  1  0
  8  9  1  0
  8 10  1  0
  8 11  1  0
 13 14  1  0
 15 16  1  0
 17 18  1  0
 19 20  1  0
 21 22  1  0
M  CHG  1   6  -1
M  END
>  <PDB_ID>  (2479) 
pdb6ntr

>  <RESIDUE_NAME>  (2479) 
GLU   PHE

>  <FRAG_NAME>  (2479) 
ACET   MBZ

>  <FRAG_ATOM_NUM>  (2479) 
fragi: 7  fragj: 15

>  <atom.prop.CHAIN_ID>  (2479) 
A A A A A A A Z Z Z Z Z Z Z Z Z Z Z Z Z Z Z

>  <atom.prop.IS_HEAVY_ATOM>  (2479) 
1 0 0 0 1 1 1 1 0 0 0 1 1 0 1 0 1 0 1 0 1 0

>  <DIFUSE_FUNC_ATOM>  (2479) 
atom 6   atom 7   

>  <FINAL_SINGLE_POINT_ENERGY>  (2479) 
0

>  <NONCOV_INTER_ENERGY_QM>  (2479) 
0

>  <FF_Energy>  (2479) 
14.32

>  <QM_Energy>  (2479) 
1.77

>  <source>  (2479) 
ACET_MBZ_02

>  <Index>  (2479) 
35752

$$$$
ACET-pdb6nvx-A-GLU-69:MBZ-pdb6nvx-B-PHE-122
     RDKit          3D

 22 21  0  0  0  0  0  0  0  0999 V2000
    4.9296    1.7324   -1.8920 C   0  0  0  0  0  0  0  0  0  0  0  0
    4.5122    0.9460   -1.5069 H   0  0  0  0  0  0  0  0  0  0  0  0
    5.4559    2.1930   -1.2202 H   0  0  0  0  0  0  0  0  0  0  0  0
    5.5871    1.4208   -2.7036 H   0  0  0  0  0  0  0  0  0  0  0  0
    3.8243    2.6729   -2.3422 C   0  0  0  0  0  0  0  0  0  0  0  0
    4.0521    3.4411   -3.3004 O   0  0  0  0  0  1  0  0  0  0  0  0
    2.7290    2.6468   -1.7382 O   0  0  0  0  0  0  0  0  0  0  0  0
    0.0061    2.8702   -0.0275 C   0  0  0  0  0  0  0  0  0  0  0  0
   -0.6929    3.1536   -0.6376 H   0  0  0  0  0  0  0  0  0  0  0  0
    0.8716    3.1583   -0.3562 H   0  0  0  0  0  0  0  0  0  0  0  0
   -0.1696    3.3351    0.9425 H   0  0  0  0  0  0  0  0  0  0  0  0
    0.0055    1.3921   -0.0024 C   0  0  0  0  0  0  0  0  0  0  0  0
   -1.1888    0.6835    0.0074 C   0  0  0  0  0  0  0  0  0  0  0  0
   -1.9955    1.1458    0.0180 H   0  0  0  0  0  0  0  0  0  0  0  0
   -1.1979   -0.7015   -0.0000 C   0  0  0  0  0  0  0  0  0  0  0  0
   -2.0041   -1.1639   -0.0152 H   0  0  0  0  0  0  0  0  0  0  0  0
   -0.0143   -1.3840    0.0136 C   0  0  0  0  0  0  0  0  0  0  0  0
   -0.0147   -2.3139    0.0325 H   0  0  0  0  0  0  0  0  0  0  0  0
    1.1979   -0.6853    0.0000 C   0  0  0  0  0  0  0  0  0  0  0  0
    2.0040   -1.1498    0.0031 H   0  0  0  0  0  0  0  0  0  0  0  0
    1.1977    0.6953   -0.0185 C   0  0  0  0  0  0  0  0  0  0  0  0
    2.0042    1.1571   -0.0430 H   0  0  0  0  0  0  0  0  0  0  0  0
  1  5  1  0
  5  6  1  0
  5  7  2  0
  1  2  1  0
  1  3  1  0
  1  4  1  0
  8 12  1  0
 12 13  2  0
 13 15  1  0
 15 17  2  0
 17 19  1  0
 19 21  2  0
 21 12  1  0
  8  9  1  0
  8 10  1  0
  8 11  1  0
 13 14  1  0
 15 16  1  0
 17 18  1  0
 19 20  1  0
 21 22  1  0
M  CHG  1   6  -1
M  END
>  <PDB_ID>  (2480) 
pdb6nvx

>  <RESIDUE_NAME>  (2480) 
GLU   PHE

>  <FRAG_NAME>  (2480) 
ACET   MBZ

>  <FRAG_ATOM_NUM>  (2480) 
fragi: 7  fragj: 15

>  <atom.prop.CHAIN_ID>  (2480) 
A A A A A A A Z Z Z Z Z Z Z Z Z Z Z Z Z Z Z

>  <atom.prop.IS_HEAVY_ATOM>  (2480) 
1 0 0 0 1 1 1 1 0 0 0 1 1 0 1 0 1 0 1 0 1 0

>  <DIFUSE_FUNC_ATOM>  (2480) 
atom 6   atom 7   

>  <FINAL_SINGLE_POINT_ENERGY>  (2480) 
0

>  <NONCOV_INTER_ENERGY_QM>  (2480) 
0

>  <FF_Energy>  (2480) 
0.2

>  <QM_Energy>  (2480) 
-6.81

>  <source>  (2480) 
ACET_MBZ_02

>  <Index>  (2480) 
35799

$$$$
ACET-pdb5kx4-B-GLU-93:MBZ-pdb5kx4-B-PHE-2
     RDKit          3D

 22 21  0  0  0  0  0  0  0  0999 V2000
   -3.2197    5.2030   -0.4349 C   0  0  0  0  0  0  0  0  0  0  0  0
   -3.7385    5.9412   -0.8293 H   0  0  0  0  0  0  0  0  0  0  0  0
   -3.3666    5.1268    0.5362 H   0  0  0  0  0  0  0  0  0  0  0  0
   -3.5401    4.2727   -0.9038 H   0  0  0  0  0  0  0  0  0  0  0  0
   -1.7670    5.4898   -0.6594 C   0  0  0  0  0  0  0  0  0  0  0  0
   -1.1897    4.8884   -1.5419 O   0  0  0  0  0  1  0  0  0  0  0  0
   -1.1731    6.3129    0.0383 O   0  0  0  0  0  0  0  0  0  0  0  0
    0.0047    2.8714   -0.0130 C   0  0  0  0  0  0  0  0  0  0  0  0
   -0.7922    3.1762   -0.5166 H   0  0  0  0  0  0  0  0  0  0  0  0
    0.8397    3.1707   -0.4556 H   0  0  0  0  0  0  0  0  0  0  0  0
   -0.0311    3.3273    0.9764 H   0  0  0  0  0  0  0  0  0  0  0  0
   -0.0006    1.3721    0.0008 C   0  0  0  0  0  0  0  0  0  0  0  0
   -1.1648    0.6877   -0.0083 C   0  0  0  0  0  0  0  0  0  0  0  0
   -2.0421    1.1801   -0.0221 H   0  0  0  0  0  0  0  0  0  0  0  0
   -1.1693   -0.6734   -0.0000 C   0  0  0  0  0  0  0  0  0  0  0  0
   -2.0590   -1.1703    0.0017 H   0  0  0  0  0  0  0  0  0  0  0  0
    0.0012   -1.3622    0.0082 C   0  0  0  0  0  0  0  0  0  0  0  0
   -0.0129   -2.3709    0.0197 H   0  0  0  0  0  0  0  0  0  0  0  0
    1.1693   -0.6903    0.0000 C   0  0  0  0  0  0  0  0  0  0  0  0
    2.0605   -1.1924   -0.0045 H   0  0  0  0  0  0  0  0  0  0  0  0
    1.1642    0.6661   -0.0007 C   0  0  0  0  0  0  0  0  0  0  0  0
    2.0459    1.1676   -0.0028 H   0  0  0  0  0  0  0  0  0  0  0  0
  1  5  1  0
  5  6  1  0
  5  7  2  0
  1  2  1  0
  1  3  1  0
  1  4  1  0
  8 12  1  0
 12 13  2  0
 13 15  1  0
 15 17  2  0
 17 19  1  0
 19 21  2  0
 21 12  1  0
  8  9  1  0
  8 10  1  0
  8 11  1  0
 13 14  1  0
 15 16  1  0
 17 18  1  0
 19 20  1  0
 21 22  1  0
M  CHG  1   6  -1
M  END
>  <PDB_ID>  (2481) 
pdb5kx4

>  <RESIDUE_NAME>  (2481) 
GLU   PHE

>  <FRAG_NAME>  (2481) 
ACET   MBZ

>  <FRAG_ATOM_NUM>  (2481) 
fragi: 7  fragj: 15

>  <atom.prop.CHAIN_ID>  (2481) 
A A A A A A A Z Z Z Z Z Z Z Z Z Z Z Z Z Z Z

>  <atom.prop.IS_HEAVY_ATOM>  (2481) 
1 0 0 0 1 1 1 1 0 0 0 1 1 0 1 0 1 0 1 0 1 0

>  <DIFUSE_FUNC_ATOM>  (2481) 
atom 6   atom 7   

>  <FINAL_SINGLE_POINT_ENERGY>  (2481) 
0

>  <NONCOV_INTER_ENERGY_QM>  (2481) 
0

>  <FF_Energy>  (2481) 
6.7

>  <QM_Energy>  (2481) 
-3.21

>  <source>  (2481) 
ACET_MBZ_02

>  <Index>  (2481) 
35823

$$$$
ACET-pdb6ntr-B-ASP-93:MBZ-pdb6ntr-B-PHE-114
     RDKit          3D

 22 21  0  0  0  0  0  0  0  0999 V2000
    3.4243    4.8595    0.9501 C   0  0  0  0  0  0  0  0  0  0  0  0
    3.7352    5.5624    1.5832 H   0  0  0  0  0  0  0  0  0  0  0  0
    2.4314    4.8016    0.9616 H   0  0  0  0  0  0  0  0  0  0  0  0
    3.7334    5.1506   -0.0538 H   0  0  0  0  0  0  0  0  0  0  0  0
    3.9972    3.5379    1.3663 C   0  0  0  0  0  0  0  0  0  0  0  0
    5.2285    3.4383    1.5206 O   0  0  0  0  0  1  0  0  0  0  0  0
    3.2098    2.5951    1.5561 O   0  0  0  0  0  0  0  0  0  0  0  0
   -0.0031    2.8881   -0.0020 C   0  0  0  0  0  0  0  0  0  0  0  0
    0.9218    3.1973    0.1635 H   0  0  0  0  0  0  0  0  0  0  0  0
   -0.6165    3.1940    0.7112 H   0  0  0  0  0  0  0  0  0  0  0  0
   -0.3384    3.3290   -0.9407 H   0  0  0  0  0  0  0  0  0  0  0  0
   -0.0008    1.3914   -0.0050 C   0  0  0  0  0  0  0  0  0  0  0  0
   -1.1908    0.6905    0.0034 C   0  0  0  0  0  0  0  0  0  0  0  0
   -2.0582    1.1845    0.0103 H   0  0  0  0  0  0  0  0  0  0  0  0
   -1.1932   -0.6860   -0.0000 C   0  0  0  0  0  0  0  0  0  0  0  0
   -2.0721   -1.1852   -0.0026 H   0  0  0  0  0  0  0  0  0  0  0  0
    0.0023   -1.3825    0.0019 C   0  0  0  0  0  0  0  0  0  0  0  0
   -0.0092   -2.3853    0.0040 H   0  0  0  0  0  0  0  0  0  0  0  0
    1.1932   -0.6976    0.0000 C   0  0  0  0  0  0  0  0  0  0  0  0
    2.0770   -1.1955   -0.0000 H   0  0  0  0  0  0  0  0  0  0  0  0
    1.1894    0.6842   -0.0003 C   0  0  0  0  0  0  0  0  0  0  0  0
    2.0596    1.1818    0.0024 H   0  0  0  0  0  0  0  0  0  0  0  0
  1  5  1  0
  5  6  1  0
  5  7  2  0
  1  2  1  0
  1  3  1  0
  1  4  1  0
  8 12  1  0
 12 13  2  0
 13 15  1  0
 15 17  2  0
 17 19  1  0
 19 21  2  0
 21 12  1  0
  8  9  1  0
  8 10  1  0
  8 11  1  0
 13 14  1  0
 15 16  1  0
 17 18  1  0
 19 20  1  0
 21 22  1  0
M  CHG  1   6  -1
M  END
>  <PDB_ID>  (2482) 
pdb6ntr

>  <RESIDUE_NAME>  (2482) 
ASP   PHE

>  <FRAG_NAME>  (2482) 
ACET   MBZ

>  <FRAG_ATOM_NUM>  (2482) 
fragi: 7  fragj: 15

>  <atom.prop.CHAIN_ID>  (2482) 
A A A A A A A Z Z Z Z Z Z Z Z Z Z Z Z Z Z Z

>  <atom.prop.IS_HEAVY_ATOM>  (2482) 
1 0 0 0 1 1 1 1 0 0 0 1 1 0 1 0 1 0 1 0 1 0

>  <DIFUSE_FUNC_ATOM>  (2482) 
atom 6   atom 7   

>  <FINAL_SINGLE_POINT_ENERGY>  (2482) 
0

>  <NONCOV_INTER_ENERGY_QM>  (2482) 
0

>  <FF_Energy>  (2482) 
-1.44

>  <QM_Energy>  (2482) 
-6.63

>  <source>  (2482) 
ACET_MBZ_02

>  <Index>  (2482) 
35848

$$$$
ACET-pdb6nzj-A-GLU-191:MBZ-pdb6nzj-A-PHE-268
     RDKit          3D

 22 21  0  0  0  0  0  0  0  0999 V2000
    3.9941   -2.4952   -0.2302 C   0  0  0  0  0  0  0  0  0  0  0  0
    3.0498   -2.2289   -0.2797 H   0  0  0  0  0  0  0  0  0  0  0  0
    4.1231   -3.4506   -0.4215 H   0  0  0  0  0  0  0  0  0  0  0  0
    4.5497   -1.9195   -0.9704 H   0  0  0  0  0  0  0  0  0  0  0  0
    4.4631   -2.2502    1.2061 C   0  0  0  0  0  0  0  0  0  0  0  0
    5.3167   -1.3600    1.4259 O   0  0  0  0  0  1  0  0  0  0  0  0
    3.9474   -2.9272    2.1202 O   0  0  0  0  0  0  0  0  0  0  0  0
   -0.0041    2.8872    0.0218 C   0  0  0  0  0  0  0  0  0  0  0  0
   -0.7469    3.2053   -0.5441 H   0  0  0  0  0  0  0  0  0  0  0  0
    0.8686    3.2051   -0.3108 H   0  0  0  0  0  0  0  0  0  0  0  0
   -0.1483    3.2956    1.0220 H   0  0  0  0  0  0  0  0  0  0  0  0
    0.0003    1.3941   -0.0054 C   0  0  0  0  0  0  0  0  0  0  0  0
   -1.1937    0.6864    0.0065 C   0  0  0  0  0  0  0  0  0  0  0  0
   -2.0606    1.1832    0.0182 H   0  0  0  0  0  0  0  0  0  0  0  0
   -1.1999   -0.6909    0.0000 C   0  0  0  0  0  0  0  0  0  0  0  0
   -2.0771   -1.1900    0.0003 H   0  0  0  0  0  0  0  0  0  0  0  0
   -0.0009   -1.3908   -0.0046 C   0  0  0  0  0  0  0  0  0  0  0  0
   -0.0053   -2.3880   -0.0120 H   0  0  0  0  0  0  0  0  0  0  0  0
    1.1999   -0.6929   -0.0000 C   0  0  0  0  0  0  0  0  0  0  0  0
    2.0809   -1.1922    0.0023 H   0  0  0  0  0  0  0  0  0  0  0  0
    1.1943    0.6942    0.0035 C   0  0  0  0  0  0  0  0  0  0  0  0
    2.0622    1.1916    0.0118 H   0  0  0  0  0  0  0  0  0  0  0  0
  1  5  1  0
  5  6  1  0
  5  7  2  0
  1  2  1  0
  1  3  1  0
  1  4  1  0
  8 12  1  0
 12 13  2  0
 13 15  1  0
 15 17  2  0
 17 19  1  0
 19 21  2  0
 21 12  1  0
  8  9  1  0
  8 10  1  0
  8 11  1  0
 13 14  1  0
 15 16  1  0
 17 18  1  0
 19 20  1  0
 21 22  1  0
M  CHG  1   6  -1
M  END
>  <PDB_ID>  (2483) 
pdb6nzj

>  <RESIDUE_NAME>  (2483) 
GLU   PHE

>  <FRAG_NAME>  (2483) 
ACET   MBZ

>  <FRAG_ATOM_NUM>  (2483) 
fragi: 7  fragj: 15

>  <atom.prop.CHAIN_ID>  (2483) 
A A A A A A A Z Z Z Z Z Z Z Z Z Z Z Z Z Z Z

>  <atom.prop.IS_HEAVY_ATOM>  (2483) 
1 0 0 0 1 1 1 1 0 0 0 1 1 0 1 0 1 0 1 0 1 0

>  <DIFUSE_FUNC_ATOM>  (2483) 
atom 6   atom 7   

>  <FINAL_SINGLE_POINT_ENERGY>  (2483) 
0

>  <NONCOV_INTER_ENERGY_QM>  (2483) 
0

>  <FF_Energy>  (2483) 
48.69

>  <QM_Energy>  (2483) 
2.69

>  <source>  (2483) 
ACET_MBZ_02

>  <Index>  (2483) 
35921

$$$$
ACET-pdb5kf6-B-GLU-671:MBZ-pdb5kf6-B-PHE-708
     RDKit          3D

 22 21  0  0  0  0  0  0  0  0999 V2000
   -4.5446    4.7876    2.5452 C   0  0  0  0  0  0  0  0  0  0  0  0
   -5.1174    5.2669    1.9099 H   0  0  0  0  0  0  0  0  0  0  0  0
   -4.1725    5.3736    3.2373 H   0  0  0  0  0  0  0  0  0  0  0  0
   -5.1446    4.0195    3.0332 H   0  0  0  0  0  0  0  0  0  0  0  0
   -3.4008    4.1904    1.7797 C   0  0  0  0  0  0  0  0  0  0  0  0
   -3.4305    2.9596    1.5148 O   0  0  0  0  0  1  0  0  0  0  0  0
   -2.4753    4.9548    1.4441 O   0  0  0  0  0  0  0  0  0  0  0  0
    0.0263    2.9168    0.0053 C   0  0  0  0  0  0  0  0  0  0  0  0
    0.9332    3.2036   -0.2658 H   0  0  0  0  0  0  0  0  0  0  0  0
   -0.1868    3.2207    0.9227 H   0  0  0  0  0  0  0  0  0  0  0  0
   -0.6908    3.3733   -0.6770 H   0  0  0  0  0  0  0  0  0  0  0  0
    0.0058    1.4003    0.0073 C   0  0  0  0  0  0  0  0  0  0  0  0
   -1.1899    0.6945   -0.0034 C   0  0  0  0  0  0  0  0  0  0  0  0
   -2.0562    1.1871   -0.0149 H   0  0  0  0  0  0  0  0  0  0  0  0
   -1.1984   -0.6943    0.0000 C   0  0  0  0  0  0  0  0  0  0  0  0
   -2.0823   -1.1818    0.0007 H   0  0  0  0  0  0  0  0  0  0  0  0
   -0.0111   -1.3922    0.0043 C   0  0  0  0  0  0  0  0  0  0  0  0
   -0.0121   -2.3912    0.0102 H   0  0  0  0  0  0  0  0  0  0  0  0
    1.1984   -0.6977   -0.0000 C   0  0  0  0  0  0  0  0  0  0  0  0
    2.0744   -1.2009    0.0043 H   0  0  0  0  0  0  0  0  0  0  0  0
    1.1952    0.6895   -0.0081 C   0  0  0  0  0  0  0  0  0  0  0  0
    2.0674    1.1847   -0.0260 H   0  0  0  0  0  0  0  0  0  0  0  0
  1  5  1  0
  5  6  1  0
  5  7  2  0
  1  2  1  0
  1  3  1  0
  1  4  1  0
  8 12  1  0
 12 13  2  0
 13 15  1  0
 15 17  2  0
 17 19  1  0
 19 21  2  0
 21 12  1  0
  8  9  1  0
  8 10  1  0
  8 11  1  0
 13 14  1  0
 15 16  1  0
 17 18  1  0
 19 20  1  0
 21 22  1  0
M  CHG  1   6  -1
M  END
>  <PDB_ID>  (2484) 
pdb5kf6

>  <RESIDUE_NAME>  (2484) 
GLU   PHE

>  <FRAG_NAME>  (2484) 
ACET   MBZ

>  <FRAG_ATOM_NUM>  (2484) 
fragi: 7  fragj: 15

>  <atom.prop.CHAIN_ID>  (2484) 
A A A A A A A Z Z Z Z Z Z Z Z Z Z Z Z Z Z Z

>  <atom.prop.IS_HEAVY_ATOM>  (2484) 
1 0 0 0 1 1 1 1 0 0 0 1 1 0 1 0 1 0 1 0 1 0

>  <DIFUSE_FUNC_ATOM>  (2484) 
atom 6   atom 7   

>  <FINAL_SINGLE_POINT_ENERGY>  (2484) 
0

>  <NONCOV_INTER_ENERGY_QM>  (2484) 
0

>  <FF_Energy>  (2484) 
-2.07

>  <QM_Energy>  (2484) 
-7.46

>  <source>  (2484) 
ACET_MBZ_02

>  <Index>  (2484) 
35997

$$$$
ACET-pdb6nlp-B-GLU-360:MBZ-pdb6nlp-B-PHE-364
     RDKit          3D

 22 21  0  0  0  0  0  0  0  0999 V2000
    4.4847    0.9311   -0.5225 C   0  0  0  0  0  0  0  0  0  0  0  0
    4.0526    1.6895   -0.0714 H   0  0  0  0  0  0  0  0  0  0  0  0
    4.0042    0.6555   -1.3345 H   0  0  0  0  0  0  0  0  0  0  0  0
    5.5007    1.2175   -0.7944 H   0  0  0  0  0  0  0  0  0  0  0  0
    4.4600   -0.2404    0.4370 C   0  0  0  0  0  0  0  0  0  0  0  0
    4.7201   -0.0230    1.6403 O   0  0  0  0  0  1  0  0  0  0  0  0
    4.1921   -1.3805   -0.0138 O   0  0  0  0  0  0  0  0  0  0  0  0
    0.0069    2.8967   -0.0213 C   0  0  0  0  0  0  0  0  0  0  0  0
    0.9301    3.2026    0.1468 H   0  0  0  0  0  0  0  0  0  0  0  0
   -0.6139    3.2121    0.6786 H   0  0  0  0  0  0  0  0  0  0  0  0
   -0.3176    3.3262   -0.9691 H   0  0  0  0  0  0  0  0  0  0  0  0
    0.0024    1.3958   -0.0095 C   0  0  0  0  0  0  0  0  0  0  0  0
   -1.1822    0.6944    0.0051 C   0  0  0  0  0  0  0  0  0  0  0  0
   -2.0543    1.1791    0.0185 H   0  0  0  0  0  0  0  0  0  0  0  0
   -1.1864   -0.6970   -0.0000 C   0  0  0  0  0  0  0  0  0  0  0  0
   -2.0733   -1.1825   -0.0065 H   0  0  0  0  0  0  0  0  0  0  0  0
   -0.0062   -1.3854    0.0062 C   0  0  0  0  0  0  0  0  0  0  0  0
   -0.0078   -2.3897    0.0151 H   0  0  0  0  0  0  0  0  0  0  0  0
    1.1864   -0.6978    0.0000 C   0  0  0  0  0  0  0  0  0  0  0  0
    2.0709   -1.1961   -0.0017 H   0  0  0  0  0  0  0  0  0  0  0  0
    1.1860    0.6900   -0.0018 C   0  0  0  0  0  0  0  0  0  0  0  0
    2.0605    1.1810    0.0021 H   0  0  0  0  0  0  0  0  0  0  0  0
  1  5  1  0
  5  6  1  0
  5  7  2  0
  1  2  1  0
  1  3  1  0
  1  4  1  0
  8 12  1  0
 12 13  2  0
 13 15  1  0
 15 17  2  0
 17 19  1  0
 19 21  2  0
 21 12  1  0
  8  9  1  0
  8 10  1  0
  8 11  1  0
 13 14  1  0
 15 16  1  0
 17 18  1  0
 19 20  1  0
 21 22  1  0
M  CHG  1   6  -1
M  END
>  <PDB_ID>  (2485) 
pdb6nlp

>  <RESIDUE_NAME>  (2485) 
GLU   PHE

>  <FRAG_NAME>  (2485) 
ACET   MBZ

>  <FRAG_ATOM_NUM>  (2485) 
fragi: 7  fragj: 15

>  <atom.prop.CHAIN_ID>  (2485) 
A A A A A A A Z Z Z Z Z Z Z Z Z Z Z Z Z Z Z

>  <atom.prop.IS_HEAVY_ATOM>  (2485) 
1 0 0 0 1 1 1 1 0 0 0 1 1 0 1 0 1 0 1 0 1 0

>  <DIFUSE_FUNC_ATOM>  (2485) 
atom 6   atom 7   

>  <FINAL_SINGLE_POINT_ENERGY>  (2485) 
0

>  <NONCOV_INTER_ENERGY_QM>  (2485) 
0

>  <FF_Energy>  (2485) 
3.0

>  <QM_Energy>  (2485) 
-5.3

>  <source>  (2485) 
ACET_MBZ_02

>  <Index>  (2485) 
36017

$$$$
ACET-pdb6o60-B-GLU-81:MBZ-pdb6o60-C-PHE-60
     RDKit          3D

 22 21  0  0  0  0  0  0  0  0999 V2000
    2.6441    4.0979    3.8522 C   0  0  0  0  0  0  0  0  0  0  0  0
    2.8970    4.3051    4.7768 H   0  0  0  0  0  0  0  0  0  0  0  0
    2.5331    4.9037    3.3030 H   0  0  0  0  0  0  0  0  0  0  0  0
    3.4295    3.4843    3.4109 H   0  0  0  0  0  0  0  0  0  0  0  0
    1.3144    3.3809    3.8888 C   0  0  0  0  0  0  0  0  0  0  0  0
    0.4900    3.6355    2.9822 O   0  0  0  0  0  1  0  0  0  0  0  0
    1.0955    2.5630    4.8160 O   0  0  0  0  0  0  0  0  0  0  0  0
    0.0328    2.9202   -0.0062 C   0  0  0  0  0  0  0  0  0  0  0  0
    0.4994    3.2080   -0.8314 H   0  0  0  0  0  0  0  0  0  0  0  0
    0.5265    3.2121    0.8018 H   0  0  0  0  0  0  0  0  0  0  0  0
   -0.9469    3.3977    0.0092 H   0  0  0  0  0  0  0  0  0  0  0  0
    0.0006    1.4021   -0.0018 C   0  0  0  0  0  0  0  0  0  0  0  0
   -1.1930    0.6909    0.0002 C   0  0  0  0  0  0  0  0  0  0  0  0
   -2.0616    1.1800   -0.0000 H   0  0  0  0  0  0  0  0  0  0  0  0
   -1.1950   -0.6973   -0.0000 C   0  0  0  0  0  0  0  0  0  0  0  0
   -2.0729   -1.1912   -0.0001 H   0  0  0  0  0  0  0  0  0  0  0  0
    0.0011   -1.3882    0.0013 C   0  0  0  0  0  0  0  0  0  0  0  0
   -0.0024   -2.3895    0.0023 H   0  0  0  0  0  0  0  0  0  0  0  0
    1.1950   -0.6958    0.0000 C   0  0  0  0  0  0  0  0  0  0  0  0
    2.0792   -1.1947    0.0003 H   0  0  0  0  0  0  0  0  0  0  0  0
    1.1912    0.6883    0.0003 C   0  0  0  0  0  0  0  0  0  0  0  0
    2.0635    1.1857    0.0014 H   0  0  0  0  0  0  0  0  0  0  0  0
  1  5  1  0
  5  6  1  0
  5  7  2  0
  1  2  1  0
  1  3  1  0
  1  4  1  0
  8 12  1  0
 12 13  2  0
 13 15  1  0
 15 17  2  0
 17 19  1  0
 19 21  2  0
 21 12  1  0
  8  9  1  0
  8 10  1  0
  8 11  1  0
 13 14  1  0
 15 16  1  0
 17 18  1  0
 19 20  1  0
 21 22  1  0
M  CHG  1   6  -1
M  END
>  <PDB_ID>  (2486) 
pdb6o60

>  <RESIDUE_NAME>  (2486) 
GLU   PHE

>  <FRAG_NAME>  (2486) 
ACET   MBZ

>  <FRAG_ATOM_NUM>  (2486) 
fragi: 7  fragj: 15

>  <atom.prop.CHAIN_ID>  (2486) 
A A A A A A A Z Z Z Z Z Z Z Z Z Z Z Z Z Z Z

>  <atom.prop.IS_HEAVY_ATOM>  (2486) 
1 0 0 0 1 1 1 1 0 0 0 1 1 0 1 0 1 0 1 0 1 0

>  <DIFUSE_FUNC_ATOM>  (2486) 
atom 6   atom 7   

>  <FINAL_SINGLE_POINT_ENERGY>  (2486) 
0

>  <NONCOV_INTER_ENERGY_QM>  (2486) 
0

>  <FF_Energy>  (2486) 
2.19

>  <QM_Energy>  (2486) 
-3.99

>  <source>  (2486) 
ACET_MBZ_02

>  <Index>  (2486) 
36078

$$$$
ACET-pdb5l6z-A-ASP-72:MBZ-pdb5l6z-A-PHE-76
     RDKit          3D

 22 21  0  0  0  0  0  0  0  0999 V2000
    4.4421    5.2535    0.1639 C   0  0  0  0  0  0  0  0  0  0  0  0
    5.3259    5.0270    0.5690 H   0  0  0  0  0  0  0  0  0  0  0  0
    3.9525    5.8876    0.7582 H   0  0  0  0  0  0  0  0  0  0  0  0
    4.6284    5.7594   -0.7834 H   0  0  0  0  0  0  0  0  0  0  0  0
    3.6180    3.9629    0.0493 C   0  0  0  0  0  0  0  0  0  0  0  0
    3.4570    3.3926   -1.0436 O   0  0  0  0  0  1  0  0  0  0  0  0
    3.1767    3.5138    1.1220 O   0  0  0  0  0  0  0  0  0  0  0  0
   -0.0038    2.9056    0.0055 C   0  0  0  0  0  0  0  0  0  0  0  0
    0.8650    3.2146    0.3631 H   0  0  0  0  0  0  0  0  0  0  0  0
   -0.7542    3.2091    0.5731 H   0  0  0  0  0  0  0  0  0  0  0  0
   -0.1334    3.3448   -0.9837 H   0  0  0  0  0  0  0  0  0  0  0  0
    0.0010    1.4035    0.0061 C   0  0  0  0  0  0  0  0  0  0  0  0
   -1.1960    0.6896    0.0028 C   0  0  0  0  0  0  0  0  0  0  0  0
   -2.0642    1.1763    0.0016 H   0  0  0  0  0  0  0  0  0  0  0  0
   -1.1992   -0.7073    0.0000 C   0  0  0  0  0  0  0  0  0  0  0  0
   -2.0783   -1.1967    0.0077 H   0  0  0  0  0  0  0  0  0  0  0  0
   -0.0036   -1.3955   -0.0117 C   0  0  0  0  0  0  0  0  0  0  0  0
    0.0028   -2.3943   -0.0289 H   0  0  0  0  0  0  0  0  0  0  0  0
    1.1992   -0.6922    0.0000 C   0  0  0  0  0  0  0  0  0  0  0  0
    2.0813   -1.1902    0.0080 H   0  0  0  0  0  0  0  0  0  0  0  0
    1.1986    0.7020    0.0028 C   0  0  0  0  0  0  0  0  0  0  0  0
    2.0653    1.1948    0.0016 H   0  0  0  0  0  0  0  0  0  0  0  0
  1  5  1  0
  5  6  1  0
  5  7  2  0
  1  2  1  0
  1  3  1  0
  1  4  1  0
  8 12  1  0
 12 13  2  0
 13 15  1  0
 15 17  2  0
 17 19  1  0
 19 21  2  0
 21 12  1  0
  8  9  1  0
  8 10  1  0
  8 11  1  0
 13 14  1  0
 15 16  1  0
 17 18  1  0
 19 20  1  0
 21 22  1  0
M  CHG  1   6  -1
M  END
>  <PDB_ID>  (2487) 
pdb5l6z

>  <RESIDUE_NAME>  (2487) 
ASP   PHE

>  <FRAG_NAME>  (2487) 
ACET   MBZ

>  <FRAG_ATOM_NUM>  (2487) 
fragi: 7  fragj: 15

>  <atom.prop.CHAIN_ID>  (2487) 
A A A A A A A Z Z Z Z Z Z Z Z Z Z Z Z Z Z Z

>  <atom.prop.IS_HEAVY_ATOM>  (2487) 
1 0 0 0 1 1 1 1 0 0 0 1 1 0 1 0 1 0 1 0 1 0

>  <DIFUSE_FUNC_ATOM>  (2487) 
atom 6   atom 7   

>  <FINAL_SINGLE_POINT_ENERGY>  (2487) 
0

>  <NONCOV_INTER_ENERGY_QM>  (2487) 
0

>  <FF_Energy>  (2487) 
-2.38

>  <QM_Energy>  (2487) 
-9.38

>  <source>  (2487) 
ACET_MBZ_02

>  <Index>  (2487) 
36151

$$$$
ACET-pdb6oew-A-GLU-179:MBZ-pdb6oew-A-PHE-130
     RDKit          3D

 22 21  0  0  0  0  0  0  0  0999 V2000
    4.1565    4.0601   -1.7218 C   0  0  0  0  0  0  0  0  0  0  0  0
    3.2596    4.3526   -1.9745 H   0  0  0  0  0  0  0  0  0  0  0  0
    4.6230    3.5820   -2.4347 H   0  0  0  0  0  0  0  0  0  0  0  0
    4.7410    4.9436   -1.4650 H   0  0  0  0  0  0  0  0  0  0  0  0
    4.0287    3.1295   -0.5430 C   0  0  0  0  0  0  0  0  0  0  0  0
    4.7594    2.1161   -0.4857 O   0  0  0  0  0  1  0  0  0  0  0  0
    3.2210    3.4499    0.3448 O   0  0  0  0  0  0  0  0  0  0  0  0
    0.0054    2.9030   -0.0067 C   0  0  0  0  0  0  0  0  0  0  0  0
   -0.4277    3.1980   -0.8463 H   0  0  0  0  0  0  0  0  0  0  0  0
    0.9487    3.2012    0.0335 H   0  0  0  0  0  0  0  0  0  0  0  0
   -0.5279    3.3623    0.8256 H   0  0  0  0  0  0  0  0  0  0  0  0
   -0.0037    1.3962    0.0129 C   0  0  0  0  0  0  0  0  0  0  0  0
   -1.1914    0.6922   -0.0073 C   0  0  0  0  0  0  0  0  0  0  0  0
   -2.0610    1.1793   -0.0286 H   0  0  0  0  0  0  0  0  0  0  0  0
   -1.1897   -0.6921    0.0000 C   0  0  0  0  0  0  0  0  0  0  0  0
   -2.0684   -1.1902    0.0101 H   0  0  0  0  0  0  0  0  0  0  0  0
    0.0057   -1.3826   -0.0049 C   0  0  0  0  0  0  0  0  0  0  0  0
   -0.0052   -2.3879   -0.0121 H   0  0  0  0  0  0  0  0  0  0  0  0
    1.1897   -0.7002   -0.0000 C   0  0  0  0  0  0  0  0  0  0  0  0
    2.0777   -1.1953    0.0057 H   0  0  0  0  0  0  0  0  0  0  0  0
    1.1895    0.6865   -0.0008 C   0  0  0  0  0  0  0  0  0  0  0  0
    2.0587    1.1821   -0.0121 H   0  0  0  0  0  0  0  0  0  0  0  0
  1  5  1  0
  5  6  1  0
  5  7  2  0
  1  2  1  0
  1  3  1  0
  1  4  1  0
  8 12  1  0
 12 13  2  0
 13 15  1  0
 15 17  2  0
 17 19  1  0
 19 21  2  0
 21 12  1  0
  8  9  1  0
  8 10  1  0
  8 11  1  0
 13 14  1  0
 15 16  1  0
 17 18  1  0
 19 20  1  0
 21 22  1  0
M  CHG  1   6  -1
M  END
>  <PDB_ID>  (2488) 
pdb6oew

>  <RESIDUE_NAME>  (2488) 
GLU   PHE

>  <FRAG_NAME>  (2488) 
ACET   MBZ

>  <FRAG_ATOM_NUM>  (2488) 
fragi: 7  fragj: 15

>  <atom.prop.CHAIN_ID>  (2488) 
A A A A A A A Z Z Z Z Z Z Z Z Z Z Z Z Z Z Z

>  <atom.prop.IS_HEAVY_ATOM>  (2488) 
1 0 0 0 1 1 1 1 0 0 0 1 1 0 1 0 1 0 1 0 1 0

>  <DIFUSE_FUNC_ATOM>  (2488) 
atom 6   atom 7   

>  <FINAL_SINGLE_POINT_ENERGY>  (2488) 
0

>  <NONCOV_INTER_ENERGY_QM>  (2488) 
0

>  <FF_Energy>  (2488) 
-2.23

>  <QM_Energy>  (2488) 
-8.84

>  <source>  (2488) 
ACET_MBZ_02

>  <Index>  (2488) 
36308

$$$$
ACET-pdb6oft-B-GLU-319:MBZ-pdb6oft-B-PHE-494
     RDKit          3D

 22 21  0  0  0  0  0  0  0  0999 V2000
    4.3386    2.6452   -0.4369 C   0  0  0  0  0  0  0  0  0  0  0  0
    3.7385    1.8583   -0.3413 H   0  0  0  0  0  0  0  0  0  0  0  0
    5.1859    2.4945    0.0626 H   0  0  0  0  0  0  0  0  0  0  0  0
    4.5808    2.7612   -1.4932 H   0  0  0  0  0  0  0  0  0  0  0  0
    3.6368    3.8287    0.2144 C   0  0  0  0  0  0  0  0  0  0  0  0
    3.6270    3.8845    1.4650 O   0  0  0  0  0  1  0  0  0  0  0  0
    3.1139    4.7075   -0.5110 O   0  0  0  0  0  0  0  0  0  0  0  0
    0.0010    2.9255   -0.0074 C   0  0  0  0  0  0  0  0  0  0  0  0
    0.0794    3.2186   -0.9523 H   0  0  0  0  0  0  0  0  0  0  0  0
    0.7830    3.2349    0.5203 H   0  0  0  0  0  0  0  0  0  0  0  0
   -0.8861    3.4010    0.4111 H   0  0  0  0  0  0  0  0  0  0  0  0
    0.0011    1.4083    0.0088 C   0  0  0  0  0  0  0  0  0  0  0  0
   -1.1943    0.6916   -0.0077 C   0  0  0  0  0  0  0  0  0  0  0  0
   -2.0629    1.1767   -0.0269 H   0  0  0  0  0  0  0  0  0  0  0  0
   -1.1944   -0.7051    0.0000 C   0  0  0  0  0  0  0  0  0  0  0  0
   -2.0741   -1.1953    0.0070 H   0  0  0  0  0  0  0  0  0  0  0  0
   -0.0003   -1.3932    0.0001 C   0  0  0  0  0  0  0  0  0  0  0  0
   -0.0015   -2.3953   -0.0003 H   0  0  0  0  0  0  0  0  0  0  0  0
    1.1944   -0.6998    0.0000 C   0  0  0  0  0  0  0  0  0  0  0  0
    2.0799   -1.1935    0.0021 H   0  0  0  0  0  0  0  0  0  0  0  0
    1.1936    0.6982   -0.0012 C   0  0  0  0  0  0  0  0  0  0  0  0
    2.0649    1.1883   -0.0100 H   0  0  0  0  0  0  0  0  0  0  0  0
  1  5  1  0
  5  6  1  0
  5  7  2  0
  1  2  1  0
  1  3  1  0
  1  4  1  0
  8 12  1  0
 12 13  2  0
 13 15  1  0
 15 17  2  0
 17 19  1  0
 19 21  2  0
 21 12  1  0
  8  9  1  0
  8 10  1  0
  8 11  1  0
 13 14  1  0
 15 16  1  0
 17 18  1  0
 19 20  1  0
 21 22  1  0
M  CHG  1   6  -1
M  END
>  <PDB_ID>  (2489) 
pdb6oft

>  <RESIDUE_NAME>  (2489) 
GLU   PHE

>  <FRAG_NAME>  (2489) 
ACET   MBZ

>  <FRAG_ATOM_NUM>  (2489) 
fragi: 7  fragj: 15

>  <atom.prop.CHAIN_ID>  (2489) 
A A A A A A A Z Z Z Z Z Z Z Z Z Z Z Z Z Z Z

>  <atom.prop.IS_HEAVY_ATOM>  (2489) 
1 0 0 0 1 1 1 1 0 0 0 1 1 0 1 0 1 0 1 0 1 0

>  <DIFUSE_FUNC_ATOM>  (2489) 
atom 6   atom 7   

>  <FINAL_SINGLE_POINT_ENERGY>  (2489) 
0

>  <NONCOV_INTER_ENERGY_QM>  (2489) 
0

>  <FF_Energy>  (2489) 
0.39

>  <QM_Energy>  (2489) 
-5.08

>  <source>  (2489) 
ACET_MBZ_02

>  <Index>  (2489) 
36359

$$$$
ACET-pdb6ok4-B-GLU-94:MBZ-pdb6ok4-B-PHE-99
     RDKit          3D

 22 21  0  0  0  0  0  0  0  0999 V2000
   -2.5706    4.7009   -2.5158 C   0  0  0  0  0  0  0  0  0  0  0  0
   -1.6103    4.9015   -2.4665 H   0  0  0  0  0  0  0  0  0  0  0  0
   -3.0827    5.1379   -1.8010 H   0  0  0  0  0  0  0  0  0  0  0  0
   -2.9462    5.0577   -3.4748 H   0  0  0  0  0  0  0  0  0  0  0  0
   -2.7352    3.2018   -2.3470 C   0  0  0  0  0  0  0  0  0  0  0  0
   -2.1513    2.4426   -3.1526 O   0  0  0  0  0  1  0  0  0  0  0  0
   -3.4571    2.7831   -1.4143 O   0  0  0  0  0  0  0  0  0  0  0  0
   -0.0083    2.8940   -0.0255 C   0  0  0  0  0  0  0  0  0  0  0  0
   -0.8193    3.1909   -0.5324 H   0  0  0  0  0  0  0  0  0  0  0  0
    0.8132    3.2030   -0.5090 H   0  0  0  0  0  0  0  0  0  0  0  0
   -0.0261    3.3963    0.9417 H   0  0  0  0  0  0  0  0  0  0  0  0
    0.0021    1.3992   -0.0076 C   0  0  0  0  0  0  0  0  0  0  0  0
   -1.1983    0.6921   -0.0082 C   0  0  0  0  0  0  0  0  0  0  0  0
   -2.0630    1.1945   -0.0164 H   0  0  0  0  0  0  0  0  0  0  0  0
   -1.2196   -0.6925   -0.0000 C   0  0  0  0  0  0  0  0  0  0  0  0
   -2.0884   -1.1860   -0.0096 H   0  0  0  0  0  0  0  0  0  0  0  0
   -0.0070   -1.3906    0.0260 C   0  0  0  0  0  0  0  0  0  0  0  0
   -0.0123   -2.3898    0.0622 H   0  0  0  0  0  0  0  0  0  0  0  0
    1.2196   -0.7009    0.0000 C   0  0  0  0  0  0  0  0  0  0  0  0
    2.0851   -1.2011   -0.0101 H   0  0  0  0  0  0  0  0  0  0  0  0
    1.2032    0.6927   -0.0102 C   0  0  0  0  0  0  0  0  0  0  0  0
    2.0689    1.1942   -0.0190 H   0  0  0  0  0  0  0  0  0  0  0  0
  1  5  1  0
  5  6  1  0
  5  7  2  0
  1  2  1  0
  1  3  1  0
  1  4  1  0
  8 12  1  0
 12 13  2  0
 13 15  1  0
 15 17  2  0
 17 19  1  0
 19 21  2  0
 21 12  1  0
  8  9  1  0
  8 10  1  0
  8 11  1  0
 13 14  1  0
 15 16  1  0
 17 18  1  0
 19 20  1  0
 21 22  1  0
M  CHG  1   6  -1
M  END
>  <PDB_ID>  (2490) 
pdb6ok4

>  <RESIDUE_NAME>  (2490) 
GLU   PHE

>  <FRAG_NAME>  (2490) 
ACET   MBZ

>  <FRAG_ATOM_NUM>  (2490) 
fragi: 7  fragj: 15

>  <atom.prop.CHAIN_ID>  (2490) 
A A A A A A A Z Z Z Z Z Z Z Z Z Z Z Z Z Z Z

>  <atom.prop.IS_HEAVY_ATOM>  (2490) 
1 0 0 0 1 1 1 1 0 0 0 1 1 0 1 0 1 0 1 0 1 0

>  <DIFUSE_FUNC_ATOM>  (2490) 
atom 6   atom 7   

>  <FINAL_SINGLE_POINT_ENERGY>  (2490) 
0

>  <NONCOV_INTER_ENERGY_QM>  (2490) 
0

>  <FF_Energy>  (2490) 
-0.94

>  <QM_Energy>  (2490) 
-6.77

>  <source>  (2490) 
ACET_MBZ_02

>  <Index>  (2490) 
36467

$$$$
ACET-pdb6ok4-C-GLU-94:MBZ-pdb6ok4-C-PHE-99
     RDKit          3D

 22 21  0  0  0  0  0  0  0  0999 V2000
    2.9854    4.4658    1.9936 C   0  0  0  0  0  0  0  0  0  0  0  0
    2.0140    4.5905    2.0366 H   0  0  0  0  0  0  0  0  0  0  0  0
    3.3949    4.9447    1.2425 H   0  0  0  0  0  0  0  0  0  0  0  0
    3.4219    4.8370    2.9208 H   0  0  0  0  0  0  0  0  0  0  0  0
    3.2500    2.9895    1.7953 C   0  0  0  0  0  0  0  0  0  0  0  0
    3.9531    2.6372    0.8227 O   0  0  0  0  0  1  0  0  0  0  0  0
    2.7881    2.1875    2.6370 O   0  0  0  0  0  0  0  0  0  0  0  0
   -0.0020    2.8966   -0.0049 C   0  0  0  0  0  0  0  0  0  0  0  0
    0.8551    3.2059    0.3774 H   0  0  0  0  0  0  0  0  0  0  0  0
   -0.7703    3.2049    0.5347 H   0  0  0  0  0  0  0  0  0  0  0  0
   -0.0989    3.3308   -1.0000 H   0  0  0  0  0  0  0  0  0  0  0  0
   -0.0002    1.3945    0.0007 C   0  0  0  0  0  0  0  0  0  0  0  0
   -1.1918    0.6881   -0.0002 C   0  0  0  0  0  0  0  0  0  0  0  0
   -2.0598    1.1791   -0.0022 H   0  0  0  0  0  0  0  0  0  0  0  0
   -1.1953   -0.6955    0.0000 C   0  0  0  0  0  0  0  0  0  0  0  0
   -2.0725   -1.1917    0.0016 H   0  0  0  0  0  0  0  0  0  0  0  0
    0.0012   -1.3851    0.0000 C   0  0  0  0  0  0  0  0  0  0  0  0
   -0.0003   -2.3871   -0.0004 H   0  0  0  0  0  0  0  0  0  0  0  0
    1.1953   -0.6910   -0.0000 C   0  0  0  0  0  0  0  0  0  0  0  0
    2.0790   -1.1914    0.0020 H   0  0  0  0  0  0  0  0  0  0  0  0
    1.1909    0.6890   -0.0006 C   0  0  0  0  0  0  0  0  0  0  0  0
    2.0600    1.1887   -0.0029 H   0  0  0  0  0  0  0  0  0  0  0  0
  1  5  1  0
  5  6  1  0
  5  7  2  0
  1  2  1  0
  1  3  1  0
  1  4  1  0
  8 12  1  0
 12 13  2  0
 13 15  1  0
 15 17  2  0
 17 19  1  0
 19 21  2  0
 21 12  1  0
  8  9  1  0
  8 10  1  0
  8 11  1  0
 13 14  1  0
 15 16  1  0
 17 18  1  0
 19 20  1  0
 21 22  1  0
M  CHG  1   6  -1
M  END
>  <PDB_ID>  (2491) 
pdb6ok4

>  <RESIDUE_NAME>  (2491) 
GLU   PHE

>  <FRAG_NAME>  (2491) 
ACET   MBZ

>  <FRAG_ATOM_NUM>  (2491) 
fragi: 7  fragj: 15

>  <atom.prop.CHAIN_ID>  (2491) 
A A A A A A A Z Z Z Z Z Z Z Z Z Z Z Z Z Z Z

>  <atom.prop.IS_HEAVY_ATOM>  (2491) 
1 0 0 0 1 1 1 1 0 0 0 1 1 0 1 0 1 0 1 0 1 0

>  <DIFUSE_FUNC_ATOM>  (2491) 
atom 6   atom 7   

>  <FINAL_SINGLE_POINT_ENERGY>  (2491) 
0

>  <NONCOV_INTER_ENERGY_QM>  (2491) 
0

>  <FF_Energy>  (2491) 
-1.46

>  <QM_Energy>  (2491) 
-7.01

>  <source>  (2491) 
ACET_MBZ_02

>  <Index>  (2491) 
36472

$$$$
ACET-pdb6ok4-C-ASP-104:MBZ-pdb6ok4-C-PHE-99
     RDKit          3D

 22 21  0  0  0  0  0  0  0  0999 V2000
   -4.0398    2.6713   -0.8431 C   0  0  0  0  0  0  0  0  0  0  0  0
   -3.5798    3.5416   -0.9694 H   0  0  0  0  0  0  0  0  0  0  0  0
   -3.3790    1.9424   -0.7140 H   0  0  0  0  0  0  0  0  0  0  0  0
   -4.6501    2.7388    0.0576 H   0  0  0  0  0  0  0  0  0  0  0  0
   -4.8625    2.3702   -2.0820 C   0  0  0  0  0  0  0  0  0  0  0  0
   -5.8543    1.6166   -1.9708 O   0  0  0  0  0  1  0  0  0  0  0  0
   -4.5178    2.8877   -3.1651 O   0  0  0  0  0  0  0  0  0  0  0  0
   -0.0020    2.8966   -0.0049 C   0  0  0  0  0  0  0  0  0  0  0  0
    0.8551    3.2059    0.3774 H   0  0  0  0  0  0  0  0  0  0  0  0
   -0.7703    3.2049    0.5347 H   0  0  0  0  0  0  0  0  0  0  0  0
   -0.0989    3.3308   -1.0000 H   0  0  0  0  0  0  0  0  0  0  0  0
   -0.0002    1.3945    0.0007 C   0  0  0  0  0  0  0  0  0  0  0  0
   -1.1918    0.6881   -0.0002 C   0  0  0  0  0  0  0  0  0  0  0  0
   -2.0598    1.1791   -0.0022 H   0  0  0  0  0  0  0  0  0  0  0  0
   -1.1953   -0.6955    0.0000 C   0  0  0  0  0  0  0  0  0  0  0  0
   -2.0725   -1.1917    0.0016 H   0  0  0  0  0  0  0  0  0  0  0  0
    0.0012   -1.3851    0.0000 C   0  0  0  0  0  0  0  0  0  0  0  0
   -0.0003   -2.3871   -0.0004 H   0  0  0  0  0  0  0  0  0  0  0  0
    1.1953   -0.6910   -0.0000 C   0  0  0  0  0  0  0  0  0  0  0  0
    2.0790   -1.1914    0.0020 H   0  0  0  0  0  0  0  0  0  0  0  0
    1.1909    0.6890   -0.0006 C   0  0  0  0  0  0  0  0  0  0  0  0
    2.0600    1.1887   -0.0029 H   0  0  0  0  0  0  0  0  0  0  0  0
  1  5  1  0
  5  6  1  0
  5  7  2  0
  1  2  1  0
  1  3  1  0
  1  4  1  0
  8 12  1  0
 12 13  2  0
 13 15  1  0
 15 17  2  0
 17 19  1  0
 19 21  2  0
 21 12  1  0
  8  9  1  0
  8 10  1  0
  8 11  1  0
 13 14  1  0
 15 16  1  0
 17 18  1  0
 19 20  1  0
 21 22  1  0
M  CHG  1   6  -1
M  END
>  <PDB_ID>  (2492) 
pdb6ok4

>  <RESIDUE_NAME>  (2492) 
ASP   PHE

>  <FRAG_NAME>  (2492) 
ACET   MBZ

>  <FRAG_ATOM_NUM>  (2492) 
fragi: 7  fragj: 15

>  <atom.prop.CHAIN_ID>  (2492) 
A A A A A A A Z Z Z Z Z Z Z Z Z Z Z Z Z Z Z

>  <atom.prop.IS_HEAVY_ATOM>  (2492) 
1 0 0 0 1 1 1 1 0 0 0 1 1 0 1 0 1 0 1 0 1 0

>  <DIFUSE_FUNC_ATOM>  (2492) 
atom 6   atom 7   

>  <FINAL_SINGLE_POINT_ENERGY>  (2492) 
0

>  <NONCOV_INTER_ENERGY_QM>  (2492) 
0

>  <FF_Energy>  (2492) 
6.71

>  <QM_Energy>  (2492) 
-0.37

>  <source>  (2492) 
ACET_MBZ_02

>  <Index>  (2492) 
36504

$$$$
ACET-pdb6ok4-A-GLU-94:MBZ-pdb6ok4-A-PHE-99
     RDKit          3D

 22 21  0  0  0  0  0  0  0  0999 V2000
    3.6703    4.0411   -0.8823 C   0  0  0  0  0  0  0  0  0  0  0  0
    3.0249    4.2321   -0.1710 H   0  0  0  0  0  0  0  0  0  0  0  0
    3.4065    4.4208   -1.7468 H   0  0  0  0  0  0  0  0  0  0  0  0
    4.6342    4.4627   -0.5970 H   0  0  0  0  0  0  0  0  0  0  0  0
    3.7305    2.5277   -1.0495 C   0  0  0  0  0  0  0  0  0  0  0  0
    4.0445    1.8210   -0.0668 O   0  0  0  0  0  1  0  0  0  0  0  0
    3.4870    2.0489   -2.1801 O   0  0  0  0  0  0  0  0  0  0  0  0
   -0.0098    2.9009   -0.0205 C   0  0  0  0  0  0  0  0  0  0  0  0
    0.8929    3.2080   -0.2706 H   0  0  0  0  0  0  0  0  0  0  0  0
   -0.2713    3.2201    0.8747 H   0  0  0  0  0  0  0  0  0  0  0  0
   -0.7159    3.3111   -0.7425 H   0  0  0  0  0  0  0  0  0  0  0  0
    0.0008    1.3972    0.0053 C   0  0  0  0  0  0  0  0  0  0  0  0
   -1.1900    0.6849   -0.0018 C   0  0  0  0  0  0  0  0  0  0  0  0
   -2.0601    1.1768   -0.0098 H   0  0  0  0  0  0  0  0  0  0  0  0
   -1.1954   -0.6988   -0.0000 C   0  0  0  0  0  0  0  0  0  0  0  0
   -2.0735   -1.1926    0.0012 H   0  0  0  0  0  0  0  0  0  0  0  0
   -0.0014   -1.3874    0.0023 C   0  0  0  0  0  0  0  0  0  0  0  0
   -0.0005   -2.3882    0.0049 H   0  0  0  0  0  0  0  0  0  0  0  0
    1.1954   -0.6901    0.0000 C   0  0  0  0  0  0  0  0  0  0  0  0
    2.0789   -1.1892    0.0042 H   0  0  0  0  0  0  0  0  0  0  0  0
    1.1905    0.6942   -0.0058 C   0  0  0  0  0  0  0  0  0  0  0  0
    2.0608    1.1918   -0.0194 H   0  0  0  0  0  0  0  0  0  0  0  0
  1  5  1  0
  5  6  1  0
  5  7  2  0
  1  2  1  0
  1  3  1  0
  1  4  1  0
  8 12  1  0
 12 13  2  0
 13 15  1  0
 15 17  2  0
 17 19  1  0
 19 21  2  0
 21 12  1  0
  8  9  1  0
  8 10  1  0
  8 11  1  0
 13 14  1  0
 15 16  1  0
 17 18  1  0
 19 20  1  0
 21 22  1  0
M  CHG  1   6  -1
M  END
>  <PDB_ID>  (2493) 
pdb6ok4

>  <RESIDUE_NAME>  (2493) 
GLU   PHE

>  <FRAG_NAME>  (2493) 
ACET   MBZ

>  <FRAG_ATOM_NUM>  (2493) 
fragi: 7  fragj: 15

>  <atom.prop.CHAIN_ID>  (2493) 
A A A A A A A Z Z Z Z Z Z Z Z Z Z Z Z Z Z Z

>  <atom.prop.IS_HEAVY_ATOM>  (2493) 
1 0 0 0 1 1 1 1 0 0 0 1 1 0 1 0 1 0 1 0 1 0

>  <DIFUSE_FUNC_ATOM>  (2493) 
atom 6   atom 7   

>  <FINAL_SINGLE_POINT_ENERGY>  (2493) 
0

>  <NONCOV_INTER_ENERGY_QM>  (2493) 
0

>  <FF_Energy>  (2493) 
4.31

>  <QM_Energy>  (2493) 
-6.54

>  <source>  (2493) 
ACET_MBZ_02

>  <Index>  (2493) 
36566

$$$$
ACET-pdb6op6-A-ASP-182:MBZ-pdb6op6-A-PHE-115
     RDKit          3D

 22 21  0  0  0  0  0  0  0  0999 V2000
   -5.6426    2.4622    1.5303 C   0  0  0  0  0  0  0  0  0  0  0  0
   -5.7724    3.4422    1.6030 H   0  0  0  0  0  0  0  0  0  0  0  0
   -5.3522    2.0786    2.3960 H   0  0  0  0  0  0  0  0  0  0  0  0
   -6.6013    2.0147    1.2683 H   0  0  0  0  0  0  0  0  0  0  0  0
   -4.5659    2.1878    0.4875 C   0  0  0  0  0  0  0  0  0  0  0  0
   -4.5426    1.0676   -0.0680 O   0  0  0  0  0  1  0  0  0  0  0  0
   -3.7165    3.0707    0.2357 O   0  0  0  0  0  0  0  0  0  0  0  0
    0.0131    2.9044    0.0343 C   0  0  0  0  0  0  0  0  0  0  0  0
    0.8811    3.1948    0.4117 H   0  0  0  0  0  0  0  0  0  0  0  0
   -0.7413    3.2039    0.6007 H   0  0  0  0  0  0  0  0  0  0  0  0
   -0.0978    3.3759   -0.9422 H   0  0  0  0  0  0  0  0  0  0  0  0
    0.0007    1.3976    0.0009 C   0  0  0  0  0  0  0  0  0  0  0  0
   -1.1960    0.6938   -0.0024 C   0  0  0  0  0  0  0  0  0  0  0  0
   -2.0616    1.1822   -0.0078 H   0  0  0  0  0  0  0  0  0  0  0  0
   -1.1966   -0.6954    0.0000 C   0  0  0  0  0  0  0  0  0  0  0  0
   -2.0758   -1.1895    0.0089 H   0  0  0  0  0  0  0  0  0  0  0  0
   -0.0010   -1.3868   -0.0072 C   0  0  0  0  0  0  0  0  0  0  0  0
   -0.0050   -2.3887   -0.0187 H   0  0  0  0  0  0  0  0  0  0  0  0
    1.1966   -0.6959    0.0000 C   0  0  0  0  0  0  0  0  0  0  0  0
    2.0784   -1.1978    0.0003 H   0  0  0  0  0  0  0  0  0  0  0  0
    1.1963    0.6867    0.0087 C   0  0  0  0  0  0  0  0  0  0  0  0
    2.0641    1.1853    0.0203 H   0  0  0  0  0  0  0  0  0  0  0  0
  1  5  1  0
  5  6  1  0
  5  7  2  0
  1  2  1  0
  1  3  1  0
  1  4  1  0
  8 12  1  0
 12 13  2  0
 13 15  1  0
 15 17  2  0
 17 19  1  0
 19 21  2  0
 21 12  1  0
  8  9  1  0
  8 10  1  0
  8 11  1  0
 13 14  1  0
 15 16  1  0
 17 18  1  0
 19 20  1  0
 21 22  1  0
M  CHG  1   6  -1
M  END
>  <PDB_ID>  (2494) 
pdb6op6

>  <RESIDUE_NAME>  (2494) 
ASP   PHE

>  <FRAG_NAME>  (2494) 
ACET   MBZ

>  <FRAG_ATOM_NUM>  (2494) 
fragi: 7  fragj: 15

>  <atom.prop.CHAIN_ID>  (2494) 
A A A A A A A Z Z Z Z Z Z Z Z Z Z Z Z Z Z Z

>  <atom.prop.IS_HEAVY_ATOM>  (2494) 
1 0 0 0 1 1 1 1 0 0 0 1 1 0 1 0 1 0 1 0 1 0

>  <DIFUSE_FUNC_ATOM>  (2494) 
atom 6   atom 7   

>  <FINAL_SINGLE_POINT_ENERGY>  (2494) 
0

>  <NONCOV_INTER_ENERGY_QM>  (2494) 
0

>  <FF_Energy>  (2494) 
-2.84

>  <QM_Energy>  (2494) 
-9.43

>  <source>  (2494) 
ACET_MBZ_02

>  <Index>  (2494) 
36608

$$$$
ACET-pdb6op9-A-GLU-807:MBZ-pdb6op9-A-PHE-939
     RDKit          3D

 22 21  0  0  0  0  0  0  0  0999 V2000
   -5.7728    2.7743   -0.5024 C   0  0  0  0  0  0  0  0  0  0  0  0
   -5.8621    3.7371   -0.7082 H   0  0  0  0  0  0  0  0  0  0  0  0
   -6.6579    2.3477   -0.3866 H   0  0  0  0  0  0  0  0  0  0  0  0
   -5.2661    2.2917   -1.3382 H   0  0  0  0  0  0  0  0  0  0  0  0
   -5.0383    2.6619    0.8278 C   0  0  0  0  0  0  0  0  0  0  0  0
   -3.7885    2.6072    0.8342 O   0  0  0  0  0  1  0  0  0  0  0  0
   -5.7234    2.6281    1.8839 O   0  0  0  0  0  0  0  0  0  0  0  0
    0.0147    2.9309    0.0288 C   0  0  0  0  0  0  0  0  0  0  0  0
   -0.9174    3.2378    0.0939 H   0  0  0  0  0  0  0  0  0  0  0  0
    0.4526    3.2413   -0.7945 H   0  0  0  0  0  0  0  0  0  0  0  0
    0.5658    3.3315    0.8797 H   0  0  0  0  0  0  0  0  0  0  0  0
   -0.0010    1.4124   -0.0021 C   0  0  0  0  0  0  0  0  0  0  0  0
   -1.2029    0.6976   -0.0041 C   0  0  0  0  0  0  0  0  0  0  0  0
   -2.0689    1.1868   -0.0098 H   0  0  0  0  0  0  0  0  0  0  0  0
   -1.2091   -0.7010   -0.0000 C   0  0  0  0  0  0  0  0  0  0  0  0
   -2.0809   -1.1944    0.0124 H   0  0  0  0  0  0  0  0  0  0  0  0
    0.0039   -1.4033   -0.0109 C   0  0  0  0  0  0  0  0  0  0  0  0
   -0.0034   -2.3988   -0.0267 H   0  0  0  0  0  0  0  0  0  0  0  0
    1.2091   -0.7032   -0.0000 C   0  0  0  0  0  0  0  0  0  0  0  0
    2.0895   -1.1960   -0.0028 H   0  0  0  0  0  0  0  0  0  0  0  0
    1.2001    0.6974    0.0170 C   0  0  0  0  0  0  0  0  0  0  0  0
    2.0680    1.1929    0.0424 H   0  0  0  0  0  0  0  0  0  0  0  0
  1  5  1  0
  5  6  1  0
  5  7  2  0
  1  2  1  0
  1  3  1  0
  1  4  1  0
  8 12  1  0
 12 13  2  0
 13 15  1  0
 15 17  2  0
 17 19  1  0
 19 21  2  0
 21 12  1  0
  8  9  1  0
  8 10  1  0
  8 11  1  0
 13 14  1  0
 15 16  1  0
 17 18  1  0
 19 20  1  0
 21 22  1  0
M  CHG  1   6  -1
M  END
>  <PDB_ID>  (2495) 
pdb6op9

>  <RESIDUE_NAME>  (2495) 
GLU   PHE

>  <FRAG_NAME>  (2495) 
ACET   MBZ

>  <FRAG_ATOM_NUM>  (2495) 
fragi: 7  fragj: 15

>  <atom.prop.CHAIN_ID>  (2495) 
A A A A A A A Z Z Z Z Z Z Z Z Z Z Z Z Z Z Z

>  <atom.prop.IS_HEAVY_ATOM>  (2495) 
1 0 0 0 1 1 1 1 0 0 0 1 1 0 1 0 1 0 1 0 1 0

>  <DIFUSE_FUNC_ATOM>  (2495) 
atom 6   atom 7   

>  <FINAL_SINGLE_POINT_ENERGY>  (2495) 
0

>  <NONCOV_INTER_ENERGY_QM>  (2495) 
0

>  <FF_Energy>  (2495) 
-1.77

>  <QM_Energy>  (2495) 
-6.98

>  <source>  (2495) 
ACET_MBZ_02

>  <Index>  (2495) 
36620

$$$$
ACET-pdb5lhc-B-GLU-205:MBZ-pdb5lhc-B-PHE-201
     RDKit          3D

 22 21  0  0  0  0  0  0  0  0999 V2000
    2.3156   -2.4091    4.0920 C   0  0  0  0  0  0  0  0  0  0  0  0
    3.0984   -2.7377    4.5729 H   0  0  0  0  0  0  0  0  0  0  0  0
    1.5146   -2.9463    4.2386 H   0  0  0  0  0  0  0  0  0  0  0  0
    2.1139   -1.3869    4.4123 H   0  0  0  0  0  0  0  0  0  0  0  0
    2.6316   -2.4475    2.6179 C   0  0  0  0  0  0  0  0  0  0  0  0
    2.6768   -1.3583    1.9895 O   0  0  0  0  0  1  0  0  0  0  0  0
    2.8102   -3.5611    2.0961 O   0  0  0  0  0  0  0  0  0  0  0  0
    0.0127    2.8832    0.0541 C   0  0  0  0  0  0  0  0  0  0  0  0
   -0.7458    3.2332   -0.4632 H   0  0  0  0  0  0  0  0  0  0  0  0
    0.8774    3.2061   -0.2822 H   0  0  0  0  0  0  0  0  0  0  0  0
   -0.0955    3.2385    1.0789 H   0  0  0  0  0  0  0  0  0  0  0  0
   -0.0032    1.3997   -0.0226 C   0  0  0  0  0  0  0  0  0  0  0  0
   -1.2052    0.7016    0.0068 C   0  0  0  0  0  0  0  0  0  0  0  0
   -2.0655    1.1903    0.0315 H   0  0  0  0  0  0  0  0  0  0  0  0
   -1.2031   -0.6896   -0.0000 C   0  0  0  0  0  0  0  0  0  0  0  0
   -2.0735   -1.1908   -0.0142 H   0  0  0  0  0  0  0  0  0  0  0  0
    0.0119   -1.3908    0.0149 C   0  0  0  0  0  0  0  0  0  0  0  0
   -0.0044   -2.3899    0.0359 H   0  0  0  0  0  0  0  0  0  0  0  0
    1.2031   -0.7022    0.0000 C   0  0  0  0  0  0  0  0  0  0  0  0
    2.0875   -1.1988   -0.0097 H   0  0  0  0  0  0  0  0  0  0  0  0
    1.1965    0.6812    0.0008 C   0  0  0  0  0  0  0  0  0  0  0  0
    2.0636    1.1834    0.0176 H   0  0  0  0  0  0  0  0  0  0  0  0
  1  5  1  0
  5  6  1  0
  5  7  2  0
  1  2  1  0
  1  3  1  0
  1  4  1  0
  8 12  1  0
 12 13  2  0
 13 15  1  0
 15 17  2  0
 17 19  1  0
 19 21  2  0
 21 12  1  0
  8  9  1  0
  8 10  1  0
  8 11  1  0
 13 14  1  0
 15 16  1  0
 17 18  1  0
 19 20  1  0
 21 22  1  0
M  CHG  1   6  -1
M  END
>  <PDB_ID>  (2496) 
pdb5lhc

>  <RESIDUE_NAME>  (2496) 
GLU   PHE

>  <FRAG_NAME>  (2496) 
ACET   MBZ

>  <FRAG_ATOM_NUM>  (2496) 
fragi: 7  fragj: 15

>  <atom.prop.CHAIN_ID>  (2496) 
A A A A A A A Z Z Z Z Z Z Z Z Z Z Z Z Z Z Z

>  <atom.prop.IS_HEAVY_ATOM>  (2496) 
1 0 0 0 1 1 1 1 0 0 0 1 1 0 1 0 1 0 1 0 1 0

>  <DIFUSE_FUNC_ATOM>  (2496) 
atom 6   atom 7   

>  <FINAL_SINGLE_POINT_ENERGY>  (2496) 
0

>  <NONCOV_INTER_ENERGY_QM>  (2496) 
0

>  <FF_Energy>  (2496) 
9.05

>  <QM_Energy>  (2496) 
-1.52

>  <source>  (2496) 
ACET_MBZ_02

>  <Index>  (2496) 
36649

$$$$
ACET-pdb6oqq-A-GLU-480:MBZ-pdb6oqq-A-PHE-104
     RDKit          3D

 22 21  0  0  0  0  0  0  0  0999 V2000
    1.6943    4.9278   -4.4885 C   0  0  0  0  0  0  0  0  0  0  0  0
    2.2688    4.4610   -5.1152 H   0  0  0  0  0  0  0  0  0  0  0  0
    2.2303    5.4635   -3.8832 H   0  0  0  0  0  0  0  0  0  0  0  0
    1.0314    5.5893   -5.0462 H   0  0  0  0  0  0  0  0  0  0  0  0
    0.9642    3.8812   -3.6594 C   0  0  0  0  0  0  0  0  0  0  0  0
   -0.2867    3.8864   -3.6287 O   0  0  0  0  0  1  0  0  0  0  0  0
    1.6564    3.0433   -3.0444 O   0  0  0  0  0  0  0  0  0  0  0  0
    0.0278    2.9104    0.0042 C   0  0  0  0  0  0  0  0  0  0  0  0
    0.5017    3.1993   -0.7912 H   0  0  0  0  0  0  0  0  0  0  0  0
    0.5100    3.1913    0.7973 H   0  0  0  0  0  0  0  0  0  0  0  0
   -0.9560    3.3795    0.0111 H   0  0  0  0  0  0  0  0  0  0  0  0
    0.0011    1.3986   -0.0030 C   0  0  0  0  0  0  0  0  0  0  0  0
   -1.1932    0.6906    0.0015 C   0  0  0  0  0  0  0  0  0  0  0  0
   -2.0010    1.1516    0.0054 H   0  0  0  0  0  0  0  0  0  0  0  0
   -1.1946   -0.6941    0.0000 C   0  0  0  0  0  0  0  0  0  0  0  0
   -2.0003   -1.1586   -0.0028 H   0  0  0  0  0  0  0  0  0  0  0  0
    0.0024   -1.3872    0.0015 C   0  0  0  0  0  0  0  0  0  0  0  0
    0.0034   -2.3168    0.0049 H   0  0  0  0  0  0  0  0  0  0  0  0
    1.1946   -0.6954   -0.0000 C   0  0  0  0  0  0  0  0  0  0  0  0
    2.0016   -1.1577   -0.0010 H   0  0  0  0  0  0  0  0  0  0  0  0
    1.1897    0.6875    0.0001 C   0  0  0  0  0  0  0  0  0  0  0  0
    1.9975    1.1470    0.0024 H   0  0  0  0  0  0  0  0  0  0  0  0
  1  5  1  0
  5  6  1  0
  5  7  2  0
  1  2  1  0
  1  3  1  0
  1  4  1  0
  8 12  1  0
 12 13  2  0
 13 15  1  0
 15 17  2  0
 17 19  1  0
 19 21  2  0
 21 12  1  0
  8  9  1  0
  8 10  1  0
  8 11  1  0
 13 14  1  0
 15 16  1  0
 17 18  1  0
 19 20  1  0
 21 22  1  0
M  CHG  1   6  -1
M  END
>  <PDB_ID>  (2497) 
pdb6oqq

>  <RESIDUE_NAME>  (2497) 
GLU   PHE

>  <FRAG_NAME>  (2497) 
ACET   MBZ

>  <FRAG_ATOM_NUM>  (2497) 
fragi: 7  fragj: 15

>  <atom.prop.CHAIN_ID>  (2497) 
A A A A A A A Z Z Z Z Z Z Z Z Z Z Z Z Z Z Z

>  <atom.prop.IS_HEAVY_ATOM>  (2497) 
1 0 0 0 1 1 1 1 0 0 0 1 1 0 1 0 1 0 1 0 1 0

>  <DIFUSE_FUNC_ATOM>  (2497) 
atom 6   atom 7   

>  <FINAL_SINGLE_POINT_ENERGY>  (2497) 
0

>  <NONCOV_INTER_ENERGY_QM>  (2497) 
0

>  <FF_Energy>  (2497) 
0.25

>  <QM_Energy>  (2497) 
-5.16

>  <source>  (2497) 
ACET_MBZ_02

>  <Index>  (2497) 
36676

$$$$
ACET-pdb6oqq-C-GLU-480:MBZ-pdb6oqq-C-PHE-104
     RDKit          3D

 22 21  0  0  0  0  0  0  0  0999 V2000
    0.3763    4.7906   -4.7847 C   0  0  0  0  0  0  0  0  0  0  0  0
    0.7861    4.3094   -5.5205 H   0  0  0  0  0  0  0  0  0  0  0  0
    1.0361    5.3498   -4.3459 H   0  0  0  0  0  0  0  0  0  0  0  0
   -0.4202    5.4235   -5.1760 H   0  0  0  0  0  0  0  0  0  0  0  0
   -0.1116    3.7667   -3.7745 C   0  0  0  0  0  0  0  0  0  0  0  0
   -1.3193    3.7573   -3.4621 O   0  0  0  0  0  1  0  0  0  0  0  0
    0.7190    2.9683   -3.2947 O   0  0  0  0  0  0  0  0  0  0  0  0
    0.0180    2.9053    0.0021 C   0  0  0  0  0  0  0  0  0  0  0  0
    0.2155    3.1995   -0.9006 H   0  0  0  0  0  0  0  0  0  0  0  0
    0.7225    3.1895    0.6057 H   0  0  0  0  0  0  0  0  0  0  0  0
   -0.9182    3.3639    0.3203 H   0  0  0  0  0  0  0  0  0  0  0  0
    0.0002    1.3972   -0.0012 C   0  0  0  0  0  0  0  0  0  0  0  0
   -1.1927    0.6905    0.0015 C   0  0  0  0  0  0  0  0  0  0  0  0
   -2.0004    1.1514    0.0043 H   0  0  0  0  0  0  0  0  0  0  0  0
   -1.1948   -0.6946    0.0000 C   0  0  0  0  0  0  0  0  0  0  0  0
   -2.0004   -1.1584   -0.0008 H   0  0  0  0  0  0  0  0  0  0  0  0
    0.0018   -1.3862    0.0005 C   0  0  0  0  0  0  0  0  0  0  0  0
    0.0021   -2.3162   -0.0001 H   0  0  0  0  0  0  0  0  0  0  0  0
    1.1948   -0.6946    0.0000 C   0  0  0  0  0  0  0  0  0  0  0  0
    2.0004   -1.1580    0.0011 H   0  0  0  0  0  0  0  0  0  0  0  0
    1.1907    0.6877   -0.0008 C   0  0  0  0  0  0  0  0  0  0  0  0
    1.9991    1.1470   -0.0015 H   0  0  0  0  0  0  0  0  0  0  0  0
  1  5  1  0
  5  6  1  0
  5  7  2  0
  1  2  1  0
  1  3  1  0
  1  4  1  0
  8 12  1  0
 12 13  2  0
 13 15  1  0
 15 17  2  0
 17 19  1  0
 19 21  2  0
 21 12  1  0
  8  9  1  0
  8 10  1  0
  8 11  1  0
 13 14  1  0
 15 16  1  0
 17 18  1  0
 19 20  1  0
 21 22  1  0
M  CHG  1   6  -1
M  END
>  <PDB_ID>  (2498) 
pdb6oqq

>  <RESIDUE_NAME>  (2498) 
GLU   PHE

>  <FRAG_NAME>  (2498) 
ACET   MBZ

>  <FRAG_ATOM_NUM>  (2498) 
fragi: 7  fragj: 15

>  <atom.prop.CHAIN_ID>  (2498) 
A A A A A A A Z Z Z Z Z Z Z Z Z Z Z Z Z Z Z

>  <atom.prop.IS_HEAVY_ATOM>  (2498) 
1 0 0 0 1 1 1 1 0 0 0 1 1 0 1 0 1 0 1 0 1 0

>  <DIFUSE_FUNC_ATOM>  (2498) 
atom 6   atom 7   

>  <FINAL_SINGLE_POINT_ENERGY>  (2498) 
0

>  <NONCOV_INTER_ENERGY_QM>  (2498) 
0

>  <FF_Energy>  (2498) 
0.75

>  <QM_Energy>  (2498) 
-5.0

>  <source>  (2498) 
ACET_MBZ_02

>  <Index>  (2498) 
36681

$$$$
ACET-pdb6ok4-B-GLU-170:MBZ-pdb6ok4-A-PHE-305
     RDKit          3D

 22 21  0  0  0  0  0  0  0  0999 V2000
    5.1735    1.5920   -0.0960 C   0  0  0  0  0  0  0  0  0  0  0  0
    4.9381    2.4286    0.3691 H   0  0  0  0  0  0  0  0  0  0  0  0
    6.1474    1.5056   -0.2235 H   0  0  0  0  0  0  0  0  0  0  0  0
    4.8304    0.7545    0.5115 H   0  0  0  0  0  0  0  0  0  0  0  0
    4.5376    1.6470   -1.4818 C   0  0  0  0  0  0  0  0  0  0  0  0
    3.4385    1.0913   -1.6832 O   0  0  0  0  0  1  0  0  0  0  0  0
    5.1693    2.2362   -2.3880 O   0  0  0  0  0  0  0  0  0  0  0  0
    0.0001    2.8907   -0.0070 C   0  0  0  0  0  0  0  0  0  0  0  0
    0.6561    3.1974   -0.6800 H   0  0  0  0  0  0  0  0  0  0  0  0
    0.2427    3.2021    0.9001 H   0  0  0  0  0  0  0  0  0  0  0  0
   -0.9663    3.3261   -0.2613 H   0  0  0  0  0  0  0  0  0  0  0  0
    0.0003    1.3948   -0.0027 C   0  0  0  0  0  0  0  0  0  0  0  0
   -1.1921    0.6878   -0.0016 C   0  0  0  0  0  0  0  0  0  0  0  0
   -2.0604    1.1806   -0.0033 H   0  0  0  0  0  0  0  0  0  0  0  0
   -1.1953   -0.6939    0.0000 C   0  0  0  0  0  0  0  0  0  0  0  0
   -2.0713   -1.1927    0.0005 H   0  0  0  0  0  0  0  0  0  0  0  0
    0.0053   -1.3863    0.0028 C   0  0  0  0  0  0  0  0  0  0  0  0
   -0.0008   -2.3874    0.0061 H   0  0  0  0  0  0  0  0  0  0  0  0
    1.1953   -0.6938   -0.0000 C   0  0  0  0  0  0  0  0  0  0  0  0
    2.0811   -1.1885   -0.0014 H   0  0  0  0  0  0  0  0  0  0  0  0
    1.1865    0.6915    0.0016 C   0  0  0  0  0  0  0  0  0  0  0  0
    2.0594    1.1889    0.0049 H   0  0  0  0  0  0  0  0  0  0  0  0
  1  5  1  0
  5  6  1  0
  5  7  2  0
  1  2  1  0
  1  3  1  0
  1  4  1  0
  8 12  1  0
 12 13  2  0
 13 15  1  0
 15 17  2  0
 17 19  1  0
 19 21  2  0
 21 12  1  0
  8  9  1  0
  8 10  1  0
  8 11  1  0
 13 14  1  0
 15 16  1  0
 17 18  1  0
 19 20  1  0
 21 22  1  0
M  CHG  1   6  -1
M  END
>  <PDB_ID>  (2499) 
pdb6ok4

>  <RESIDUE_NAME>  (2499) 
GLU   PHE

>  <FRAG_NAME>  (2499) 
ACET   MBZ

>  <FRAG_ATOM_NUM>  (2499) 
fragi: 7  fragj: 15

>  <atom.prop.CHAIN_ID>  (2499) 
A A A A A A A Z Z Z Z Z Z Z Z Z Z Z Z Z Z Z

>  <atom.prop.IS_HEAVY_ATOM>  (2499) 
1 0 0 0 1 1 1 1 0 0 0 1 1 0 1 0 1 0 1 0 1 0

>  <DIFUSE_FUNC_ATOM>  (2499) 
atom 6   atom 7   

>  <FINAL_SINGLE_POINT_ENERGY>  (2499) 
0

>  <NONCOV_INTER_ENERGY_QM>  (2499) 
0

>  <FF_Energy>  (2499) 
2.17

>  <QM_Energy>  (2499) 
-4.04

>  <source>  (2499) 
ACET_MBZ_02

>  <Index>  (2499) 
36700

$$$$
ACET-pdb6osx-A-GLU-156:MBZ-pdb6osx-A-PHE-131
     RDKit          3D

 22 21  0  0  0  0  0  0  0  0999 V2000
    0.7589    0.6712    3.7965 C   0  0  0  0  0  0  0  0  0  0  0  0
    0.9455    0.1742    2.9687 H   0  0  0  0  0  0  0  0  0  0  0  0
    0.1229    0.1994    4.3790 H   0  0  0  0  0  0  0  0  0  0  0  0
    1.6960    0.7911    4.3401 H   0  0  0  0  0  0  0  0  0  0  0  0
    0.1163    1.9987    3.3984 C   0  0  0  0  0  0  0  0  0  0  0  0
    0.8334    3.0126    3.2443 O   0  0  0  0  0  1  0  0  0  0  0  0
   -1.1226    2.0255    3.2309 O   0  0  0  0  0  0  0  0  0  0  0  0
   -0.0091    2.9013    0.0061 C   0  0  0  0  0  0  0  0  0  0  0  0
    0.8284    3.2089    0.4348 H   0  0  0  0  0  0  0  0  0  0  0  0
   -0.8022    3.2006    0.5180 H   0  0  0  0  0  0  0  0  0  0  0  0
   -0.0619    3.3658   -0.9785 H   0  0  0  0  0  0  0  0  0  0  0  0
   -0.0021    1.3974   -0.0109 C   0  0  0  0  0  0  0  0  0  0  0  0
   -1.1946    0.6914    0.0028 C   0  0  0  0  0  0  0  0  0  0  0  0
   -2.0627    1.1840    0.0137 H   0  0  0  0  0  0  0  0  0  0  0  0
   -1.1995   -0.6922    0.0000 C   0  0  0  0  0  0  0  0  0  0  0  0
   -2.0778   -1.1874   -0.0039 H   0  0  0  0  0  0  0  0  0  0  0  0
   -0.0026   -1.3866    0.0043 C   0  0  0  0  0  0  0  0  0  0  0  0
   -0.0091   -2.3887    0.0100 H   0  0  0  0  0  0  0  0  0  0  0  0
    1.1995   -0.6983   -0.0000 C   0  0  0  0  0  0  0  0  0  0  0  0
    2.0787   -1.2003   -0.0044 H   0  0  0  0  0  0  0  0  0  0  0  0
    1.1993    0.6883    0.0039 C   0  0  0  0  0  0  0  0  0  0  0  0
    2.0642    1.1864    0.0163 H   0  0  0  0  0  0  0  0  0  0  0  0
  1  5  1  0
  5  6  1  0
  5  7  2  0
  1  2  1  0
  1  3  1  0
  1  4  1  0
  8 12  1  0
 12 13  2  0
 13 15  1  0
 15 17  2  0
 17 19  1  0
 19 21  2  0
 21 12  1  0
  8  9  1  0
  8 10  1  0
  8 11  1  0
 13 14  1  0
 15 16  1  0
 17 18  1  0
 19 20  1  0
 21 22  1  0
M  CHG  1   6  -1
M  END
>  <PDB_ID>  (2500) 
pdb6osx

>  <RESIDUE_NAME>  (2500) 
GLU   PHE

>  <FRAG_NAME>  (2500) 
ACET   MBZ

>  <FRAG_ATOM_NUM>  (2500) 
fragi: 7  fragj: 15

>  <atom.prop.CHAIN_ID>  (2500) 
A A A A A A A Z Z Z Z Z Z Z Z Z Z Z Z Z Z Z

>  <atom.prop.IS_HEAVY_ATOM>  (2500) 
1 0 0 0 1 1 1 1 0 0 0 1 1 0 1 0 1 0 1 0 1 0

>  <DIFUSE_FUNC_ATOM>  (2500) 
atom 6   atom 7   

>  <FINAL_SINGLE_POINT_ENERGY>  (2500) 
0

>  <NONCOV_INTER_ENERGY_QM>  (2500) 
0

>  <FF_Energy>  (2500) 
0.33

>  <QM_Energy>  (2500) 
-5.97

>  <source>  (2500) 
ACET_MBZ_02

>  <Index>  (2500) 
36705

$$$$
ACET-pdb5ljw-B-ASP-317:MBZ-pdb5ljw-B-PHE-320
     RDKit          3D

 22 21  0  0  0  0  0  0  0  0999 V2000
    3.9398    5.7722   -0.1676 C   0  0  0  0  0  0  0  0  0  0  0  0
    4.5453    5.9795    0.5942 H   0  0  0  0  0  0  0  0  0  0  0  0
    3.0643    6.2268   -0.0461 H   0  0  0  0  0  0  0  0  0  0  0  0
    4.3978    6.1591   -1.0780 H   0  0  0  0  0  0  0  0  0  0  0  0
    3.7081    4.2714   -0.2092 C   0  0  0  0  0  0  0  0  0  0  0  0
    3.9451    3.6357   -1.2549 O   0  0  0  0  0  1  0  0  0  0  0  0
    3.2479    3.7392    0.8121 O   0  0  0  0  0  0  0  0  0  0  0  0
   -0.0189    2.8957   -0.0050 C   0  0  0  0  0  0  0  0  0  0  0  0
    0.8876    3.2097    0.2299 H   0  0  0  0  0  0  0  0  0  0  0  0
   -0.6890    3.1940    0.6563 H   0  0  0  0  0  0  0  0  0  0  0  0
   -0.2837    3.3274   -0.9703 H   0  0  0  0  0  0  0  0  0  0  0  0
   -0.0042    1.3904   -0.0036 C   0  0  0  0  0  0  0  0  0  0  0  0
   -1.1876    0.6913    0.0089 C   0  0  0  0  0  0  0  0  0  0  0  0
   -2.0601    1.1745    0.0238 H   0  0  0  0  0  0  0  0  0  0  0  0
   -1.1907   -0.7031    0.0000 C   0  0  0  0  0  0  0  0  0  0  0  0
   -2.0702   -1.1915   -0.0002 H   0  0  0  0  0  0  0  0  0  0  0  0
   -0.0002   -1.3784   -0.0067 C   0  0  0  0  0  0  0  0  0  0  0  0
    0.0061   -2.3847   -0.0171 H   0  0  0  0  0  0  0  0  0  0  0  0
    1.1907   -0.6848   -0.0000 C   0  0  0  0  0  0  0  0  0  0  0  0
    2.0752   -1.1918    0.0049 H   0  0  0  0  0  0  0  0  0  0  0  0
    1.1920    0.6845    0.0015 C   0  0  0  0  0  0  0  0  0  0  0  0
    2.0578    1.1890    0.0052 H   0  0  0  0  0  0  0  0  0  0  0  0
  1  5  1  0
  5  6  1  0
  5  7  2  0
  1  2  1  0
  1  3  1  0
  1  4  1  0
  8 12  1  0
 12 13  2  0
 13 15  1  0
 15 17  2  0
 17 19  1  0
 19 21  2  0
 21 12  1  0
  8  9  1  0
  8 10  1  0
  8 11  1  0
 13 14  1  0
 15 16  1  0
 17 18  1  0
 19 20  1  0
 21 22  1  0
M  CHG  1   6  -1
M  END
>  <PDB_ID>  (2501) 
pdb5ljw

>  <RESIDUE_NAME>  (2501) 
ASP   PHE

>  <FRAG_NAME>  (2501) 
ACET   MBZ

>  <FRAG_ATOM_NUM>  (2501) 
fragi: 7  fragj: 15

>  <atom.prop.CHAIN_ID>  (2501) 
A A A A A A A Z Z Z Z Z Z Z Z Z Z Z Z Z Z Z

>  <atom.prop.IS_HEAVY_ATOM>  (2501) 
1 0 0 0 1 1 1 1 0 0 0 1 1 0 1 0 1 0 1 0 1 0

>  <DIFUSE_FUNC_ATOM>  (2501) 
atom 6   atom 7   

>  <FINAL_SINGLE_POINT_ENERGY>  (2501) 
0

>  <NONCOV_INTER_ENERGY_QM>  (2501) 
0

>  <FF_Energy>  (2501) 
-2.32

>  <QM_Energy>  (2501) 
-7.98

>  <source>  (2501) 
ACET_MBZ_02

>  <Index>  (2501) 
36709

$$$$
ACET-pdb5ljm-A-GLU-93:MBZ-pdb5ljm-A-PHE-167
     RDKit          3D

 22 21  0  0  0  0  0  0  0  0999 V2000
   -3.1326    5.6398   -1.3952 C   0  0  0  0  0  0  0  0  0  0  0  0
   -3.3575    5.8824   -2.3240 H   0  0  0  0  0  0  0  0  0  0  0  0
   -2.1751    5.7792   -1.2035 H   0  0  0  0  0  0  0  0  0  0  0  0
   -3.7060    6.2872   -0.7316 H   0  0  0  0  0  0  0  0  0  0  0  0
   -3.4280    4.1645   -1.2184 C   0  0  0  0  0  0  0  0  0  0  0  0
   -4.2974    3.8099   -0.3908 O   0  0  0  0  0  1  0  0  0  0  0  0
   -2.7764    3.3586   -1.9114 O   0  0  0  0  0  0  0  0  0  0  0  0
    0.0042    2.8874    0.0021 C   0  0  0  0  0  0  0  0  0  0  0  0
   -0.6413    3.1927   -0.6850 H   0  0  0  0  0  0  0  0  0  0  0  0
    0.9217    3.1953   -0.2120 H   0  0  0  0  0  0  0  0  0  0  0  0
   -0.2828    3.3453    0.9486 H   0  0  0  0  0  0  0  0  0  0  0  0
    0.0026    1.3910    0.0143 C   0  0  0  0  0  0  0  0  0  0  0  0
   -1.1878    0.6858    0.0019 C   0  0  0  0  0  0  0  0  0  0  0  0
   -2.0562    1.1811   -0.0072 H   0  0  0  0  0  0  0  0  0  0  0  0
   -1.1919   -0.6892   -0.0000 C   0  0  0  0  0  0  0  0  0  0  0  0
   -2.0742   -1.1855    0.0088 H   0  0  0  0  0  0  0  0  0  0  0  0
   -0.0062   -1.3782   -0.0115 C   0  0  0  0  0  0  0  0  0  0  0  0
   -0.0109   -2.3838   -0.0288 H   0  0  0  0  0  0  0  0  0  0  0  0
    1.1919   -0.6958    0.0000 C   0  0  0  0  0  0  0  0  0  0  0  0
    2.0718   -1.1984    0.0129 H   0  0  0  0  0  0  0  0  0  0  0  0
    1.1914    0.6864   -0.0047 C   0  0  0  0  0  0  0  0  0  0  0  0
    2.0615    1.1825   -0.0232 H   0  0  0  0  0  0  0  0  0  0  0  0
  1  5  1  0
  5  6  1  0
  5  7  2  0
  1  2  1  0
  1  3  1  0
  1  4  1  0
  8 12  1  0
 12 13  2  0
 13 15  1  0
 15 17  2  0
 17 19  1  0
 19 21  2  0
 21 12  1  0
  8  9  1  0
  8 10  1  0
  8 11  1  0
 13 14  1  0
 15 16  1  0
 17 18  1  0
 19 20  1  0
 21 22  1  0
M  CHG  1   6  -1
M  END
>  <PDB_ID>  (2502) 
pdb5ljm

>  <RESIDUE_NAME>  (2502) 
GLU   PHE

>  <FRAG_NAME>  (2502) 
ACET   MBZ

>  <FRAG_ATOM_NUM>  (2502) 
fragi: 7  fragj: 15

>  <atom.prop.CHAIN_ID>  (2502) 
A A A A A A A Z Z Z Z Z Z Z Z Z Z Z Z Z Z Z

>  <atom.prop.IS_HEAVY_ATOM>  (2502) 
1 0 0 0 1 1 1 1 0 0 0 1 1 0 1 0 1 0 1 0 1 0

>  <DIFUSE_FUNC_ATOM>  (2502) 
atom 6   atom 7   

>  <FINAL_SINGLE_POINT_ENERGY>  (2502) 
0

>  <NONCOV_INTER_ENERGY_QM>  (2502) 
0

>  <FF_Energy>  (2502) 
-1.8

>  <QM_Energy>  (2502) 
-7.31

>  <source>  (2502) 
ACET_MBZ_02

>  <Index>  (2502) 
36719

$$$$
ACET-pdb5lkb-A-GLU-250:MBZ-pdb5lkb-A-PHE-318
     RDKit          3D

 22 21  0  0  0  0  0  0  0  0999 V2000
    4.5362    4.2124    0.4107 C   0  0  0  0  0  0  0  0  0  0  0  0
    5.3950    4.0608   -0.0148 H   0  0  0  0  0  0  0  0  0  0  0  0
    4.3663    3.5118    1.0594 H   0  0  0  0  0  0  0  0  0  0  0  0
    4.5698    5.1691    0.9319 H   0  0  0  0  0  0  0  0  0  0  0  0
    3.4535    4.1136   -0.6751 C   0  0  0  0  0  0  0  0  0  0  0  0
    2.7788    5.1409   -1.0013 O   0  0  0  0  0  1  0  0  0  0  0  0
    3.2162    2.9810   -1.1633 O   0  0  0  0  0  0  0  0  0  0  0  0
   -0.0234    2.8792   -0.0764 C   0  0  0  0  0  0  0  0  0  0  0  0
    0.8505    3.2151    0.1809 H   0  0  0  0  0  0  0  0  0  0  0  0
   -0.7030    3.2066    0.5341 H   0  0  0  0  0  0  0  0  0  0  0  0
   -0.2548    3.2102   -1.0888 H   0  0  0  0  0  0  0  0  0  0  0  0
    0.0038    1.3883    0.0044 C   0  0  0  0  0  0  0  0  0  0  0  0
   -1.1919    0.6744   -0.0073 C   0  0  0  0  0  0  0  0  0  0  0  0
   -1.9999    1.1342   -0.0209 H   0  0  0  0  0  0  0  0  0  0  0  0
   -1.1944   -0.6831    0.0000 C   0  0  0  0  0  0  0  0  0  0  0  0
   -2.0025   -1.1438    0.0112 H   0  0  0  0  0  0  0  0  0  0  0  0
   -0.0146   -1.3760    0.0112 C   0  0  0  0  0  0  0  0  0  0  0  0
   -0.0228   -2.3055    0.0298 H   0  0  0  0  0  0  0  0  0  0  0  0
    1.1944   -0.6936    0.0000 C   0  0  0  0  0  0  0  0  0  0  0  0
    1.9962   -1.1648    0.0117 H   0  0  0  0  0  0  0  0  0  0  0  0
    1.2027    0.6899   -0.0083 C   0  0  0  0  0  0  0  0  0  0  0  0
    2.0109    1.1507   -0.0209 H   0  0  0  0  0  0  0  0  0  0  0  0
  1  5  1  0
  5  6  1  0
  5  7  2  0
  1  2  1  0
  1  3  1  0
  1  4  1  0
  8 12  1  0
 12 13  2  0
 13 15  1  0
 15 17  2  0
 17 19  1  0
 19 21  2  0
 21 12  1  0
  8  9  1  0
  8 10  1  0
  8 11  1  0
 13 14  1  0
 15 16  1  0
 17 18  1  0
 19 20  1  0
 21 22  1  0
M  CHG  1   6  -1
M  END
>  <PDB_ID>  (2503) 
pdb5lkb

>  <RESIDUE_NAME>  (2503) 
GLU   PHE

>  <FRAG_NAME>  (2503) 
ACET   MBZ

>  <FRAG_ATOM_NUM>  (2503) 
fragi: 7  fragj: 15

>  <atom.prop.CHAIN_ID>  (2503) 
A A A A A A A Z Z Z Z Z Z Z Z Z Z Z Z Z Z Z

>  <atom.prop.IS_HEAVY_ATOM>  (2503) 
1 0 0 0 1 1 1 1 0 0 0 1 1 0 1 0 1 0 1 0 1 0

>  <DIFUSE_FUNC_ATOM>  (2503) 
atom 6   atom 7   

>  <FINAL_SINGLE_POINT_ENERGY>  (2503) 
0

>  <NONCOV_INTER_ENERGY_QM>  (2503) 
0

>  <FF_Energy>  (2503) 
-1.92

>  <QM_Energy>  (2503) 
-7.51

>  <source>  (2503) 
ACET_MBZ_02

>  <Index>  (2503) 
36728

$$$$
ACET-pdb5lkb-B-GLU-250:MBZ-pdb5lkb-B-PHE-318
     RDKit          3D

 22 21  0  0  0  0  0  0  0  0999 V2000
    4.5835    3.9629    0.6346 C   0  0  0  0  0  0  0  0  0  0  0  0
    5.4371    3.8014    0.2038 H   0  0  0  0  0  0  0  0  0  0  0  0
    4.3795    3.2218    1.2267 H   0  0  0  0  0  0  0  0  0  0  0  0
    4.6735    4.8657    1.2387 H   0  0  0  0  0  0  0  0  0  0  0  0
    3.5489    3.9732   -0.4287 C   0  0  0  0  0  0  0  0  0  0  0  0
    2.9287    5.0599   -0.6786 O   0  0  0  0  0  1  0  0  0  0  0  0
    3.3094    2.9511   -1.1054 O   0  0  0  0  0  0  0  0  0  0  0  0
   -0.0024    2.8700   -0.0313 C   0  0  0  0  0  0  0  0  0  0  0  0
    0.8691    3.1893    0.2492 H   0  0  0  0  0  0  0  0  0  0  0  0
   -0.6844    3.1871    0.5807 H   0  0  0  0  0  0  0  0  0  0  0  0
   -0.2154    3.2549   -1.0287 H   0  0  0  0  0  0  0  0  0  0  0  0
    0.0120    1.3801    0.0282 C   0  0  0  0  0  0  0  0  0  0  0  0
   -1.1765    0.6828   -0.0019 C   0  0  0  0  0  0  0  0  0  0  0  0
   -1.9821    1.1487    0.0076 H   0  0  0  0  0  0  0  0  0  0  0  0
   -1.1891   -0.7179    0.0000 C   0  0  0  0  0  0  0  0  0  0  0  0
   -1.9941   -1.1845    0.0137 H   0  0  0  0  0  0  0  0  0  0  0  0
   -0.0197   -1.3746    0.0064 C   0  0  0  0  0  0  0  0  0  0  0  0
   -0.0161   -2.3050    0.0079 H   0  0  0  0  0  0  0  0  0  0  0  0
    1.1891   -0.6866   -0.0000 C   0  0  0  0  0  0  0  0  0  0  0  0
    1.9936   -1.1531   -0.0137 H   0  0  0  0  0  0  0  0  0  0  0  0
    1.1842    0.7163   -0.0327 C   0  0  0  0  0  0  0  0  0  0  0  0
    1.9875    1.1852   -0.0213 H   0  0  0  0  0  0  0  0  0  0  0  0
  1  5  1  0
  5  6  1  0
  5  7  2  0
  1  2  1  0
  1  3  1  0
  1  4  1  0
  8 12  1  0
 12 13  2  0
 13 15  1  0
 15 17  2  0
 17 19  1  0
 19 21  2  0
 21 12  1  0
  8  9  1  0
  8 10  1  0
  8 11  1  0
 13 14  1  0
 15 16  1  0
 17 18  1  0
 19 20  1  0
 21 22  1  0
M  CHG  1   6  -1
M  END
>  <PDB_ID>  (2504) 
pdb5lkb

>  <RESIDUE_NAME>  (2504) 
GLU   PHE

>  <FRAG_NAME>  (2504) 
ACET   MBZ

>  <FRAG_ATOM_NUM>  (2504) 
fragi: 7  fragj: 15

>  <atom.prop.CHAIN_ID>  (2504) 
A A A A A A A Z Z Z Z Z Z Z Z Z Z Z Z Z Z Z

>  <atom.prop.IS_HEAVY_ATOM>  (2504) 
1 0 0 0 1 1 1 1 0 0 0 1 1 0 1 0 1 0 1 0 1 0

>  <DIFUSE_FUNC_ATOM>  (2504) 
atom 6   atom 7   

>  <FINAL_SINGLE_POINT_ENERGY>  (2504) 
0

>  <NONCOV_INTER_ENERGY_QM>  (2504) 
0

>  <FF_Energy>  (2504) 
-2.08

>  <QM_Energy>  (2504) 
-7.53

>  <source>  (2504) 
ACET_MBZ_02

>  <Index>  (2504) 
36733

$$$$
ACET-pdb5lly-C-ASP-199:MBZ-pdb5lly-C-PHE-195
     RDKit          3D

 22 21  0  0  0  0  0  0  0  0999 V2000
    4.2446    4.5872   -1.5730 C   0  0  0  0  0  0  0  0  0  0  0  0
    3.3862    5.0787   -1.6686 H   0  0  0  0  0  0  0  0  0  0  0  0
    4.3278    3.8926   -2.2786 H   0  0  0  0  0  0  0  0  0  0  0  0
    5.0631    5.2974   -1.6905 H   0  0  0  0  0  0  0  0  0  0  0  0
    4.2421    3.8833   -0.2054 C   0  0  0  0  0  0  0  0  0  0  0  0
    4.9019    4.3445    0.7645 O   0  0  0  0  0  1  0  0  0  0  0  0
    3.5568    2.8454   -0.1128 O   0  0  0  0  0  0  0  0  0  0  0  0
    0.0108    2.9245   -0.0183 C   0  0  0  0  0  0  0  0  0  0  0  0
   -0.5371    3.2152   -0.7880 H   0  0  0  0  0  0  0  0  0  0  0  0
    0.9499    3.2177   -0.1130 H   0  0  0  0  0  0  0  0  0  0  0  0
   -0.3953    3.3980    0.8755 H   0  0  0  0  0  0  0  0  0  0  0  0
   -0.0008    1.4059    0.0125 C   0  0  0  0  0  0  0  0  0  0  0  0
   -1.1885    0.6960    0.0017 C   0  0  0  0  0  0  0  0  0  0  0  0
   -2.0602    1.1788   -0.0060 H   0  0  0  0  0  0  0  0  0  0  0  0
   -1.1901   -0.6999    0.0000 C   0  0  0  0  0  0  0  0  0  0  0  0
   -2.0705   -1.1899    0.0065 H   0  0  0  0  0  0  0  0  0  0  0  0
    0.0047   -1.3967   -0.0084 C   0  0  0  0  0  0  0  0  0  0  0  0
   -0.0016   -2.3948   -0.0207 H   0  0  0  0  0  0  0  0  0  0  0  0
    1.1901   -0.6999    0.0000 C   0  0  0  0  0  0  0  0  0  0  0  0
    2.0797   -1.1901    0.0118 H   0  0  0  0  0  0  0  0  0  0  0  0
    1.1846    0.6946   -0.0057 C   0  0  0  0  0  0  0  0  0  0  0  0
    2.0594    1.1854   -0.0240 H   0  0  0  0  0  0  0  0  0  0  0  0
  1  5  1  0
  5  6  1  0
  5  7  2  0
  1  2  1  0
  1  3  1  0
  1  4  1  0
  8 12  1  0
 12 13  2  0
 13 15  1  0
 15 17  2  0
 17 19  1  0
 19 21  2  0
 21 12  1  0
  8  9  1  0
  8 10  1  0
  8 11  1  0
 13 14  1  0
 15 16  1  0
 17 18  1  0
 19 20  1  0
 21 22  1  0
M  CHG  1   6  -1
M  END
>  <PDB_ID>  (2505) 
pdb5lly

>  <RESIDUE_NAME>  (2505) 
ASP   PHE

>  <FRAG_NAME>  (2505) 
ACET   MBZ

>  <FRAG_ATOM_NUM>  (2505) 
fragi: 7  fragj: 15

>  <atom.prop.CHAIN_ID>  (2505) 
A A A A A A A Z Z Z Z Z Z Z Z Z Z Z Z Z Z Z

>  <atom.prop.IS_HEAVY_ATOM>  (2505) 
1 0 0 0 1 1 1 1 0 0 0 1 1 0 1 0 1 0 1 0 1 0

>  <DIFUSE_FUNC_ATOM>  (2505) 
atom 6   atom 7   

>  <FINAL_SINGLE_POINT_ENERGY>  (2505) 
0

>  <NONCOV_INTER_ENERGY_QM>  (2505) 
0

>  <FF_Energy>  (2505) 
-1.27

>  <QM_Energy>  (2505) 
-8.1

>  <source>  (2505) 
ACET_MBZ_02

>  <Index>  (2505) 
36809

$$$$
ACET-pdb5lly-C-GLU-302:MBZ-pdb5lly-D-PHE-136
     RDKit          3D

 22 21  0  0  0  0  0  0  0  0999 V2000
    5.8289    1.5185   -0.3740 C   0  0  0  0  0  0  0  0  0  0  0  0
    6.2150    1.9351    0.4297 H   0  0  0  0  0  0  0  0  0  0  0  0
    6.5133    1.3187   -1.0520 H   0  0  0  0  0  0  0  0  0  0  0  0
    5.3375    0.5893   -0.0853 H   0  0  0  0  0  0  0  0  0  0  0  0
    4.8699    2.5364   -0.9914 C   0  0  0  0  0  0  0  0  0  0  0  0
    3.7242    2.1725   -1.3157 O   0  0  0  0  0  1  0  0  0  0  0  0
    5.2552    3.7096   -1.1566 O   0  0  0  0  0  0  0  0  0  0  0  0
   -0.0004    2.8796    0.0258 C   0  0  0  0  0  0  0  0  0  0  0  0
   -0.3862    3.2015   -0.8255 H   0  0  0  0  0  0  0  0  0  0  0  0
    0.9314    3.1887    0.1391 H   0  0  0  0  0  0  0  0  0  0  0  0
   -0.5921    3.2995    0.8392 H   0  0  0  0  0  0  0  0  0  0  0  0
    0.0025    1.3843    0.0021 C   0  0  0  0  0  0  0  0  0  0  0  0
   -1.1829    0.6830    0.0122 C   0  0  0  0  0  0  0  0  0  0  0  0
   -2.0526    1.1801    0.0272 H   0  0  0  0  0  0  0  0  0  0  0  0
   -1.1888   -0.6865    0.0000 C   0  0  0  0  0  0  0  0  0  0  0  0
   -2.0756   -1.1807    0.0003 H   0  0  0  0  0  0  0  0  0  0  0  0
   -0.0125   -1.3737   -0.0099 C   0  0  0  0  0  0  0  0  0  0  0  0
   -0.0122   -2.3793   -0.0244 H   0  0  0  0  0  0  0  0  0  0  0  0
    1.1888   -0.6896    0.0000 C   0  0  0  0  0  0  0  0  0  0  0  0
    2.0662   -1.2005    0.0122 H   0  0  0  0  0  0  0  0  0  0  0  0
    1.1930    0.6825   -0.0044 C   0  0  0  0  0  0  0  0  0  0  0  0
    2.0611    1.1815   -0.0132 H   0  0  0  0  0  0  0  0  0  0  0  0
  1  5  1  0
  5  6  1  0
  5  7  2  0
  1  2  1  0
  1  3  1  0
  1  4  1  0
  8 12  1  0
 12 13  2  0
 13 15  1  0
 15 17  2  0
 17 19  1  0
 19 21  2  0
 21 12  1  0
  8  9  1  0
  8 10  1  0
  8 11  1  0
 13 14  1  0
 15 16  1  0
 17 18  1  0
 19 20  1  0
 21 22  1  0
M  CHG  1   6  -1
M  END
>  <PDB_ID>  (2506) 
pdb5lly

>  <RESIDUE_NAME>  (2506) 
GLU   PHE

>  <FRAG_NAME>  (2506) 
ACET   MBZ

>  <FRAG_ATOM_NUM>  (2506) 
fragi: 7  fragj: 15

>  <atom.prop.CHAIN_ID>  (2506) 
A A A A A A A Z Z Z Z Z Z Z Z Z Z Z Z Z Z Z

>  <atom.prop.IS_HEAVY_ATOM>  (2506) 
1 0 0 0 1 1 1 1 0 0 0 1 1 0 1 0 1 0 1 0 1 0

>  <DIFUSE_FUNC_ATOM>  (2506) 
atom 6   atom 7   

>  <FINAL_SINGLE_POINT_ENERGY>  (2506) 
0

>  <NONCOV_INTER_ENERGY_QM>  (2506) 
0

>  <FF_Energy>  (2506) 
-1.24

>  <QM_Energy>  (2506) 
-6.39

>  <source>  (2506) 
ACET_MBZ_02

>  <Index>  (2506) 
36812

$$$$
ACET-pdb5lly-D-ASP-199:MBZ-pdb5lly-D-PHE-195
     RDKit          3D

 22 21  0  0  0  0  0  0  0  0999 V2000
    4.5076    4.2567   -1.2476 C   0  0  0  0  0  0  0  0  0  0  0  0
    3.6451    4.6815   -1.4989 H   0  0  0  0  0  0  0  0  0  0  0  0
    4.6907    3.4722   -1.8295 H   0  0  0  0  0  0  0  0  0  0  0  0
    5.2989    4.9875   -1.4153 H   0  0  0  0  0  0  0  0  0  0  0  0
    4.4291    3.7968    0.1898 C   0  0  0  0  0  0  0  0  0  0  0  0
    5.0830    4.4148    1.0656 O   0  0  0  0  0  1  0  0  0  0  0  0
    3.7059    2.8193    0.4475 O   0  0  0  0  0  0  0  0  0  0  0  0
    0.0075    2.9125   -0.0053 C   0  0  0  0  0  0  0  0  0  0  0  0
   -0.5818    3.2158   -0.7380 H   0  0  0  0  0  0  0  0  0  0  0  0
    0.9399    3.2093   -0.1457 H   0  0  0  0  0  0  0  0  0  0  0  0
   -0.3504    3.3649    0.9196 H   0  0  0  0  0  0  0  0  0  0  0  0
   -0.0026    1.4030    0.0036 C   0  0  0  0  0  0  0  0  0  0  0  0
   -1.2020    0.6970    0.0002 C   0  0  0  0  0  0  0  0  0  0  0  0
   -2.0668    1.1928   -0.0036 H   0  0  0  0  0  0  0  0  0  0  0  0
   -1.2110   -0.6884   -0.0000 C   0  0  0  0  0  0  0  0  0  0  0  0
   -2.0812   -1.1870    0.0062 H   0  0  0  0  0  0  0  0  0  0  0  0
    0.0025   -1.3919   -0.0072 C   0  0  0  0  0  0  0  0  0  0  0  0
   -0.0120   -2.3918   -0.0173 H   0  0  0  0  0  0  0  0  0  0  0  0
    1.2110   -0.7061    0.0000 C   0  0  0  0  0  0  0  0  0  0  0  0
    2.0857   -1.2040    0.0042 H   0  0  0  0  0  0  0  0  0  0  0  0
    1.2021    0.6864    0.0033 C   0  0  0  0  0  0  0  0  0  0  0  0
    2.0681    1.1873    0.0044 H   0  0  0  0  0  0  0  0  0  0  0  0
  1  5  1  0
  5  6  1  0
  5  7  2  0
  1  2  1  0
  1  3  1  0
  1  4  1  0
  8 12  1  0
 12 13  2  0
 13 15  1  0
 15 17  2  0
 17 19  1  0
 19 21  2  0
 21 12  1  0
  8  9  1  0
  8 10  1  0
  8 11  1  0
 13 14  1  0
 15 16  1  0
 17 18  1  0
 19 20  1  0
 21 22  1  0
M  CHG  1   6  -1
M  END
>  <PDB_ID>  (2507) 
pdb5lly

>  <RESIDUE_NAME>  (2507) 
ASP   PHE

>  <FRAG_NAME>  (2507) 
ACET   MBZ

>  <FRAG_ATOM_NUM>  (2507) 
fragi: 7  fragj: 15

>  <atom.prop.CHAIN_ID>  (2507) 
A A A A A A A Z Z Z Z Z Z Z Z Z Z Z Z Z Z Z

>  <atom.prop.IS_HEAVY_ATOM>  (2507) 
1 0 0 0 1 1 1 1 0 0 0 1 1 0 1 0 1 0 1 0 1 0

>  <DIFUSE_FUNC_ATOM>  (2507) 
atom 6   atom 7   

>  <FINAL_SINGLE_POINT_ENERGY>  (2507) 
0

>  <NONCOV_INTER_ENERGY_QM>  (2507) 
0

>  <FF_Energy>  (2507) 
-2.0

>  <QM_Energy>  (2507) 
-7.51

>  <source>  (2507) 
ACET_MBZ_02

>  <Index>  (2507) 
36814

$$$$
ACET-pdb5lm8-A-GLU-543:MBZ-pdb5lm8-A-PHE-412
     RDKit          3D

 22 21  0  0  0  0  0  0  0  0999 V2000
    1.6297   -1.4238   -3.7318 C   0  0  0  0  0  0  0  0  0  0  0  0
    1.8391   -2.1693   -3.1239 H   0  0  0  0  0  0  0  0  0  0  0  0
    2.1118   -1.5004   -4.5875 H   0  0  0  0  0  0  0  0  0  0  0  0
    0.5598   -1.4441   -3.9391 H   0  0  0  0  0  0  0  0  0  0  0  0
    2.1106   -0.1336   -3.0533 C   0  0  0  0  0  0  0  0  0  0  0  0
    1.3774    0.8813   -3.0780 O   0  0  0  0  0  1  0  0  0  0  0  0
    3.2421   -0.1076   -2.4992 O   0  0  0  0  0  0  0  0  0  0  0  0
   -0.0223    2.9154    0.0323 C   0  0  0  0  0  0  0  0  0  0  0  0
   -0.6686    3.2221   -0.6410 H   0  0  0  0  0  0  0  0  0  0  0  0
    0.8882    3.2371   -0.1474 H   0  0  0  0  0  0  0  0  0  0  0  0
   -0.3336    3.3027    1.0024 H   0  0  0  0  0  0  0  0  0  0  0  0
    0.0027    1.4074   -0.0015 C   0  0  0  0  0  0  0  0  0  0  0  0
   -1.2059    0.6810    0.0087 C   0  0  0  0  0  0  0  0  0  0  0  0
   -2.0716    1.1662    0.0207 H   0  0  0  0  0  0  0  0  0  0  0  0
   -1.2130   -0.7312   -0.0000 C   0  0  0  0  0  0  0  0  0  0  0  0
   -2.0802   -1.2175    0.0060 H   0  0  0  0  0  0  0  0  0  0  0  0
   -0.0001   -1.4022   -0.0153 C   0  0  0  0  0  0  0  0  0  0  0  0
    0.0229   -2.4009   -0.0379 H   0  0  0  0  0  0  0  0  0  0  0  0
    1.2130   -0.6822    0.0000 C   0  0  0  0  0  0  0  0  0  0  0  0
    2.0930   -1.1736    0.0063 H   0  0  0  0  0  0  0  0  0  0  0  0
    1.2033    0.7272    0.0081 C   0  0  0  0  0  0  0  0  0  0  0  0
    2.0661    1.2172    0.0197 H   0  0  0  0  0  0  0  0  0  0  0  0
  1  5  1  0
  5  6  1  0
  5  7  2  0
  1  2  1  0
  1  3  1  0
  1  4  1  0
  8 12  1  0
 12 13  2  0
 13 15  1  0
 15 17  2  0
 17 19  1  0
 19 21  2  0
 21 12  1  0
  8  9  1  0
  8 10  1  0
  8 11  1  0
 13 14  1  0
 15 16  1  0
 17 18  1  0
 19 20  1  0
 21 22  1  0
M  CHG  1   6  -1
M  END
>  <PDB_ID>  (2508) 
pdb5lm8

>  <RESIDUE_NAME>  (2508) 
GLU   PHE

>  <FRAG_NAME>  (2508) 
ACET   MBZ

>  <FRAG_ATOM_NUM>  (2508) 
fragi: 7  fragj: 15

>  <atom.prop.CHAIN_ID>  (2508) 
A A A A A A A Z Z Z Z Z Z Z Z Z Z Z Z Z Z Z

>  <atom.prop.IS_HEAVY_ATOM>  (2508) 
1 0 0 0 1 1 1 1 0 0 0 1 1 0 1 0 1 0 1 0 1 0

>  <DIFUSE_FUNC_ATOM>  (2508) 
atom 6   atom 7   

>  <FINAL_SINGLE_POINT_ENERGY>  (2508) 
0

>  <NONCOV_INTER_ENERGY_QM>  (2508) 
0

>  <FF_Energy>  (2508) 
2.36

>  <QM_Energy>  (2508) 
-3.55

>  <source>  (2508) 
ACET_MBZ_02

>  <Index>  (2508) 
36818

$$$$
ACET-pdb6p0x-A-GLU-320:MBZ-pdb6p0x-A-PHE-317
     RDKit          3D

 22 21  0  0  0  0  0  0  0  0999 V2000
    2.6408    3.9770   -1.8043 C   0  0  0  0  0  0  0  0  0  0  0  0
    2.0729    4.4948   -1.1929 H   0  0  0  0  0  0  0  0  0  0  0  0
    2.1382    3.2872   -2.2892 H   0  0  0  0  0  0  0  0  0  0  0  0
    3.0781    4.6616   -2.5310 H   0  0  0  0  0  0  0  0  0  0  0  0
    3.6912    3.2771   -0.9717 C   0  0  0  0  0  0  0  0  0  0  0  0
    4.7984    3.0728   -1.5062 O   0  0  0  0  0  1  0  0  0  0  0  0
    3.4103    2.9058    0.1879 O   0  0  0  0  0  0  0  0  0  0  0  0
    0.0095    2.9006   -0.0058 C   0  0  0  0  0  0  0  0  0  0  0  0
   -0.7413    3.2078   -0.5731 H   0  0  0  0  0  0  0  0  0  0  0  0
    0.8797    3.1982   -0.3733 H   0  0  0  0  0  0  0  0  0  0  0  0
   -0.1093    3.3516    0.9794 H   0  0  0  0  0  0  0  0  0  0  0  0
    0.0002    1.3969    0.0017 C   0  0  0  0  0  0  0  0  0  0  0  0
   -1.1933    0.6908   -0.0019 C   0  0  0  0  0  0  0  0  0  0  0  0
   -2.0602    1.1820   -0.0073 H   0  0  0  0  0  0  0  0  0  0  0  0
   -1.1963   -0.6935    0.0000 C   0  0  0  0  0  0  0  0  0  0  0  0
   -2.0739   -1.1895    0.0013 H   0  0  0  0  0  0  0  0  0  0  0  0
    0.0005   -1.3869    0.0014 C   0  0  0  0  0  0  0  0  0  0  0  0
   -0.0050   -2.3879    0.0033 H   0  0  0  0  0  0  0  0  0  0  0  0
    1.1963   -0.6953    0.0000 C   0  0  0  0  0  0  0  0  0  0  0  0
    2.0787   -1.1956    0.0013 H   0  0  0  0  0  0  0  0  0  0  0  0
    1.1926    0.6879   -0.0011 C   0  0  0  0  0  0  0  0  0  0  0  0
    2.0625    1.1860   -0.0048 H   0  0  0  0  0  0  0  0  0  0  0  0
  1  5  1  0
  5  6  1  0
  5  7  2  0
  1  2  1  0
  1  3  1  0
  1  4  1  0
  8 12  1  0
 12 13  2  0
 13 15  1  0
 15 17  2  0
 17 19  1  0
 19 21  2  0
 21 12  1  0
  8  9  1  0
  8 10  1  0
  8 11  1  0
 13 14  1  0
 15 16  1  0
 17 18  1  0
 19 20  1  0
 21 22  1  0
M  CHG  1   6  -1
M  END
>  <PDB_ID>  (2509) 
pdb6p0x

>  <RESIDUE_NAME>  (2509) 
GLU   PHE

>  <FRAG_NAME>  (2509) 
ACET   MBZ

>  <FRAG_ATOM_NUM>  (2509) 
fragi: 7  fragj: 15

>  <atom.prop.CHAIN_ID>  (2509) 
A A A A A A A Z Z Z Z Z Z Z Z Z Z Z Z Z Z Z

>  <atom.prop.IS_HEAVY_ATOM>  (2509) 
1 0 0 0 1 1 1 1 0 0 0 1 1 0 1 0 1 0 1 0 1 0

>  <DIFUSE_FUNC_ATOM>  (2509) 
atom 6   atom 7   

>  <FINAL_SINGLE_POINT_ENERGY>  (2509) 
0

>  <NONCOV_INTER_ENERGY_QM>  (2509) 
0

>  <FF_Energy>  (2509) 
2.51

>  <QM_Energy>  (2509) 
-6.11

>  <source>  (2509) 
ACET_MBZ_02

>  <Index>  (2509) 
36866

$$$$
ACET-pdb5lol-A-ASP-151:MBZ-pdb5lol-A-PHE-141
     RDKit          3D

 22 21  0  0  0  0  0  0  0  0999 V2000
   -3.1365    3.0266    3.4615 C   0  0  0  0  0  0  0  0  0  0  0  0
   -2.6043    2.5854    4.1775 H   0  0  0  0  0  0  0  0  0  0  0  0
   -3.5612    2.3431    2.8774 H   0  0  0  0  0  0  0  0  0  0  0  0
   -3.9251    3.6129    3.9330 H   0  0  0  0  0  0  0  0  0  0  0  0
   -2.1828    3.8663    2.6031 C   0  0  0  0  0  0  0  0  0  0  0  0
   -2.6149    4.4401    1.5789 O   0  0  0  0  0  1  0  0  0  0  0  0
   -0.9754    3.9116    2.9347 O   0  0  0  0  0  0  0  0  0  0  0  0
   -0.0047    2.8958   -0.0217 C   0  0  0  0  0  0  0  0  0  0  0  0
    0.9130    3.2047    0.1577 H   0  0  0  0  0  0  0  0  0  0  0  0
   -0.6399    3.2117    0.6618 H   0  0  0  0  0  0  0  0  0  0  0  0
   -0.3146    3.3073   -0.9822 H   0  0  0  0  0  0  0  0  0  0  0  0
   -0.0045    1.3937   -0.0003 C   0  0  0  0  0  0  0  0  0  0  0  0
   -1.1911    0.7006    0.0018 C   0  0  0  0  0  0  0  0  0  0  0  0
   -2.0608    1.1901    0.0032 H   0  0  0  0  0  0  0  0  0  0  0  0
   -1.1995   -0.6878    0.0000 C   0  0  0  0  0  0  0  0  0  0  0  0
   -2.0760   -1.1812   -0.0007 H   0  0  0  0  0  0  0  0  0  0  0  0
    0.0030   -1.3879    0.0011 C   0  0  0  0  0  0  0  0  0  0  0  0
   -0.0083   -2.3879    0.0023 H   0  0  0  0  0  0  0  0  0  0  0  0
    1.1995   -0.6996    0.0000 C   0  0  0  0  0  0  0  0  0  0  0  0
    2.0809   -1.1996    0.0023 H   0  0  0  0  0  0  0  0  0  0  0  0
    1.1926    0.6810   -0.0026 C   0  0  0  0  0  0  0  0  0  0  0  0
    2.0605    1.1841   -0.0075 H   0  0  0  0  0  0  0  0  0  0  0  0
  1  5  1  0
  5  6  1  0
  5  7  2  0
  1  2  1  0
  1  3  1  0
  1  4  1  0
  8 12  1  0
 12 13  2  0
 13 15  1  0
 15 17  2  0
 17 19  1  0
 19 21  2  0
 21 12  1  0
  8  9  1  0
  8 10  1  0
  8 11  1  0
 13 14  1  0
 15 16  1  0
 17 18  1  0
 19 20  1  0
 21 22  1  0
M  CHG  1   6  -1
M  END
>  <PDB_ID>  (2510) 
pdb5lol

>  <RESIDUE_NAME>  (2510) 
ASP   PHE

>  <FRAG_NAME>  (2510) 
ACET   MBZ

>  <FRAG_ATOM_NUM>  (2510) 
fragi: 7  fragj: 15

>  <atom.prop.CHAIN_ID>  (2510) 
A A A A A A A Z Z Z Z Z Z Z Z Z Z Z Z Z Z Z

>  <atom.prop.IS_HEAVY_ATOM>  (2510) 
1 0 0 0 1 1 1 1 0 0 0 1 1 0 1 0 1 0 1 0 1 0

>  <DIFUSE_FUNC_ATOM>  (2510) 
atom 6   atom 7   

>  <FINAL_SINGLE_POINT_ENERGY>  (2510) 
0

>  <NONCOV_INTER_ENERGY_QM>  (2510) 
0

>  <FF_Energy>  (2510) 
-0.06

>  <QM_Energy>  (2510) 
-6.63

>  <source>  (2510) 
ACET_MBZ_02

>  <Index>  (2510) 
36889

$$$$
ACET-pdb6p2l-A-ASP-65:MBZ-pdb6p2l-A-PHE-47
     RDKit          3D

 22 21  0  0  0  0  0  0  0  0999 V2000
    4.5436    3.3105    2.2066 C   0  0  0  0  0  0  0  0  0  0  0  0
    5.4296    3.3747    1.8164 H   0  0  0  0  0  0  0  0  0  0  0  0
    4.2821    2.3800    2.2838 H   0  0  0  0  0  0  0  0  0  0  0  0
    4.5800    3.7394    3.2079 H   0  0  0  0  0  0  0  0  0  0  0  0
    3.5864    3.9624    1.2424 C   0  0  0  0  0  0  0  0  0  0  0  0
    3.0201    5.0422    1.4986 O   0  0  0  0  0  1  0  0  0  0  0  0
    3.4448    3.3566    0.1519 O   0  0  0  0  0  0  0  0  0  0  0  0
    0.0048    2.9072   -0.0709 C   0  0  0  0  0  0  0  0  0  0  0  0
   -0.0347    3.1461   -1.0102 H   0  0  0  0  0  0  0  0  0  0  0  0
    0.8398    3.2145    0.3140 H   0  0  0  0  0  0  0  0  0  0  0  0
   -0.8176    3.4010    0.4466 H   0  0  0  0  0  0  0  0  0  0  0  0
   -0.0054    1.4035    0.0130 C   0  0  0  0  0  0  0  0  0  0  0  0
   -1.1884    0.6763    0.0192 C   0  0  0  0  0  0  0  0  0  0  0  0
   -2.0000    1.1306    0.0365 H   0  0  0  0  0  0  0  0  0  0  0  0
   -1.1892   -0.7274    0.0000 C   0  0  0  0  0  0  0  0  0  0  0  0
   -1.9894   -1.2018    0.0031 H   0  0  0  0  0  0  0  0  0  0  0  0
    0.0086   -1.3835   -0.0250 C   0  0  0  0  0  0  0  0  0  0  0  0
    0.0255   -2.3136   -0.0581 H   0  0  0  0  0  0  0  0  0  0  0  0
    1.1892   -0.6812   -0.0000 C   0  0  0  0  0  0  0  0  0  0  0  0
    1.9986   -1.1397    0.0210 H   0  0  0  0  0  0  0  0  0  0  0  0
    1.1852    0.7122   -0.0072 C   0  0  0  0  0  0  0  0  0  0  0  0
    1.9910    1.1773   -0.0249 H   0  0  0  0  0  0  0  0  0  0  0  0
  1  5  1  0
  5  6  1  0
  5  7  2  0
  1  2  1  0
  1  3  1  0
  1  4  1  0
  8 12  1  0
 12 13  2  0
 13 15  1  0
 15 17  2  0
 17 19  1  0
 19 21  2  0
 21 12  1  0
  8  9  1  0
  8 10  1  0
  8 11  1  0
 13 14  1  0
 15 16  1  0
 17 18  1  0
 19 20  1  0
 21 22  1  0
M  CHG  1   6  -1
M  END
>  <PDB_ID>  (2511) 
pdb6p2l

>  <RESIDUE_NAME>  (2511) 
ASP   PHE

>  <FRAG_NAME>  (2511) 
ACET   MBZ

>  <FRAG_ATOM_NUM>  (2511) 
fragi: 7  fragj: 15

>  <atom.prop.CHAIN_ID>  (2511) 
A A A A A A A Z Z Z Z Z Z Z Z Z Z Z Z Z Z Z

>  <atom.prop.IS_HEAVY_ATOM>  (2511) 
1 0 0 0 1 1 1 1 0 0 0 1 1 0 1 0 1 0 1 0 1 0

>  <DIFUSE_FUNC_ATOM>  (2511) 
atom 6   atom 7   

>  <FINAL_SINGLE_POINT_ENERGY>  (2511) 
0

>  <NONCOV_INTER_ENERGY_QM>  (2511) 
0

>  <FF_Energy>  (2511) 
-2.6

>  <QM_Energy>  (2511) 
-8.14

>  <source>  (2511) 
ACET_MBZ_02

>  <Index>  (2511) 
36918

$$$$
ACET-pdb6p2n-A-ASP-71:MBZ-pdb6p2n-A-PHE-52
     RDKit          3D

 22 21  0  0  0  0  0  0  0  0999 V2000
    4.6707    2.4173    2.6575 C   0  0  0  0  0  0  0  0  0  0  0  0
    5.6067    2.2451    2.3466 H   0  0  0  0  0  0  0  0  0  0  0  0
    4.1862    1.5471    2.7464 H   0  0  0  0  0  0  0  0  0  0  0  0
    4.7265    2.8711    3.6469 H   0  0  0  0  0  0  0  0  0  0  0  0
    3.9613    3.2624    1.6105 C   0  0  0  0  0  0  0  0  0  0  0  0
    3.4155    4.3520    1.8918 O   0  0  0  0  0  1  0  0  0  0  0  0
    3.9649    2.7970    0.4386 O   0  0  0  0  0  0  0  0  0  0  0  0
    0.0507    2.9238   -0.0450 C   0  0  0  0  0  0  0  0  0  0  0  0
    0.0199    3.1993   -0.9990 H   0  0  0  0  0  0  0  0  0  0  0  0
    0.9030    3.2120    0.3749 H   0  0  0  0  0  0  0  0  0  0  0  0
   -0.7651    3.4260    0.4751 H   0  0  0  0  0  0  0  0  0  0  0  0
    0.0014    1.4185    0.0011 C   0  0  0  0  0  0  0  0  0  0  0  0
   -1.2058    0.7033    0.0039 C   0  0  0  0  0  0  0  0  0  0  0  0
   -2.0695    1.1822    0.0070 H   0  0  0  0  0  0  0  0  0  0  0  0
   -1.2035   -0.7125   -0.0000 C   0  0  0  0  0  0  0  0  0  0  0  0
   -2.0837   -1.1957   -0.0000 H   0  0  0  0  0  0  0  0  0  0  0  0
   -0.0055   -1.4053   -0.0022 C   0  0  0  0  0  0  0  0  0  0  0  0
   -0.0010   -2.4021   -0.0060 H   0  0  0  0  0  0  0  0  0  0  0  0
    1.2035   -0.7009   -0.0000 C   0  0  0  0  0  0  0  0  0  0  0  0
    2.0836   -1.2029    0.0054 H   0  0  0  0  0  0  0  0  0  0  0  0
    1.2099    0.6970   -0.0029 C   0  0  0  0  0  0  0  0  0  0  0  0
    2.0738    1.1899   -0.0084 H   0  0  0  0  0  0  0  0  0  0  0  0
  1  5  1  0
  5  6  1  0
  5  7  2  0
  1  2  1  0
  1  3  1  0
  1  4  1  0
  8 12  1  0
 12 13  2  0
 13 15  1  0
 15 17  2  0
 17 19  1  0
 19 21  2  0
 21 12  1  0
  8  9  1  0
  8 10  1  0
  8 11  1  0
 13 14  1  0
 15 16  1  0
 17 18  1  0
 19 20  1  0
 21 22  1  0
M  CHG  1   6  -1
M  END
>  <PDB_ID>  (2512) 
pdb6p2n

>  <RESIDUE_NAME>  (2512) 
ASP   PHE

>  <FRAG_NAME>  (2512) 
ACET   MBZ

>  <FRAG_ATOM_NUM>  (2512) 
fragi: 7  fragj: 15

>  <atom.prop.CHAIN_ID>  (2512) 
A A A A A A A Z Z Z Z Z Z Z Z Z Z Z Z Z Z Z

>  <atom.prop.IS_HEAVY_ATOM>  (2512) 
1 0 0 0 1 1 1 1 0 0 0 1 1 0 1 0 1 0 1 0 1 0

>  <DIFUSE_FUNC_ATOM>  (2512) 
atom 6   atom 7   

>  <FINAL_SINGLE_POINT_ENERGY>  (2512) 
0

>  <NONCOV_INTER_ENERGY_QM>  (2512) 
0

>  <FF_Energy>  (2512) 
-2.78

>  <QM_Energy>  (2512) 
-8.16

>  <source>  (2512) 
ACET_MBZ_02

>  <Index>  (2512) 
36944

$$$$
ACET-pdb5lsc-A-ASP-199:MBZ-pdb5lsc-A-PHE-117
     RDKit          3D

 22 21  0  0  0  0  0  0  0  0999 V2000
   -5.4631    2.8272    1.8699 C   0  0  0  0  0  0  0  0  0  0  0  0
   -5.4945    3.7944    1.9448 H   0  0  0  0  0  0  0  0  0  0  0  0
   -5.1328    2.4419    2.6969 H   0  0  0  0  0  0  0  0  0  0  0  0
   -6.4697    2.4539    1.6816 H   0  0  0  0  0  0  0  0  0  0  0  0
   -4.4820    2.4757    0.7650 C   0  0  0  0  0  0  0  0  0  0  0  0
   -4.5749    1.3587    0.2089 O   0  0  0  0  0  1  0  0  0  0  0  0
   -3.5939    3.3062    0.4614 O   0  0  0  0  0  0  0  0  0  0  0  0
    0.0011    2.9314    0.0104 C   0  0  0  0  0  0  0  0  0  0  0  0
    0.8687    3.2171    0.3352 H   0  0  0  0  0  0  0  0  0  0  0  0
   -0.6889    3.2216    0.6270 H   0  0  0  0  0  0  0  0  0  0  0  0
   -0.1788    3.3990   -0.9577 H   0  0  0  0  0  0  0  0  0  0  0  0
   -0.0068    1.4055   -0.0051 C   0  0  0  0  0  0  0  0  0  0  0  0
   -1.2035    0.6967   -0.0034 C   0  0  0  0  0  0  0  0  0  0  0  0
   -2.0115    1.1556   -0.0018 H   0  0  0  0  0  0  0  0  0  0  0  0
   -1.1998   -0.6892   -0.0000 C   0  0  0  0  0  0  0  0  0  0  0  0
   -2.0053   -1.1549   -0.0025 H   0  0  0  0  0  0  0  0  0  0  0  0
    0.0175   -1.3944    0.0054 C   0  0  0  0  0  0  0  0  0  0  0  0
    0.0185   -2.3237    0.0002 H   0  0  0  0  0  0  0  0  0  0  0  0
    1.1998   -0.7051   -0.0000 C   0  0  0  0  0  0  0  0  0  0  0  0
    2.0074   -1.1668    0.0037 H   0  0  0  0  0  0  0  0  0  0  0  0
    1.1928    0.6866    0.0032 C   0  0  0  0  0  0  0  0  0  0  0  0
    2.0014    1.1464    0.0051 H   0  0  0  0  0  0  0  0  0  0  0  0
  1  5  1  0
  5  6  1  0
  5  7  2  0
  1  2  1  0
  1  3  1  0
  1  4  1  0
  8 12  1  0
 12 13  2  0
 13 15  1  0
 15 17  2  0
 17 19  1  0
 19 21  2  0
 21 12  1  0
  8  9  1  0
  8 10  1  0
  8 11  1  0
 13 14  1  0
 15 16  1  0
 17 18  1  0
 19 20  1  0
 21 22  1  0
M  CHG  1   6  -1
M  END
>  <PDB_ID>  (2513) 
pdb5lsc

>  <RESIDUE_NAME>  (2513) 
ASP   PHE

>  <FRAG_NAME>  (2513) 
ACET   MBZ

>  <FRAG_ATOM_NUM>  (2513) 
fragi: 7  fragj: 15

>  <atom.prop.CHAIN_ID>  (2513) 
A A A A A A A Z Z Z Z Z Z Z Z Z Z Z Z Z Z Z

>  <atom.prop.IS_HEAVY_ATOM>  (2513) 
1 0 0 0 1 1 1 1 0 0 0 1 1 0 1 0 1 0 1 0 1 0

>  <DIFUSE_FUNC_ATOM>  (2513) 
atom 6   atom 7   

>  <FINAL_SINGLE_POINT_ENERGY>  (2513) 
0

>  <NONCOV_INTER_ENERGY_QM>  (2513) 
0

>  <FF_Energy>  (2513) 
-2.98

>  <QM_Energy>  (2513) 
-8.85

>  <source>  (2513) 
ACET_MBZ_02

>  <Index>  (2513) 
36964

$$$$
ACET-pdb5lsc-B-ASP-199:MBZ-pdb5lsc-B-PHE-117
     RDKit          3D

 22 21  0  0  0  0  0  0  0  0999 V2000
   -5.5103    2.7756    1.6504 C   0  0  0  0  0  0  0  0  0  0  0  0
   -5.5277    3.7405    1.7521 H   0  0  0  0  0  0  0  0  0  0  0  0
   -5.2156    2.3614    2.4766 H   0  0  0  0  0  0  0  0  0  0  0  0
   -6.5166    2.4259    1.4197 H   0  0  0  0  0  0  0  0  0  0  0  0
   -4.5043    2.4404    0.5787 C   0  0  0  0  0  0  0  0  0  0  0  0
   -4.5617    1.3424   -0.0341 O   0  0  0  0  0  1  0  0  0  0  0  0
   -3.6222    3.2839    0.3457 O   0  0  0  0  0  0  0  0  0  0  0  0
    0.0344    2.9074    0.0565 C   0  0  0  0  0  0  0  0  0  0  0  0
    0.8766    3.1643    0.4637 H   0  0  0  0  0  0  0  0  0  0  0  0
   -0.6997    3.1868    0.6269 H   0  0  0  0  0  0  0  0  0  0  0  0
   -0.0571    3.4175   -0.9025 H   0  0  0  0  0  0  0  0  0  0  0  0
    0.0052    1.3968   -0.0169 C   0  0  0  0  0  0  0  0  0  0  0  0
   -1.1880    0.6824    0.0106 C   0  0  0  0  0  0  0  0  0  0  0  0
   -1.9970    1.1400    0.0139 H   0  0  0  0  0  0  0  0  0  0  0  0
   -1.1861   -0.6981    0.0000 C   0  0  0  0  0  0  0  0  0  0  0  0
   -1.9915   -1.1640   -0.0059 H   0  0  0  0  0  0  0  0  0  0  0  0
   -0.0072   -1.3792   -0.0052 C   0  0  0  0  0  0  0  0  0  0  0  0
   -0.0066   -2.3094   -0.0187 H   0  0  0  0  0  0  0  0  0  0  0  0
    1.1861   -0.6890   -0.0000 C   0  0  0  0  0  0  0  0  0  0  0  0
    1.9911   -1.1551   -0.0056 H   0  0  0  0  0  0  0  0  0  0  0  0
    1.1899    0.6870    0.0114 C   0  0  0  0  0  0  0  0  0  0  0  0
    1.9995    1.1436    0.0142 H   0  0  0  0  0  0  0  0  0  0  0  0
  1  5  1  0
  5  6  1  0
  5  7  2  0
  1  2  1  0
  1  3  1  0
  1  4  1  0
  8 12  1  0
 12 13  2  0
 13 15  1  0
 15 17  2  0
 17 19  1  0
 19 21  2  0
 21 12  1  0
  8  9  1  0
  8 10  1  0
  8 11  1  0
 13 14  1  0
 15 16  1  0
 17 18  1  0
 19 20  1  0
 21 22  1  0
M  CHG  1   6  -1
M  END
>  <PDB_ID>  (2514) 
pdb5lsc

>  <RESIDUE_NAME>  (2514) 
ASP   PHE

>  <FRAG_NAME>  (2514) 
ACET   MBZ

>  <FRAG_ATOM_NUM>  (2514) 
fragi: 7  fragj: 15

>  <atom.prop.CHAIN_ID>  (2514) 
A A A A A A A Z Z Z Z Z Z Z Z Z Z Z Z Z Z Z

>  <atom.prop.IS_HEAVY_ATOM>  (2514) 
1 0 0 0 1 1 1 1 0 0 0 1 1 0 1 0 1 0 1 0 1 0

>  <DIFUSE_FUNC_ATOM>  (2514) 
atom 6   atom 7   

>  <FINAL_SINGLE_POINT_ENERGY>  (2514) 
0

>  <NONCOV_INTER_ENERGY_QM>  (2514) 
0

>  <FF_Energy>  (2514) 
-2.93

>  <QM_Energy>  (2514) 
-8.56

>  <source>  (2514) 
ACET_MBZ_02

>  <Index>  (2514) 
36966

$$$$
ACET-pdb5ltc-A-ASP-211:MBZ-pdb5ltc-A-PHE-67
     RDKit          3D

 22 21  0  0  0  0  0  0  0  0999 V2000
    3.2445    6.2390   -2.1678 C   0  0  0  0  0  0  0  0  0  0  0  0
    3.2607    6.1101   -3.1509 H   0  0  0  0  0  0  0  0  0  0  0  0
    4.0217    5.7986   -1.7404 H   0  0  0  0  0  0  0  0  0  0  0  0
    3.3128    7.3086   -1.9692 H   0  0  0  0  0  0  0  0  0  0  0  0
    1.9655    5.6207   -1.6137 C   0  0  0  0  0  0  0  0  0  0  0  0
    1.5977    5.9574   -0.4709 O   0  0  0  0  0  1  0  0  0  0  0  0
    1.3624    4.7582   -2.2806 O   0  0  0  0  0  0  0  0  0  0  0  0
    0.0422    2.9009   -0.0381 C   0  0  0  0  0  0  0  0  0  0  0  0
    0.1480    3.1527   -0.9951 H   0  0  0  0  0  0  0  0  0  0  0  0
    0.8259    3.2145    0.4894 H   0  0  0  0  0  0  0  0  0  0  0  0
   -0.8375    3.4199    0.3426 H   0  0  0  0  0  0  0  0  0  0  0  0
   -0.0029    1.3995    0.0444 C   0  0  0  0  0  0  0  0  0  0  0  0
   -1.1922    0.6989   -0.0372 C   0  0  0  0  0  0  0  0  0  0  0  0
   -2.0555    1.1842   -0.1250 H   0  0  0  0  0  0  0  0  0  0  0  0
   -1.1948   -0.6923   -0.0000 C   0  0  0  0  0  0  0  0  0  0  0  0
   -2.0706   -1.1869    0.0235 H   0  0  0  0  0  0  0  0  0  0  0  0
    0.0090   -1.3896    0.0065 C   0  0  0  0  0  0  0  0  0  0  0  0
   -0.0027   -2.3901    0.0154 H   0  0  0  0  0  0  0  0  0  0  0  0
    1.1948   -0.6999   -0.0000 C   0  0  0  0  0  0  0  0  0  0  0  0
    2.0821   -1.1933    0.0061 H   0  0  0  0  0  0  0  0  0  0  0  0
    1.1862    0.6834   -0.0137 C   0  0  0  0  0  0  0  0  0  0  0  0
    2.0564    1.1825   -0.0676 H   0  0  0  0  0  0  0  0  0  0  0  0
  1  5  1  0
  5  6  1  0
  5  7  2  0
  1  2  1  0
  1  3  1  0
  1  4  1  0
  8 12  1  0
 12 13  2  0
 13 15  1  0
 15 17  2  0
 17 19  1  0
 19 21  2  0
 21 12  1  0
  8  9  1  0
  8 10  1  0
  8 11  1  0
 13 14  1  0
 15 16  1  0
 17 18  1  0
 19 20  1  0
 21 22  1  0
M  CHG  1   6  -1
M  END
>  <PDB_ID>  (2515) 
pdb5ltc

>  <RESIDUE_NAME>  (2515) 
ASP   PHE

>  <FRAG_NAME>  (2515) 
ACET   MBZ

>  <FRAG_ATOM_NUM>  (2515) 
fragi: 7  fragj: 15

>  <atom.prop.CHAIN_ID>  (2515) 
A A A A A A A Z Z Z Z Z Z Z Z Z Z Z Z Z Z Z

>  <atom.prop.IS_HEAVY_ATOM>  (2515) 
1 0 0 0 1 1 1 1 0 0 0 1 1 0 1 0 1 0 1 0 1 0

>  <DIFUSE_FUNC_ATOM>  (2515) 
atom 6   atom 7   

>  <FINAL_SINGLE_POINT_ENERGY>  (2515) 
0

>  <NONCOV_INTER_ENERGY_QM>  (2515) 
0

>  <FF_Energy>  (2515) 
-1.01

>  <QM_Energy>  (2515) 
-6.5

>  <source>  (2515) 
ACET_MBZ_02

>  <Index>  (2515) 
37023

$$$$
ACET-pdb5ltu-A-ASP-13:MBZ-pdb5ltu-A-PHE-17
     RDKit          3D

 22 21  0  0  0  0  0  0  0  0999 V2000
   -3.7980    5.7097   -2.2081 C   0  0  0  0  0  0  0  0  0  0  0  0
   -4.5732    5.4849   -2.7899 H   0  0  0  0  0  0  0  0  0  0  0  0
   -3.1320    6.2470   -2.7148 H   0  0  0  0  0  0  0  0  0  0  0  0
   -4.1647    6.3205   -1.3831 H   0  0  0  0  0  0  0  0  0  0  0  0
   -3.1324    4.4062   -1.7603 C   0  0  0  0  0  0  0  0  0  0  0  0
   -3.4792    3.8406   -0.7026 O   0  0  0  0  0  1  0  0  0  0  0  0
   -2.2450    3.9369   -2.5040 O   0  0  0  0  0  0  0  0  0  0  0  0
   -0.0022    2.8961   -0.0078 C   0  0  0  0  0  0  0  0  0  0  0  0
   -0.7233    3.1985   -0.6149 H   0  0  0  0  0  0  0  0  0  0  0  0
    0.8839    3.2029   -0.3234 H   0  0  0  0  0  0  0  0  0  0  0  0
   -0.1796    3.3478    0.9681 H   0  0  0  0  0  0  0  0  0  0  0  0
   -0.0003    1.3951    0.0033 C   0  0  0  0  0  0  0  0  0  0  0  0
   -1.1901    0.6903   -0.0041 C   0  0  0  0  0  0  0  0  0  0  0  0
   -2.0586    1.1814   -0.0138 H   0  0  0  0  0  0  0  0  0  0  0  0
   -1.1931   -0.6904    0.0000 C   0  0  0  0  0  0  0  0  0  0  0  0
   -2.0738   -1.1858    0.0045 H   0  0  0  0  0  0  0  0  0  0  0  0
   -0.0015   -1.3850    0.0003 C   0  0  0  0  0  0  0  0  0  0  0  0
   -0.0084   -2.3877    0.0000 H   0  0  0  0  0  0  0  0  0  0  0  0
    1.1931   -0.6974    0.0000 C   0  0  0  0  0  0  0  0  0  0  0  0
    2.0762   -1.1975    0.0007 H   0  0  0  0  0  0  0  0  0  0  0  0
    1.1919    0.6874    0.0005 C   0  0  0  0  0  0  0  0  0  0  0  0
    2.0614    1.1838   -0.0013 H   0  0  0  0  0  0  0  0  0  0  0  0
  1  5  1  0
  5  6  1  0
  5  7  2  0
  1  2  1  0
  1  3  1  0
  1  4  1  0
  8 12  1  0
 12 13  2  0
 13 15  1  0
 15 17  2  0
 17 19  1  0
 19 21  2  0
 21 12  1  0
  8  9  1  0
  8 10  1  0
  8 11  1  0
 13 14  1  0
 15 16  1  0
 17 18  1  0
 19 20  1  0
 21 22  1  0
M  CHG  1   6  -1
M  END
>  <PDB_ID>  (2516) 
pdb5ltu

>  <RESIDUE_NAME>  (2516) 
ASP   PHE

>  <FRAG_NAME>  (2516) 
ACET   MBZ

>  <FRAG_ATOM_NUM>  (2516) 
fragi: 7  fragj: 15

>  <atom.prop.CHAIN_ID>  (2516) 
A A A A A A A Z Z Z Z Z Z Z Z Z Z Z Z Z Z Z

>  <atom.prop.IS_HEAVY_ATOM>  (2516) 
1 0 0 0 1 1 1 1 0 0 0 1 1 0 1 0 1 0 1 0 1 0

>  <DIFUSE_FUNC_ATOM>  (2516) 
atom 6   atom 7   

>  <FINAL_SINGLE_POINT_ENERGY>  (2516) 
0

>  <NONCOV_INTER_ENERGY_QM>  (2516) 
0

>  <FF_Energy>  (2516) 
-1.76

>  <QM_Energy>  (2516) 
-7.96

>  <source>  (2516) 
ACET_MBZ_02

>  <Index>  (2516) 
37043

$$$$
ACET-pdb6pbz-C-GLU-199:MBZ-pdb6pbz-C-PHE-158
     RDKit          3D

 22 21  0  0  0  0  0  0  0  0999 V2000
    0.3851   -5.3093    0.7124 C   0  0  0  0  0  0  0  0  0  0  0  0
    1.1707   -5.0636    0.1782 H   0  0  0  0  0  0  0  0  0  0  0  0
    0.2020   -6.2727    0.6928 H   0  0  0  0  0  0  0  0  0  0  0  0
    0.5733   -5.0181    1.7458 H   0  0  0  0  0  0  0  0  0  0  0  0
   -0.8150   -4.5997    0.1245 C   0  0  0  0  0  0  0  0  0  0  0  0
   -1.5176   -3.9054    0.8935 O   0  0  0  0  0  1  0  0  0  0  0  0
   -1.0513   -4.7259   -1.0988 O   0  0  0  0  0  0  0  0  0  0  0  0
    0.0084    2.8731   -0.0001 C   0  0  0  0  0  0  0  0  0  0  0  0
    0.8995    3.1812    0.3059 H   0  0  0  0  0  0  0  0  0  0  0  0
   -0.7055    3.1873    0.6109 H   0  0  0  0  0  0  0  0  0  0  0  0
   -0.1763    3.3187   -0.9776 H   0  0  0  0  0  0  0  0  0  0  0  0
    0.0022    1.3848   -0.0035 C   0  0  0  0  0  0  0  0  0  0  0  0
   -1.2038    0.6764    0.0045 C   0  0  0  0  0  0  0  0  0  0  0  0
   -2.0638    1.1788    0.0120 H   0  0  0  0  0  0  0  0  0  0  0  0
   -1.2074   -0.6966    0.0000 C   0  0  0  0  0  0  0  0  0  0  0  0
   -2.0756   -1.2019   -0.0035 H   0  0  0  0  0  0  0  0  0  0  0  0
    0.0008   -1.3767    0.0013 C   0  0  0  0  0  0  0  0  0  0  0  0
    0.0081   -2.3790    0.0028 H   0  0  0  0  0  0  0  0  0  0  0  0
    1.2074   -0.6757   -0.0000 C   0  0  0  0  0  0  0  0  0  0  0  0
    2.0840   -1.1880    0.0018 H   0  0  0  0  0  0  0  0  0  0  0  0
    1.2008    0.6879   -0.0024 C   0  0  0  0  0  0  0  0  0  0  0  0
    2.0636    1.1987   -0.0043 H   0  0  0  0  0  0  0  0  0  0  0  0
  1  5  1  0
  5  6  1  0
  5  7  2  0
  1  2  1  0
  1  3  1  0
  1  4  1  0
  8 12  1  0
 12 13  2  0
 13 15  1  0
 15 17  2  0
 17 19  1  0
 19 21  2  0
 21 12  1  0
  8  9  1  0
  8 10  1  0
  8 11  1  0
 13 14  1  0
 15 16  1  0
 17 18  1  0
 19 20  1  0
 21 22  1  0
M  CHG  1   6  -1
M  END
>  <PDB_ID>  (2517) 
pdb6pbz

>  <RESIDUE_NAME>  (2517) 
GLU   PHE

>  <FRAG_NAME>  (2517) 
ACET   MBZ

>  <FRAG_ATOM_NUM>  (2517) 
fragi: 7  fragj: 15

>  <atom.prop.CHAIN_ID>  (2517) 
A A A A A A A Z Z Z Z Z Z Z Z Z Z Z Z Z Z Z

>  <atom.prop.IS_HEAVY_ATOM>  (2517) 
1 0 0 0 1 1 1 1 0 0 0 1 1 0 1 0 1 0 1 0 1 0

>  <DIFUSE_FUNC_ATOM>  (2517) 
atom 6   atom 7   

>  <FINAL_SINGLE_POINT_ENERGY>  (2517) 
0

>  <NONCOV_INTER_ENERGY_QM>  (2517) 
0

>  <FF_Energy>  (2517) 
0.58

>  <QM_Energy>  (2517) 
-4.99

>  <source>  (2517) 
ACET_MBZ_02

>  <Index>  (2517) 
37089

$$$$
ACET-pdb6pbz-C-GLU-186:MBZ-pdb6pbz-C-PHE-182
     RDKit          3D

 22 21  0  0  0  0  0  0  0  0999 V2000
    0.5610    6.1340    1.8614 C   0  0  0  0  0  0  0  0  0  0  0  0
   -0.1941    5.6843    2.3180 H   0  0  0  0  0  0  0  0  0  0  0  0
    0.3963    6.2019    0.8868 H   0  0  0  0  0  0  0  0  0  0  0  0
    0.6555    7.1415    2.2666 H   0  0  0  0  0  0  0  0  0  0  0  0
    1.7881    5.2618    2.0512 C   0  0  0  0  0  0  0  0  0  0  0  0
    2.8901    5.8209    2.1734 O   0  0  0  0  0  1  0  0  0  0  0  0
    1.6393    4.0262    2.0654 O   0  0  0  0  0  0  0  0  0  0  0  0
    0.0069    2.9018    0.0169 C   0  0  0  0  0  0  0  0  0  0  0  0
    0.6092    3.2107   -0.7152 H   0  0  0  0  0  0  0  0  0  0  0  0
    0.3648    3.1964    0.8996 H   0  0  0  0  0  0  0  0  0  0  0  0
   -0.9613    3.3818   -0.1255 H   0  0  0  0  0  0  0  0  0  0  0  0
    0.0003    1.3971    0.0032 C   0  0  0  0  0  0  0  0  0  0  0  0
   -1.1889    0.6920   -0.0018 C   0  0  0  0  0  0  0  0  0  0  0  0
   -2.0578    1.1802   -0.0078 H   0  0  0  0  0  0  0  0  0  0  0  0
   -1.1897   -0.6931   -0.0000 C   0  0  0  0  0  0  0  0  0  0  0  0
   -2.0725   -1.1861    0.0064 H   0  0  0  0  0  0  0  0  0  0  0  0
   -0.0013   -1.3851   -0.0055 C   0  0  0  0  0  0  0  0  0  0  0  0
   -0.0072   -2.3882   -0.0141 H   0  0  0  0  0  0  0  0  0  0  0  0
    1.1897   -0.6976    0.0000 C   0  0  0  0  0  0  0  0  0  0  0  0
    2.0747   -1.1963    0.0029 H   0  0  0  0  0  0  0  0  0  0  0  0
    1.1899    0.6867    0.0041 C   0  0  0  0  0  0  0  0  0  0  0  0
    2.0615    1.1817    0.0064 H   0  0  0  0  0  0  0  0  0  0  0  0
  1  5  1  0
  5  6  1  0
  5  7  2  0
  1  2  1  0
  1  3  1  0
  1  4  1  0
  8 12  1  0
 12 13  2  0
 13 15  1  0
 15 17  2  0
 17 19  1  0
 19 21  2  0
 21 12  1  0
  8  9  1  0
  8 10  1  0
  8 11  1  0
 13 14  1  0
 15 16  1  0
 17 18  1  0
 19 20  1  0
 21 22  1  0
M  CHG  1   6  -1
M  END
>  <PDB_ID>  (2518) 
pdb6pbz

>  <RESIDUE_NAME>  (2518) 
GLU   PHE

>  <FRAG_NAME>  (2518) 
ACET   MBZ

>  <FRAG_ATOM_NUM>  (2518) 
fragi: 7  fragj: 15

>  <atom.prop.CHAIN_ID>  (2518) 
A A A A A A A Z Z Z Z Z Z Z Z Z Z Z Z Z Z Z

>  <atom.prop.IS_HEAVY_ATOM>  (2518) 
1 0 0 0 1 1 1 1 0 0 0 1 1 0 1 0 1 0 1 0 1 0

>  <DIFUSE_FUNC_ATOM>  (2518) 
atom 6   atom 7   

>  <FINAL_SINGLE_POINT_ENERGY>  (2518) 
0

>  <NONCOV_INTER_ENERGY_QM>  (2518) 
0

>  <FF_Energy>  (2518) 
11.87

>  <QM_Energy>  (2518) 
-4.04

>  <source>  (2518) 
ACET_MBZ_02

>  <Index>  (2518) 
37091

$$$$
ACET-pdb6pex-D-ASP-106:MBZ-pdb6pex-A-PHE-166
     RDKit          3D

 22 21  0  0  0  0  0  0  0  0999 V2000
    5.6783   -0.4931    0.1210 C   0  0  0  0  0  0  0  0  0  0  0  0
    6.6402   -0.3021    0.2877 H   0  0  0  0  0  0  0  0  0  0  0  0
    5.5390   -0.7686   -0.8231 H   0  0  0  0  0  0  0  0  0  0  0  0
    5.3867   -1.3265    0.7601 H   0  0  0  0  0  0  0  0  0  0  0  0
    4.8763    0.7518    0.3934 C   0  0  0  0  0  0  0  0  0  0  0  0
    3.9675    0.6948    1.2476 O   0  0  0  0  0  1  0  0  0  0  0  0
    5.1555    1.7918   -0.2391 O   0  0  0  0  0  0  0  0  0  0  0  0
    0.0067    2.9003   -0.0010 C   0  0  0  0  0  0  0  0  0  0  0  0
   -0.6713    3.2067   -0.6529 H   0  0  0  0  0  0  0  0  0  0  0  0
    0.9139    3.2008   -0.2576 H   0  0  0  0  0  0  0  0  0  0  0  0
   -0.2323    3.3478    0.9637 H   0  0  0  0  0  0  0  0  0  0  0  0
   -0.0003    1.3947    0.0036 C   0  0  0  0  0  0  0  0  0  0  0  0
   -1.1917    0.6865   -0.0040 C   0  0  0  0  0  0  0  0  0  0  0  0
   -2.0596    1.1791   -0.0142 H   0  0  0  0  0  0  0  0  0  0  0  0
   -1.1940   -0.6934   -0.0000 C   0  0  0  0  0  0  0  0  0  0  0  0
   -2.0711   -1.1913    0.0050 H   0  0  0  0  0  0  0  0  0  0  0  0
    0.0029   -1.3837   -0.0005 C   0  0  0  0  0  0  0  0  0  0  0  0
   -0.0010   -2.3863   -0.0018 H   0  0  0  0  0  0  0  0  0  0  0  0
    1.1940   -0.6918    0.0000 C   0  0  0  0  0  0  0  0  0  0  0  0
    2.0791   -1.1910    0.0007 H   0  0  0  0  0  0  0  0  0  0  0  0
    1.1891    0.6876    0.0010 C   0  0  0  0  0  0  0  0  0  0  0  0
    2.0605    1.1870   -0.0006 H   0  0  0  0  0  0  0  0  0  0  0  0
  1  5  1  0
  5  6  1  0
  5  7  2  0
  1  2  1  0
  1  3  1  0
  1  4  1  0
  8 12  1  0
 12 13  2  0
 13 15  1  0
 15 17  2  0
 17 19  1  0
 19 21  2  0
 21 12  1  0
  8  9  1  0
  8 10  1  0
  8 11  1  0
 13 14  1  0
 15 16  1  0
 17 18  1  0
 19 20  1  0
 21 22  1  0
M  CHG  1   6  -1
M  END
>  <PDB_ID>  (2519) 
pdb6pex

>  <RESIDUE_NAME>  (2519) 
ASP   PHE

>  <FRAG_NAME>  (2519) 
ACET   MBZ

>  <FRAG_ATOM_NUM>  (2519) 
fragi: 7  fragj: 15

>  <atom.prop.CHAIN_ID>  (2519) 
A A A A A A A Z Z Z Z Z Z Z Z Z Z Z Z Z Z Z

>  <atom.prop.IS_HEAVY_ATOM>  (2519) 
1 0 0 0 1 1 1 1 0 0 0 1 1 0 1 0 1 0 1 0 1 0

>  <DIFUSE_FUNC_ATOM>  (2519) 
atom 6   atom 7   

>  <FINAL_SINGLE_POINT_ENERGY>  (2519) 
0

>  <NONCOV_INTER_ENERGY_QM>  (2519) 
0

>  <FF_Energy>  (2519) 
-1.37

>  <QM_Energy>  (2519) 
-6.43

>  <source>  (2519) 
ACET_MBZ_02

>  <Index>  (2519) 
37183

$$$$
ACET-pdb5lv9-B-GLU-95:MBZ-pdb5lv9-B-PHE-123
     RDKit          3D

 22 21  0  0  0  0  0  0  0  0999 V2000
   -4.8287    2.1869    0.8580 C   0  0  0  0  0  0  0  0  0  0  0  0
   -4.7826    1.5413    0.1260 H   0  0  0  0  0  0  0  0  0  0  0  0
   -5.7301    2.5308    1.0135 H   0  0  0  0  0  0  0  0  0  0  0  0
   -4.4998    1.6842    1.7675 H   0  0  0  0  0  0  0  0  0  0  0  0
   -3.9344    3.3756    0.4873 C   0  0  0  0  0  0  0  0  0  0  0  0
   -3.0007    3.7055    1.2515 O   0  0  0  0  0  1  0  0  0  0  0  0
   -4.1421    3.9708   -0.5866 O   0  0  0  0  0  0  0  0  0  0  0  0
    0.0068    2.8916    0.0499 C   0  0  0  0  0  0  0  0  0  0  0  0
    0.9388    3.1916    0.2221 H   0  0  0  0  0  0  0  0  0  0  0  0
   -0.5905    3.1722    0.7934 H   0  0  0  0  0  0  0  0  0  0  0  0
   -0.3378    3.3913   -0.8554 H   0  0  0  0  0  0  0  0  0  0  0  0
    0.0024    1.3984   -0.0130 C   0  0  0  0  0  0  0  0  0  0  0  0
   -1.1908    0.6874    0.0070 C   0  0  0  0  0  0  0  0  0  0  0  0
   -2.0598    1.1791    0.0252 H   0  0  0  0  0  0  0  0  0  0  0  0
   -1.1967   -0.6992    0.0000 C   0  0  0  0  0  0  0  0  0  0  0  0
   -2.0760   -1.1922   -0.0029 H   0  0  0  0  0  0  0  0  0  0  0  0
   -0.0016   -1.3927   -0.0011 C   0  0  0  0  0  0  0  0  0  0  0  0
    0.0000   -2.3906   -0.0036 H   0  0  0  0  0  0  0  0  0  0  0  0
    1.1967   -0.6908   -0.0000 C   0  0  0  0  0  0  0  0  0  0  0  0
    2.0797   -1.1879   -0.0033 H   0  0  0  0  0  0  0  0  0  0  0  0
    1.1899    0.6969    0.0071 C   0  0  0  0  0  0  0  0  0  0  0  0
    2.0612    1.1926    0.0261 H   0  0  0  0  0  0  0  0  0  0  0  0
  1  5  1  0
  5  6  1  0
  5  7  2  0
  1  2  1  0
  1  3  1  0
  1  4  1  0
  8 12  1  0
 12 13  2  0
 13 15  1  0
 15 17  2  0
 17 19  1  0
 19 21  2  0
 21 12  1  0
  8  9  1  0
  8 10  1  0
  8 11  1  0
 13 14  1  0
 15 16  1  0
 17 18  1  0
 19 20  1  0
 21 22  1  0
M  CHG  1   6  -1
M  END
>  <PDB_ID>  (2520) 
pdb5lv9

>  <RESIDUE_NAME>  (2520) 
GLU   PHE

>  <FRAG_NAME>  (2520) 
ACET   MBZ

>  <FRAG_ATOM_NUM>  (2520) 
fragi: 7  fragj: 15

>  <atom.prop.CHAIN_ID>  (2520) 
A A A A A A A Z Z Z Z Z Z Z Z Z Z Z Z Z Z Z

>  <atom.prop.IS_HEAVY_ATOM>  (2520) 
1 0 0 0 1 1 1 1 0 0 0 1 1 0 1 0 1 0 1 0 1 0

>  <DIFUSE_FUNC_ATOM>  (2520) 
atom 6   atom 7   

>  <FINAL_SINGLE_POINT_ENERGY>  (2520) 
0

>  <NONCOV_INTER_ENERGY_QM>  (2520) 
0

>  <FF_Energy>  (2520) 
-2.21

>  <QM_Energy>  (2520) 
-7.26

>  <source>  (2520) 
ACET_MBZ_02

>  <Index>  (2520) 
37209

$$$$
ACET-pdb6phr-A-ASP-300:MBZ-pdb6phr-A-PHE-255
     RDKit          3D

 22 21  0  0  0  0  0  0  0  0999 V2000
   -0.7996    1.1343   -3.6361 C   0  0  0  0  0  0  0  0  0  0  0  0
   -1.5836    1.5368   -4.0838 H   0  0  0  0  0  0  0  0  0  0  0  0
   -1.0445    0.7463   -2.7618 H   0  0  0  0  0  0  0  0  0  0  0  0
   -0.4124    0.3374   -4.2708 H   0  0  0  0  0  0  0  0  0  0  0  0
    0.2413    2.2353   -3.4026 C   0  0  0  0  0  0  0  0  0  0  0  0
    1.4515    1.9191   -3.4106 O   0  0  0  0  0  1  0  0  0  0  0  0
   -0.1660    3.3986   -3.2165 O   0  0  0  0  0  0  0  0  0  0  0  0
   -0.0234    2.8805   -0.0066 C   0  0  0  0  0  0  0  0  0  0  0  0
   -0.6391    3.1798   -0.7216 H   0  0  0  0  0  0  0  0  0  0  0  0
    0.8983    3.2026   -0.1704 H   0  0  0  0  0  0  0  0  0  0  0  0
   -0.3653    3.3245    0.9282 H   0  0  0  0  0  0  0  0  0  0  0  0
   -0.0059    1.3919    0.0064 C   0  0  0  0  0  0  0  0  0  0  0  0
   -1.1926    0.6862   -0.0007 C   0  0  0  0  0  0  0  0  0  0  0  0
   -2.0637    1.1833   -0.0074 H   0  0  0  0  0  0  0  0  0  0  0  0
   -1.2067   -0.6925   -0.0000 C   0  0  0  0  0  0  0  0  0  0  0  0
   -2.0773   -1.1914    0.0026 H   0  0  0  0  0  0  0  0  0  0  0  0
    0.0038   -1.3900   -0.0012 C   0  0  0  0  0  0  0  0  0  0  0  0
    0.0019   -2.3861   -0.0035 H   0  0  0  0  0  0  0  0  0  0  0  0
    1.2067   -0.6866   -0.0000 C   0  0  0  0  0  0  0  0  0  0  0  0
    2.0863   -1.1876    0.0055 H   0  0  0  0  0  0  0  0  0  0  0  0
    1.1947    0.6910   -0.0045 C   0  0  0  0  0  0  0  0  0  0  0  0
    2.0588    1.1986   -0.0169 H   0  0  0  0  0  0  0  0  0  0  0  0
  1  5  1  0
  5  6  1  0
  5  7  2  0
  1  2  1  0
  1  3  1  0
  1  4  1  0
  8 12  1  0
 12 13  2  0
 13 15  1  0
 15 17  2  0
 17 19  1  0
 19 21  2  0
 21 12  1  0
  8  9  1  0
  8 10  1  0
  8 11  1  0
 13 14  1  0
 15 16  1  0
 17 18  1  0
 19 20  1  0
 21 22  1  0
M  CHG  1   6  -1
M  END
>  <PDB_ID>  (2521) 
pdb6phr

>  <RESIDUE_NAME>  (2521) 
ASP   PHE

>  <FRAG_NAME>  (2521) 
ACET   MBZ

>  <FRAG_ATOM_NUM>  (2521) 
fragi: 7  fragj: 15

>  <atom.prop.CHAIN_ID>  (2521) 
A A A A A A A Z Z Z Z Z Z Z Z Z Z Z Z Z Z Z

>  <atom.prop.IS_HEAVY_ATOM>  (2521) 
1 0 0 0 1 1 1 1 0 0 0 1 1 0 1 0 1 0 1 0 1 0

>  <DIFUSE_FUNC_ATOM>  (2521) 
atom 6   atom 7   

>  <FINAL_SINGLE_POINT_ENERGY>  (2521) 
0

>  <NONCOV_INTER_ENERGY_QM>  (2521) 
0

>  <FF_Energy>  (2521) 
0.25

>  <QM_Energy>  (2521) 
-5.13

>  <source>  (2521) 
ACET_MBZ_02

>  <Index>  (2521) 
37257

$$$$
ACET-pdb6phr-A-ASP-117:MBZ-pdb6phr-B-PHE-91
     RDKit          3D

 22 21  0  0  0  0  0  0  0  0999 V2000
   -5.1775   -1.9629   -2.0880 C   0  0  0  0  0  0  0  0  0  0  0  0
   -5.4112   -2.9252   -1.9908 H   0  0  0  0  0  0  0  0  0  0  0  0
   -4.3183   -1.8652   -2.5785 H   0  0  0  0  0  0  0  0  0  0  0  0
   -5.9584   -1.4865   -2.6808 H   0  0  0  0  0  0  0  0  0  0  0  0
   -5.0287   -1.3541   -0.7127 C   0  0  0  0  0  0  0  0  0  0  0  0
   -5.7825   -0.4210   -0.3903 O   0  0  0  0  0  1  0  0  0  0  0  0
   -4.1745   -1.8369    0.0608 O   0  0  0  0  0  0  0  0  0  0  0  0
   -0.0241    2.8847    0.0440 C   0  0  0  0  0  0  0  0  0  0  0  0
    0.8952    3.2069    0.2315 H   0  0  0  0  0  0  0  0  0  0  0  0
   -0.6501    3.1664    0.7599 H   0  0  0  0  0  0  0  0  0  0  0  0
   -0.3529    3.3627   -0.8788 H   0  0  0  0  0  0  0  0  0  0  0  0
   -0.0011    1.3924   -0.0029 C   0  0  0  0  0  0  0  0  0  0  0  0
   -1.1830    0.6868    0.0053 C   0  0  0  0  0  0  0  0  0  0  0  0
   -2.0561    1.1795    0.0139 H   0  0  0  0  0  0  0  0  0  0  0  0
   -1.1904   -0.6914    0.0000 C   0  0  0  0  0  0  0  0  0  0  0  0
   -2.0791   -1.1798    0.0063 H   0  0  0  0  0  0  0  0  0  0  0  0
   -0.0161   -1.3816   -0.0117 C   0  0  0  0  0  0  0  0  0  0  0  0
   -0.0153   -2.3862   -0.0290 H   0  0  0  0  0  0  0  0  0  0  0  0
    1.1904   -0.6966    0.0000 C   0  0  0  0  0  0  0  0  0  0  0  0
    2.0667   -1.2049    0.0032 H   0  0  0  0  0  0  0  0  0  0  0  0
    1.2003    0.6905    0.0093 C   0  0  0  0  0  0  0  0  0  0  0  0
    2.0632    1.1832    0.0238 H   0  0  0  0  0  0  0  0  0  0  0  0
  1  5  1  0
  5  6  1  0
  5  7  2  0
  1  2  1  0
  1  3  1  0
  1  4  1  0
  8 12  1  0
 12 13  2  0
 13 15  1  0
 15 17  2  0
 17 19  1  0
 19 21  2  0
 21 12  1  0
  8  9  1  0
  8 10  1  0
  8 11  1  0
 13 14  1  0
 15 16  1  0
 17 18  1  0
 19 20  1  0
 21 22  1  0
M  CHG  1   6  -1
M  END
>  <PDB_ID>  (2522) 
pdb6phr

>  <RESIDUE_NAME>  (2522) 
ASP   PHE

>  <FRAG_NAME>  (2522) 
ACET   MBZ

>  <FRAG_ATOM_NUM>  (2522) 
fragi: 7  fragj: 15

>  <atom.prop.CHAIN_ID>  (2522) 
A A A A A A A Z Z Z Z Z Z Z Z Z Z Z Z Z Z Z

>  <atom.prop.IS_HEAVY_ATOM>  (2522) 
1 0 0 0 1 1 1 1 0 0 0 1 1 0 1 0 1 0 1 0 1 0

>  <DIFUSE_FUNC_ATOM>  (2522) 
atom 6   atom 7   

>  <FINAL_SINGLE_POINT_ENERGY>  (2522) 
0

>  <NONCOV_INTER_ENERGY_QM>  (2522) 
0

>  <FF_Energy>  (2522) 
-1.24

>  <QM_Energy>  (2522) 
-6.52

>  <source>  (2522) 
ACET_MBZ_02

>  <Index>  (2522) 
37262

$$$$
ACET-pdb6pk1-B-GLU-147:MBZ-pdb6pk1-B-PHE-95
     RDKit          3D

 22 21  0  0  0  0  0  0  0  0999 V2000
    5.2345    4.3939   -1.5040 C   0  0  0  0  0  0  0  0  0  0  0  0
    5.5281    4.8196   -2.3250 H   0  0  0  0  0  0  0  0  0  0  0  0
    5.6507    3.5219   -1.4151 H   0  0  0  0  0  0  0  0  0  0  0  0
    5.5419    5.0136   -0.6616 H   0  0  0  0  0  0  0  0  0  0  0  0
    3.7191    4.1732   -1.6153 C   0  0  0  0  0  0  0  0  0  0  0  0
    2.9884    5.1629   -1.9204 O   0  0  0  0  0  1  0  0  0  0  0  0
    3.2568    3.0127   -1.3623 O   0  0  0  0  0  0  0  0  0  0  0  0
   -0.0294    2.8820   -0.0926 C   0  0  0  0  0  0  0  0  0  0  0  0
    0.8663    3.2173    0.0684 H   0  0  0  0  0  0  0  0  0  0  0  0
   -0.6374    3.2221    0.5827 H   0  0  0  0  0  0  0  0  0  0  0  0
   -0.3657    3.2071   -1.0772 H   0  0  0  0  0  0  0  0  0  0  0  0
   -0.0008    1.3842    0.0065 C   0  0  0  0  0  0  0  0  0  0  0  0
   -1.1949    0.6614    0.0005 C   0  0  0  0  0  0  0  0  0  0  0  0
   -2.0046    1.1201   -0.0037 H   0  0  0  0  0  0  0  0  0  0  0  0
   -1.2007   -0.6801   -0.0000 C   0  0  0  0  0  0  0  0  0  0  0  0
   -2.0079   -1.1420   -0.0010 H   0  0  0  0  0  0  0  0  0  0  0  0
   -0.0068   -1.3779    0.0028 C   0  0  0  0  0  0  0  0  0  0  0  0
   -0.0103   -2.3078    0.0055 H   0  0  0  0  0  0  0  0  0  0  0  0
    1.2007   -0.6811   -0.0000 C   0  0  0  0  0  0  0  0  0  0  0  0
    2.0060   -1.1463    0.0044 H   0  0  0  0  0  0  0  0  0  0  0  0
    1.2025    0.6935   -0.0098 C   0  0  0  0  0  0  0  0  0  0  0  0
    2.0068    1.1596   -0.0269 H   0  0  0  0  0  0  0  0  0  0  0  0
  1  5  1  0
  5  6  1  0
  5  7  2  0
  1  2  1  0
  1  3  1  0
  1  4  1  0
  8 12  1  0
 12 13  2  0
 13 15  1  0
 15 17  2  0
 17 19  1  0
 19 21  2  0
 21 12  1  0
  8  9  1  0
  8 10  1  0
  8 11  1  0
 13 14  1  0
 15 16  1  0
 17 18  1  0
 19 20  1  0
 21 22  1  0
M  CHG  1   6  -1
M  END
>  <PDB_ID>  (2523) 
pdb6pk1

>  <RESIDUE_NAME>  (2523) 
GLU   PHE

>  <FRAG_NAME>  (2523) 
ACET   MBZ

>  <FRAG_ATOM_NUM>  (2523) 
fragi: 7  fragj: 15

>  <atom.prop.CHAIN_ID>  (2523) 
A A A A A A A Z Z Z Z Z Z Z Z Z Z Z Z Z Z Z

>  <atom.prop.IS_HEAVY_ATOM>  (2523) 
1 0 0 0 1 1 1 1 0 0 0 1 1 0 1 0 1 0 1 0 1 0

>  <DIFUSE_FUNC_ATOM>  (2523) 
atom 6   atom 7   

>  <FINAL_SINGLE_POINT_ENERGY>  (2523) 
0

>  <NONCOV_INTER_ENERGY_QM>  (2523) 
0

>  <FF_Energy>  (2523) 
-1.84

>  <QM_Energy>  (2523) 
-6.99

>  <source>  (2523) 
ACET_MBZ_02

>  <Index>  (2523) 
37299

$$$$
ACET-pdb6pnv-A-ASP-151:MBZ-pdb6pnv-A-PHE-164
     RDKit          3D

 22 21  0  0  0  0  0  0  0  0999 V2000
    4.7487    3.0656   -1.6886 C   0  0  0  0  0  0  0  0  0  0  0  0
    5.0733    3.7764   -1.0594 H   0  0  0  0  0  0  0  0  0  0  0  0
    5.3341    3.0578   -2.5014 H   0  0  0  0  0  0  0  0  0  0  0  0
    4.8569    2.1027   -1.1892 H   0  0  0  0  0  0  0  0  0  0  0  0
    3.3352    3.4061   -2.1139 C   0  0  0  0  0  0  0  0  0  0  0  0
    2.4917    2.4841   -2.1626 O   0  0  0  0  0  1  0  0  0  0  0  0
    3.1074    4.5868   -2.4606 O   0  0  0  0  0  0  0  0  0  0  0  0
   -0.0320    2.8990    0.0591 C   0  0  0  0  0  0  0  0  0  0  0  0
    0.8942    3.2233   -0.0052 H   0  0  0  0  0  0  0  0  0  0  0  0
   -0.4643    3.1729    0.8987 H   0  0  0  0  0  0  0  0  0  0  0  0
   -0.5985    3.3254   -0.7688 H   0  0  0  0  0  0  0  0  0  0  0  0
   -0.0026    1.3969    0.0203 C   0  0  0  0  0  0  0  0  0  0  0  0
   -1.1896    0.6848    0.0285 C   0  0  0  0  0  0  0  0  0  0  0  0
   -2.0606    1.1727    0.0536 H   0  0  0  0  0  0  0  0  0  0  0  0
   -1.1874   -0.6959    0.0000 C   0  0  0  0  0  0  0  0  0  0  0  0
   -2.0683   -1.1931    0.0009 H   0  0  0  0  0  0  0  0  0  0  0  0
    0.0026   -1.3822   -0.0272 C   0  0  0  0  0  0  0  0  0  0  0  0
   -0.0029   -2.3862   -0.0675 H   0  0  0  0  0  0  0  0  0  0  0  0
    1.1874   -0.6960    0.0000 C   0  0  0  0  0  0  0  0  0  0  0  0
    2.0748   -1.1920    0.0376 H   0  0  0  0  0  0  0  0  0  0  0  0
    1.1896    0.6924   -0.0216 C   0  0  0  0  0  0  0  0  0  0  0  0
    2.0576    1.1850   -0.0686 H   0  0  0  0  0  0  0  0  0  0  0  0
  1  5  1  0
  5  6  1  0
  5  7  2  0
  1  2  1  0
  1  3  1  0
  1  4  1  0
  8 12  1  0
 12 13  2  0
 13 15  1  0
 15 17  2  0
 17 19  1  0
 19 21  2  0
 21 12  1  0
  8  9  1  0
  8 10  1  0
  8 11  1  0
 13 14  1  0
 15 16  1  0
 17 18  1  0
 19 20  1  0
 21 22  1  0
M  CHG  1   6  -1
M  END
>  <PDB_ID>  (2524) 
pdb6pnv

>  <RESIDUE_NAME>  (2524) 
ASP   PHE

>  <FRAG_NAME>  (2524) 
ACET   MBZ

>  <FRAG_ATOM_NUM>  (2524) 
fragi: 7  fragj: 15

>  <atom.prop.CHAIN_ID>  (2524) 
A A A A A A A Z Z Z Z Z Z Z Z Z Z Z Z Z Z Z

>  <atom.prop.IS_HEAVY_ATOM>  (2524) 
1 0 0 0 1 1 1 1 0 0 0 1 1 0 1 0 1 0 1 0 1 0

>  <DIFUSE_FUNC_ATOM>  (2524) 
atom 6   atom 7   

>  <FINAL_SINGLE_POINT_ENERGY>  (2524) 
0

>  <NONCOV_INTER_ENERGY_QM>  (2524) 
0

>  <FF_Energy>  (2524) 
-0.07

>  <QM_Energy>  (2524) 
-5.53

>  <source>  (2524) 
ACET_MBZ_02

>  <Index>  (2524) 
37311

$$$$
ACET-pdb6pqh-B-GLU-356:MBZ-pdb6pqh-B-PHE-342
     RDKit          3D

 22 21  0  0  0  0  0  0  0  0999 V2000
   -3.3587    1.6604    3.1260 C   0  0  0  0  0  0  0  0  0  0  0  0
   -3.6194    1.9522    4.0321 H   0  0  0  0  0  0  0  0  0  0  0  0
   -2.5671    1.0710    3.1477 H   0  0  0  0  0  0  0  0  0  0  0  0
   -4.1894    1.0978    2.7000 H   0  0  0  0  0  0  0  0  0  0  0  0
   -2.9773    2.9076    2.3361 C   0  0  0  0  0  0  0  0  0  0  0  0
   -3.5930    3.1871    1.2814 O   0  0  0  0  0  1  0  0  0  0  0  0
   -2.0533    3.6251    2.7832 O   0  0  0  0  0  0  0  0  0  0  0  0
   -0.0079    2.9158   -0.0058 C   0  0  0  0  0  0  0  0  0  0  0  0
    0.9195    3.2210   -0.1500 H   0  0  0  0  0  0  0  0  0  0  0  0
   -0.3613    3.2218    0.8635 H   0  0  0  0  0  0  0  0  0  0  0  0
   -0.6307    3.3411   -0.7929 H   0  0  0  0  0  0  0  0  0  0  0  0
    0.0007    1.4044    0.0051 C   0  0  0  0  0  0  0  0  0  0  0  0
   -1.1893    0.7019   -0.0034 C   0  0  0  0  0  0  0  0  0  0  0  0
   -2.0608    1.1825   -0.0137 H   0  0  0  0  0  0  0  0  0  0  0  0
   -1.2000   -0.7082   -0.0000 C   0  0  0  0  0  0  0  0  0  0  0  0
   -2.0815   -1.1861    0.0002 H   0  0  0  0  0  0  0  0  0  0  0  0
   -0.0076   -1.3984    0.0045 C   0  0  0  0  0  0  0  0  0  0  0  0
   -0.0006   -2.3965    0.0105 H   0  0  0  0  0  0  0  0  0  0  0  0
    1.2000   -0.6939    0.0000 C   0  0  0  0  0  0  0  0  0  0  0  0
    2.0787   -1.1963    0.0030 H   0  0  0  0  0  0  0  0  0  0  0  0
    1.1962    0.6942   -0.0061 C   0  0  0  0  0  0  0  0  0  0  0  0
    2.0644    1.1914   -0.0197 H   0  0  0  0  0  0  0  0  0  0  0  0
  1  5  1  0
  5  6  1  0
  5  7  2  0
  1  2  1  0
  1  3  1  0
  1  4  1  0
  8 12  1  0
 12 13  2  0
 13 15  1  0
 15 17  2  0
 17 19  1  0
 19 21  2  0
 21 12  1  0
  8  9  1  0
  8 10  1  0
  8 11  1  0
 13 14  1  0
 15 16  1  0
 17 18  1  0
 19 20  1  0
 21 22  1  0
M  CHG  1   6  -1
M  END
>  <PDB_ID>  (2525) 
pdb6pqh

>  <RESIDUE_NAME>  (2525) 
GLU   PHE

>  <FRAG_NAME>  (2525) 
ACET   MBZ

>  <FRAG_ATOM_NUM>  (2525) 
fragi: 7  fragj: 15

>  <atom.prop.CHAIN_ID>  (2525) 
A A A A A A A Z Z Z Z Z Z Z Z Z Z Z Z Z Z Z

>  <atom.prop.IS_HEAVY_ATOM>  (2525) 
1 0 0 0 1 1 1 1 0 0 0 1 1 0 1 0 1 0 1 0 1 0

>  <DIFUSE_FUNC_ATOM>  (2525) 
atom 6   atom 7   

>  <FINAL_SINGLE_POINT_ENERGY>  (2525) 
0

>  <NONCOV_INTER_ENERGY_QM>  (2525) 
0

>  <FF_Energy>  (2525) 
-2.32

>  <QM_Energy>  (2525) 
-8.02

>  <source>  (2525) 
ACET_MBZ_02

>  <Index>  (2525) 
37375

$$$$
ACET-pdb6phr-A-GLU-234:MBZ-pdb6phr-A-PHE-231
     RDKit          3D

 22 21  0  0  0  0  0  0  0  0999 V2000
    3.8115    5.4055    0.2013 C   0  0  0  0  0  0  0  0  0  0  0  0
    4.5432    5.3603    0.8646 H   0  0  0  0  0  0  0  0  0  0  0  0
    2.9264    5.4168    0.6431 H   0  0  0  0  0  0  0  0  0  0  0  0
    3.9215    6.3338   -0.3593 H   0  0  0  0  0  0  0  0  0  0  0  0
    3.8840    4.1532   -0.6477 C   0  0  0  0  0  0  0  0  0  0  0  0
    4.3938    4.2052   -1.7915 O   0  0  0  0  0  1  0  0  0  0  0  0
    3.4213    3.0965   -0.1597 O   0  0  0  0  0  0  0  0  0  0  0  0
   -0.0051    2.8928   -0.0370 C   0  0  0  0  0  0  0  0  0  0  0  0
    0.8208    3.2151    0.3898 H   0  0  0  0  0  0  0  0  0  0  0  0
   -0.8122    3.2149    0.4243 H   0  0  0  0  0  0  0  0  0  0  0  0
   -0.0270    3.2768   -1.0569 H   0  0  0  0  0  0  0  0  0  0  0  0
   -0.0045    1.3954    0.0106 C   0  0  0  0  0  0  0  0  0  0  0  0
   -1.1921    0.6916   -0.0211 C   0  0  0  0  0  0  0  0  0  0  0  0
   -2.0626    1.1732   -0.0605 H   0  0  0  0  0  0  0  0  0  0  0  0
   -1.1932   -0.7057    0.0000 C   0  0  0  0  0  0  0  0  0  0  0  0
   -2.0715   -1.1952    0.0141 H   0  0  0  0  0  0  0  0  0  0  0  0
    0.0013   -1.3868    0.0035 C   0  0  0  0  0  0  0  0  0  0  0  0
    0.0068   -2.3898    0.0083 H   0  0  0  0  0  0  0  0  0  0  0  0
    1.1932   -0.6880   -0.0000 C   0  0  0  0  0  0  0  0  0  0  0  0
    2.0800   -1.1901   -0.0066 H   0  0  0  0  0  0  0  0  0  0  0  0
    1.1953    0.6934    0.0070 C   0  0  0  0  0  0  0  0  0  0  0  0
    2.0596    1.1926    0.0090 H   0  0  0  0  0  0  0  0  0  0  0  0
  1  5  1  0
  5  6  1  0
  5  7  2  0
  1  2  1  0
  1  3  1  0
  1  4  1  0
  8 12  1  0
 12 13  2  0
 13 15  1  0
 15 17  2  0
 17 19  1  0
 19 21  2  0
 21 12  1  0
  8  9  1  0
  8 10  1  0
  8 11  1  0
 13 14  1  0
 15 16  1  0
 17 18  1  0
 19 20  1  0
 21 22  1  0
M  CHG  1   6  -1
M  END
>  <PDB_ID>  (2526) 
pdb6phr

>  <RESIDUE_NAME>  (2526) 
GLU   PHE

>  <FRAG_NAME>  (2526) 
ACET   MBZ

>  <FRAG_ATOM_NUM>  (2526) 
fragi: 7  fragj: 15

>  <atom.prop.CHAIN_ID>  (2526) 
A A A A A A A Z Z Z Z Z Z Z Z Z Z Z Z Z Z Z

>  <atom.prop.IS_HEAVY_ATOM>  (2526) 
1 0 0 0 1 1 1 1 0 0 0 1 1 0 1 0 1 0 1 0 1 0

>  <DIFUSE_FUNC_ATOM>  (2526) 
atom 6   atom 7   

>  <FINAL_SINGLE_POINT_ENERGY>  (2526) 
0

>  <NONCOV_INTER_ENERGY_QM>  (2526) 
0

>  <FF_Energy>  (2526) 
-1.85

>  <QM_Energy>  (2526) 
-7.99

>  <source>  (2526) 
ACET_MBZ_02

>  <Index>  (2526) 
37398

$$$$
ACET-pdb5lnt-D-GLU-111:MBZ-pdb5lnt-D-PHE-138
     RDKit          3D

 22 21  0  0  0  0  0  0  0  0999 V2000
    5.2517    3.1315    0.4304 C   0  0  0  0  0  0  0  0  0  0  0  0
    5.9345    3.1489    1.1379 H   0  0  0  0  0  0  0  0  0  0  0  0
    5.3376    3.8898   -0.1891 H   0  0  0  0  0  0  0  0  0  0  0  0
    5.3651    2.2069   -0.1357 H   0  0  0  0  0  0  0  0  0  0  0  0
    3.8969    3.2421    1.1001 C   0  0  0  0  0  0  0  0  0  0  0  0
    3.4556    2.2739    1.7573 O   0  0  0  0  0  1  0  0  0  0  0  0
    3.2692    4.2997    0.9657 O   0  0  0  0  0  0  0  0  0  0  0  0
    0.0066    2.8961    0.0056 C   0  0  0  0  0  0  0  0  0  0  0  0
   -0.6904    3.2084   -0.6175 H   0  0  0  0  0  0  0  0  0  0  0  0
    0.9039    3.2049   -0.2620 H   0  0  0  0  0  0  0  0  0  0  0  0
   -0.2103    3.3242    0.9842 H   0  0  0  0  0  0  0  0  0  0  0  0
    0.0051    1.3922   -0.0027 C   0  0  0  0  0  0  0  0  0  0  0  0
   -1.1876    0.6899    0.0003 C   0  0  0  0  0  0  0  0  0  0  0  0
   -2.0541    1.1849    0.0012 H   0  0  0  0  0  0  0  0  0  0  0  0
   -1.1931   -0.6885    0.0000 C   0  0  0  0  0  0  0  0  0  0  0  0
   -2.0780   -1.1810    0.0004 H   0  0  0  0  0  0  0  0  0  0  0  0
   -0.0097   -1.3850    0.0011 C   0  0  0  0  0  0  0  0  0  0  0  0
   -0.0110   -2.3846    0.0027 H   0  0  0  0  0  0  0  0  0  0  0  0
    1.1931   -0.6915   -0.0000 C   0  0  0  0  0  0  0  0  0  0  0  0
    2.0721   -1.1991   -0.0005 H   0  0  0  0  0  0  0  0  0  0  0  0
    1.1923    0.6829    0.0013 C   0  0  0  0  0  0  0  0  0  0  0  0
    2.0642    1.1820    0.0048 H   0  0  0  0  0  0  0  0  0  0  0  0
  1  5  1  0
  5  6  1  0
  5  7  2  0
  1  2  1  0
  1  3  1  0
  1  4  1  0
  8 12  1  0
 12 13  2  0
 13 15  1  0
 15 17  2  0
 17 19  1  0
 19 21  2  0
 21 12  1  0
  8  9  1  0
  8 10  1  0
  8 11  1  0
 13 14  1  0
 15 16  1  0
 17 18  1  0
 19 20  1  0
 21 22  1  0
M  CHG  1   6  -1
M  END
>  <PDB_ID>  (2527) 
pdb5lnt

>  <RESIDUE_NAME>  (2527) 
GLU   PHE

>  <FRAG_NAME>  (2527) 
ACET   MBZ

>  <FRAG_ATOM_NUM>  (2527) 
fragi: 7  fragj: 15

>  <atom.prop.CHAIN_ID>  (2527) 
A A A A A A A Z Z Z Z Z Z Z Z Z Z Z Z Z Z Z

>  <atom.prop.IS_HEAVY_ATOM>  (2527) 
1 0 0 0 1 1 1 1 0 0 0 1 1 0 1 0 1 0 1 0 1 0

>  <DIFUSE_FUNC_ATOM>  (2527) 
atom 6   atom 7   

>  <FINAL_SINGLE_POINT_ENERGY>  (2527) 
0

>  <NONCOV_INTER_ENERGY_QM>  (2527) 
0

>  <FF_Energy>  (2527) 
-1.81

>  <QM_Energy>  (2527) 
-6.93

>  <source>  (2527) 
ACET_MBZ_02

>  <Index>  (2527) 
37423

$$$$
ACET-pdb5m27-A-ASP-201:MBZ-pdb5m27-A-PHE-161
     RDKit          3D

 22 21  0  0  0  0  0  0  0  0999 V2000
    0.3150   -0.1111   -3.5267 C   0  0  0  0  0  0  0  0  0  0  0  0
   -0.6505    0.0727   -3.6799 H   0  0  0  0  0  0  0  0  0  0  0  0
    0.4389   -0.6245   -2.6837 H   0  0  0  0  0  0  0  0  0  0  0  0
    0.6706   -0.7311   -4.3497 H   0  0  0  0  0  0  0  0  0  0  0  0
    1.0525    1.2090   -3.4106 C   0  0  0  0  0  0  0  0  0  0  0  0
    2.3003    1.2280   -3.4491 O   0  0  0  0  0  1  0  0  0  0  0  0
    0.3800    2.2405   -3.2682 O   0  0  0  0  0  0  0  0  0  0  0  0
   -0.0026    2.9128   -0.0295 C   0  0  0  0  0  0  0  0  0  0  0  0
   -0.5753    3.1972   -0.7814 H   0  0  0  0  0  0  0  0  0  0  0  0
    0.9305    3.2131   -0.1495 H   0  0  0  0  0  0  0  0  0  0  0  0
   -0.3898    3.3661    0.8831 H   0  0  0  0  0  0  0  0  0  0  0  0
    0.0019    1.3974   -0.0016 C   0  0  0  0  0  0  0  0  0  0  0  0
   -1.1758    0.7129   -0.0087 C   0  0  0  0  0  0  0  0  0  0  0  0
   -2.0513    1.1938   -0.0208 H   0  0  0  0  0  0  0  0  0  0  0  0
   -1.1982   -0.6980    0.0000 C   0  0  0  0  0  0  0  0  0  0  0  0
   -2.0891   -1.1650   -0.0016 H   0  0  0  0  0  0  0  0  0  0  0  0
   -0.0213   -1.3976    0.0119 C   0  0  0  0  0  0  0  0  0  0  0  0
   -0.0163   -2.3948    0.0282 H   0  0  0  0  0  0  0  0  0  0  0  0
    1.1982   -0.6999   -0.0000 C   0  0  0  0  0  0  0  0  0  0  0  0
    2.0694   -1.2083   -0.0056 H   0  0  0  0  0  0  0  0  0  0  0  0
    1.1951    0.6852   -0.0017 C   0  0  0  0  0  0  0  0  0  0  0  0
    2.0654    1.1822   -0.0035 H   0  0  0  0  0  0  0  0  0  0  0  0
  1  5  1  0
  5  6  1  0
  5  7  2  0
  1  2  1  0
  1  3  1  0
  1  4  1  0
  8 12  1  0
 12 13  2  0
 13 15  1  0
 15 17  2  0
 17 19  1  0
 19 21  2  0
 21 12  1  0
  8  9  1  0
  8 10  1  0
  8 11  1  0
 13 14  1  0
 15 16  1  0
 17 18  1  0
 19 20  1  0
 21 22  1  0
M  CHG  1   6  -1
M  END
>  <PDB_ID>  (2528) 
pdb5m27

>  <RESIDUE_NAME>  (2528) 
ASP   PHE

>  <FRAG_NAME>  (2528) 
ACET   MBZ

>  <FRAG_ATOM_NUM>  (2528) 
fragi: 7  fragj: 15

>  <atom.prop.CHAIN_ID>  (2528) 
A A A A A A A Z Z Z Z Z Z Z Z Z Z Z Z Z Z Z

>  <atom.prop.IS_HEAVY_ATOM>  (2528) 
1 0 0 0 1 1 1 1 0 0 0 1 1 0 1 0 1 0 1 0 1 0

>  <DIFUSE_FUNC_ATOM>  (2528) 
atom 6   atom 7   

>  <FINAL_SINGLE_POINT_ENERGY>  (2528) 
0

>  <NONCOV_INTER_ENERGY_QM>  (2528) 
0

>  <FF_Energy>  (2528) 
0.7

>  <QM_Energy>  (2528) 
-5.16

>  <source>  (2528) 
ACET_MBZ_02

>  <Index>  (2528) 
37496

$$$$
ACET-pdb5m27-B-ASP-201:MBZ-pdb5m27-B-PHE-161
     RDKit          3D

 22 21  0  0  0  0  0  0  0  0999 V2000
    0.1619    0.1427   -3.6422 C   0  0  0  0  0  0  0  0  0  0  0  0
   -0.8073    0.3523   -3.7240 H   0  0  0  0  0  0  0  0  0  0  0  0
    0.3286   -0.4024   -2.8272 H   0  0  0  0  0  0  0  0  0  0  0  0
    0.4491   -0.4530   -4.5086 H   0  0  0  0  0  0  0  0  0  0  0  0
    0.9350    1.4265   -3.5417 C   0  0  0  0  0  0  0  0  0  0  0  0
    2.1780    1.3694   -3.4731 O   0  0  0  0  0  1  0  0  0  0  0  0
    0.3040    2.4969   -3.4851 O   0  0  0  0  0  0  0  0  0  0  0  0
    0.0091    2.8543    0.0076 C   0  0  0  0  0  0  0  0  0  0  0  0
   -0.6338    3.1756   -0.6739 H   0  0  0  0  0  0  0  0  0  0  0  0
    0.9266    3.1694   -0.1919 H   0  0  0  0  0  0  0  0  0  0  0  0
   -0.2860    3.2771    0.9680 H   0  0  0  0  0  0  0  0  0  0  0  0
    0.0065    1.3798   -0.0020 C   0  0  0  0  0  0  0  0  0  0  0  0
   -1.1848    0.7030   -0.0002 C   0  0  0  0  0  0  0  0  0  0  0  0
   -2.0482    1.2009    0.0000 H   0  0  0  0  0  0  0  0  0  0  0  0
   -1.1957   -0.6733   -0.0000 C   0  0  0  0  0  0  0  0  0  0  0  0
   -2.0855   -1.1623    0.0054 H   0  0  0  0  0  0  0  0  0  0  0  0
   -0.0178   -1.3818   -0.0049 C   0  0  0  0  0  0  0  0  0  0  0  0
   -0.0297   -2.3823   -0.0128 H   0  0  0  0  0  0  0  0  0  0  0  0
    1.1957   -0.7027    0.0000 C   0  0  0  0  0  0  0  0  0  0  0  0
    2.0662   -1.2137   -0.0001 H   0  0  0  0  0  0  0  0  0  0  0  0
    1.1961    0.6750    0.0071 C   0  0  0  0  0  0  0  0  0  0  0  0
    2.0658    1.1724    0.0181 H   0  0  0  0  0  0  0  0  0  0  0  0
  1  5  1  0
  5  6  1  0
  5  7  2  0
  1  2  1  0
  1  3  1  0
  1  4  1  0
  8 12  1  0
 12 13  2  0
 13 15  1  0
 15 17  2  0
 17 19  1  0
 19 21  2  0
 21 12  1  0
  8  9  1  0
  8 10  1  0
  8 11  1  0
 13 14  1  0
 15 16  1  0
 17 18  1  0
 19 20  1  0
 21 22  1  0
M  CHG  1   6  -1
M  END
>  <PDB_ID>  (2529) 
pdb5m27

>  <RESIDUE_NAME>  (2529) 
ASP   PHE

>  <FRAG_NAME>  (2529) 
ACET   MBZ

>  <FRAG_ATOM_NUM>  (2529) 
fragi: 7  fragj: 15

>  <atom.prop.CHAIN_ID>  (2529) 
A A A A A A A Z Z Z Z Z Z Z Z Z Z Z Z Z Z Z

>  <atom.prop.IS_HEAVY_ATOM>  (2529) 
1 0 0 0 1 1 1 1 0 0 0 1 1 0 1 0 1 0 1 0 1 0

>  <DIFUSE_FUNC_ATOM>  (2529) 
atom 6   atom 7   

>  <FINAL_SINGLE_POINT_ENERGY>  (2529) 
0

>  <NONCOV_INTER_ENERGY_QM>  (2529) 
0

>  <FF_Energy>  (2529) 
0.04

>  <QM_Energy>  (2529) 
-4.97

>  <source>  (2529) 
ACET_MBZ_02

>  <Index>  (2529) 
37499

$$$$
ACET-pdb5m21-F-ASP-45:MBZ-pdb5m21-F-PHE-48
     RDKit          3D

 22 21  0  0  0  0  0  0  0  0999 V2000
    4.1384    4.7982   -2.9373 C   0  0  0  0  0  0  0  0  0  0  0  0
    4.7205    4.3288   -3.5954 H   0  0  0  0  0  0  0  0  0  0  0  0
    4.6926    5.3689   -2.3385 H   0  0  0  0  0  0  0  0  0  0  0  0
    3.4993    5.4715   -3.5085 H   0  0  0  0  0  0  0  0  0  0  0  0
    3.3726    3.8207   -2.1463 C   0  0  0  0  0  0  0  0  0  0  0  0
    2.2805    3.3938   -2.6150 O   0  0  0  0  0  1  0  0  0  0  0  0
    3.8423    3.4700   -1.0432 O   0  0  0  0  0  0  0  0  0  0  0  0
    0.0136    2.8911    0.0356 C   0  0  0  0  0  0  0  0  0  0  0  0
    0.9527    3.1942   -0.0785 H   0  0  0  0  0  0  0  0  0  0  0  0
   -0.3439    3.1847    0.9147 H   0  0  0  0  0  0  0  0  0  0  0  0
   -0.5877    3.3584   -0.7443 H   0  0  0  0  0  0  0  0  0  0  0  0
    0.0012    1.4036    0.0040 C   0  0  0  0  0  0  0  0  0  0  0  0
   -1.2096    0.6951    0.0160 C   0  0  0  0  0  0  0  0  0  0  0  0
   -2.0674    1.1876    0.0347 H   0  0  0  0  0  0  0  0  0  0  0  0
   -1.2041   -0.6930   -0.0000 C   0  0  0  0  0  0  0  0  0  0  0  0
   -2.0751   -1.1971   -0.0023 H   0  0  0  0  0  0  0  0  0  0  0  0
    0.0105   -1.3945   -0.0111 C   0  0  0  0  0  0  0  0  0  0  0  0
   -0.0026   -2.3918   -0.0276 H   0  0  0  0  0  0  0  0  0  0  0  0
    1.2041   -0.7000    0.0000 C   0  0  0  0  0  0  0  0  0  0  0  0
    2.0885   -1.1955    0.0159 H   0  0  0  0  0  0  0  0  0  0  0  0
    1.1979    0.6888   -0.0089 C   0  0  0  0  0  0  0  0  0  0  0  0
    2.0673    1.1872   -0.0260 H   0  0  0  0  0  0  0  0  0  0  0  0
  1  5  1  0
  5  6  1  0
  5  7  2  0
  1  2  1  0
  1  3  1  0
  1  4  1  0
  8 12  1  0
 12 13  2  0
 13 15  1  0
 15 17  2  0
 17 19  1  0
 19 21  2  0
 21 12  1  0
  8  9  1  0
  8 10  1  0
  8 11  1  0
 13 14  1  0
 15 16  1  0
 17 18  1  0
 19 20  1  0
 21 22  1  0
M  CHG  1   6  -1
M  END
>  <PDB_ID>  (2530) 
pdb5m21

>  <RESIDUE_NAME>  (2530) 
ASP   PHE

>  <FRAG_NAME>  (2530) 
ACET   MBZ

>  <FRAG_ATOM_NUM>  (2530) 
fragi: 7  fragj: 15

>  <atom.prop.CHAIN_ID>  (2530) 
A A A A A A A Z Z Z Z Z Z Z Z Z Z Z Z Z Z Z

>  <atom.prop.IS_HEAVY_ATOM>  (2530) 
1 0 0 0 1 1 1 1 0 0 0 1 1 0 1 0 1 0 1 0 1 0

>  <DIFUSE_FUNC_ATOM>  (2530) 
atom 6   atom 7   

>  <FINAL_SINGLE_POINT_ENERGY>  (2530) 
0

>  <NONCOV_INTER_ENERGY_QM>  (2530) 
0

>  <FF_Energy>  (2530) 
-1.62

>  <QM_Energy>  (2530) 
-7.09

>  <source>  (2530) 
ACET_MBZ_02

>  <Index>  (2530) 
37512

$$$$
ACET-pdb5m21-H-ASP-45:MBZ-pdb5m21-H-PHE-48
     RDKit          3D

 22 21  0  0  0  0  0  0  0  0999 V2000
    4.3318    4.7326   -2.9709 C   0  0  0  0  0  0  0  0  0  0  0  0
    4.8497    4.1569   -3.5882 H   0  0  0  0  0  0  0  0  0  0  0  0
    4.9303    5.3030   -2.4284 H   0  0  0  0  0  0  0  0  0  0  0  0
    3.6823    5.3774   -3.5628 H   0  0  0  0  0  0  0  0  0  0  0  0
    3.5351    3.8322   -2.0269 C   0  0  0  0  0  0  0  0  0  0  0  0
    2.4496    3.3545   -2.4147 O   0  0  0  0  0  1  0  0  0  0  0  0
    4.0072    3.5784   -0.8944 O   0  0  0  0  0  0  0  0  0  0  0  0
    0.0120    2.9223    0.0353 C   0  0  0  0  0  0  0  0  0  0  0  0
    0.9540    3.2157   -0.0313 H   0  0  0  0  0  0  0  0  0  0  0  0
   -0.3933    3.2085    0.8915 H   0  0  0  0  0  0  0  0  0  0  0  0
   -0.5477    3.3833   -0.7785 H   0  0  0  0  0  0  0  0  0  0  0  0
    0.0018    1.4099    0.0079 C   0  0  0  0  0  0  0  0  0  0  0  0
   -1.1979    0.6937    0.0389 C   0  0  0  0  0  0  0  0  0  0  0  0
   -2.0631    1.1753    0.0877 H   0  0  0  0  0  0  0  0  0  0  0  0
   -1.1947   -0.7066    0.0000 C   0  0  0  0  0  0  0  0  0  0  0  0
   -2.0776   -1.1957    0.0078 H   0  0  0  0  0  0  0  0  0  0  0  0
   -0.0045   -1.3960   -0.0462 C   0  0  0  0  0  0  0  0  0  0  0  0
   -0.0018   -2.3934   -0.1133 H   0  0  0  0  0  0  0  0  0  0  0  0
    1.1947   -0.6986   -0.0000 C   0  0  0  0  0  0  0  0  0  0  0  0
    2.0773   -1.1984    0.0367 H   0  0  0  0  0  0  0  0  0  0  0  0
    1.2006    0.6976   -0.0006 C   0  0  0  0  0  0  0  0  0  0  0  0
    2.0680    1.1880   -0.0077 H   0  0  0  0  0  0  0  0  0  0  0  0
  1  5  1  0
  5  6  1  0
  5  7  2  0
  1  2  1  0
  1  3  1  0
  1  4  1  0
  8 12  1  0
 12 13  2  0
 13 15  1  0
 15 17  2  0
 17 19  1  0
 19 21  2  0
 21 12  1  0
  8  9  1  0
  8 10  1  0
  8 11  1  0
 13 14  1  0
 15 16  1  0
 17 18  1  0
 19 20  1  0
 21 22  1  0
M  CHG  1   6  -1
M  END
>  <PDB_ID>  (2531) 
pdb5m21

>  <RESIDUE_NAME>  (2531) 
ASP   PHE

>  <FRAG_NAME>  (2531) 
ACET   MBZ

>  <FRAG_ATOM_NUM>  (2531) 
fragi: 7  fragj: 15

>  <atom.prop.CHAIN_ID>  (2531) 
A A A A A A A Z Z Z Z Z Z Z Z Z Z Z Z Z Z Z

>  <atom.prop.IS_HEAVY_ATOM>  (2531) 
1 0 0 0 1 1 1 1 0 0 0 1 1 0 1 0 1 0 1 0 1 0

>  <DIFUSE_FUNC_ATOM>  (2531) 
atom 6   atom 7   

>  <FINAL_SINGLE_POINT_ENERGY>  (2531) 
0

>  <NONCOV_INTER_ENERGY_QM>  (2531) 
0

>  <FF_Energy>  (2531) 
-1.55

>  <QM_Energy>  (2531) 
-7.03

>  <source>  (2531) 
ACET_MBZ_02

>  <Index>  (2531) 
37519

$$$$
ACET-pdb6pw7-B-ASP-177:MBZ-pdb6pw7-B-PHE-181
     RDKit          3D

 22 21  0  0  0  0  0  0  0  0999 V2000
    5.5801    1.9510   -0.9472 C   0  0  0  0  0  0  0  0  0  0  0  0
    6.1964    1.1720   -0.8650 H   0  0  0  0  0  0  0  0  0  0  0  0
    6.0671    2.7336   -1.3235 H   0  0  0  0  0  0  0  0  0  0  0  0
    4.7907    1.6797   -1.6482 H   0  0  0  0  0  0  0  0  0  0  0  0
    5.0613    2.3114    0.4259 C   0  0  0  0  0  0  0  0  0  0  0  0
    3.8678    2.1016    0.7086 O   0  0  0  0  0  1  0  0  0  0  0  0
    5.8704    2.7945    1.2417 O   0  0  0  0  0  0  0  0  0  0  0  0
   -0.0048    2.8954   -0.0098 C   0  0  0  0  0  0  0  0  0  0  0  0
    0.9302    3.2082    0.0024 H   0  0  0  0  0  0  0  0  0  0  0  0
   -0.5048    3.2079    0.7811 H   0  0  0  0  0  0  0  0  0  0  0  0
   -0.4846    3.3171   -0.8930 H   0  0  0  0  0  0  0  0  0  0  0  0
    0.0028    1.3952    0.0037 C   0  0  0  0  0  0  0  0  0  0  0  0
   -1.1847    0.6902    0.0009 C   0  0  0  0  0  0  0  0  0  0  0  0
   -2.0561    1.1760   -0.0017 H   0  0  0  0  0  0  0  0  0  0  0  0
   -1.1932   -0.7050   -0.0000 C   0  0  0  0  0  0  0  0  0  0  0  0
   -2.0756   -1.1887    0.0008 H   0  0  0  0  0  0  0  0  0  0  0  0
   -0.0071   -1.3881   -0.0005 C   0  0  0  0  0  0  0  0  0  0  0  0
    0.0022   -2.3889   -0.0017 H   0  0  0  0  0  0  0  0  0  0  0  0
    1.1932   -0.6867    0.0000 C   0  0  0  0  0  0  0  0  0  0  0  0
    2.0753   -1.1893    0.0048 H   0  0  0  0  0  0  0  0  0  0  0  0
    1.1890    0.6944   -0.0041 C   0  0  0  0  0  0  0  0  0  0  0  0
    2.0605    1.1913   -0.0133 H   0  0  0  0  0  0  0  0  0  0  0  0
  1  5  1  0
  5  6  1  0
  5  7  2  0
  1  2  1  0
  1  3  1  0
  1  4  1  0
  8 12  1  0
 12 13  2  0
 13 15  1  0
 15 17  2  0
 17 19  1  0
 19 21  2  0
 21 12  1  0
  8  9  1  0
  8 10  1  0
  8 11  1  0
 13 14  1  0
 15 16  1  0
 17 18  1  0
 19 20  1  0
 21 22  1  0
M  CHG  1   6  -1
M  END
>  <PDB_ID>  (2532) 
pdb6pw7

>  <RESIDUE_NAME>  (2532) 
ASP   PHE

>  <FRAG_NAME>  (2532) 
ACET   MBZ

>  <FRAG_ATOM_NUM>  (2532) 
fragi: 7  fragj: 15

>  <atom.prop.CHAIN_ID>  (2532) 
A A A A A A A Z Z Z Z Z Z Z Z Z Z Z Z Z Z Z

>  <atom.prop.IS_HEAVY_ATOM>  (2532) 
1 0 0 0 1 1 1 1 0 0 0 1 1 0 1 0 1 0 1 0 1 0

>  <DIFUSE_FUNC_ATOM>  (2532) 
atom 6   atom 7   

>  <FINAL_SINGLE_POINT_ENERGY>  (2532) 
0

>  <NONCOV_INTER_ENERGY_QM>  (2532) 
0

>  <FF_Energy>  (2532) 
0.32

>  <QM_Energy>  (2532) 
-7.04

>  <source>  (2532) 
ACET_MBZ_02

>  <Index>  (2532) 
37535

$$$$
ACET-pdb5m3h-C-GLU-171:MBZ-pdb5m3h-B-PHE-700
     RDKit          3D

 22 21  0  0  0  0  0  0  0  0999 V2000
    5.1377    2.8275    1.5975 C   0  0  0  0  0  0  0  0  0  0  0  0
    5.5917    2.7679    0.7292 H   0  0  0  0  0  0  0  0  0  0  0  0
    4.9261    1.9456    1.9724 H   0  0  0  0  0  0  0  0  0  0  0  0
    5.7946    3.3494    2.2932 H   0  0  0  0  0  0  0  0  0  0  0  0
    3.8255    3.5594    1.3800 C   0  0  0  0  0  0  0  0  0  0  0  0
    3.4484    4.3750    2.2479 O   0  0  0  0  0  1  0  0  0  0  0  0
    3.1728    3.3214    0.3430 O   0  0  0  0  0  0  0  0  0  0  0  0
    0.0015    2.8956    0.0026 C   0  0  0  0  0  0  0  0  0  0  0  0
   -0.8042    3.2040   -0.4794 H   0  0  0  0  0  0  0  0  0  0  0  0
    0.8283    3.2026   -0.4435 H   0  0  0  0  0  0  0  0  0  0  0  0
   -0.0196    3.3309    1.0017 H   0  0  0  0  0  0  0  0  0  0  0  0
    0.0006    1.3944   -0.0013 C   0  0  0  0  0  0  0  0  0  0  0  0
   -1.1913    0.6885    0.0010 C   0  0  0  0  0  0  0  0  0  0  0  0
   -2.0597    1.1808    0.0019 H   0  0  0  0  0  0  0  0  0  0  0  0
   -1.1944   -0.6935   -0.0000 C   0  0  0  0  0  0  0  0  0  0  0  0
   -2.0738   -1.1897    0.0008 H   0  0  0  0  0  0  0  0  0  0  0  0
   -0.0005   -1.3847   -0.0004 C   0  0  0  0  0  0  0  0  0  0  0  0
   -0.0038   -2.3869   -0.0020 H   0  0  0  0  0  0  0  0  0  0  0  0
    1.1944   -0.6926   -0.0000 C   0  0  0  0  0  0  0  0  0  0  0  0
    2.0776   -1.1933    0.0016 H   0  0  0  0  0  0  0  0  0  0  0  0
    1.1912    0.6879    0.0007 C   0  0  0  0  0  0  0  0  0  0  0  0
    2.0618    1.1865    0.0015 H   0  0  0  0  0  0  0  0  0  0  0  0
  1  5  1  0
  5  6  1  0
  5  7  2  0
  1  2  1  0
  1  3  1  0
  1  4  1  0
  8 12  1  0
 12 13  2  0
 13 15  1  0
 15 17  2  0
 17 19  1  0
 19 21  2  0
 21 12  1  0
  8  9  1  0
  8 10  1  0
  8 11  1  0
 13 14  1  0
 15 16  1  0
 17 18  1  0
 19 20  1  0
 21 22  1  0
M  CHG  1   6  -1
M  END
>  <PDB_ID>  (2533) 
pdb5m3h

>  <RESIDUE_NAME>  (2533) 
GLU   PHE

>  <FRAG_NAME>  (2533) 
ACET   MBZ

>  <FRAG_ATOM_NUM>  (2533) 
fragi: 7  fragj: 15

>  <atom.prop.CHAIN_ID>  (2533) 
A A A A A A A Z Z Z Z Z Z Z Z Z Z Z Z Z Z Z

>  <atom.prop.IS_HEAVY_ATOM>  (2533) 
1 0 0 0 1 1 1 1 0 0 0 1 1 0 1 0 1 0 1 0 1 0

>  <DIFUSE_FUNC_ATOM>  (2533) 
atom 6   atom 7   

>  <FINAL_SINGLE_POINT_ENERGY>  (2533) 
0

>  <NONCOV_INTER_ENERGY_QM>  (2533) 
0

>  <FF_Energy>  (2533) 
-1.68

>  <QM_Energy>  (2533) 
-7.94

>  <source>  (2533) 
ACET_MBZ_02

>  <Index>  (2533) 
37574

$$$$
ACET-pdb5m1t-A-ASP-626:MBZ-pdb5m1t-A-PHE-616
     RDKit          3D

 22 21  0  0  0  0  0  0  0  0999 V2000
   -4.9645    3.8531    0.1225 C   0  0  0  0  0  0  0  0  0  0  0  0
   -5.7477    4.2922   -0.2969 H   0  0  0  0  0  0  0  0  0  0  0  0
   -4.2577    4.5145    0.3299 H   0  0  0  0  0  0  0  0  0  0  0  0
   -5.2910    3.4012    1.0591 H   0  0  0  0  0  0  0  0  0  0  0  0
   -4.3938    2.8271   -0.8714 C   0  0  0  0  0  0  0  0  0  0  0  0
   -4.0224    1.6969   -0.4701 O   0  0  0  0  0  1  0  0  0  0  0  0
   -4.3243    3.1449   -2.0804 O   0  0  0  0  0  0  0  0  0  0  0  0
   -0.0220    2.8750   -0.0025 C   0  0  0  0  0  0  0  0  0  0  0  0
    0.8820    3.1968    0.2254 H   0  0  0  0  0  0  0  0  0  0  0  0
   -0.6947    3.1804    0.6510 H   0  0  0  0  0  0  0  0  0  0  0  0
   -0.2899    3.2812   -0.9778 H   0  0  0  0  0  0  0  0  0  0  0  0
   -0.0015    1.3806    0.0145 C   0  0  0  0  0  0  0  0  0  0  0  0
   -1.1855    0.6742   -0.0104 C   0  0  0  0  0  0  0  0  0  0  0  0
   -2.0564    1.1754   -0.0379 H   0  0  0  0  0  0  0  0  0  0  0  0
   -1.1985   -0.6918    0.0000 C   0  0  0  0  0  0  0  0  0  0  0  0
   -2.0733   -1.1910    0.0201 H   0  0  0  0  0  0  0  0  0  0  0  0
   -0.0038   -1.3766   -0.0161 C   0  0  0  0  0  0  0  0  0  0  0  0
    0.0013   -2.3784   -0.0404 H   0  0  0  0  0  0  0  0  0  0  0  0
    1.1985   -0.6785   -0.0000 C   0  0  0  0  0  0  0  0  0  0  0  0
    2.0771   -1.1856    0.0044 H   0  0  0  0  0  0  0  0  0  0  0  0
    1.1908    0.6920    0.0121 C   0  0  0  0  0  0  0  0  0  0  0  0
    2.0562    1.1980    0.0183 H   0  0  0  0  0  0  0  0  0  0  0  0
  1  5  1  0
  5  6  1  0
  5  7  2  0
  1  2  1  0
  1  3  1  0
  1  4  1  0
  8 12  1  0
 12 13  2  0
 13 15  1  0
 15 17  2  0
 17 19  1  0
 19 21  2  0
 21 12  1  0
  8  9  1  0
  8 10  1  0
  8 11  1  0
 13 14  1  0
 15 16  1  0
 17 18  1  0
 19 20  1  0
 21 22  1  0
M  CHG  1   6  -1
M  END
>  <PDB_ID>  (2534) 
pdb5m1t

>  <RESIDUE_NAME>  (2534) 
ASP   PHE

>  <FRAG_NAME>  (2534) 
ACET   MBZ

>  <FRAG_ATOM_NUM>  (2534) 
fragi: 7  fragj: 15

>  <atom.prop.CHAIN_ID>  (2534) 
A A A A A A A Z Z Z Z Z Z Z Z Z Z Z Z Z Z Z

>  <atom.prop.IS_HEAVY_ATOM>  (2534) 
1 0 0 0 1 1 1 1 0 0 0 1 1 0 1 0 1 0 1 0 1 0

>  <DIFUSE_FUNC_ATOM>  (2534) 
atom 6   atom 7   

>  <FINAL_SINGLE_POINT_ENERGY>  (2534) 
0

>  <NONCOV_INTER_ENERGY_QM>  (2534) 
0

>  <FF_Energy>  (2534) 
-1.64

>  <QM_Energy>  (2534) 
-6.71

>  <source>  (2534) 
ACET_MBZ_02

>  <Index>  (2534) 
37612

$$$$
ACET-pdb5m6g-A-ASP-315:MBZ-pdb5m6g-A-PHE-323
     RDKit          3D

 22 21  0  0  0  0  0  0  0  0999 V2000
    4.0302    5.0322    0.5897 C   0  0  0  0  0  0  0  0  0  0  0  0
    4.9066    5.4079    0.3002 H   0  0  0  0  0  0  0  0  0  0  0  0
    3.9098    5.1636    1.5701 H   0  0  0  0  0  0  0  0  0  0  0  0
    3.2440    5.5877    0.0784 H   0  0  0  0  0  0  0  0  0  0  0  0
    4.0052    3.5584    0.2862 C   0  0  0  0  0  0  0  0  0  0  0  0
    3.5509    3.1684   -0.8155 O   0  0  0  0  0  1  0  0  0  0  0  0
    4.4685    2.7916    1.1558 O   0  0  0  0  0  0  0  0  0  0  0  0
    0.0090    2.9120   -0.0314 C   0  0  0  0  0  0  0  0  0  0  0  0
   -0.7117    3.2043   -0.6476 H   0  0  0  0  0  0  0  0  0  0  0  0
    0.8967    3.2055   -0.3649 H   0  0  0  0  0  0  0  0  0  0  0  0
   -0.1602    3.4020    0.9274 H   0  0  0  0  0  0  0  0  0  0  0  0
    0.0027    1.4026    0.0086 C   0  0  0  0  0  0  0  0  0  0  0  0
   -1.1931    0.6933   -0.0092 C   0  0  0  0  0  0  0  0  0  0  0  0
   -2.0604    1.1819   -0.0299 H   0  0  0  0  0  0  0  0  0  0  0  0
   -1.1988   -0.7001   -0.0000 C   0  0  0  0  0  0  0  0  0  0  0  0
   -2.0787   -1.1898    0.0028 H   0  0  0  0  0  0  0  0  0  0  0  0
   -0.0037   -1.3946    0.0076 C   0  0  0  0  0  0  0  0  0  0  0  0
   -0.0014   -2.3920    0.0176 H   0  0  0  0  0  0  0  0  0  0  0  0
    1.1988   -0.6930    0.0000 C   0  0  0  0  0  0  0  0  0  0  0  0
    2.0798   -1.1947    0.0010 H   0  0  0  0  0  0  0  0  0  0  0  0
    1.1941    0.6918   -0.0070 C   0  0  0  0  0  0  0  0  0  0  0  0
    2.0644    1.1891   -0.0248 H   0  0  0  0  0  0  0  0  0  0  0  0
  1  5  1  0
  5  6  1  0
  5  7  2  0
  1  2  1  0
  1  3  1  0
  1  4  1  0
  8 12  1  0
 12 13  2  0
 13 15  1  0
 15 17  2  0
 17 19  1  0
 19 21  2  0
 21 12  1  0
  8  9  1  0
  8 10  1  0
  8 11  1  0
 13 14  1  0
 15 16  1  0
 17 18  1  0
 19 20  1  0
 21 22  1  0
M  CHG  1   6  -1
M  END
>  <PDB_ID>  (2535) 
pdb5m6g

>  <RESIDUE_NAME>  (2535) 
ASP   PHE

>  <FRAG_NAME>  (2535) 
ACET   MBZ

>  <FRAG_ATOM_NUM>  (2535) 
fragi: 7  fragj: 15

>  <atom.prop.CHAIN_ID>  (2535) 
A A A A A A A Z Z Z Z Z Z Z Z Z Z Z Z Z Z Z

>  <atom.prop.IS_HEAVY_ATOM>  (2535) 
1 0 0 0 1 1 1 1 0 0 0 1 1 0 1 0 1 0 1 0 1 0

>  <DIFUSE_FUNC_ATOM>  (2535) 
atom 6   atom 7   

>  <FINAL_SINGLE_POINT_ENERGY>  (2535) 
0

>  <NONCOV_INTER_ENERGY_QM>  (2535) 
0

>  <FF_Energy>  (2535) 
-2.85

>  <QM_Energy>  (2535) 
-8.22

>  <source>  (2535) 
ACET_MBZ_02

>  <Index>  (2535) 
37658

$$$$
ACET-pdb6q55-A-GLU-137:MBZ-pdb6q55-A-PHE-264
     RDKit          3D

 22 21  0  0  0  0  0  0  0  0999 V2000
   -3.6701    0.2400    1.9385 C   0  0  0  0  0  0  0  0  0  0  0  0
   -3.9358    0.6801    2.7834 H   0  0  0  0  0  0  0  0  0  0  0  0
   -2.6862    0.2325    1.8337 H   0  0  0  0  0  0  0  0  0  0  0  0
   -4.0201   -0.7918    1.9658 H   0  0  0  0  0  0  0  0  0  0  0  0
   -4.2404    1.0739    0.7953 C   0  0  0  0  0  0  0  0  0  0  0  0
   -5.0915    0.5504    0.0411 O   0  0  0  0  0  1  0  0  0  0  0  0
   -3.8354    2.2547    0.6510 O   0  0  0  0  0  0  0  0  0  0  0  0
   -0.0178    2.9040    0.0018 C   0  0  0  0  0  0  0  0  0  0  0  0
   -0.6402    3.2067   -0.7028 H   0  0  0  0  0  0  0  0  0  0  0  0
    0.9023    3.2200   -0.1658 H   0  0  0  0  0  0  0  0  0  0  0  0
   -0.3503    3.3324    0.9473 H   0  0  0  0  0  0  0  0  0  0  0  0
   -0.0012    1.3978   -0.0068 C   0  0  0  0  0  0  0  0  0  0  0  0
   -1.1922    0.6840   -0.0205 C   0  0  0  0  0  0  0  0  0  0  0  0
   -2.0616    1.1710   -0.0462 H   0  0  0  0  0  0  0  0  0  0  0  0
   -1.1893   -0.7014    0.0000 C   0  0  0  0  0  0  0  0  0  0  0  0
   -2.0696   -1.1976   -0.0008 H   0  0  0  0  0  0  0  0  0  0  0  0
    0.0018   -1.3865    0.0237 C   0  0  0  0  0  0  0  0  0  0  0  0
    0.0041   -2.3877    0.0571 H   0  0  0  0  0  0  0  0  0  0  0  0
    1.1893   -0.6892    0.0000 C   0  0  0  0  0  0  0  0  0  0  0  0
    2.0774   -1.1882   -0.0193 H   0  0  0  0  0  0  0  0  0  0  0  0
    1.1915    0.6953    0.0036 C   0  0  0  0  0  0  0  0  0  0  0  0
    2.0594    1.1904    0.0133 H   0  0  0  0  0  0  0  0  0  0  0  0
  1  5  1  0
  5  6  1  0
  5  7  2  0
  1  2  1  0
  1  3  1  0
  1  4  1  0
  8 12  1  0
 12 13  2  0
 13 15  1  0
 15 17  2  0
 17 19  1  0
 19 21  2  0
 21 12  1  0
  8  9  1  0
  8 10  1  0
  8 11  1  0
 13 14  1  0
 15 16  1  0
 17 18  1  0
 19 20  1  0
 21 22  1  0
M  CHG  1   6  -1
M  END
>  <PDB_ID>  (2536) 
pdb6q55

>  <RESIDUE_NAME>  (2536) 
GLU   PHE

>  <FRAG_NAME>  (2536) 
ACET   MBZ

>  <FRAG_ATOM_NUM>  (2536) 
fragi: 7  fragj: 15

>  <atom.prop.CHAIN_ID>  (2536) 
A A A A A A A Z Z Z Z Z Z Z Z Z Z Z Z Z Z Z

>  <atom.prop.IS_HEAVY_ATOM>  (2536) 
1 0 0 0 1 1 1 1 0 0 0 1 1 0 1 0 1 0 1 0 1 0

>  <DIFUSE_FUNC_ATOM>  (2536) 
atom 6   atom 7   

>  <FINAL_SINGLE_POINT_ENERGY>  (2536) 
0

>  <NONCOV_INTER_ENERGY_QM>  (2536) 
0

>  <FF_Energy>  (2536) 
5.57

>  <QM_Energy>  (2536) 
-4.72

>  <source>  (2536) 
ACET_MBZ_02

>  <Index>  (2536) 
37682

$$$$
ACET-pdb5m8e-A-ASP-308:MBZ-pdb5m8e-A-PHE-312
     RDKit          3D

 22 21  0  0  0  0  0  0  0  0999 V2000
   -3.1495    6.5997   -1.3911 C   0  0  0  0  0  0  0  0  0  0  0  0
   -3.9213    6.5618   -2.0402 H   0  0  0  0  0  0  0  0  0  0  0  0
   -2.4546    7.2259   -1.7677 H   0  0  0  0  0  0  0  0  0  0  0  0
   -3.5243    7.0505   -0.4722 H   0  0  0  0  0  0  0  0  0  0  0  0
   -2.5463    5.2158   -1.2698 C   0  0  0  0  0  0  0  0  0  0  0  0
   -2.9341    4.4707   -0.3362 O   0  0  0  0  0  1  0  0  0  0  0  0
   -1.7304    4.8504   -2.1421 O   0  0  0  0  0  0  0  0  0  0  0  0
    0.0004    2.9197    0.0364 C   0  0  0  0  0  0  0  0  0  0  0  0
   -0.7719    3.2384   -0.4814 H   0  0  0  0  0  0  0  0  0  0  0  0
    0.8545    3.2334   -0.3356 H   0  0  0  0  0  0  0  0  0  0  0  0
   -0.0886    3.3173    1.0475 H   0  0  0  0  0  0  0  0  0  0  0  0
   -0.0007    1.4077   -0.0042 C   0  0  0  0  0  0  0  0  0  0  0  0
   -1.1958    0.6943    0.0201 C   0  0  0  0  0  0  0  0  0  0  0  0
   -2.0640    1.1773    0.0507 H   0  0  0  0  0  0  0  0  0  0  0  0
   -1.1939   -0.7045   -0.0000 C   0  0  0  0  0  0  0  0  0  0  0  0
   -2.0716   -1.1959   -0.0125 H   0  0  0  0  0  0  0  0  0  0  0  0
    0.0051   -1.3929   -0.0013 C   0  0  0  0  0  0  0  0  0  0  0  0
    0.0006   -2.3958   -0.0038 H   0  0  0  0  0  0  0  0  0  0  0  0
    1.1939   -0.7013   -0.0000 C   0  0  0  0  0  0  0  0  0  0  0  0
    2.0814   -1.1920    0.0126 H   0  0  0  0  0  0  0  0  0  0  0  0
    1.1914    0.6967   -0.0147 C   0  0  0  0  0  0  0  0  0  0  0  0
    2.0628    1.1867   -0.0343 H   0  0  0  0  0  0  0  0  0  0  0  0
  1  5  1  0
  5  6  1  0
  5  7  2  0
  1  2  1  0
  1  3  1  0
  1  4  1  0
  8 12  1  0
 12 13  2  0
 13 15  1  0
 15 17  2  0
 17 19  1  0
 19 21  2  0
 21 12  1  0
  8  9  1  0
  8 10  1  0
  8 11  1  0
 13 14  1  0
 15 16  1  0
 17 18  1  0
 19 20  1  0
 21 22  1  0
M  CHG  1   6  -1
M  END
>  <PDB_ID>  (2537) 
pdb5m8e

>  <RESIDUE_NAME>  (2537) 
ASP   PHE

>  <FRAG_NAME>  (2537) 
ACET   MBZ

>  <FRAG_ATOM_NUM>  (2537) 
fragi: 7  fragj: 15

>  <atom.prop.CHAIN_ID>  (2537) 
A A A A A A A Z Z Z Z Z Z Z Z Z Z Z Z Z Z Z

>  <atom.prop.IS_HEAVY_ATOM>  (2537) 
1 0 0 0 1 1 1 1 0 0 0 1 1 0 1 0 1 0 1 0 1 0

>  <DIFUSE_FUNC_ATOM>  (2537) 
atom 6   atom 7   

>  <FINAL_SINGLE_POINT_ENERGY>  (2537) 
0

>  <NONCOV_INTER_ENERGY_QM>  (2537) 
0

>  <FF_Energy>  (2537) 
-1.15

>  <QM_Energy>  (2537) 
-7.44

>  <source>  (2537) 
ACET_MBZ_02

>  <Index>  (2537) 
37703

$$$$
ACET-pdb5m86-A-GLU-92:MBZ-pdb5m86-A-PHE-100
     RDKit          3D

 22 21  0  0  0  0  0  0  0  0999 V2000
    5.1951    4.2367   -0.6599 C   0  0  0  0  0  0  0  0  0  0  0  0
    5.6494    3.9518   -1.4674 H   0  0  0  0  0  0  0  0  0  0  0  0
    5.3740    3.6109    0.0601 H   0  0  0  0  0  0  0  0  0  0  0  0
    5.5644    5.2213   -0.3731 H   0  0  0  0  0  0  0  0  0  0  0  0
    3.7112    4.2221   -0.9317 C   0  0  0  0  0  0  0  0  0  0  0  0
    3.0926    5.3066   -0.9110 O   0  0  0  0  0  1  0  0  0  0  0  0
    3.1590    3.1199   -1.1358 O   0  0  0  0  0  0  0  0  0  0  0  0
   -0.0089    2.8813   -0.0281 C   0  0  0  0  0  0  0  0  0  0  0  0
    0.8839    3.1922    0.1918 H   0  0  0  0  0  0  0  0  0  0  0  0
   -0.6436    3.1967    0.6349 H   0  0  0  0  0  0  0  0  0  0  0  0
   -0.2914    3.2700   -1.0064 H   0  0  0  0  0  0  0  0  0  0  0  0
   -0.0022    1.3891    0.0092 C   0  0  0  0  0  0  0  0  0  0  0  0
   -1.1922    0.6861   -0.0001 C   0  0  0  0  0  0  0  0  0  0  0  0
   -1.9989    1.1480   -0.0033 H   0  0  0  0  0  0  0  0  0  0  0  0
   -1.1936   -0.6905   -0.0000 C   0  0  0  0  0  0  0  0  0  0  0  0
   -1.9978   -1.1564    0.0041 H   0  0  0  0  0  0  0  0  0  0  0  0
    0.0048   -1.3760   -0.0040 C   0  0  0  0  0  0  0  0  0  0  0  0
    0.0055   -2.3060    0.0056 H   0  0  0  0  0  0  0  0  0  0  0  0
    1.1936   -0.6929    0.0000 C   0  0  0  0  0  0  0  0  0  0  0  0
    1.9985   -1.1575   -0.0012 H   0  0  0  0  0  0  0  0  0  0  0  0
    1.1896    0.6842   -0.0051 C   0  0  0  0  0  0  0  0  0  0  0  0
    1.9966    1.1465   -0.0083 H   0  0  0  0  0  0  0  0  0  0  0  0
  1  5  1  0
  5  6  1  0
  5  7  2  0
  1  2  1  0
  1  3  1  0
  1  4  1  0
  8 12  1  0
 12 13  2  0
 13 15  1  0
 15 17  2  0
 17 19  1  0
 19 21  2  0
 21 12  1  0
  8  9  1  0
  8 10  1  0
  8 11  1  0
 13 14  1  0
 15 16  1  0
 17 18  1  0
 19 20  1  0
 21 22  1  0
M  CHG  1   6  -1
M  END
>  <PDB_ID>  (2538) 
pdb5m86

>  <RESIDUE_NAME>  (2538) 
GLU   PHE

>  <FRAG_NAME>  (2538) 
ACET   MBZ

>  <FRAG_ATOM_NUM>  (2538) 
fragi: 7  fragj: 15

>  <atom.prop.CHAIN_ID>  (2538) 
A A A A A A A Z Z Z Z Z Z Z Z Z Z Z Z Z Z Z

>  <atom.prop.IS_HEAVY_ATOM>  (2538) 
1 0 0 0 1 1 1 1 0 0 0 1 1 0 1 0 1 0 1 0 1 0

>  <DIFUSE_FUNC_ATOM>  (2538) 
atom 6   atom 7   

>  <FINAL_SINGLE_POINT_ENERGY>  (2538) 
0

>  <NONCOV_INTER_ENERGY_QM>  (2538) 
0

>  <FF_Energy>  (2538) 
-1.9

>  <QM_Energy>  (2538) 
-7.39

>  <source>  (2538) 
ACET_MBZ_02

>  <Index>  (2538) 
37727

$$$$
ACET-pdb5m8l-C-GLU-360:MBZ-pdb5m8l-C-PHE-220
     RDKit          3D

 22 21  0  0  0  0  0  0  0  0999 V2000
   -0.0182    0.0035   -3.8345 C   0  0  0  0  0  0  0  0  0  0  0  0
   -0.2481   -0.2212   -4.7611 H   0  0  0  0  0  0  0  0  0  0  0  0
   -0.4455   -0.5935   -3.1838 H   0  0  0  0  0  0  0  0  0  0  0  0
    1.0621   -0.0864   -3.7212 H   0  0  0  0  0  0  0  0  0  0  0  0
   -0.5112    1.4104   -3.5643 C   0  0  0  0  0  0  0  0  0  0  0  0
    0.2900    2.2366   -3.1171 O   0  0  0  0  0  1  0  0  0  0  0  0
   -1.6920    1.7055   -3.7930 O   0  0  0  0  0  0  0  0  0  0  0  0
    0.0004    2.8944   -0.0126 C   0  0  0  0  0  0  0  0  0  0  0  0
   -0.6931    3.1944   -0.6539 H   0  0  0  0  0  0  0  0  0  0  0  0
    0.9001    3.1955   -0.2992 H   0  0  0  0  0  0  0  0  0  0  0  0
   -0.2144    3.3585    0.9498 H   0  0  0  0  0  0  0  0  0  0  0  0
   -0.0025    1.3937    0.0068 C   0  0  0  0  0  0  0  0  0  0  0  0
   -1.1832    0.6906   -0.0012 C   0  0  0  0  0  0  0  0  0  0  0  0
   -2.0565    1.1761   -0.0085 H   0  0  0  0  0  0  0  0  0  0  0  0
   -1.1844   -0.6946   -0.0000 C   0  0  0  0  0  0  0  0  0  0  0  0
   -2.0677   -1.1866    0.0031 H   0  0  0  0  0  0  0  0  0  0  0  0
    0.0023   -1.3831   -0.0011 C   0  0  0  0  0  0  0  0  0  0  0  0
   -0.0030   -2.3876   -0.0034 H   0  0  0  0  0  0  0  0  0  0  0  0
    1.1844   -0.6955    0.0000 C   0  0  0  0  0  0  0  0  0  0  0  0
    2.0736   -1.1909    0.0054 H   0  0  0  0  0  0  0  0  0  0  0  0
    1.1834    0.6888   -0.0046 C   0  0  0  0  0  0  0  0  0  0  0  0
    2.0563    1.1827   -0.0173 H   0  0  0  0  0  0  0  0  0  0  0  0
  1  5  1  0
  5  6  1  0
  5  7  2  0
  1  2  1  0
  1  3  1  0
  1  4  1  0
  8 12  1  0
 12 13  2  0
 13 15  1  0
 15 17  2  0
 17 19  1  0
 19 21  2  0
 21 12  1  0
  8  9  1  0
  8 10  1  0
  8 11  1  0
 13 14  1  0
 15 16  1  0
 17 18  1  0
 19 20  1  0
 21 22  1  0
M  CHG  1   6  -1
M  END
>  <PDB_ID>  (2539) 
pdb5m8l

>  <RESIDUE_NAME>  (2539) 
GLU   PHE

>  <FRAG_NAME>  (2539) 
ACET   MBZ

>  <FRAG_ATOM_NUM>  (2539) 
fragi: 7  fragj: 15

>  <atom.prop.CHAIN_ID>  (2539) 
A A A A A A A Z Z Z Z Z Z Z Z Z Z Z Z Z Z Z

>  <atom.prop.IS_HEAVY_ATOM>  (2539) 
1 0 0 0 1 1 1 1 0 0 0 1 1 0 1 0 1 0 1 0 1 0

>  <DIFUSE_FUNC_ATOM>  (2539) 
atom 6   atom 7   

>  <FINAL_SINGLE_POINT_ENERGY>  (2539) 
0

>  <NONCOV_INTER_ENERGY_QM>  (2539) 
0

>  <FF_Energy>  (2539) 
1.1

>  <QM_Energy>  (2539) 
-5.08

>  <source>  (2539) 
ACET_MBZ_02

>  <Index>  (2539) 
37741

$$$$
ACET-pdb5map-A-ASP-183:MBZ-pdb5map-A-PHE-180
     RDKit          3D

 22 21  0  0  0  0  0  0  0  0999 V2000
    3.8493    5.5978   -0.6561 C   0  0  0  0  0  0  0  0  0  0  0  0
    3.2120    5.9242   -1.3500 H   0  0  0  0  0  0  0  0  0  0  0  0
    4.7866    5.7740   -0.9467 H   0  0  0  0  0  0  0  0  0  0  0  0
    3.6677    6.1577    0.2614 H   0  0  0  0  0  0  0  0  0  0  0  0
    3.6674    4.0738   -0.5179 C   0  0  0  0  0  0  0  0  0  0  0  0
    3.3882    3.5644    0.6003 O   0  0  0  0  0  1  0  0  0  0  0  0
    3.7681    3.3807   -1.5708 O   0  0  0  0  0  0  0  0  0  0  0  0
   -0.0078    2.9302    0.0303 C   0  0  0  0  0  0  0  0  0  0  0  0
    0.8894    3.2355    0.3046 H   0  0  0  0  0  0  0  0  0  0  0  0
   -0.7014    3.2170    0.6707 H   0  0  0  0  0  0  0  0  0  0  0  0
   -0.2358    3.3755   -0.9381 H   0  0  0  0  0  0  0  0  0  0  0  0
    0.0059    1.4129    0.0167 C   0  0  0  0  0  0  0  0  0  0  0  0
   -1.2023    0.6973    0.0068 C   0  0  0  0  0  0  0  0  0  0  0  0
   -2.0646    1.1879    0.0034 H   0  0  0  0  0  0  0  0  0  0  0  0
   -1.2041   -0.6985    0.0000 C   0  0  0  0  0  0  0  0  0  0  0  0
   -2.0851   -1.1899    0.0124 H   0  0  0  0  0  0  0  0  0  0  0  0
   -0.0069   -1.4039   -0.0220 C   0  0  0  0  0  0  0  0  0  0  0  0
   -0.0075   -2.3963   -0.0533 H   0  0  0  0  0  0  0  0  0  0  0  0
    1.2041   -0.6988    0.0000 C   0  0  0  0  0  0  0  0  0  0  0  0
    2.0813   -1.2026    0.0183 H   0  0  0  0  0  0  0  0  0  0  0  0
    1.2034    0.6910   -0.0015 C   0  0  0  0  0  0  0  0  0  0  0  0
    2.0728    1.1867   -0.0167 H   0  0  0  0  0  0  0  0  0  0  0  0
  1  5  1  0
  5  6  1  0
  5  7  2  0
  1  2  1  0
  1  3  1  0
  1  4  1  0
  8 12  1  0
 12 13  2  0
 13 15  1  0
 15 17  2  0
 17 19  1  0
 19 21  2  0
 21 12  1  0
  8  9  1  0
  8 10  1  0
  8 11  1  0
 13 14  1  0
 15 16  1  0
 17 18  1  0
 19 20  1  0
 21 22  1  0
M  CHG  1   6  -1
M  END
>  <PDB_ID>  (2540) 
pdb5map

>  <RESIDUE_NAME>  (2540) 
ASP   PHE

>  <FRAG_NAME>  (2540) 
ACET   MBZ

>  <FRAG_ATOM_NUM>  (2540) 
fragi: 7  fragj: 15

>  <atom.prop.CHAIN_ID>  (2540) 
A A A A A A A Z Z Z Z Z Z Z Z Z Z Z Z Z Z Z

>  <atom.prop.IS_HEAVY_ATOM>  (2540) 
1 0 0 0 1 1 1 1 0 0 0 1 1 0 1 0 1 0 1 0 1 0

>  <DIFUSE_FUNC_ATOM>  (2540) 
atom 6   atom 7   

>  <FINAL_SINGLE_POINT_ENERGY>  (2540) 
0

>  <NONCOV_INTER_ENERGY_QM>  (2540) 
0

>  <FF_Energy>  (2540) 
-2.5

>  <QM_Energy>  (2540) 
-8.34

>  <source>  (2540) 
ACET_MBZ_02

>  <Index>  (2540) 
37865

$$$$
ACET-pdb6q7i-B-GLU-781:MBZ-pdb6q7i-A-PHE-787
     RDKit          3D

 22 21  0  0  0  0  0  0  0  0999 V2000
    4.8551   -1.4553   -2.9315 C   0  0  0  0  0  0  0  0  0  0  0  0
    5.1366   -2.3882   -2.8175 H   0  0  0  0  0  0  0  0  0  0  0  0
    5.4990   -0.9301   -3.4535 H   0  0  0  0  0  0  0  0  0  0  0  0
    3.8938   -1.4412   -3.4452 H   0  0  0  0  0  0  0  0  0  0  0  0
    4.7682   -0.8339   -1.5572 C   0  0  0  0  0  0  0  0  0  0  0  0
    4.1790   -1.4861   -0.6778 O   0  0  0  0  0  1  0  0  0  0  0  0
    5.2956    0.2854   -1.4019 O   0  0  0  0  0  0  0  0  0  0  0  0
   -0.0093    2.8926    0.0179 C   0  0  0  0  0  0  0  0  0  0  0  0
   -0.6065    3.2117   -0.6936 H   0  0  0  0  0  0  0  0  0  0  0  0
    0.9144    3.2067   -0.0975 H   0  0  0  0  0  0  0  0  0  0  0  0
   -0.3795    3.2828    0.9660 H   0  0  0  0  0  0  0  0  0  0  0  0
   -0.0017    1.3907   -0.0139 C   0  0  0  0  0  0  0  0  0  0  0  0
   -1.2036    0.6852   -0.0059 C   0  0  0  0  0  0  0  0  0  0  0  0
   -2.0651    1.1757   -0.0059 H   0  0  0  0  0  0  0  0  0  0  0  0
   -1.1974   -0.6992   -0.0000 C   0  0  0  0  0  0  0  0  0  0  0  0
   -2.0706   -1.2012   -0.0032 H   0  0  0  0  0  0  0  0  0  0  0  0
    0.0040   -1.3752    0.0119 C   0  0  0  0  0  0  0  0  0  0  0  0
   -0.0001   -2.3866    0.0292 H   0  0  0  0  0  0  0  0  0  0  0  0
    1.1974   -0.6965    0.0000 C   0  0  0  0  0  0  0  0  0  0  0  0
    2.0800   -1.1944   -0.0129 H   0  0  0  0  0  0  0  0  0  0  0  0
    1.2013    0.6950    0.0079 C   0  0  0  0  0  0  0  0  0  0  0  0
    2.0632    1.1892    0.0286 H   0  0  0  0  0  0  0  0  0  0  0  0
  1  5  1  0
  5  6  1  0
  5  7  2  0
  1  2  1  0
  1  3  1  0
  1  4  1  0
  8 12  1  0
 12 13  2  0
 13 15  1  0
 15 17  2  0
 17 19  1  0
 19 21  2  0
 21 12  1  0
  8  9  1  0
  8 10  1  0
  8 11  1  0
 13 14  1  0
 15 16  1  0
 17 18  1  0
 19 20  1  0
 21 22  1  0
M  CHG  1   6  -1
M  END
>  <PDB_ID>  (2541) 
pdb6q7i

>  <RESIDUE_NAME>  (2541) 
GLU   PHE

>  <FRAG_NAME>  (2541) 
ACET   MBZ

>  <FRAG_ATOM_NUM>  (2541) 
fragi: 7  fragj: 15

>  <atom.prop.CHAIN_ID>  (2541) 
A A A A A A A Z Z Z Z Z Z Z Z Z Z Z Z Z Z Z

>  <atom.prop.IS_HEAVY_ATOM>  (2541) 
1 0 0 0 1 1 1 1 0 0 0 1 1 0 1 0 1 0 1 0 1 0

>  <DIFUSE_FUNC_ATOM>  (2541) 
atom 6   atom 7   

>  <FINAL_SINGLE_POINT_ENERGY>  (2541) 
0

>  <NONCOV_INTER_ENERGY_QM>  (2541) 
0

>  <FF_Energy>  (2541) 
-1.45

>  <QM_Energy>  (2541) 
-6.76

>  <source>  (2541) 
ACET_MBZ_02

>  <Index>  (2541) 
37872

$$$$
ACET-pdb6q93-B-GLU-230:MBZ-pdb6q93-B-PHE-81
     RDKit          3D

 22 21  0  0  0  0  0  0  0  0999 V2000
   -1.8213    1.9752   -3.4308 C   0  0  0  0  0  0  0  0  0  0  0  0
   -1.5175    1.0444   -3.2718 H   0  0  0  0  0  0  0  0  0  0  0  0
   -1.0462    2.5930   -3.4832 H   0  0  0  0  0  0  0  0  0  0  0  0
   -2.3425    2.0021   -4.3877 H   0  0  0  0  0  0  0  0  0  0  0  0
   -2.6549    2.3924   -2.2389 C   0  0  0  0  0  0  0  0  0  0  0  0
   -3.2961    1.5136   -1.6177 O   0  0  0  0  0  1  0  0  0  0  0  0
   -2.6552    3.6017   -1.9172 O   0  0  0  0  0  0  0  0  0  0  0  0
   -0.0091    2.8927   -0.0250 C   0  0  0  0  0  0  0  0  0  0  0  0
   -0.8212    3.1923   -0.5264 H   0  0  0  0  0  0  0  0  0  0  0  0
    0.8117    3.2042   -0.5051 H   0  0  0  0  0  0  0  0  0  0  0  0
   -0.0253    3.3916    0.9439 H   0  0  0  0  0  0  0  0  0  0  0  0
    0.0018    1.3993   -0.0080 C   0  0  0  0  0  0  0  0  0  0  0  0
   -1.1986    0.6927   -0.0086 C   0  0  0  0  0  0  0  0  0  0  0  0
   -2.0636    1.1936   -0.0162 H   0  0  0  0  0  0  0  0  0  0  0  0
   -1.2190   -0.6935   -0.0000 C   0  0  0  0  0  0  0  0  0  0  0  0
   -2.0879   -1.1869   -0.0103 H   0  0  0  0  0  0  0  0  0  0  0  0
   -0.0064   -1.3908    0.0259 C   0  0  0  0  0  0  0  0  0  0  0  0
   -0.0108   -2.3900    0.0621 H   0  0  0  0  0  0  0  0  0  0  0  0
    1.2190   -0.7006    0.0000 C   0  0  0  0  0  0  0  0  0  0  0  0
    2.0857   -1.2008   -0.0090 H   0  0  0  0  0  0  0  0  0  0  0  0
    1.2032    0.6931   -0.0093 C   0  0  0  0  0  0  0  0  0  0  0  0
    2.0698    1.1949   -0.0185 H   0  0  0  0  0  0  0  0  0  0  0  0
  1  5  1  0
  5  6  1  0
  5  7  2  0
  1  2  1  0
  1  3  1  0
  1  4  1  0
  8 12  1  0
 12 13  2  0
 13 15  1  0
 15 17  2  0
 17 19  1  0
 19 21  2  0
 21 12  1  0
  8  9  1  0
  8 10  1  0
  8 11  1  0
 13 14  1  0
 15 16  1  0
 17 18  1  0
 19 20  1  0
 21 22  1  0
M  CHG  1   6  -1
M  END
>  <PDB_ID>  (2542) 
pdb6q93

>  <RESIDUE_NAME>  (2542) 
GLU   PHE

>  <FRAG_NAME>  (2542) 
ACET   MBZ

>  <FRAG_ATOM_NUM>  (2542) 
fragi: 7  fragj: 15

>  <atom.prop.CHAIN_ID>  (2542) 
A A A A A A A Z Z Z Z Z Z Z Z Z Z Z Z Z Z Z

>  <atom.prop.IS_HEAVY_ATOM>  (2542) 
1 0 0 0 1 1 1 1 0 0 0 1 1 0 1 0 1 0 1 0 1 0

>  <DIFUSE_FUNC_ATOM>  (2542) 
atom 6   atom 7   

>  <FINAL_SINGLE_POINT_ENERGY>  (2542) 
0

>  <NONCOV_INTER_ENERGY_QM>  (2542) 
0

>  <FF_Energy>  (2542) 
6.52

>  <QM_Energy>  (2542) 
-6.23

>  <source>  (2542) 
ACET_MBZ_02

>  <Index>  (2542) 
37910

$$$$
ACET-pdb5mdo-F-ASP-255:MBZ-pdb5mdo-F-PHE-278
     RDKit          3D

 22 21  0  0  0  0  0  0  0  0999 V2000
    5.0017    2.4618    1.8863 C   0  0  0  0  0  0  0  0  0  0  0  0
    5.2733    1.5100    1.7528 H   0  0  0  0  0  0  0  0  0  0  0  0
    5.6799    2.9296    2.4498 H   0  0  0  0  0  0  0  0  0  0  0  0
    5.0350    2.9338    0.9044 H   0  0  0  0  0  0  0  0  0  0  0  0
    3.6511    2.5098    2.5763 C   0  0  0  0  0  0  0  0  0  0  0  0
    2.6793    2.9620    1.9593 O   0  0  0  0  0  1  0  0  0  0  0  0
    3.5724    1.9917    3.7469 O   0  0  0  0  0  0  0  0  0  0  0  0
    0.0050    2.9005   -0.0979 C   0  0  0  0  0  0  0  0  0  0  0  0
    0.8787    3.2445    0.1830 H   0  0  0  0  0  0  0  0  0  0  0  0
   -0.7320    3.2391    0.4533 H   0  0  0  0  0  0  0  0  0  0  0  0
   -0.1670    3.2453   -1.1175 H   0  0  0  0  0  0  0  0  0  0  0  0
    0.0242    1.4141   -0.0133 C   0  0  0  0  0  0  0  0  0  0  0  0
   -1.2119    0.6898    0.0124 C   0  0  0  0  0  0  0  0  0  0  0  0
   -2.0599    1.1931    0.0378 H   0  0  0  0  0  0  0  0  0  0  0  0
   -1.2197   -0.7063   -0.0000 C   0  0  0  0  0  0  0  0  0  0  0  0
   -2.0955   -1.1969    0.0091 H   0  0  0  0  0  0  0  0  0  0  0  0
   -0.0164   -1.4060   -0.0232 C   0  0  0  0  0  0  0  0  0  0  0  0
   -0.0019   -2.3948   -0.0558 H   0  0  0  0  0  0  0  0  0  0  0  0
    1.2197   -0.6865    0.0000 C   0  0  0  0  0  0  0  0  0  0  0  0
    2.0842   -1.1964   -0.0002 H   0  0  0  0  0  0  0  0  0  0  0  0
    1.2041    0.6949    0.0242 C   0  0  0  0  0  0  0  0  0  0  0  0
    2.0811    1.1948    0.0702 H   0  0  0  0  0  0  0  0  0  0  0  0
  1  5  1  0
  5  6  1  0
  5  7  2  0
  1  2  1  0
  1  3  1  0
  1  4  1  0
  8 12  1  0
 12 13  2  0
 13 15  1  0
 15 17  2  0
 17 19  1  0
 19 21  2  0
 21 12  1  0
  8  9  1  0
  8 10  1  0
  8 11  1  0
 13 14  1  0
 15 16  1  0
 17 18  1  0
 19 20  1  0
 21 22  1  0
M  CHG  1   6  -1
M  END
>  <PDB_ID>  (2543) 
pdb5mdo

>  <RESIDUE_NAME>  (2543) 
ASP   PHE

>  <FRAG_NAME>  (2543) 
ACET   MBZ

>  <FRAG_ATOM_NUM>  (2543) 
fragi: 7  fragj: 15

>  <atom.prop.CHAIN_ID>  (2543) 
A A A A A A A Z Z Z Z Z Z Z Z Z Z Z Z Z Z Z

>  <atom.prop.IS_HEAVY_ATOM>  (2543) 
1 0 0 0 1 1 1 1 0 0 0 1 1 0 1 0 1 0 1 0 1 0

>  <DIFUSE_FUNC_ATOM>  (2543) 
atom 6   atom 7   

>  <FINAL_SINGLE_POINT_ENERGY>  (2543) 
0

>  <NONCOV_INTER_ENERGY_QM>  (2543) 
0

>  <FF_Energy>  (2543) 
-0.53

>  <QM_Energy>  (2543) 
-5.82

>  <source>  (2543) 
ACET_MBZ_02

>  <Index>  (2543) 
37969

$$$$
ACET-pdb5mif-A-GLU-278:MBZ-pdb5mif-A-PHE-213
     RDKit          3D

 22 21  0  0  0  0  0  0  0  0999 V2000
   -4.5491    1.6313   -0.3326 C   0  0  0  0  0  0  0  0  0  0  0  0
   -4.4043    2.5861   -0.4653 H   0  0  0  0  0  0  0  0  0  0  0  0
   -3.7750    1.1634    0.0308 H   0  0  0  0  0  0  0  0  0  0  0  0
   -5.4146    1.4744    0.3111 H   0  0  0  0  0  0  0  0  0  0  0  0
   -4.8162    1.0309   -1.7126 C   0  0  0  0  0  0  0  0  0  0  0  0
   -5.5142   -0.0049   -1.7784 O   0  0  0  0  0  1  0  0  0  0  0  0
   -4.3574    1.5992   -2.7214 O   0  0  0  0  0  0  0  0  0  0  0  0
    0.0089    2.8899   -0.0155 C   0  0  0  0  0  0  0  0  0  0  0  0
   -0.4855    3.1930   -0.8170 H   0  0  0  0  0  0  0  0  0  0  0  0
    0.9486    3.1985   -0.0351 H   0  0  0  0  0  0  0  0  0  0  0  0
   -0.4663    3.3442    0.8540 H   0  0  0  0  0  0  0  0  0  0  0  0
    0.0034    1.3977    0.0054 C   0  0  0  0  0  0  0  0  0  0  0  0
   -1.1907    0.6943   -0.0142 C   0  0  0  0  0  0  0  0  0  0  0  0
   -2.0575    1.1900   -0.0407 H   0  0  0  0  0  0  0  0  0  0  0  0
   -1.2016   -0.6891   -0.0000 C   0  0  0  0  0  0  0  0  0  0  0  0
   -2.0833   -1.1802    0.0038 H   0  0  0  0  0  0  0  0  0  0  0  0
   -0.0096   -1.3942    0.0106 C   0  0  0  0  0  0  0  0  0  0  0  0
   -0.0147   -2.3905    0.0252 H   0  0  0  0  0  0  0  0  0  0  0  0
    1.2016   -0.6994   -0.0000 C   0  0  0  0  0  0  0  0  0  0  0  0
    2.0771   -1.2013   -0.0050 H   0  0  0  0  0  0  0  0  0  0  0  0
    1.1969    0.6907   -0.0019 C   0  0  0  0  0  0  0  0  0  0  0  0
    2.0666    1.1866   -0.0094 H   0  0  0  0  0  0  0  0  0  0  0  0
  1  5  1  0
  5  6  1  0
  5  7  2  0
  1  2  1  0
  1  3  1  0
  1  4  1  0
  8 12  1  0
 12 13  2  0
 13 15  1  0
 15 17  2  0
 17 19  1  0
 19 21  2  0
 21 12  1  0
  8  9  1  0
  8 10  1  0
  8 11  1  0
 13 14  1  0
 15 16  1  0
 17 18  1  0
 19 20  1  0
 21 22  1  0
M  CHG  1   6  -1
M  END
>  <PDB_ID>  (2544) 
pdb5mif

>  <RESIDUE_NAME>  (2544) 
GLU   PHE

>  <FRAG_NAME>  (2544) 
ACET   MBZ

>  <FRAG_ATOM_NUM>  (2544) 
fragi: 7  fragj: 15

>  <atom.prop.CHAIN_ID>  (2544) 
A A A A A A A Z Z Z Z Z Z Z Z Z Z Z Z Z Z Z

>  <atom.prop.IS_HEAVY_ATOM>  (2544) 
1 0 0 0 1 1 1 1 0 0 0 1 1 0 1 0 1 0 1 0 1 0

>  <DIFUSE_FUNC_ATOM>  (2544) 
atom 6   atom 7   

>  <FINAL_SINGLE_POINT_ENERGY>  (2544) 
0

>  <NONCOV_INTER_ENERGY_QM>  (2544) 
0

>  <FF_Energy>  (2544) 
5.12

>  <QM_Energy>  (2544) 
-1.25

>  <source>  (2544) 
ACET_MBZ_02

>  <Index>  (2544) 
38152

$$$$
ACET-pdb5mm9-A-ASP-199:MBZ-pdb5mm9-A-PHE-117
     RDKit          3D

 22 21  0  0  0  0  0  0  0  0999 V2000
   -5.5263    2.7561    1.8843 C   0  0  0  0  0  0  0  0  0  0  0  0
   -5.5822    3.7230    1.9366 H   0  0  0  0  0  0  0  0  0  0  0  0
   -5.1984    2.3970    2.7248 H   0  0  0  0  0  0  0  0  0  0  0  0
   -6.5209    2.3537    1.6920 H   0  0  0  0  0  0  0  0  0  0  0  0
   -4.5272    2.4027    0.8046 C   0  0  0  0  0  0  0  0  0  0  0  0
   -4.5989    1.2848    0.2706 O   0  0  0  0  0  1  0  0  0  0  0  0
   -3.6781    3.2579    0.4491 O   0  0  0  0  0  0  0  0  0  0  0  0
   -0.0023    2.8912   -0.0003 C   0  0  0  0  0  0  0  0  0  0  0  0
    0.8621    3.1828    0.3304 H   0  0  0  0  0  0  0  0  0  0  0  0
   -0.7006    3.1900    0.6034 H   0  0  0  0  0  0  0  0  0  0  0  0
   -0.1711    3.3417   -0.9784 H   0  0  0  0  0  0  0  0  0  0  0  0
   -0.0095    1.3923    0.0015 C   0  0  0  0  0  0  0  0  0  0  0  0
   -1.1836    0.6944    0.0101 C   0  0  0  0  0  0  0  0  0  0  0  0
   -1.9909    1.1572    0.0075 H   0  0  0  0  0  0  0  0  0  0  0  0
   -1.1941   -0.6834    0.0000 C   0  0  0  0  0  0  0  0  0  0  0  0
   -2.0033   -1.1425    0.0043 H   0  0  0  0  0  0  0  0  0  0  0  0
    0.0097   -1.3906   -0.0069 C   0  0  0  0  0  0  0  0  0  0  0  0
    0.0088   -2.3202   -0.0043 H   0  0  0  0  0  0  0  0  0  0  0  0
    1.1941   -0.6981   -0.0000 C   0  0  0  0  0  0  0  0  0  0  0  0
    2.0024   -1.1581   -0.0088 H   0  0  0  0  0  0  0  0  0  0  0  0
    1.1833    0.6853   -0.0047 C   0  0  0  0  0  0  0  0  0  0  0  0
    1.9900    1.1481   -0.0063 H   0  0  0  0  0  0  0  0  0  0  0  0
  1  5  1  0
  5  6  1  0
  5  7  2  0
  1  2  1  0
  1  3  1  0
  1  4  1  0
  8 12  1  0
 12 13  2  0
 13 15  1  0
 15 17  2  0
 17 19  1  0
 19 21  2  0
 21 12  1  0
  8  9  1  0
  8 10  1  0
  8 11  1  0
 13 14  1  0
 15 16  1  0
 17 18  1  0
 19 20  1  0
 21 22  1  0
M  CHG  1   6  -1
M  END
>  <PDB_ID>  (2545) 
pdb5mm9

>  <RESIDUE_NAME>  (2545) 
ASP   PHE

>  <FRAG_NAME>  (2545) 
ACET   MBZ

>  <FRAG_ATOM_NUM>  (2545) 
fragi: 7  fragj: 15

>  <atom.prop.CHAIN_ID>  (2545) 
A A A A A A A Z Z Z Z Z Z Z Z Z Z Z Z Z Z Z

>  <atom.prop.IS_HEAVY_ATOM>  (2545) 
1 0 0 0 1 1 1 1 0 0 0 1 1 0 1 0 1 0 1 0 1 0

>  <DIFUSE_FUNC_ATOM>  (2545) 
atom 6   atom 7   

>  <FINAL_SINGLE_POINT_ENERGY>  (2545) 
0

>  <NONCOV_INTER_ENERGY_QM>  (2545) 
0

>  <FF_Energy>  (2545) 
-3.06

>  <QM_Energy>  (2545) 
-8.61

>  <source>  (2545) 
ACET_MBZ_02

>  <Index>  (2545) 
38287

$$$$
ACET-pdb5mm9-B-ASP-199:MBZ-pdb5mm9-B-PHE-117
     RDKit          3D

 22 21  0  0  0  0  0  0  0  0999 V2000
   -5.7403    2.7240    1.3235 C   0  0  0  0  0  0  0  0  0  0  0  0
   -5.7894    3.6921    1.3659 H   0  0  0  0  0  0  0  0  0  0  0  0
   -5.5043    2.3659    2.1933 H   0  0  0  0  0  0  0  0  0  0  0  0
   -6.7151    2.3329    1.0323 H   0  0  0  0  0  0  0  0  0  0  0  0
   -4.6272    2.3497    0.3402 C   0  0  0  0  0  0  0  0  0  0  0  0
   -4.6085    1.2053   -0.1765 O   0  0  0  0  0  1  0  0  0  0  0  0
   -3.7271    3.1898    0.0948 O   0  0  0  0  0  0  0  0  0  0  0  0
   -0.0033    2.9194    0.0231 C   0  0  0  0  0  0  0  0  0  0  0  0
    0.8090    3.2072    0.4678 H   0  0  0  0  0  0  0  0  0  0  0  0
   -0.7747    3.1999    0.5401 H   0  0  0  0  0  0  0  0  0  0  0  0
   -0.0503    3.3933   -0.9573 H   0  0  0  0  0  0  0  0  0  0  0  0
    0.0023    1.4019   -0.0071 C   0  0  0  0  0  0  0  0  0  0  0  0
   -1.1873    0.6854    0.0011 C   0  0  0  0  0  0  0  0  0  0  0  0
   -1.9969    1.1429    0.0028 H   0  0  0  0  0  0  0  0  0  0  0  0
   -1.1889   -0.7049   -0.0000 C   0  0  0  0  0  0  0  0  0  0  0  0
   -1.9935   -1.1712   -0.0048 H   0  0  0  0  0  0  0  0  0  0  0  0
   -0.0028   -1.3837   -0.0016 C   0  0  0  0  0  0  0  0  0  0  0  0
   -0.0002   -2.3141   -0.0071 H   0  0  0  0  0  0  0  0  0  0  0  0
    1.1889   -0.6914   -0.0000 C   0  0  0  0  0  0  0  0  0  0  0  0
    1.9952   -1.1556   -0.0002 H   0  0  0  0  0  0  0  0  0  0  0  0
    1.1878    0.6927    0.0075 C   0  0  0  0  0  0  0  0  0  0  0  0
    1.9964    1.1511    0.0081 H   0  0  0  0  0  0  0  0  0  0  0  0
  1  5  1  0
  5  6  1  0
  5  7  2  0
  1  2  1  0
  1  3  1  0
  1  4  1  0
  8 12  1  0
 12 13  2  0
 13 15  1  0
 15 17  2  0
 17 19  1  0
 19 21  2  0
 21 12  1  0
  8  9  1  0
  8 10  1  0
  8 11  1  0
 13 14  1  0
 15 16  1  0
 17 18  1  0
 19 20  1  0
 21 22  1  0
M  CHG  1   6  -1
M  END
>  <PDB_ID>  (2546) 
pdb5mm9

>  <RESIDUE_NAME>  (2546) 
ASP   PHE

>  <FRAG_NAME>  (2546) 
ACET   MBZ

>  <FRAG_ATOM_NUM>  (2546) 
fragi: 7  fragj: 15

>  <atom.prop.CHAIN_ID>  (2546) 
A A A A A A A Z Z Z Z Z Z Z Z Z Z Z Z Z Z Z

>  <atom.prop.IS_HEAVY_ATOM>  (2546) 
1 0 0 0 1 1 1 1 0 0 0 1 1 0 1 0 1 0 1 0 1 0

>  <DIFUSE_FUNC_ATOM>  (2546) 
atom 6   atom 7   

>  <FINAL_SINGLE_POINT_ENERGY>  (2546) 
0

>  <NONCOV_INTER_ENERGY_QM>  (2546) 
0

>  <FF_Energy>  (2546) 
-3.01

>  <QM_Energy>  (2546) 
-8.52

>  <source>  (2546) 
ACET_MBZ_02

>  <Index>  (2546) 
38288

$$$$
ACET-pdb6qvp-D-GLU-174:MBZ-pdb6qvp-D-PHE-124
     RDKit          3D

 22 21  0  0  0  0  0  0  0  0999 V2000
    4.1754    0.6660    0.8614 C   0  0  0  0  0  0  0  0  0  0  0  0
    4.1666    0.5280   -0.0992 H   0  0  0  0  0  0  0  0  0  0  0  0
    3.2712    0.5952    1.2042 H   0  0  0  0  0  0  0  0  0  0  0  0
    4.7776   -0.1212    1.3149 H   0  0  0  0  0  0  0  0  0  0  0  0
    4.6449    2.0960    1.1105 C   0  0  0  0  0  0  0  0  0  0  0  0
    4.6579    2.5458    2.2888 O   0  0  0  0  0  1  0  0  0  0  0  0
    4.9766    2.7713    0.1186 O   0  0  0  0  0  0  0  0  0  0  0  0
    0.0208    2.8381    0.0056 C   0  0  0  0  0  0  0  0  0  0  0  0
    0.9459    3.1252   -0.0441 H   0  0  0  0  0  0  0  0  0  0  0  0
   -0.3743    3.1371    0.8400 H   0  0  0  0  0  0  0  0  0  0  0  0
   -0.5312    3.2778   -0.8252 H   0  0  0  0  0  0  0  0  0  0  0  0
    0.0018    1.3845   -0.0023 C   0  0  0  0  0  0  0  0  0  0  0  0
   -1.2051    0.6833    0.0185 C   0  0  0  0  0  0  0  0  0  0  0  0
   -2.0125    1.1459    0.0201 H   0  0  0  0  0  0  0  0  0  0  0  0
   -1.2002   -0.6970    0.0000 C   0  0  0  0  0  0  0  0  0  0  0  0
   -2.0015   -1.1689    0.0187 H   0  0  0  0  0  0  0  0  0  0  0  0
    0.0201   -1.3794    0.0069 C   0  0  0  0  0  0  0  0  0  0  0  0
    0.0299   -2.3099    0.0006 H   0  0  0  0  0  0  0  0  0  0  0  0
    1.2002   -0.6853   -0.0000 C   0  0  0  0  0  0  0  0  0  0  0  0
    2.0095   -1.1427   -0.0166 H   0  0  0  0  0  0  0  0  0  0  0  0
    1.1831    0.6939   -0.0231 C   0  0  0  0  0  0  0  0  0  0  0  0
    1.9873    1.1620   -0.0191 H   0  0  0  0  0  0  0  0  0  0  0  0
  1  5  1  0
  5  6  1  0
  5  7  2  0
  1  2  1  0
  1  3  1  0
  1  4  1  0
  8 12  1  0
 12 13  2  0
 13 15  1  0
 15 17  2  0
 17 19  1  0
 19 21  2  0
 21 12  1  0
  8  9  1  0
  8 10  1  0
  8 11  1  0
 13 14  1  0
 15 16  1  0
 17 18  1  0
 19 20  1  0
 21 22  1  0
M  CHG  1   6  -1
M  END
>  <PDB_ID>  (2547) 
pdb6qvp

>  <RESIDUE_NAME>  (2547) 
GLU   PHE

>  <FRAG_NAME>  (2547) 
ACET   MBZ

>  <FRAG_ATOM_NUM>  (2547) 
fragi: 7  fragj: 15

>  <atom.prop.CHAIN_ID>  (2547) 
A A A A A A A Z Z Z Z Z Z Z Z Z Z Z Z Z Z Z

>  <atom.prop.IS_HEAVY_ATOM>  (2547) 
1 0 0 0 1 1 1 1 0 0 0 1 1 0 1 0 1 0 1 0 1 0

>  <DIFUSE_FUNC_ATOM>  (2547) 
atom 6   atom 7   

>  <FINAL_SINGLE_POINT_ENERGY>  (2547) 
0

>  <NONCOV_INTER_ENERGY_QM>  (2547) 
0

>  <FF_Energy>  (2547) 
4.78

>  <QM_Energy>  (2547) 
-1.71

>  <source>  (2547) 
ACET_MBZ_02

>  <Index>  (2547) 
38345

$$$$
ACET-pdb5mq1-A-ASP-151:MBZ-pdb5mq1-A-PHE-156
     RDKit          3D

 22 21  0  0  0  0  0  0  0  0999 V2000
    4.7573    3.5202    1.1283 C   0  0  0  0  0  0  0  0  0  0  0  0
    4.2004    3.1354    1.8627 H   0  0  0  0  0  0  0  0  0  0  0  0
    4.7735    4.5153    1.2058 H   0  0  0  0  0  0  0  0  0  0  0  0
    5.7773    3.1603    1.2631 H   0  0  0  0  0  0  0  0  0  0  0  0
    4.1267    3.1461   -0.2085 C   0  0  0  0  0  0  0  0  0  0  0  0
    4.4819    2.0695   -0.8107 O   0  0  0  0  0  1  0  0  0  0  0  0
    3.2234    3.8985   -0.6405 O   0  0  0  0  0  0  0  0  0  0  0  0
   -0.0505    2.8677   -0.0594 C   0  0  0  0  0  0  0  0  0  0  0  0
    0.7901    3.2336    0.2979 H   0  0  0  0  0  0  0  0  0  0  0  0
   -0.8354    3.1906    0.4397 H   0  0  0  0  0  0  0  0  0  0  0  0
   -0.1491    3.2326   -1.0818 H   0  0  0  0  0  0  0  0  0  0  0  0
   -0.0052    1.3964    0.0097 C   0  0  0  0  0  0  0  0  0  0  0  0
   -1.2050    0.6672   -0.0047 C   0  0  0  0  0  0  0  0  0  0  0  0
   -2.0703    1.1587   -0.0197 H   0  0  0  0  0  0  0  0  0  0  0  0
   -1.1893   -0.7050   -0.0000 C   0  0  0  0  0  0  0  0  0  0  0  0
   -2.0704   -1.2093   -0.0026 H   0  0  0  0  0  0  0  0  0  0  0  0
   -0.0081   -1.3720    0.0097 C   0  0  0  0  0  0  0  0  0  0  0  0
   -0.0015   -2.3861    0.0245 H   0  0  0  0  0  0  0  0  0  0  0  0
    1.1893   -0.6933    0.0000 C   0  0  0  0  0  0  0  0  0  0  0  0
    2.0723   -1.2004    0.0052 H   0  0  0  0  0  0  0  0  0  0  0  0
    1.2183    0.7067   -0.0148 C   0  0  0  0  0  0  0  0  0  0  0  0
    2.0666    1.1928   -0.0425 H   0  0  0  0  0  0  0  0  0  0  0  0
  1  5  1  0
  5  6  1  0
  5  7  2  0
  1  2  1  0
  1  3  1  0
  1  4  1  0
  8 12  1  0
 12 13  2  0
 13 15  1  0
 15 17  2  0
 17 19  1  0
 19 21  2  0
 21 12  1  0
  8  9  1  0
  8 10  1  0
  8 11  1  0
 13 14  1  0
 15 16  1  0
 17 18  1  0
 19 20  1  0
 21 22  1  0
M  CHG  1   6  -1
M  END
>  <PDB_ID>  (2548) 
pdb5mq1

>  <RESIDUE_NAME>  (2548) 
ASP   PHE

>  <FRAG_NAME>  (2548) 
ACET   MBZ

>  <FRAG_ATOM_NUM>  (2548) 
fragi: 7  fragj: 15

>  <atom.prop.CHAIN_ID>  (2548) 
A A A A A A A Z Z Z Z Z Z Z Z Z Z Z Z Z Z Z

>  <atom.prop.IS_HEAVY_ATOM>  (2548) 
1 0 0 0 1 1 1 1 0 0 0 1 1 0 1 0 1 0 1 0 1 0

>  <DIFUSE_FUNC_ATOM>  (2548) 
atom 6   atom 7   

>  <FINAL_SINGLE_POINT_ENERGY>  (2548) 
0

>  <NONCOV_INTER_ENERGY_QM>  (2548) 
0

>  <FF_Energy>  (2548) 
-2.75

>  <QM_Energy>  (2548) 
-8.03

>  <source>  (2548) 
ACET_MBZ_02

>  <Index>  (2548) 
38381

$$$$
ACET-pdb5msm-A-GLU-220:MBZ-pdb5msm-A-PHE-223
     RDKit          3D

 22 21  0  0  0  0  0  0  0  0999 V2000
    4.0132    2.2582   -0.0828 C   0  0  0  0  0  0  0  0  0  0  0  0
    3.1894    2.7753   -0.2306 H   0  0  0  0  0  0  0  0  0  0  0  0
    3.8286    1.3061    0.0810 H   0  0  0  0  0  0  0  0  0  0  0  0
    4.6230    2.3337   -0.9831 H   0  0  0  0  0  0  0  0  0  0  0  0
    4.6924    2.8169    1.1605 C   0  0  0  0  0  0  0  0  0  0  0  0
    5.8487    2.4213    1.4129 O   0  0  0  0  0  1  0  0  0  0  0  0
    4.0963    3.6976    1.8346 O   0  0  0  0  0  0  0  0  0  0  0  0
   -0.0134    2.8960    0.0141 C   0  0  0  0  0  0  0  0  0  0  0  0
    0.9225    3.2109    0.0775 H   0  0  0  0  0  0  0  0  0  0  0  0
   -0.5424    3.1877    0.7978 H   0  0  0  0  0  0  0  0  0  0  0  0
   -0.4568    3.3491   -0.8727 H   0  0  0  0  0  0  0  0  0  0  0  0
    0.0012    1.3924   -0.0038 C   0  0  0  0  0  0  0  0  0  0  0  0
   -1.1887    0.6879    0.0042 C   0  0  0  0  0  0  0  0  0  0  0  0
   -2.0569    1.1808    0.0124 H   0  0  0  0  0  0  0  0  0  0  0  0
   -1.1912   -0.6906    0.0000 C   0  0  0  0  0  0  0  0  0  0  0  0
   -2.0712   -1.1878    0.0025 H   0  0  0  0  0  0  0  0  0  0  0  0
    0.0001   -1.3808   -0.0054 C   0  0  0  0  0  0  0  0  0  0  0  0
   -0.0039   -2.3836   -0.0141 H   0  0  0  0  0  0  0  0  0  0  0  0
    1.1912   -0.6915   -0.0000 C   0  0  0  0  0  0  0  0  0  0  0  0
    2.0753   -1.1939    0.0023 H   0  0  0  0  0  0  0  0  0  0  0  0
    1.1874    0.6825    0.0050 C   0  0  0  0  0  0  0  0  0  0  0  0
    2.0598    1.1830    0.0144 H   0  0  0  0  0  0  0  0  0  0  0  0
  1  5  1  0
  5  6  1  0
  5  7  2  0
  1  2  1  0
  1  3  1  0
  1  4  1  0
  8 12  1  0
 12 13  2  0
 13 15  1  0
 15 17  2  0
 17 19  1  0
 19 21  2  0
 21 12  1  0
  8  9  1  0
  8 10  1  0
  8 11  1  0
 13 14  1  0
 15 16  1  0
 17 18  1  0
 19 20  1  0
 21 22  1  0
M  CHG  1   6  -1
M  END
>  <PDB_ID>  (2549) 
pdb5msm

>  <RESIDUE_NAME>  (2549) 
GLU   PHE

>  <FRAG_NAME>  (2549) 
ACET   MBZ

>  <FRAG_ATOM_NUM>  (2549) 
fragi: 7  fragj: 15

>  <atom.prop.CHAIN_ID>  (2549) 
A A A A A A A Z Z Z Z Z Z Z Z Z Z Z Z Z Z Z

>  <atom.prop.IS_HEAVY_ATOM>  (2549) 
1 0 0 0 1 1 1 1 0 0 0 1 1 0 1 0 1 0 1 0 1 0

>  <DIFUSE_FUNC_ATOM>  (2549) 
atom 6   atom 7   

>  <FINAL_SINGLE_POINT_ENERGY>  (2549) 
0

>  <NONCOV_INTER_ENERGY_QM>  (2549) 
0

>  <FF_Energy>  (2549) 
9.47

>  <QM_Energy>  (2549) 
-0.42

>  <source>  (2549) 
ACET_MBZ_02

>  <Index>  (2549) 
38561

$$$$
ACET-pdb5mu5-A-ASP-48:MBZ-pdb5mu5-A-PHE-55
     RDKit          3D

 22 21  0  0  0  0  0  0  0  0999 V2000
    5.0654    2.1730    1.1671 C   0  0  0  0  0  0  0  0  0  0  0  0
    5.6932    2.0784    0.4040 H   0  0  0  0  0  0  0  0  0  0  0  0
    4.5968    1.3168    1.3427 H   0  0  0  0  0  0  0  0  0  0  0  0
    5.6471    2.4277    2.0530 H   0  0  0  0  0  0  0  0  0  0  0  0
    4.0191    3.2347    0.8063 C   0  0  0  0  0  0  0  0  0  0  0  0
    3.7317    4.1339    1.6292 O   0  0  0  0  0  1  0  0  0  0  0  0
    3.4804    3.1957   -0.3252 O   0  0  0  0  0  0  0  0  0  0  0  0
    0.0006    2.9070    0.0036 C   0  0  0  0  0  0  0  0  0  0  0  0
   -0.5219    3.2119   -0.7775 H   0  0  0  0  0  0  0  0  0  0  0  0
    0.9396    3.2103   -0.0476 H   0  0  0  0  0  0  0  0  0  0  0  0
   -0.4453    3.3431    0.8976 H   0  0  0  0  0  0  0  0  0  0  0  0
   -0.0006    1.4024    0.0034 C   0  0  0  0  0  0  0  0  0  0  0  0
   -1.1958    0.6911   -0.0045 C   0  0  0  0  0  0  0  0  0  0  0  0
   -2.0635    1.1816   -0.0142 H   0  0  0  0  0  0  0  0  0  0  0  0
   -1.1995   -0.6970   -0.0000 C   0  0  0  0  0  0  0  0  0  0  0  0
   -2.0758   -1.1922    0.0050 H   0  0  0  0  0  0  0  0  0  0  0  0
    0.0010   -1.3914   -0.0012 C   0  0  0  0  0  0  0  0  0  0  0  0
   -0.0036   -2.3909   -0.0037 H   0  0  0  0  0  0  0  0  0  0  0  0
    1.1995   -0.6968    0.0000 C   0  0  0  0  0  0  0  0  0  0  0  0
    2.0814   -1.1945    0.0004 H   0  0  0  0  0  0  0  0  0  0  0  0
    1.1953    0.6916    0.0024 C   0  0  0  0  0  0  0  0  0  0  0  0
    2.0640    1.1891    0.0021 H   0  0  0  0  0  0  0  0  0  0  0  0
  1  5  1  0
  5  6  1  0
  5  7  2  0
  1  2  1  0
  1  3  1  0
  1  4  1  0
  8 12  1  0
 12 13  2  0
 13 15  1  0
 15 17  2  0
 17 19  1  0
 19 21  2  0
 21 12  1  0
  8  9  1  0
  8 10  1  0
  8 11  1  0
 13 14  1  0
 15 16  1  0
 17 18  1  0
 19 20  1  0
 21 22  1  0
M  CHG  1   6  -1
M  END
>  <PDB_ID>  (2550) 
pdb5mu5

>  <RESIDUE_NAME>  (2550) 
ASP   PHE

>  <FRAG_NAME>  (2550) 
ACET   MBZ

>  <FRAG_ATOM_NUM>  (2550) 
fragi: 7  fragj: 15

>  <atom.prop.CHAIN_ID>  (2550) 
A A A A A A A Z Z Z Z Z Z Z Z Z Z Z Z Z Z Z

>  <atom.prop.IS_HEAVY_ATOM>  (2550) 
1 0 0 0 1 1 1 1 0 0 0 1 1 0 1 0 1 0 1 0 1 0

>  <DIFUSE_FUNC_ATOM>  (2550) 
atom 6   atom 7   

>  <FINAL_SINGLE_POINT_ENERGY>  (2550) 
0

>  <NONCOV_INTER_ENERGY_QM>  (2550) 
0

>  <FF_Energy>  (2550) 
-2.45

>  <QM_Energy>  (2550) 
-8.34

>  <source>  (2550) 
ACET_MBZ_02

>  <Index>  (2550) 
38661

$$$$
ACET-pdb6qp8-B-ASP-233:MBZ-pdb6qp8-B-PHE-246
     RDKit          3D

 22 21  0  0  0  0  0  0  0  0999 V2000
   -4.1823    5.8300    0.6515 C   0  0  0  0  0  0  0  0  0  0  0  0
   -4.3809    6.2548    1.5290 H   0  0  0  0  0  0  0  0  0  0  0  0
   -4.9237    5.9989    0.0114 H   0  0  0  0  0  0  0  0  0  0  0  0
   -3.2804    6.2929    0.2511 H   0  0  0  0  0  0  0  0  0  0  0  0
   -4.0385    4.3382    0.8518 C   0  0  0  0  0  0  0  0  0  0  0  0
   -3.1442    3.7326    0.2260 O   0  0  0  0  0  1  0  0  0  0  0  0
   -4.8342    3.7692    1.6281 O   0  0  0  0  0  0  0  0  0  0  0  0
    0.0000    2.9006    0.0012 C   0  0  0  0  0  0  0  0  0  0  0  0
    0.8730    3.2049    0.3536 H   0  0  0  0  0  0  0  0  0  0  0  0
   -0.7453    3.2045    0.5771 H   0  0  0  0  0  0  0  0  0  0  0  0
   -0.1362    3.3470   -0.9838 H   0  0  0  0  0  0  0  0  0  0  0  0
   -0.0003    1.3957   -0.0024 C   0  0  0  0  0  0  0  0  0  0  0  0
   -1.1929    0.6881    0.0012 C   0  0  0  0  0  0  0  0  0  0  0  0
   -2.0608    1.1792    0.0035 H   0  0  0  0  0  0  0  0  0  0  0  0
   -1.1945   -0.6961   -0.0000 C   0  0  0  0  0  0  0  0  0  0  0  0
   -2.0720   -1.1930    0.0008 H   0  0  0  0  0  0  0  0  0  0  0  0
    0.0025   -1.3853   -0.0005 C   0  0  0  0  0  0  0  0  0  0  0  0
   -0.0008   -2.3875   -0.0018 H   0  0  0  0  0  0  0  0  0  0  0  0
    1.1945   -0.6923    0.0000 C   0  0  0  0  0  0  0  0  0  0  0  0
    2.0790   -1.1908    0.0007 H   0  0  0  0  0  0  0  0  0  0  0  0
    1.1907    0.6900    0.0016 C   0  0  0  0  0  0  0  0  0  0  0  0
    2.0603    1.1887    0.0047 H   0  0  0  0  0  0  0  0  0  0  0  0
  1  5  1  0
  5  6  1  0
  5  7  2  0
  1  2  1  0
  1  3  1  0
  1  4  1  0
  8 12  1  0
 12 13  2  0
 13 15  1  0
 15 17  2  0
 17 19  1  0
 19 21  2  0
 21 12  1  0
  8  9  1  0
  8 10  1  0
  8 11  1  0
 13 14  1  0
 15 16  1  0
 17 18  1  0
 19 20  1  0
 21 22  1  0
M  CHG  1   6  -1
M  END
>  <PDB_ID>  (2551) 
pdb6qp8

>  <RESIDUE_NAME>  (2551) 
ASP   PHE

>  <FRAG_NAME>  (2551) 
ACET   MBZ

>  <FRAG_ATOM_NUM>  (2551) 
fragi: 7  fragj: 15

>  <atom.prop.CHAIN_ID>  (2551) 
A A A A A A A Z Z Z Z Z Z Z Z Z Z Z Z Z Z Z

>  <atom.prop.IS_HEAVY_ATOM>  (2551) 
1 0 0 0 1 1 1 1 0 0 0 1 1 0 1 0 1 0 1 0 1 0

>  <DIFUSE_FUNC_ATOM>  (2551) 
atom 6   atom 7   

>  <FINAL_SINGLE_POINT_ENERGY>  (2551) 
0

>  <NONCOV_INTER_ENERGY_QM>  (2551) 
0

>  <FF_Energy>  (2551) 
-1.83

>  <QM_Energy>  (2551) 
-7.32

>  <source>  (2551) 
ACET_MBZ_02

>  <Index>  (2551) 
38676

$$$$
ACET-pdb5mu5-A-GLU-151:MBZ-pdb5mu5-A-PHE-156
     RDKit          3D

 22 21  0  0  0  0  0  0  0  0999 V2000
    3.3080    4.4678   -1.8984 C   0  0  0  0  0  0  0  0  0  0  0  0
    2.7169    4.9704   -1.2977 H   0  0  0  0  0  0  0  0  0  0  0  0
    2.8922    4.2855   -2.7693 H   0  0  0  0  0  0  0  0  0  0  0  0
    4.2078    5.0598   -2.0654 H   0  0  0  0  0  0  0  0  0  0  0  0
    3.6003    3.1288   -1.2405 C   0  0  0  0  0  0  0  0  0  0  0  0
    3.6895    3.0657    0.0021 O   0  0  0  0  0  1  0  0  0  0  0  0
    3.7035    2.1298   -1.9700 O   0  0  0  0  0  0  0  0  0  0  0  0
    0.0251    2.9259    0.0128 C   0  0  0  0  0  0  0  0  0  0  0  0
    0.6674    3.2281   -0.6749 H   0  0  0  0  0  0  0  0  0  0  0  0
    0.3072    3.2072    0.9179 H   0  0  0  0  0  0  0  0  0  0  0  0
   -0.9366    3.3935   -0.1987 H   0  0  0  0  0  0  0  0  0  0  0  0
    0.0004    1.4087   -0.0122 C   0  0  0  0  0  0  0  0  0  0  0  0
   -1.2020    0.6937    0.0068 C   0  0  0  0  0  0  0  0  0  0  0  0
   -2.0656    1.1848    0.0241 H   0  0  0  0  0  0  0  0  0  0  0  0
   -1.1995   -0.6928   -0.0000 C   0  0  0  0  0  0  0  0  0  0  0  0
   -2.0763   -1.1919   -0.0011 H   0  0  0  0  0  0  0  0  0  0  0  0
    0.0023   -1.3915   -0.0035 C   0  0  0  0  0  0  0  0  0  0  0  0
   -0.0090   -2.3923   -0.0097 H   0  0  0  0  0  0  0  0  0  0  0  0
    1.1995   -0.7045    0.0000 C   0  0  0  0  0  0  0  0  0  0  0  0
    2.0816   -1.2022   -0.0024 H   0  0  0  0  0  0  0  0  0  0  0  0
    1.1993    0.6864    0.0090 C   0  0  0  0  0  0  0  0  0  0  0  0
    2.0683    1.1815    0.0300 H   0  0  0  0  0  0  0  0  0  0  0  0
  1  5  1  0
  5  6  1  0
  5  7  2  0
  1  2  1  0
  1  3  1  0
  1  4  1  0
  8 12  1  0
 12 13  2  0
 13 15  1  0
 15 17  2  0
 17 19  1  0
 19 21  2  0
 21 12  1  0
  8  9  1  0
  8 10  1  0
  8 11  1  0
 13 14  1  0
 15 16  1  0
 17 18  1  0
 19 20  1  0
 21 22  1  0
M  CHG  1   6  -1
M  END
>  <PDB_ID>  (2552) 
pdb5mu5

>  <RESIDUE_NAME>  (2552) 
GLU   PHE

>  <FRAG_NAME>  (2552) 
ACET   MBZ

>  <FRAG_ATOM_NUM>  (2552) 
fragi: 7  fragj: 15

>  <atom.prop.CHAIN_ID>  (2552) 
A A A A A A A Z Z Z Z Z Z Z Z Z Z Z Z Z Z Z

>  <atom.prop.IS_HEAVY_ATOM>  (2552) 
1 0 0 0 1 1 1 1 0 0 0 1 1 0 1 0 1 0 1 0 1 0

>  <DIFUSE_FUNC_ATOM>  (2552) 
atom 6   atom 7   

>  <FINAL_SINGLE_POINT_ENERGY>  (2552) 
0

>  <NONCOV_INTER_ENERGY_QM>  (2552) 
0

>  <FF_Energy>  (2552) 
-2.36

>  <QM_Energy>  (2552) 
-8.26

>  <source>  (2552) 
ACET_MBZ_02

>  <Index>  (2552) 
38686

$$$$
ACET-pdb6rar-I-ASP-412:MBZ-pdb6rar-I-PHE-427
     RDKit          3D

 22 21  0  0  0  0  0  0  0  0999 V2000
    3.6555    2.0496   -2.6120 C   0  0  0  0  0  0  0  0  0  0  0  0
    2.6886    2.0356   -2.6867 H   0  0  0  0  0  0  0  0  0  0  0  0
    4.0381    1.3188   -3.1235 H   0  0  0  0  0  0  0  0  0  0  0  0
    4.0285    2.9941   -3.0080 H   0  0  0  0  0  0  0  0  0  0  0  0
    4.0171    1.8412   -1.1585 C   0  0  0  0  0  0  0  0  0  0  0  0
    4.1237    2.8431   -0.4219 O   0  0  0  0  0  1  0  0  0  0  0  0
    4.1866    0.6695   -0.7512 O   0  0  0  0  0  0  0  0  0  0  0  0
    0.0176    2.9251    0.0101 C   0  0  0  0  0  0  0  0  0  0  0  0
    0.8040    3.2114   -0.4804 H   0  0  0  0  0  0  0  0  0  0  0  0
    0.0819    3.2105    0.9349 H   0  0  0  0  0  0  0  0  0  0  0  0
   -0.8590    3.3946   -0.4363 H   0  0  0  0  0  0  0  0  0  0  0  0
   -0.0013    1.4070   -0.0007 C   0  0  0  0  0  0  0  0  0  0  0  0
   -1.1907    0.6967   -0.0013 C   0  0  0  0  0  0  0  0  0  0  0  0
   -1.9984    1.1565   -0.0020 H   0  0  0  0  0  0  0  0  0  0  0  0
   -1.1953   -0.6988    0.0000 C   0  0  0  0  0  0  0  0  0  0  0  0
   -2.0017   -1.1618    0.0015 H   0  0  0  0  0  0  0  0  0  0  0  0
   -0.0003   -1.3930   -0.0021 C   0  0  0  0  0  0  0  0  0  0  0  0
   -0.0019   -2.3236   -0.0042 H   0  0  0  0  0  0  0  0  0  0  0  0
    1.1953   -0.7013   -0.0000 C   0  0  0  0  0  0  0  0  0  0  0  0
    2.0016   -1.1652   -0.0021 H   0  0  0  0  0  0  0  0  0  0  0  0
    1.1923    0.6894    0.0042 C   0  0  0  0  0  0  0  0  0  0  0  0
    2.0003    1.1482    0.0098 H   0  0  0  0  0  0  0  0  0  0  0  0
  1  5  1  0
  5  6  1  0
  5  7  2  0
  1  2  1  0
  1  3  1  0
  1  4  1  0
  8 12  1  0
 12 13  2  0
 13 15  1  0
 15 17  2  0
 17 19  1  0
 19 21  2  0
 21 12  1  0
  8  9  1  0
  8 10  1  0
  8 11  1  0
 13 14  1  0
 15 16  1  0
 17 18  1  0
 19 20  1  0
 21 22  1  0
M  CHG  1   6  -1
M  END
>  <PDB_ID>  (2553) 
pdb6rar

>  <RESIDUE_NAME>  (2553) 
ASP   PHE

>  <FRAG_NAME>  (2553) 
ACET   MBZ

>  <FRAG_ATOM_NUM>  (2553) 
fragi: 7  fragj: 15

>  <atom.prop.CHAIN_ID>  (2553) 
A A A A A A A Z Z Z Z Z Z Z Z Z Z Z Z Z Z Z

>  <atom.prop.IS_HEAVY_ATOM>  (2553) 
1 0 0 0 1 1 1 1 0 0 0 1 1 0 1 0 1 0 1 0 1 0

>  <DIFUSE_FUNC_ATOM>  (2553) 
atom 6   atom 7   

>  <FINAL_SINGLE_POINT_ENERGY>  (2553) 
0

>  <NONCOV_INTER_ENERGY_QM>  (2553) 
0

>  <FF_Energy>  (2553) 
-0.79

>  <QM_Energy>  (2553) 
-7.6

>  <source>  (2553) 
ACET_MBZ_02

>  <Index>  (2553) 
38707

$$$$
ACET-pdb5mv7-A-GLU-1788:MBZ-pdb5mv7-A-PHE-1860
     RDKit          3D

 22 21  0  0  0  0  0  0  0  0999 V2000
    1.0115    0.0107    3.6349 C   0  0  0  0  0  0  0  0  0  0  0  0
    1.7536   -0.6083    3.4547 H   0  0  0  0  0  0  0  0  0  0  0  0
    0.2839   -0.0770    2.9791 H   0  0  0  0  0  0  0  0  0  0  0  0
    0.6134   -0.2066    4.6261 H   0  0  0  0  0  0  0  0  0  0  0  0
    1.5627    1.4276    3.5135 C   0  0  0  0  0  0  0  0  0  0  0  0
    0.7674    2.3611    3.2666 O   0  0  0  0  0  1  0  0  0  0  0  0
    2.7893    1.6099    3.6828 O   0  0  0  0  0  0  0  0  0  0  0  0
   -0.0001    2.9160    0.0356 C   0  0  0  0  0  0  0  0  0  0  0  0
    0.9301    3.2215   -0.0921 H   0  0  0  0  0  0  0  0  0  0  0  0
   -0.3584    3.1989    0.9113 H   0  0  0  0  0  0  0  0  0  0  0  0
   -0.6133    3.3724   -0.7415 H   0  0  0  0  0  0  0  0  0  0  0  0
   -0.0010    1.4072    0.0009 C   0  0  0  0  0  0  0  0  0  0  0  0
   -1.1999    0.6929    0.0013 C   0  0  0  0  0  0  0  0  0  0  0  0
   -2.0659    1.1777    0.0016 H   0  0  0  0  0  0  0  0  0  0  0  0
   -1.1947   -0.7017    0.0000 C   0  0  0  0  0  0  0  0  0  0  0  0
   -2.0717   -1.1976    0.0064 H   0  0  0  0  0  0  0  0  0  0  0  0
    0.0051   -1.3902   -0.0085 C   0  0  0  0  0  0  0  0  0  0  0  0
   -0.0015   -2.3943   -0.0213 H   0  0  0  0  0  0  0  0  0  0  0  0
    1.1947   -0.7021    0.0000 C   0  0  0  0  0  0  0  0  0  0  0  0
    2.0813   -1.1958    0.0029 H   0  0  0  0  0  0  0  0  0  0  0  0
    1.1958    0.6940    0.0063 C   0  0  0  0  0  0  0  0  0  0  0  0
    2.0643    1.1854    0.0136 H   0  0  0  0  0  0  0  0  0  0  0  0
  1  5  1  0
  5  6  1  0
  5  7  2  0
  1  2  1  0
  1  3  1  0
  1  4  1  0
  8 12  1  0
 12 13  2  0
 13 15  1  0
 15 17  2  0
 17 19  1  0
 19 21  2  0
 21 12  1  0
  8  9  1  0
  8 10  1  0
  8 11  1  0
 13 14  1  0
 15 16  1  0
 17 18  1  0
 19 20  1  0
 21 22  1  0
M  CHG  1   6  -1
M  END
>  <PDB_ID>  (2554) 
pdb5mv7

>  <RESIDUE_NAME>  (2554) 
GLU   PHE

>  <FRAG_NAME>  (2554) 
ACET   MBZ

>  <FRAG_ATOM_NUM>  (2554) 
fragi: 7  fragj: 15

>  <atom.prop.CHAIN_ID>  (2554) 
A A A A A A A Z Z Z Z Z Z Z Z Z Z Z Z Z Z Z

>  <atom.prop.IS_HEAVY_ATOM>  (2554) 
1 0 0 0 1 1 1 1 0 0 0 1 1 0 1 0 1 0 1 0 1 0

>  <DIFUSE_FUNC_ATOM>  (2554) 
atom 6   atom 7   

>  <FINAL_SINGLE_POINT_ENERGY>  (2554) 
0

>  <NONCOV_INTER_ENERGY_QM>  (2554) 
0

>  <FF_Energy>  (2554) 
-0.05

>  <QM_Energy>  (2554) 
-5.25

>  <source>  (2554) 
ACET_MBZ_02

>  <Index>  (2554) 
38715

$$$$
ACET-pdb5mx4-C-GLU-191:MBZ-pdb5mx4-F-PHE-162
     RDKit          3D

 22 21  0  0  0  0  0  0  0  0999 V2000
   -2.4306   -4.7070    1.6987 C   0  0  0  0  0  0  0  0  0  0  0  0
   -3.2536   -5.1420    1.3798 H   0  0  0  0  0  0  0  0  0  0  0  0
   -2.6139   -3.8524    2.1502 H   0  0  0  0  0  0  0  0  0  0  0  0
   -1.9602   -5.3736    2.4215 H   0  0  0  0  0  0  0  0  0  0  0  0
   -1.5650   -4.3961    0.4610 C   0  0  0  0  0  0  0  0  0  0  0  0
   -0.3655   -4.7760    0.3848 O   0  0  0  0  0  1  0  0  0  0  0  0
   -2.1038   -3.7750   -0.4657 O   0  0  0  0  0  0  0  0  0  0  0  0
   -0.0023    2.9037   -0.0344 C   0  0  0  0  0  0  0  0  0  0  0  0
    0.8634    3.2200    0.3104 H   0  0  0  0  0  0  0  0  0  0  0  0
   -0.7566    3.2246    0.5110 H   0  0  0  0  0  0  0  0  0  0  0  0
   -0.1262    3.2998   -1.0423 H   0  0  0  0  0  0  0  0  0  0  0  0
   -0.0010    1.4017    0.0065 C   0  0  0  0  0  0  0  0  0  0  0  0
   -1.1973    0.6973   -0.0078 C   0  0  0  0  0  0  0  0  0  0  0  0
   -2.0630    1.1848   -0.0247 H   0  0  0  0  0  0  0  0  0  0  0  0
   -1.2008   -0.6973    0.0000 C   0  0  0  0  0  0  0  0  0  0  0  0
   -2.0768   -1.1901    0.0060 H   0  0  0  0  0  0  0  0  0  0  0  0
    0.0035   -1.3955    0.0013 C   0  0  0  0  0  0  0  0  0  0  0  0
   -0.0028   -2.3935    0.0026 H   0  0  0  0  0  0  0  0  0  0  0  0
    1.2008   -0.6990    0.0000 C   0  0  0  0  0  0  0  0  0  0  0  0
    2.0840   -1.1939    0.0009 H   0  0  0  0  0  0  0  0  0  0  0  0
    1.1948    0.6927   -0.0000 C   0  0  0  0  0  0  0  0  0  0  0  0
    2.0640    1.1894   -0.0055 H   0  0  0  0  0  0  0  0  0  0  0  0
  1  5  1  0
  5  6  1  0
  5  7  2  0
  1  2  1  0
  1  3  1  0
  1  4  1  0
  8 12  1  0
 12 13  2  0
 13 15  1  0
 15 17  2  0
 17 19  1  0
 19 21  2  0
 21 12  1  0
  8  9  1  0
  8 10  1  0
  8 11  1  0
 13 14  1  0
 15 16  1  0
 17 18  1  0
 19 20  1  0
 21 22  1  0
M  CHG  1   6  -1
M  END
>  <PDB_ID>  (2555) 
pdb5mx4

>  <RESIDUE_NAME>  (2555) 
GLU   PHE

>  <FRAG_NAME>  (2555) 
ACET   MBZ

>  <FRAG_ATOM_NUM>  (2555) 
fragi: 7  fragj: 15

>  <atom.prop.CHAIN_ID>  (2555) 
A A A A A A A Z Z Z Z Z Z Z Z Z Z Z Z Z Z Z

>  <atom.prop.IS_HEAVY_ATOM>  (2555) 
1 0 0 0 1 1 1 1 0 0 0 1 1 0 1 0 1 0 1 0 1 0

>  <DIFUSE_FUNC_ATOM>  (2555) 
atom 6   atom 7   

>  <FINAL_SINGLE_POINT_ENERGY>  (2555) 
0

>  <NONCOV_INTER_ENERGY_QM>  (2555) 
0

>  <FF_Energy>  (2555) 
-2.4

>  <QM_Energy>  (2555) 
-7.68

>  <source>  (2555) 
ACET_MBZ_02

>  <Index>  (2555) 
38802

$$$$
ACET-pdb6rzd-A-ASP-386:MBZ-pdb6rzd-A-PHE-278
     RDKit          3D

 22 21  0  0  0  0  0  0  0  0999 V2000
    4.7896    4.4058    0.7370 C   0  0  0  0  0  0  0  0  0  0  0  0
    5.0479    3.4814    0.3908 H   0  0  0  0  0  0  0  0  0  0  0  0
    5.2570    4.5162    1.6366 H   0  0  0  0  0  0  0  0  0  0  0  0
    5.2222    5.1385    0.0557 H   0  0  0  0  0  0  0  0  0  0  0  0
    3.2886    4.4199    0.9764 C   0  0  0  0  0  0  0  0  0  0  0  0
    2.5712    5.3595    0.4703 O   0  0  0  0  0  1  0  0  0  0  0  0
    2.8278    3.4231    1.6564 O   0  0  0  0  0  0  0  0  0  0  0  0
    0.0184    2.8813    0.0447 C   0  0  0  0  0  0  0  0  0  0  0  0
   -0.4320    3.2155   -0.7785 H   0  0  0  0  0  0  0  0  0  0  0  0
    0.9679    3.1832    0.0615 H   0  0  0  0  0  0  0  0  0  0  0  0
   -0.4835    3.3352    0.8992 H   0  0  0  0  0  0  0  0  0  0  0  0
    0.0071    1.3831    0.0061 C   0  0  0  0  0  0  0  0  0  0  0  0
   -1.1842    0.6945    0.0040 C   0  0  0  0  0  0  0  0  0  0  0  0
   -2.0483    1.1882    0.0046 H   0  0  0  0  0  0  0  0  0  0  0  0
   -1.1823   -0.6776    0.0000 C   0  0  0  0  0  0  0  0  0  0  0  0
   -2.0719   -1.1740   -0.0026 H   0  0  0  0  0  0  0  0  0  0  0  0
   -0.0073   -1.3711    0.0009 C   0  0  0  0  0  0  0  0  0  0  0  0
   -0.0216   -2.3797    0.0018 H   0  0  0  0  0  0  0  0  0  0  0  0
    1.1823   -0.7019    0.0000 C   0  0  0  0  0  0  0  0  0  0  0  0
    2.0633   -1.2058    0.0089 H   0  0  0  0  0  0  0  0  0  0  0  0
    1.1845    0.6731   -0.0110 C   0  0  0  0  0  0  0  0  0  0  0  0
    2.0612    1.1664   -0.0323 H   0  0  0  0  0  0  0  0  0  0  0  0
  1  5  1  0
  5  6  1  0
  5  7  2  0
  1  2  1  0
  1  3  1  0
  1  4  1  0
  8 12  1  0
 12 13  2  0
 13 15  1  0
 15 17  2  0
 17 19  1  0
 19 21  2  0
 21 12  1  0
  8  9  1  0
  8 10  1  0
  8 11  1  0
 13 14  1  0
 15 16  1  0
 17 18  1  0
 19 20  1  0
 21 22  1  0
M  CHG  1   6  -1
M  END
>  <PDB_ID>  (2556) 
pdb6rzd

>  <RESIDUE_NAME>  (2556) 
ASP   PHE

>  <FRAG_NAME>  (2556) 
ACET   MBZ

>  <FRAG_ATOM_NUM>  (2556) 
fragi: 7  fragj: 15

>  <atom.prop.CHAIN_ID>  (2556) 
A A A A A A A Z Z Z Z Z Z Z Z Z Z Z Z Z Z Z

>  <atom.prop.IS_HEAVY_ATOM>  (2556) 
1 0 0 0 1 1 1 1 0 0 0 1 1 0 1 0 1 0 1 0 1 0

>  <DIFUSE_FUNC_ATOM>  (2556) 
atom 6   atom 7   

>  <FINAL_SINGLE_POINT_ENERGY>  (2556) 
0

>  <NONCOV_INTER_ENERGY_QM>  (2556) 
0

>  <FF_Energy>  (2556) 
-1.44

>  <QM_Energy>  (2556) 
-6.98

>  <source>  (2556) 
ACET_MBZ_02

>  <Index>  (2556) 
38882

$$$$
ACET-pdb5mz2-D-GLU-64:MBZ-pdb5mz2-D-PHE-131
     RDKit          3D

 22 21  0  0  0  0  0  0  0  0999 V2000
    0.2074   -3.1101   -2.6602 C   0  0  0  0  0  0  0  0  0  0  0  0
    0.7284   -3.5227   -3.3796 H   0  0  0  0  0  0  0  0  0  0  0  0
    0.6073   -2.2813   -2.3269 H   0  0  0  0  0  0  0  0  0  0  0  0
   -0.7819   -2.8749   -3.0526 H   0  0  0  0  0  0  0  0  0  0  0  0
    0.1655   -4.1051   -1.4911 C   0  0  0  0  0  0  0  0  0  0  0  0
   -0.9452   -4.4292   -1.0094 O   0  0  0  0  0  1  0  0  0  0  0  0
    1.2505   -4.5416   -1.0367 O   0  0  0  0  0  0  0  0  0  0  0  0
   -0.0091    2.8550    0.0212 C   0  0  0  0  0  0  0  0  0  0  0  0
   -0.6904    3.1843   -0.6102 H   0  0  0  0  0  0  0  0  0  0  0  0
    0.8916    3.1868   -0.2043 H   0  0  0  0  0  0  0  0  0  0  0  0
   -0.2628    3.2351    1.0108 H   0  0  0  0  0  0  0  0  0  0  0  0
    0.0036    1.3805   -0.0227 C   0  0  0  0  0  0  0  0  0  0  0  0
   -1.1938    0.6761    0.0012 C   0  0  0  0  0  0  0  0  0  0  0  0
   -2.0587    1.1725    0.0184 H   0  0  0  0  0  0  0  0  0  0  0  0
   -1.2007   -0.7047   -0.0000 C   0  0  0  0  0  0  0  0  0  0  0  0
   -2.0712   -1.2013   -0.0095 H   0  0  0  0  0  0  0  0  0  0  0  0
   -0.0012   -1.3708    0.0146 C   0  0  0  0  0  0  0  0  0  0  0  0
    0.0130   -2.3787    0.0357 H   0  0  0  0  0  0  0  0  0  0  0  0
    1.2007   -0.6724    0.0000 C   0  0  0  0  0  0  0  0  0  0  0  0
    2.0785   -1.1816   -0.0145 H   0  0  0  0  0  0  0  0  0  0  0  0
    1.1913    0.6913    0.0069 C   0  0  0  0  0  0  0  0  0  0  0  0
    2.0580    1.1998    0.0333 H   0  0  0  0  0  0  0  0  0  0  0  0
  1  5  1  0
  5  6  1  0
  5  7  2  0
  1  2  1  0
  1  3  1  0
  1  4  1  0
  8 12  1  0
 12 13  2  0
 13 15  1  0
 15 17  2  0
 17 19  1  0
 19 21  2  0
 21 12  1  0
  8  9  1  0
  8 10  1  0
  8 11  1  0
 13 14  1  0
 15 16  1  0
 17 18  1  0
 19 20  1  0
 21 22  1  0
M  CHG  1   6  -1
M  END
>  <PDB_ID>  (2557) 
pdb5mz2

>  <RESIDUE_NAME>  (2557) 
GLU   PHE

>  <FRAG_NAME>  (2557) 
ACET   MBZ

>  <FRAG_ATOM_NUM>  (2557) 
fragi: 7  fragj: 15

>  <atom.prop.CHAIN_ID>  (2557) 
A A A A A A A Z Z Z Z Z Z Z Z Z Z Z Z Z Z Z

>  <atom.prop.IS_HEAVY_ATOM>  (2557) 
1 0 0 0 1 1 1 1 0 0 0 1 1 0 1 0 1 0 1 0 1 0

>  <DIFUSE_FUNC_ATOM>  (2557) 
atom 6   atom 7   

>  <FINAL_SINGLE_POINT_ENERGY>  (2557) 
0

>  <NONCOV_INTER_ENERGY_QM>  (2557) 
0

>  <FF_Energy>  (2557) 
1.8

>  <QM_Energy>  (2557) 
-4.62

>  <source>  (2557) 
ACET_MBZ_02

>  <Index>  (2557) 
38929

$$$$
ACET-pdb5mz2-E-GLU-64:MBZ-pdb5mz2-E-PHE-131
     RDKit          3D

 22 21  0  0  0  0  0  0  0  0999 V2000
    0.3202   -3.1852   -2.6685 C   0  0  0  0  0  0  0  0  0  0  0  0
    0.8048   -3.6023   -3.4100 H   0  0  0  0  0  0  0  0  0  0  0  0
    0.7167   -2.3355   -2.3852 H   0  0  0  0  0  0  0  0  0  0  0  0
   -0.7020   -2.9935   -2.9950 H   0  0  0  0  0  0  0  0  0  0  0  0
    0.3869   -4.1433   -1.4780 C   0  0  0  0  0  0  0  0  0  0  0  0
   -0.6952   -4.5662   -0.9959 O   0  0  0  0  0  1  0  0  0  0  0  0
    1.5160   -4.4484   -1.0094 O   0  0  0  0  0  0  0  0  0  0  0  0
   -0.0140    2.8631    0.0334 C   0  0  0  0  0  0  0  0  0  0  0  0
   -0.6988    3.1950   -0.5924 H   0  0  0  0  0  0  0  0  0  0  0  0
    0.8848    3.1988   -0.1926 H   0  0  0  0  0  0  0  0  0  0  0  0
   -0.2647    3.2394    1.0252 H   0  0  0  0  0  0  0  0  0  0  0  0
    0.0020    1.3874   -0.0180 C   0  0  0  0  0  0  0  0  0  0  0  0
   -1.1990    0.6802    0.0027 C   0  0  0  0  0  0  0  0  0  0  0  0
   -2.0619    1.1774    0.0182 H   0  0  0  0  0  0  0  0  0  0  0  0
   -1.2064   -0.7011    0.0000 C   0  0  0  0  0  0  0  0  0  0  0  0
   -2.0745   -1.2007   -0.0107 H   0  0  0  0  0  0  0  0  0  0  0  0
    0.0024   -1.3829    0.0141 C   0  0  0  0  0  0  0  0  0  0  0  0
    0.0090   -2.3835    0.0342 H   0  0  0  0  0  0  0  0  0  0  0  0
    1.2064   -0.6788    0.0000 C   0  0  0  0  0  0  0  0  0  0  0  0
    2.0855   -1.1830   -0.0096 H   0  0  0  0  0  0  0  0  0  0  0  0
    1.1945    0.6952    0.0012 C   0  0  0  0  0  0  0  0  0  0  0  0
    2.0609    1.2008    0.0152 H   0  0  0  0  0  0  0  0  0  0  0  0
  1  5  1  0
  5  6  1  0
  5  7  2  0
  1  2  1  0
  1  3  1  0
  1  4  1  0
  8 12  1  0
 12 13  2  0
 13 15  1  0
 15 17  2  0
 17 19  1  0
 19 21  2  0
 21 12  1  0
  8  9  1  0
  8 10  1  0
  8 11  1  0
 13 14  1  0
 15 16  1  0
 17 18  1  0
 19 20  1  0
 21 22  1  0
M  CHG  1   6  -1
M  END
>  <PDB_ID>  (2558) 
pdb5mz2

>  <RESIDUE_NAME>  (2558) 
GLU   PHE

>  <FRAG_NAME>  (2558) 
ACET   MBZ

>  <FRAG_ATOM_NUM>  (2558) 
fragi: 7  fragj: 15

>  <atom.prop.CHAIN_ID>  (2558) 
A A A A A A A Z Z Z Z Z Z Z Z Z Z Z Z Z Z Z

>  <atom.prop.IS_HEAVY_ATOM>  (2558) 
1 0 0 0 1 1 1 1 0 0 0 1 1 0 1 0 1 0 1 0 1 0

>  <DIFUSE_FUNC_ATOM>  (2558) 
atom 6   atom 7   

>  <FINAL_SINGLE_POINT_ENERGY>  (2558) 
0

>  <NONCOV_INTER_ENERGY_QM>  (2558) 
0

>  <FF_Energy>  (2558) 
0.51

>  <QM_Energy>  (2558) 
-5.08

>  <source>  (2558) 
ACET_MBZ_02

>  <Index>  (2558) 
38942

$$$$
ACET-pdb6s54-A-GLU-130:MBZ-pdb6s54-B-PHE-163
     RDKit          3D

 22 21  0  0  0  0  0  0  0  0999 V2000
    4.5840    1.6197   -1.7196 C   0  0  0  0  0  0  0  0  0  0  0  0
    4.3447    2.2751   -2.4184 H   0  0  0  0  0  0  0  0  0  0  0  0
    3.9653    0.8497   -1.7194 H   0  0  0  0  0  0  0  0  0  0  0  0
    5.5969    1.2615   -1.9036 H   0  0  0  0  0  0  0  0  0  0  0  0
    4.3965    2.3343   -0.3615 C   0  0  0  0  0  0  0  0  0  0  0  0
    5.2965    2.2647    0.5154 O   0  0  0  0  0  1  0  0  0  0  0  0
    3.3239    2.9821   -0.1732 O   0  0  0  0  0  0  0  0  0  0  0  0
    0.0009    2.9226   -0.0033 C   0  0  0  0  0  0  0  0  0  0  0  0
    0.8558    3.2238    0.3812 H   0  0  0  0  0  0  0  0  0  0  0  0
   -0.7705    3.2252    0.5270 H   0  0  0  0  0  0  0  0  0  0  0  0
   -0.0883    3.3441   -1.0045 H   0  0  0  0  0  0  0  0  0  0  0  0
    0.0000    1.4023    0.0088 C   0  0  0  0  0  0  0  0  0  0  0  0
   -1.1989    0.6932   -0.0050 C   0  0  0  0  0  0  0  0  0  0  0  0
   -2.0650    1.1800   -0.0199 H   0  0  0  0  0  0  0  0  0  0  0  0
   -1.2023   -0.7045   -0.0000 C   0  0  0  0  0  0  0  0  0  0  0  0
   -2.0754   -1.1959    0.0021 H   0  0  0  0  0  0  0  0  0  0  0  0
    0.0017   -1.3861    0.0036 C   0  0  0  0  0  0  0  0  0  0  0  0
    0.0049   -2.3899    0.0083 H   0  0  0  0  0  0  0  0  0  0  0  0
    1.2023   -0.6903    0.0000 C   0  0  0  0  0  0  0  0  0  0  0  0
    2.0822   -1.1944    0.0045 H   0  0  0  0  0  0  0  0  0  0  0  0
    1.1971    0.6854   -0.0073 C   0  0  0  0  0  0  0  0  0  0  0  0
    2.0650    1.1901   -0.0252 H   0  0  0  0  0  0  0  0  0  0  0  0
  1  5  1  0
  5  6  1  0
  5  7  2  0
  1  2  1  0
  1  3  1  0
  1  4  1  0
  8 12  1  0
 12 13  2  0
 13 15  1  0
 15 17  2  0
 17 19  1  0
 19 21  2  0
 21 12  1  0
  8  9  1  0
  8 10  1  0
  8 11  1  0
 13 14  1  0
 15 16  1  0
 17 18  1  0
 19 20  1  0
 21 22  1  0
M  CHG  1   6  -1
M  END
>  <PDB_ID>  (2559) 
pdb6s54

>  <RESIDUE_NAME>  (2559) 
GLU   PHE

>  <FRAG_NAME>  (2559) 
ACET   MBZ

>  <FRAG_ATOM_NUM>  (2559) 
fragi: 7  fragj: 15

>  <atom.prop.CHAIN_ID>  (2559) 
A A A A A A A Z Z Z Z Z Z Z Z Z Z Z Z Z Z Z

>  <atom.prop.IS_HEAVY_ATOM>  (2559) 
1 0 0 0 1 1 1 1 0 0 0 1 1 0 1 0 1 0 1 0 1 0

>  <DIFUSE_FUNC_ATOM>  (2559) 
atom 6   atom 7   

>  <FINAL_SINGLE_POINT_ENERGY>  (2559) 
0

>  <NONCOV_INTER_ENERGY_QM>  (2559) 
0

>  <FF_Energy>  (2559) 
-0.09

>  <QM_Energy>  (2559) 
-7.81

>  <source>  (2559) 
ACET_MBZ_02

>  <Index>  (2559) 
39073

$$$$
ACET-pdb5n1j-D-ASP-76:MBZ-pdb5n1j-D-PHE-100
     RDKit          3D

 22 21  0  0  0  0  0  0  0  0999 V2000
    3.9127    5.2659    1.7165 C   0  0  0  0  0  0  0  0  0  0  0  0
    4.8794    5.4388    1.8766 H   0  0  0  0  0  0  0  0  0  0  0  0
    3.3561    5.8777    2.2678 H   0  0  0  0  0  0  0  0  0  0  0  0
    3.7088    5.4903    0.6695 H   0  0  0  0  0  0  0  0  0  0  0  0
    3.5969    3.8391    2.0854 C   0  0  0  0  0  0  0  0  0  0  0  0
    3.1963    3.0743    1.1800 O   0  0  0  0  0  1  0  0  0  0  0  0
    3.7997    3.4804    3.2780 O   0  0  0  0  0  0  0  0  0  0  0  0
   -0.0065    2.8981    0.0312 C   0  0  0  0  0  0  0  0  0  0  0  0
    0.9146    3.2078    0.2015 H   0  0  0  0  0  0  0  0  0  0  0  0
   -0.6266    3.1948    0.7386 H   0  0  0  0  0  0  0  0  0  0  0  0
   -0.3372    3.3435   -0.9071 H   0  0  0  0  0  0  0  0  0  0  0  0
   -0.0024    1.4004    0.0077 C   0  0  0  0  0  0  0  0  0  0  0  0
   -1.2005    0.6943    0.0039 C   0  0  0  0  0  0  0  0  0  0  0  0
   -2.0663    1.1874    0.0029 H   0  0  0  0  0  0  0  0  0  0  0  0
   -1.2079   -0.6943   -0.0000 C   0  0  0  0  0  0  0  0  0  0  0  0
   -2.0807   -1.1908    0.0086 H   0  0  0  0  0  0  0  0  0  0  0  0
    0.0012   -1.3942   -0.0139 C   0  0  0  0  0  0  0  0  0  0  0  0
   -0.0059   -2.3916   -0.0342 H   0  0  0  0  0  0  0  0  0  0  0  0
    1.2079   -0.6985    0.0000 C   0  0  0  0  0  0  0  0  0  0  0  0
    2.0857   -1.1975    0.0098 H   0  0  0  0  0  0  0  0  0  0  0  0
    1.2017    0.6922    0.0023 C   0  0  0  0  0  0  0  0  0  0  0  0
    2.0655    1.1918   -0.0009 H   0  0  0  0  0  0  0  0  0  0  0  0
  1  5  1  0
  5  6  1  0
  5  7  2  0
  1  2  1  0
  1  3  1  0
  1  4  1  0
  8 12  1  0
 12 13  2  0
 13 15  1  0
 15 17  2  0
 17 19  1  0
 19 21  2  0
 21 12  1  0
  8  9  1  0
  8 10  1  0
  8 11  1  0
 13 14  1  0
 15 16  1  0
 17 18  1  0
 19 20  1  0
 21 22  1  0
M  CHG  1   6  -1
M  END
>  <PDB_ID>  (2560) 
pdb5n1j

>  <RESIDUE_NAME>  (2560) 
ASP   PHE

>  <FRAG_NAME>  (2560) 
ACET   MBZ

>  <FRAG_ATOM_NUM>  (2560) 
fragi: 7  fragj: 15

>  <atom.prop.CHAIN_ID>  (2560) 
A A A A A A A Z Z Z Z Z Z Z Z Z Z Z Z Z Z Z

>  <atom.prop.IS_HEAVY_ATOM>  (2560) 
1 0 0 0 1 1 1 1 0 0 0 1 1 0 1 0 1 0 1 0 1 0

>  <DIFUSE_FUNC_ATOM>  (2560) 
atom 6   atom 7   

>  <FINAL_SINGLE_POINT_ENERGY>  (2560) 
0

>  <NONCOV_INTER_ENERGY_QM>  (2560) 
0

>  <FF_Energy>  (2560) 
-1.39

>  <QM_Energy>  (2560) 
-7.23

>  <source>  (2560) 
ACET_MBZ_02

>  <Index>  (2560) 
39098

$$$$
ACET-pdb6s7j-G-GLU-70:MBZ-pdb6s7j-G-PHE-73
     RDKit          3D

 22 21  0  0  0  0  0  0  0  0999 V2000
   -2.0476    0.7749    4.2839 C   0  0  0  0  0  0  0  0  0  0  0  0
   -2.7530    0.4918    4.9057 H   0  0  0  0  0  0  0  0  0  0  0  0
   -1.6886    1.6628    4.5039 H   0  0  0  0  0  0  0  0  0  0  0  0
   -1.2321    0.0550    4.3517 H   0  0  0  0  0  0  0  0  0  0  0  0
   -2.6603    0.8556    2.8932 C   0  0  0  0  0  0  0  0  0  0  0  0
   -2.7517    1.9677    2.3289 O   0  0  0  0  0  1  0  0  0  0  0  0
   -3.0583   -0.2048    2.3622 O   0  0  0  0  0  0  0  0  0  0  0  0
   -0.0132    2.9193    0.0003 C   0  0  0  0  0  0  0  0  0  0  0  0
   -0.3872    3.2187    0.8650 H   0  0  0  0  0  0  0  0  0  0  0  0
   -0.5739    3.2172   -0.7574 H   0  0  0  0  0  0  0  0  0  0  0  0
    0.9701    3.3757   -0.1132 H   0  0  0  0  0  0  0  0  0  0  0  0
   -0.0011    1.4038   -0.0001 C   0  0  0  0  0  0  0  0  0  0  0  0
   -1.1949    0.6894    0.0016 C   0  0  0  0  0  0  0  0  0  0  0  0
   -2.0649    1.1764    0.0027 H   0  0  0  0  0  0  0  0  0  0  0  0
   -1.1985   -0.7050   -0.0000 C   0  0  0  0  0  0  0  0  0  0  0  0
   -2.0748   -1.1976    0.0029 H   0  0  0  0  0  0  0  0  0  0  0  0
    0.0021   -1.3940   -0.0033 C   0  0  0  0  0  0  0  0  0  0  0  0
    0.0043   -2.3932   -0.0089 H   0  0  0  0  0  0  0  0  0  0  0  0
    1.1985   -0.6919   -0.0000 C   0  0  0  0  0  0  0  0  0  0  0  0
    2.0835   -1.1883    0.0020 H   0  0  0  0  0  0  0  0  0  0  0  0
    1.1939    0.6978    0.0019 C   0  0  0  0  0  0  0  0  0  0  0  0
    2.0629    1.1937    0.0039 H   0  0  0  0  0  0  0  0  0  0  0  0
  1  5  1  0
  5  6  1  0
  5  7  2  0
  1  2  1  0
  1  3  1  0
  1  4  1  0
  8 12  1  0
 12 13  2  0
 13 15  1  0
 15 17  2  0
 17 19  1  0
 19 21  2  0
 21 12  1  0
  8  9  1  0
  8 10  1  0
  8 11  1  0
 13 14  1  0
 15 16  1  0
 17 18  1  0
 19 20  1  0
 21 22  1  0
M  CHG  1   6  -1
M  END
>  <PDB_ID>  (2561) 
pdb6s7j

>  <RESIDUE_NAME>  (2561) 
GLU   PHE

>  <FRAG_NAME>  (2561) 
ACET   MBZ

>  <FRAG_ATOM_NUM>  (2561) 
fragi: 7  fragj: 15

>  <atom.prop.CHAIN_ID>  (2561) 
A A A A A A A Z Z Z Z Z Z Z Z Z Z Z Z Z Z Z

>  <atom.prop.IS_HEAVY_ATOM>  (2561) 
1 0 0 0 1 1 1 1 0 0 0 1 1 0 1 0 1 0 1 0 1 0

>  <DIFUSE_FUNC_ATOM>  (2561) 
atom 6   atom 7   

>  <FINAL_SINGLE_POINT_ENERGY>  (2561) 
0

>  <NONCOV_INTER_ENERGY_QM>  (2561) 
0

>  <FF_Energy>  (2561) 
-1.02

>  <QM_Energy>  (2561) 
-6.6

>  <source>  (2561) 
ACET_MBZ_02

>  <Index>  (2561) 
39130

$$$$
ACET-pdb5n5g-A-ASP-182:MBZ-pdb5n5g-A-PHE-115
     RDKit          3D

 22 21  0  0  0  0  0  0  0  0999 V2000
   -5.4954    2.6800    1.9052 C   0  0  0  0  0  0  0  0  0  0  0  0
   -5.5345    3.6407    2.0309 H   0  0  0  0  0  0  0  0  0  0  0  0
   -5.1731    2.2526    2.7144 H   0  0  0  0  0  0  0  0  0  0  0  0
   -6.4965    2.3099    1.6841 H   0  0  0  0  0  0  0  0  0  0  0  0
   -4.4948    2.3914    0.7887 C   0  0  0  0  0  0  0  0  0  0  0  0
   -4.5936    1.3036    0.1670 O   0  0  0  0  0  1  0  0  0  0  0  0
   -3.6216    3.2452    0.5229 O   0  0  0  0  0  0  0  0  0  0  0  0
    0.0086    2.9074    0.0599 C   0  0  0  0  0  0  0  0  0  0  0  0
    0.8666    3.1800    0.4203 H   0  0  0  0  0  0  0  0  0  0  0  0
   -0.6995    3.1824    0.6627 H   0  0  0  0  0  0  0  0  0  0  0  0
   -0.1386    3.4039   -0.8993 H   0  0  0  0  0  0  0  0  0  0  0  0
   -0.0023    1.4010    0.0021 C   0  0  0  0  0  0  0  0  0  0  0  0
   -1.1975    0.6869    0.0089 C   0  0  0  0  0  0  0  0  0  0  0  0
   -2.0064    1.1449    0.0251 H   0  0  0  0  0  0  0  0  0  0  0  0
   -1.1944   -0.6944   -0.0000 C   0  0  0  0  0  0  0  0  0  0  0  0
   -1.9980   -1.1617   -0.0001 H   0  0  0  0  0  0  0  0  0  0  0  0
    0.0112   -1.3839   -0.0005 C   0  0  0  0  0  0  0  0  0  0  0  0
    0.0128   -2.3140   -0.0204 H   0  0  0  0  0  0  0  0  0  0  0  0
    1.1944   -0.7018   -0.0000 C   0  0  0  0  0  0  0  0  0  0  0  0
    2.0007   -1.1652   -0.0165 H   0  0  0  0  0  0  0  0  0  0  0  0
    1.1886    0.6922   -0.0105 C   0  0  0  0  0  0  0  0  0  0  0  0
    1.9961    1.1538    0.0067 H   0  0  0  0  0  0  0  0  0  0  0  0
  1  5  1  0
  5  6  1  0
  5  7  2  0
  1  2  1  0
  1  3  1  0
  1  4  1  0
  8 12  1  0
 12 13  2  0
 13 15  1  0
 15 17  2  0
 17 19  1  0
 19 21  2  0
 21 12  1  0
  8  9  1  0
  8 10  1  0
  8 11  1  0
 13 14  1  0
 15 16  1  0
 17 18  1  0
 19 20  1  0
 21 22  1  0
M  CHG  1   6  -1
M  END
>  <PDB_ID>  (2562) 
pdb5n5g

>  <RESIDUE_NAME>  (2562) 
ASP   PHE

>  <FRAG_NAME>  (2562) 
ACET   MBZ

>  <FRAG_ATOM_NUM>  (2562) 
fragi: 7  fragj: 15

>  <atom.prop.CHAIN_ID>  (2562) 
A A A A A A A Z Z Z Z Z Z Z Z Z Z Z Z Z Z Z

>  <atom.prop.IS_HEAVY_ATOM>  (2562) 
1 0 0 0 1 1 1 1 0 0 0 1 1 0 1 0 1 0 1 0 1 0

>  <DIFUSE_FUNC_ATOM>  (2562) 
atom 6   atom 7   

>  <FINAL_SINGLE_POINT_ENERGY>  (2562) 
0

>  <NONCOV_INTER_ENERGY_QM>  (2562) 
0

>  <FF_Energy>  (2562) 
-2.98

>  <QM_Energy>  (2562) 
-8.71

>  <source>  (2562) 
ACET_MBZ_02

>  <Index>  (2562) 
39323

$$$$
ACET-pdb5n8r-A-ASP-840:MBZ-pdb5n8r-A-PHE-828
     RDKit          3D

 22 21  0  0  0  0  0  0  0  0999 V2000
    3.2791    6.3886   -1.5347 C   0  0  0  0  0  0  0  0  0  0  0  0
    2.8623    6.5826   -2.4100 H   0  0  0  0  0  0  0  0  0  0  0  0
    4.1184    5.8773   -1.6416 H   0  0  0  0  0  0  0  0  0  0  0  0
    3.5147    7.3366   -1.0511 H   0  0  0  0  0  0  0  0  0  0  0  0
    2.3109    5.5709   -0.7041 C   0  0  0  0  0  0  0  0  0  0  0  0
    2.7620    4.8569    0.2261 O   0  0  0  0  0  1  0  0  0  0  0  0
    1.0945    5.6632   -0.9655 O   0  0  0  0  0  0  0  0  0  0  0  0
   -0.0019    2.8866   -0.0332 C   0  0  0  0  0  0  0  0  0  0  0  0
   -0.4933    3.1712   -0.8443 H   0  0  0  0  0  0  0  0  0  0  0  0
    0.9392    3.1952   -0.0604 H   0  0  0  0  0  0  0  0  0  0  0  0
   -0.4807    3.3543    0.8271 H   0  0  0  0  0  0  0  0  0  0  0  0
    0.0001    1.3900    0.0101 C   0  0  0  0  0  0  0  0  0  0  0  0
   -1.1902    0.6871   -0.0156 C   0  0  0  0  0  0  0  0  0  0  0  0
   -2.0572    1.1821   -0.0471 H   0  0  0  0  0  0  0  0  0  0  0  0
   -1.1930   -0.6866   -0.0000 C   0  0  0  0  0  0  0  0  0  0  0  0
   -2.0738   -1.1857    0.0091 H   0  0  0  0  0  0  0  0  0  0  0  0
   -0.0031   -1.3781    0.0051 C   0  0  0  0  0  0  0  0  0  0  0  0
   -0.0098   -2.3826    0.0125 H   0  0  0  0  0  0  0  0  0  0  0  0
    1.1930   -0.6947    0.0000 C   0  0  0  0  0  0  0  0  0  0  0  0
    2.0738   -1.1998   -0.0028 H   0  0  0  0  0  0  0  0  0  0  0  0
    1.1932    0.6823    0.0005 C   0  0  0  0  0  0  0  0  0  0  0  0
    2.0617    1.1820   -0.0071 H   0  0  0  0  0  0  0  0  0  0  0  0
  1  5  1  0
  5  6  1  0
  5  7  2  0
  1  2  1  0
  1  3  1  0
  1  4  1  0
  8 12  1  0
 12 13  2  0
 13 15  1  0
 15 17  2  0
 17 19  1  0
 19 21  2  0
 21 12  1  0
  8  9  1  0
  8 10  1  0
  8 11  1  0
 13 14  1  0
 15 16  1  0
 17 18  1  0
 19 20  1  0
 21 22  1  0
M  CHG  1   6  -1
M  END
>  <PDB_ID>  (2563) 
pdb5n8r

>  <RESIDUE_NAME>  (2563) 
ASP   PHE

>  <FRAG_NAME>  (2563) 
ACET   MBZ

>  <FRAG_ATOM_NUM>  (2563) 
fragi: 7  fragj: 15

>  <atom.prop.CHAIN_ID>  (2563) 
A A A A A A A Z Z Z Z Z Z Z Z Z Z Z Z Z Z Z

>  <atom.prop.IS_HEAVY_ATOM>  (2563) 
1 0 0 0 1 1 1 1 0 0 0 1 1 0 1 0 1 0 1 0 1 0

>  <DIFUSE_FUNC_ATOM>  (2563) 
atom 6   atom 7   

>  <FINAL_SINGLE_POINT_ENERGY>  (2563) 
0

>  <NONCOV_INTER_ENERGY_QM>  (2563) 
0

>  <FF_Energy>  (2563) 
-1.25

>  <QM_Energy>  (2563) 
-6.78

>  <source>  (2563) 
ACET_MBZ_02

>  <Index>  (2563) 
39446

$$$$
ACET-pdb5n8r-B-ASP-840:MBZ-pdb5n8r-B-PHE-828
     RDKit          3D

 22 21  0  0  0  0  0  0  0  0999 V2000
    3.2767    6.4356   -1.7320 C   0  0  0  0  0  0  0  0  0  0  0  0
    2.8042    6.6477   -2.5737 H   0  0  0  0  0  0  0  0  0  0  0  0
    4.1003    5.9183   -1.9014 H   0  0  0  0  0  0  0  0  0  0  0  0
    3.5505    7.3712   -1.2445 H   0  0  0  0  0  0  0  0  0  0  0  0
    2.3479    5.5943   -0.8558 C   0  0  0  0  0  0  0  0  0  0  0  0
    1.1176    5.7013   -1.0174 O   0  0  0  0  0  1  0  0  0  0  0  0
    2.8457    4.8468    0.0247 O   0  0  0  0  0  0  0  0  0  0  0  0
    0.0038    2.8976   -0.0185 C   0  0  0  0  0  0  0  0  0  0  0  0
   -0.5585    3.1969   -0.7761 H   0  0  0  0  0  0  0  0  0  0  0  0
    0.9406    3.1992   -0.1275 H   0  0  0  0  0  0  0  0  0  0  0  0
   -0.3896    3.3554    0.8891 H   0  0  0  0  0  0  0  0  0  0  0  0
   -0.0025    1.3973    0.0019 C   0  0  0  0  0  0  0  0  0  0  0  0
   -1.1876    0.7082    0.0049 C   0  0  0  0  0  0  0  0  0  0  0  0
   -2.0569    1.1941    0.0095 H   0  0  0  0  0  0  0  0  0  0  0  0
   -1.1899   -0.6796    0.0000 C   0  0  0  0  0  0  0  0  0  0  0  0
   -2.0742   -1.1723   -0.0015 H   0  0  0  0  0  0  0  0  0  0  0  0
    0.0012   -1.3881   -0.0013 C   0  0  0  0  0  0  0  0  0  0  0  0
   -0.0239   -2.3909   -0.0042 H   0  0  0  0  0  0  0  0  0  0  0  0
    1.1899   -0.7172    0.0000 C   0  0  0  0  0  0  0  0  0  0  0  0
    2.0738   -1.2086    0.0065 H   0  0  0  0  0  0  0  0  0  0  0  0
    1.1890    0.6794   -0.0055 C   0  0  0  0  0  0  0  0  0  0  0  0
    2.0616    1.1694   -0.0157 H   0  0  0  0  0  0  0  0  0  0  0  0
  1  5  1  0
  5  6  1  0
  5  7  2  0
  1  2  1  0
  1  3  1  0
  1  4  1  0
  8 12  1  0
 12 13  2  0
 13 15  1  0
 15 17  2  0
 17 19  1  0
 19 21  2  0
 21 12  1  0
  8  9  1  0
  8 10  1  0
  8 11  1  0
 13 14  1  0
 15 16  1  0
 17 18  1  0
 19 20  1  0
 21 22  1  0
M  CHG  1   6  -1
M  END
>  <PDB_ID>  (2564) 
pdb5n8r

>  <RESIDUE_NAME>  (2564) 
ASP   PHE

>  <FRAG_NAME>  (2564) 
ACET   MBZ

>  <FRAG_ATOM_NUM>  (2564) 
fragi: 7  fragj: 15

>  <atom.prop.CHAIN_ID>  (2564) 
A A A A A A A Z Z Z Z Z Z Z Z Z Z Z Z Z Z Z

>  <atom.prop.IS_HEAVY_ATOM>  (2564) 
1 0 0 0 1 1 1 1 0 0 0 1 1 0 1 0 1 0 1 0 1 0

>  <DIFUSE_FUNC_ATOM>  (2564) 
atom 6   atom 7   

>  <FINAL_SINGLE_POINT_ENERGY>  (2564) 
0

>  <NONCOV_INTER_ENERGY_QM>  (2564) 
0

>  <FF_Energy>  (2564) 
-1.46

>  <QM_Energy>  (2564) 
-6.79

>  <source>  (2564) 
ACET_MBZ_02

>  <Index>  (2564) 
39451

$$$$
ACET-pdb5n8r-B-ASP-926:MBZ-pdb5n8r-B-PHE-845
     RDKit          3D

 22 21  0  0  0  0  0  0  0  0999 V2000
   -0.2825    0.7865    3.4717 C   0  0  0  0  0  0  0  0  0  0  0  0
    0.6045    1.1993    3.6122 H   0  0  0  0  0  0  0  0  0  0  0  0
   -0.3033    0.2481    2.6439 H   0  0  0  0  0  0  0  0  0  0  0  0
   -0.4852    0.1243    4.3134 H   0  0  0  0  0  0  0  0  0  0  0  0
   -1.3261    1.8973    3.3586 C   0  0  0  0  0  0  0  0  0  0  0  0
   -2.5258    1.5488    3.4353 O   0  0  0  0  0  1  0  0  0  0  0  0
   -0.9733    3.0969    3.1972 O   0  0  0  0  0  0  0  0  0  0  0  0
    0.0147    2.9342   -0.0109 C   0  0  0  0  0  0  0  0  0  0  0  0
    0.8768    3.2378    0.3518 H   0  0  0  0  0  0  0  0  0  0  0  0
   -0.7477    3.2530    0.5218 H   0  0  0  0  0  0  0  0  0  0  0  0
   -0.0872    3.3322   -1.0205 H   0  0  0  0  0  0  0  0  0  0  0  0
    0.0040    1.4198    0.0267 C   0  0  0  0  0  0  0  0  0  0  0  0
   -1.1933    0.7057   -0.0108 C   0  0  0  0  0  0  0  0  0  0  0  0
   -2.0611    1.1869   -0.0464 H   0  0  0  0  0  0  0  0  0  0  0  0
   -1.1992   -0.7047    0.0000 C   0  0  0  0  0  0  0  0  0  0  0  0
   -2.0839   -1.1857    0.0146 H   0  0  0  0  0  0  0  0  0  0  0  0
   -0.0065   -1.4110   -0.0076 C   0  0  0  0  0  0  0  0  0  0  0  0
   -0.0124   -2.4062   -0.0190 H   0  0  0  0  0  0  0  0  0  0  0  0
    1.1992   -0.7131   -0.0000 C   0  0  0  0  0  0  0  0  0  0  0  0
    2.0802   -1.2003    0.0124 H   0  0  0  0  0  0  0  0  0  0  0  0
    1.1959    0.7032   -0.0083 C   0  0  0  0  0  0  0  0  0  0  0  0
    2.0691    1.1854   -0.0412 H   0  0  0  0  0  0  0  0  0  0  0  0
  1  5  1  0
  5  6  1  0
  5  7  2  0
  1  2  1  0
  1  3  1  0
  1  4  1  0
  8 12  1  0
 12 13  2  0
 13 15  1  0
 15 17  2  0
 17 19  1  0
 19 21  2  0
 21 12  1  0
  8  9  1  0
  8 10  1  0
  8 11  1  0
 13 14  1  0
 15 16  1  0
 17 18  1  0
 19 20  1  0
 21 22  1  0
M  CHG  1   6  -1
M  END
>  <PDB_ID>  (2565) 
pdb5n8r

>  <RESIDUE_NAME>  (2565) 
ASP   PHE

>  <FRAG_NAME>  (2565) 
ACET   MBZ

>  <FRAG_ATOM_NUM>  (2565) 
fragi: 7  fragj: 15

>  <atom.prop.CHAIN_ID>  (2565) 
A A A A A A A Z Z Z Z Z Z Z Z Z Z Z Z Z Z Z

>  <atom.prop.IS_HEAVY_ATOM>  (2565) 
1 0 0 0 1 1 1 1 0 0 0 1 1 0 1 0 1 0 1 0 1 0

>  <DIFUSE_FUNC_ATOM>  (2565) 
atom 6   atom 7   

>  <FINAL_SINGLE_POINT_ENERGY>  (2565) 
0

>  <NONCOV_INTER_ENERGY_QM>  (2565) 
0

>  <FF_Energy>  (2565) 
-0.37

>  <QM_Energy>  (2565) 
-5.46

>  <source>  (2565) 
ACET_MBZ_02

>  <Index>  (2565) 
39452

$$$$
ACET-pdb6td9-A-GLU-171:MBZ-pdb6td9-A-PHE-126
     RDKit          3D

 22 21  0  0  0  0  0  0  0  0999 V2000
   -4.8208    0.3641    2.0681 C   0  0  0  0  0  0  0  0  0  0  0  0
   -5.1072    1.0202    2.7234 H   0  0  0  0  0  0  0  0  0  0  0  0
   -4.0364   -0.1066    2.3888 H   0  0  0  0  0  0  0  0  0  0  0  0
   -5.6260   -0.3521    1.9049 H   0  0  0  0  0  0  0  0  0  0  0  0
   -4.4531    1.0845    0.8215 C   0  0  0  0  0  0  0  0  0  0  0  0
   -4.6727    0.5338   -0.2945 O   0  0  0  0  0  1  0  0  0  0  0  0
   -3.9289    2.2135    0.9588 O   0  0  0  0  0  0  0  0  0  0  0  0
   -0.0111    2.9059   -0.0682 C   0  0  0  0  0  0  0  0  0  0  0  0
    0.9038    3.2130    0.0291 H   0  0  0  0  0  0  0  0  0  0  0  0
   -0.5519    3.2402    0.6643 H   0  0  0  0  0  0  0  0  0  0  0  0
   -0.4138    3.2849   -1.0075 H   0  0  0  0  0  0  0  0  0  0  0  0
   -0.0077    1.3997    0.0072 C   0  0  0  0  0  0  0  0  0  0  0  0
   -1.1943    0.6915   -0.0003 C   0  0  0  0  0  0  0  0  0  0  0  0
   -2.0036    1.1508   -0.0055 H   0  0  0  0  0  0  0  0  0  0  0  0
   -1.1933   -0.6992   -0.0000 C   0  0  0  0  0  0  0  0  0  0  0  0
   -1.9971   -1.1663   -0.0007 H   0  0  0  0  0  0  0  0  0  0  0  0
    0.0163   -1.3912    0.0032 C   0  0  0  0  0  0  0  0  0  0  0  0
    0.0235   -2.3214    0.0060 H   0  0  0  0  0  0  0  0  0  0  0  0
    1.1933   -0.6941    0.0000 C   0  0  0  0  0  0  0  0  0  0  0  0
    2.0029   -1.1517    0.0052 H   0  0  0  0  0  0  0  0  0  0  0  0
    1.1857    0.6933   -0.0100 C   0  0  0  0  0  0  0  0  0  0  0  0
    1.9924    1.1558   -0.0275 H   0  0  0  0  0  0  0  0  0  0  0  0
  1  5  1  0
  5  6  1  0
  5  7  2  0
  1  2  1  0
  1  3  1  0
  1  4  1  0
  8 12  1  0
 12 13  2  0
 13 15  1  0
 15 17  2  0
 17 19  1  0
 19 21  2  0
 21 12  1  0
  8  9  1  0
  8 10  1  0
  8 11  1  0
 13 14  1  0
 15 16  1  0
 17 18  1  0
 19 20  1  0
 21 22  1  0
M  CHG  1   6  -1
M  END
>  <PDB_ID>  (2566) 
pdb6td9

>  <RESIDUE_NAME>  (2566) 
GLU   PHE

>  <FRAG_NAME>  (2566) 
ACET   MBZ

>  <FRAG_ATOM_NUM>  (2566) 
fragi: 7  fragj: 15

>  <atom.prop.CHAIN_ID>  (2566) 
A A A A A A A Z Z Z Z Z Z Z Z Z Z Z Z Z Z Z

>  <atom.prop.IS_HEAVY_ATOM>  (2566) 
1 0 0 0 1 1 1 1 0 0 0 1 1 0 1 0 1 0 1 0 1 0

>  <DIFUSE_FUNC_ATOM>  (2566) 
atom 6   atom 7   

>  <FINAL_SINGLE_POINT_ENERGY>  (2566) 
0

>  <NONCOV_INTER_ENERGY_QM>  (2566) 
0

>  <FF_Energy>  (2566) 
-1.97

>  <QM_Energy>  (2566) 
-7.76

>  <source>  (2566) 
ACET_MBZ_02

>  <Index>  (2566) 
39466

$$$$
ACET-pdb6td9-B-GLU-171:MBZ-pdb6td9-B-PHE-126
     RDKit          3D

 22 21  0  0  0  0  0  0  0  0999 V2000
   -4.7892    0.7362    2.2275 C   0  0  0  0  0  0  0  0  0  0  0  0
   -5.0339    1.4371    2.8512 H   0  0  0  0  0  0  0  0  0  0  0  0
   -4.0060    0.2639    2.5503 H   0  0  0  0  0  0  0  0  0  0  0  0
   -5.6179    0.0357    2.1245 H   0  0  0  0  0  0  0  0  0  0  0  0
   -4.4625    1.3515    0.9411 C   0  0  0  0  0  0  0  0  0  0  0  0
   -4.8840    0.8189   -0.1176 O   0  0  0  0  0  1  0  0  0  0  0  0
   -3.7821    2.3854    1.0023 O   0  0  0  0  0  0  0  0  0  0  0  0
   -0.0062    2.9033   -0.0514 C   0  0  0  0  0  0  0  0  0  0  0  0
    0.9134    3.2093   -0.0023 H   0  0  0  0  0  0  0  0  0  0  0  0
   -0.5046    3.2273    0.7147 H   0  0  0  0  0  0  0  0  0  0  0  0
   -0.4617    3.2927   -0.9619 H   0  0  0  0  0  0  0  0  0  0  0  0
    0.0014    1.3930    0.0009 C   0  0  0  0  0  0  0  0  0  0  0  0
   -1.1907    0.6934   -0.0031 C   0  0  0  0  0  0  0  0  0  0  0  0
   -1.9975    1.1556   -0.0090 H   0  0  0  0  0  0  0  0  0  0  0  0
   -1.1927   -0.6873    0.0000 C   0  0  0  0  0  0  0  0  0  0  0  0
   -1.9997   -1.1496    0.0014 H   0  0  0  0  0  0  0  0  0  0  0  0
   -0.0059   -1.3781   -0.0005 C   0  0  0  0  0  0  0  0  0  0  0  0
   -0.0109   -2.3078    0.0009 H   0  0  0  0  0  0  0  0  0  0  0  0
    1.1927   -0.6976    0.0000 C   0  0  0  0  0  0  0  0  0  0  0  0
    1.9965   -1.1660   -0.0024 H   0  0  0  0  0  0  0  0  0  0  0  0
    1.1952    0.6765    0.0028 C   0  0  0  0  0  0  0  0  0  0  0  0
    2.0058    1.1339    0.0058 H   0  0  0  0  0  0  0  0  0  0  0  0
  1  5  1  0
  5  6  1  0
  5  7  2  0
  1  2  1  0
  1  3  1  0
  1  4  1  0
  8 12  1  0
 12 13  2  0
 13 15  1  0
 15 17  2  0
 17 19  1  0
 19 21  2  0
 21 12  1  0
  8  9  1  0
  8 10  1  0
  8 11  1  0
 13 14  1  0
 15 16  1  0
 17 18  1  0
 19 20  1  0
 21 22  1  0
M  CHG  1   6  -1
M  END
>  <PDB_ID>  (2567) 
pdb6td9

>  <RESIDUE_NAME>  (2567) 
GLU   PHE

>  <FRAG_NAME>  (2567) 
ACET   MBZ

>  <FRAG_ATOM_NUM>  (2567) 
fragi: 7  fragj: 15

>  <atom.prop.CHAIN_ID>  (2567) 
A A A A A A A Z Z Z Z Z Z Z Z Z Z Z Z Z Z Z

>  <atom.prop.IS_HEAVY_ATOM>  (2567) 
1 0 0 0 1 1 1 1 0 0 0 1 1 0 1 0 1 0 1 0 1 0

>  <DIFUSE_FUNC_ATOM>  (2567) 
atom 6   atom 7   

>  <FINAL_SINGLE_POINT_ENERGY>  (2567) 
0

>  <NONCOV_INTER_ENERGY_QM>  (2567) 
0

>  <FF_Energy>  (2567) 
-2.07

>  <QM_Energy>  (2567) 
-7.47

>  <source>  (2567) 
ACET_MBZ_02

>  <Index>  (2567) 
39468

$$$$
ACET-pdb5nbs-B-GLU-643:MBZ-pdb5nbs-B-PHE-646
     RDKit          3D

 22 21  0  0  0  0  0  0  0  0999 V2000
   -2.0999    4.6472   -2.7785 C   0  0  0  0  0  0  0  0  0  0  0  0
   -1.7031    4.8968   -1.9083 H   0  0  0  0  0  0  0  0  0  0  0  0
   -3.0168    5.0044   -2.8722 H   0  0  0  0  0  0  0  0  0  0  0  0
   -1.4862    5.0882   -3.5640 H   0  0  0  0  0  0  0  0  0  0  0  0
   -2.1963    3.1218   -2.8186 C   0  0  0  0  0  0  0  0  0  0  0  0
   -1.3734    2.4755   -3.5032 O   0  0  0  0  0  1  0  0  0  0  0  0
   -3.0934    2.5656   -2.1391 O   0  0  0  0  0  0  0  0  0  0  0  0
   -0.0108    2.9089    0.0202 C   0  0  0  0  0  0  0  0  0  0  0  0
   -0.6137    3.2208   -0.6973 H   0  0  0  0  0  0  0  0  0  0  0  0
    0.9150    3.2212   -0.1225 H   0  0  0  0  0  0  0  0  0  0  0  0
   -0.3641    3.3337    0.9598 H   0  0  0  0  0  0  0  0  0  0  0  0
   -0.0029    1.4020   -0.0002 C   0  0  0  0  0  0  0  0  0  0  0  0
   -1.1970    0.6868    0.0031 C   0  0  0  0  0  0  0  0  0  0  0  0
   -2.0656    1.1765    0.0061 H   0  0  0  0  0  0  0  0  0  0  0  0
   -1.1986   -0.7009    0.0000 C   0  0  0  0  0  0  0  0  0  0  0  0
   -2.0729   -1.1991    0.0033 H   0  0  0  0  0  0  0  0  0  0  0  0
    0.0060   -1.3950   -0.0053 C   0  0  0  0  0  0  0  0  0  0  0  0
    0.0044   -2.3915   -0.0134 H   0  0  0  0  0  0  0  0  0  0  0  0
    1.1986   -0.6908    0.0000 C   0  0  0  0  0  0  0  0  0  0  0  0
    2.0853   -1.1863    0.0036 H   0  0  0  0  0  0  0  0  0  0  0  0
    1.1939    0.6979    0.0025 C   0  0  0  0  0  0  0  0  0  0  0  0
    2.0606    1.1954    0.0055 H   0  0  0  0  0  0  0  0  0  0  0  0
  1  5  1  0
  5  6  1  0
  5  7  2  0
  1  2  1  0
  1  3  1  0
  1  4  1  0
  8 12  1  0
 12 13  2  0
 13 15  1  0
 15 17  2  0
 17 19  1  0
 19 21  2  0
 21 12  1  0
  8  9  1  0
  8 10  1  0
  8 11  1  0
 13 14  1  0
 15 16  1  0
 17 18  1  0
 19 20  1  0
 21 22  1  0
M  CHG  1   6  -1
M  END
>  <PDB_ID>  (2568) 
pdb5nbs

>  <RESIDUE_NAME>  (2568) 
GLU   PHE

>  <FRAG_NAME>  (2568) 
ACET   MBZ

>  <FRAG_ATOM_NUM>  (2568) 
fragi: 7  fragj: 15

>  <atom.prop.CHAIN_ID>  (2568) 
A A A A A A A Z Z Z Z Z Z Z Z Z Z Z Z Z Z Z

>  <atom.prop.IS_HEAVY_ATOM>  (2568) 
1 0 0 0 1 1 1 1 0 0 0 1 1 0 1 0 1 0 1 0 1 0

>  <DIFUSE_FUNC_ATOM>  (2568) 
atom 6   atom 7   

>  <FINAL_SINGLE_POINT_ENERGY>  (2568) 
0

>  <NONCOV_INTER_ENERGY_QM>  (2568) 
0

>  <FF_Energy>  (2568) 
0.15

>  <QM_Energy>  (2568) 
-5.21

>  <source>  (2568) 
ACET_MBZ_02

>  <Index>  (2568) 
39592

$$$$
ACET-pdb5nbs-B-GLU-779:MBZ-pdb5nbs-B-PHE-653
     RDKit          3D

 22 21  0  0  0  0  0  0  0  0999 V2000
    0.3556    1.2940    3.8690 C   0  0  0  0  0  0  0  0  0  0  0  0
   -0.3004    1.9414    3.5074 H   0  0  0  0  0  0  0  0  0  0  0  0
    0.4468    1.3917    4.8508 H   0  0  0  0  0  0  0  0  0  0  0  0
   -0.0178    0.2906    3.6648 H   0  0  0  0  0  0  0  0  0  0  0  0
    1.7089    1.6186    3.2497 C   0  0  0  0  0  0  0  0  0  0  0  0
    2.6204    0.7550    3.2351 O   0  0  0  0  0  1  0  0  0  0  0  0
    1.8847    2.7716    2.7935 O   0  0  0  0  0  0  0  0  0  0  0  0
   -0.0002    2.9004   -0.0177 C   0  0  0  0  0  0  0  0  0  0  0  0
    0.8857    3.2123    0.2900 H   0  0  0  0  0  0  0  0  0  0  0  0
   -0.7224    3.2157    0.5787 H   0  0  0  0  0  0  0  0  0  0  0  0
   -0.1764    3.3299   -1.0039 H   0  0  0  0  0  0  0  0  0  0  0  0
   -0.0005    1.3996   -0.0019 C   0  0  0  0  0  0  0  0  0  0  0  0
   -1.1998    0.6939    0.0028 C   0  0  0  0  0  0  0  0  0  0  0  0
   -2.0636    1.1860    0.0069 H   0  0  0  0  0  0  0  0  0  0  0  0
   -1.2034   -0.6937   -0.0000 C   0  0  0  0  0  0  0  0  0  0  0  0
   -2.0781   -1.1908   -0.0049 H   0  0  0  0  0  0  0  0  0  0  0  0
    0.0015   -1.3911    0.0050 C   0  0  0  0  0  0  0  0  0  0  0  0
   -0.0052   -2.3900    0.0118 H   0  0  0  0  0  0  0  0  0  0  0  0
    1.2034   -0.6980    0.0000 C   0  0  0  0  0  0  0  0  0  0  0  0
    2.0832   -1.1980    0.0019 H   0  0  0  0  0  0  0  0  0  0  0  0
    1.1988    0.6893   -0.0060 C   0  0  0  0  0  0  0  0  0  0  0  0
    2.0651    1.1888   -0.0143 H   0  0  0  0  0  0  0  0  0  0  0  0
  1  5  1  0
  5  6  1  0
  5  7  2  0
  1  2  1  0
  1  3  1  0
  1  4  1  0
  8 12  1  0
 12 13  2  0
 13 15  1  0
 15 17  2  0
 17 19  1  0
 19 21  2  0
 21 12  1  0
  8  9  1  0
  8 10  1  0
  8 11  1  0
 13 14  1  0
 15 16  1  0
 17 18  1  0
 19 20  1  0
 21 22  1  0
M  CHG  1   6  -1
M  END
>  <PDB_ID>  (2569) 
pdb5nbs

>  <RESIDUE_NAME>  (2569) 
GLU   PHE

>  <FRAG_NAME>  (2569) 
ACET   MBZ

>  <FRAG_ATOM_NUM>  (2569) 
fragi: 7  fragj: 15

>  <atom.prop.CHAIN_ID>  (2569) 
A A A A A A A Z Z Z Z Z Z Z Z Z Z Z Z Z Z Z

>  <atom.prop.IS_HEAVY_ATOM>  (2569) 
1 0 0 0 1 1 1 1 0 0 0 1 1 0 1 0 1 0 1 0 1 0

>  <DIFUSE_FUNC_ATOM>  (2569) 
atom 6   atom 7   

>  <FINAL_SINGLE_POINT_ENERGY>  (2569) 
0

>  <NONCOV_INTER_ENERGY_QM>  (2569) 
0

>  <FF_Energy>  (2569) 
-0.57

>  <QM_Energy>  (2569) 
-5.58

>  <source>  (2569) 
ACET_MBZ_02

>  <Index>  (2569) 
39593

$$$$
ACET-pdb6uak-A-ASP-184:MBZ-pdb6uak-A-PHE-11
     RDKit          3D

 22 21  0  0  0  0  0  0  0  0999 V2000
   -4.3163    4.9353   -3.1736 C   0  0  0  0  0  0  0  0  0  0  0  0
   -4.2110    5.9188   -3.0911 H   0  0  0  0  0  0  0  0  0  0  0  0
   -4.9805    4.5975   -2.5198 H   0  0  0  0  0  0  0  0  0  0  0  0
   -4.6931    4.7226   -4.1740 H   0  0  0  0  0  0  0  0  0  0  0  0
   -2.9571    4.2730   -2.8742 C   0  0  0  0  0  0  0  0  0  0  0  0
   -2.0192    4.3873   -3.6959 O   0  0  0  0  0  1  0  0  0  0  0  0
   -2.8258    3.6512   -1.7954 O   0  0  0  0  0  0  0  0  0  0  0  0
    0.0060    2.9157    0.0178 C   0  0  0  0  0  0  0  0  0  0  0  0
   -0.3394    3.2318   -0.8543 H   0  0  0  0  0  0  0  0  0  0  0  0
    0.9355    3.2199    0.1670 H   0  0  0  0  0  0  0  0  0  0  0  0
   -0.6120    3.3667    0.7943 H   0  0  0  0  0  0  0  0  0  0  0  0
   -0.0001    1.4094    0.0086 C   0  0  0  0  0  0  0  0  0  0  0  0
   -1.2062    0.6828   -0.0105 C   0  0  0  0  0  0  0  0  0  0  0  0
   -2.0712    1.1752   -0.0335 H   0  0  0  0  0  0  0  0  0  0  0  0
   -1.2097   -0.7108   -0.0000 C   0  0  0  0  0  0  0  0  0  0  0  0
   -2.0793   -1.2072    0.0096 H   0  0  0  0  0  0  0  0  0  0  0  0
    0.0014   -1.3969   -0.0016 C   0  0  0  0  0  0  0  0  0  0  0  0
    0.0084   -2.3955   -0.0049 H   0  0  0  0  0  0  0  0  0  0  0  0
    1.2097   -0.6898    0.0000 C   0  0  0  0  0  0  0  0  0  0  0  0
    2.0896   -1.1877    0.0003 H   0  0  0  0  0  0  0  0  0  0  0  0
    1.2049    0.7054    0.0035 C   0  0  0  0  0  0  0  0  0  0  0  0
    2.0679    1.2029    0.0013 H   0  0  0  0  0  0  0  0  0  0  0  0
  1  5  1  0
  5  6  1  0
  5  7  2  0
  1  2  1  0
  1  3  1  0
  1  4  1  0
  8 12  1  0
 12 13  2  0
 13 15  1  0
 15 17  2  0
 17 19  1  0
 19 21  2  0
 21 12  1  0
  8  9  1  0
  8 10  1  0
  8 11  1  0
 13 14  1  0
 15 16  1  0
 17 18  1  0
 19 20  1  0
 21 22  1  0
M  CHG  1   6  -1
M  END
>  <PDB_ID>  (2570) 
pdb6uak

>  <RESIDUE_NAME>  (2570) 
ASP   PHE

>  <FRAG_NAME>  (2570) 
ACET   MBZ

>  <FRAG_ATOM_NUM>  (2570) 
fragi: 7  fragj: 15

>  <atom.prop.CHAIN_ID>  (2570) 
A A A A A A A Z Z Z Z Z Z Z Z Z Z Z Z Z Z Z

>  <atom.prop.IS_HEAVY_ATOM>  (2570) 
1 0 0 0 1 1 1 1 0 0 0 1 1 0 1 0 1 0 1 0 1 0

>  <DIFUSE_FUNC_ATOM>  (2570) 
atom 6   atom 7   

>  <FINAL_SINGLE_POINT_ENERGY>  (2570) 
0

>  <NONCOV_INTER_ENERGY_QM>  (2570) 
0

>  <FF_Energy>  (2570) 
-1.03

>  <QM_Energy>  (2570) 
-6.19

>  <source>  (2570) 
ACET_MBZ_02

>  <Index>  (2570) 
39670

$$$$
ACET-pdb5ndx-A-ASP-446:MBZ-pdb5ndx-A-PHE-449
     RDKit          3D

 22 21  0  0  0  0  0  0  0  0999 V2000
    5.1794    4.5705    0.5408 C   0  0  0  0  0  0  0  0  0  0  0  0
    6.1029    4.4676    0.1796 H   0  0  0  0  0  0  0  0  0  0  0  0
    5.2163    4.7898    1.5116 H   0  0  0  0  0  0  0  0  0  0  0  0
    4.7074    5.4062    0.0242 H   0  0  0  0  0  0  0  0  0  0  0  0
    4.4441    3.2354    0.3739 C   0  0  0  0  0  0  0  0  0  0  0  0
    3.6013    3.1278   -0.5677 O   0  0  0  0  0  1  0  0  0  0  0  0
    4.7178    2.2451    1.1660 O   0  0  0  0  0  0  0  0  0  0  0  0
    0.0233    2.9268   -0.0473 C   0  0  0  0  0  0  0  0  0  0  0  0
    0.8618    3.2341    0.3662 H   0  0  0  0  0  0  0  0  0  0  0  0
   -0.7689    3.2497    0.4405 H   0  0  0  0  0  0  0  0  0  0  0  0
   -0.0183    3.3463   -1.0524 H   0  0  0  0  0  0  0  0  0  0  0  0
    0.0104    1.4026   -0.0078 C   0  0  0  0  0  0  0  0  0  0  0  0
   -1.1787    0.7098    0.0277 C   0  0  0  0  0  0  0  0  0  0  0  0
   -2.0457    1.2050    0.0728 H   0  0  0  0  0  0  0  0  0  0  0  0
   -1.1989   -0.6781    0.0000 C   0  0  0  0  0  0  0  0  0  0  0  0
   -2.0909   -1.1566   -0.0109 H   0  0  0  0  0  0  0  0  0  0  0  0
   -0.0211   -1.3971   -0.0104 C   0  0  0  0  0  0  0  0  0  0  0  0
   -0.0389   -2.3943   -0.0256 H   0  0  0  0  0  0  0  0  0  0  0  0
    1.1989   -0.7205   -0.0000 C   0  0  0  0  0  0  0  0  0  0  0  0
    2.0667   -1.2166    0.0154 H   0  0  0  0  0  0  0  0  0  0  0  0
    1.1894    0.6833   -0.0096 C   0  0  0  0  0  0  0  0  0  0  0  0
    2.0704    1.1695   -0.0190 H   0  0  0  0  0  0  0  0  0  0  0  0
  1  5  1  0
  5  6  1  0
  5  7  2  0
  1  2  1  0
  1  3  1  0
  1  4  1  0
  8 12  1  0
 12 13  2  0
 13 15  1  0
 15 17  2  0
 17 19  1  0
 19 21  2  0
 21 12  1  0
  8  9  1  0
  8 10  1  0
  8 11  1  0
 13 14  1  0
 15 16  1  0
 17 18  1  0
 19 20  1  0
 21 22  1  0
M  CHG  1   6  -1
M  END
>  <PDB_ID>  (2571) 
pdb5ndx

>  <RESIDUE_NAME>  (2571) 
ASP   PHE

>  <FRAG_NAME>  (2571) 
ACET   MBZ

>  <FRAG_ATOM_NUM>  (2571) 
fragi: 7  fragj: 15

>  <atom.prop.CHAIN_ID>  (2571) 
A A A A A A A Z Z Z Z Z Z Z Z Z Z Z Z Z Z Z

>  <atom.prop.IS_HEAVY_ATOM>  (2571) 
1 0 0 0 1 1 1 1 0 0 0 1 1 0 1 0 1 0 1 0 1 0

>  <DIFUSE_FUNC_ATOM>  (2571) 
atom 6   atom 7   

>  <FINAL_SINGLE_POINT_ENERGY>  (2571) 
0

>  <NONCOV_INTER_ENERGY_QM>  (2571) 
0

>  <FF_Energy>  (2571) 
-2.65

>  <QM_Energy>  (2571) 
-8.01

>  <source>  (2571) 
ACET_MBZ_02

>  <Index>  (2571) 
39685

$$$$
ACET-pdb5ndy-D-ASP-91:MBZ-pdb5ndy-D-PHE-2
     RDKit          3D

 22 21  0  0  0  0  0  0  0  0999 V2000
    1.1573    3.9578   -3.7935 C   0  0  0  0  0  0  0  0  0  0  0  0
    0.9924    3.3265   -4.5410 H   0  0  0  0  0  0  0  0  0  0  0  0
    1.7586    3.5511   -3.1180 H   0  0  0  0  0  0  0  0  0  0  0  0
    1.6518    4.8403   -4.1993 H   0  0  0  0  0  0  0  0  0  0  0  0
   -0.1738    4.2845   -3.1295 C   0  0  0  0  0  0  0  0  0  0  0  0
   -0.2143    5.2276   -2.3150 O   0  0  0  0  0  1  0  0  0  0  0  0
   -1.1749    3.5991   -3.4241 O   0  0  0  0  0  0  0  0  0  0  0  0
   -0.0226    2.8662    0.0246 C   0  0  0  0  0  0  0  0  0  0  0  0
   -0.3879    3.1864   -0.8360 H   0  0  0  0  0  0  0  0  0  0  0  0
    0.8999    3.1904    0.1678 H   0  0  0  0  0  0  0  0  0  0  0  0
   -0.6449    3.2712    0.8225 H   0  0  0  0  0  0  0  0  0  0  0  0
   -0.0005    1.3827    0.0018 C   0  0  0  0  0  0  0  0  0  0  0  0
   -1.1797    0.6759   -0.0027 C   0  0  0  0  0  0  0  0  0  0  0  0
   -2.0544    1.1688   -0.0090 H   0  0  0  0  0  0  0  0  0  0  0  0
   -1.1867   -0.6984   -0.0000 C   0  0  0  0  0  0  0  0  0  0  0  0
   -2.0663   -1.1937    0.0021 H   0  0  0  0  0  0  0  0  0  0  0  0
    0.0013   -1.3814    0.0012 C   0  0  0  0  0  0  0  0  0  0  0  0
    0.0095   -2.3816    0.0025 H   0  0  0  0  0  0  0  0  0  0  0  0
    1.1867   -0.6764   -0.0000 C   0  0  0  0  0  0  0  0  0  0  0  0
    2.0762   -1.1752    0.0003 H   0  0  0  0  0  0  0  0  0  0  0  0
    1.1789    0.6976   -0.0003 C   0  0  0  0  0  0  0  0  0  0  0  0
    2.0507    1.1974   -0.0031 H   0  0  0  0  0  0  0  0  0  0  0  0
  1  5  1  0
  5  6  1  0
  5  7  2  0
  1  2  1  0
  1  3  1  0
  1  4  1  0
  8 12  1  0
 12 13  2  0
 13 15  1  0
 15 17  2  0
 17 19  1  0
 19 21  2  0
 21 12  1  0
  8  9  1  0
  8 10  1  0
  8 11  1  0
 13 14  1  0
 15 16  1  0
 17 18  1  0
 19 20  1  0
 21 22  1  0
M  CHG  1   6  -1
M  END
>  <PDB_ID>  (2572) 
pdb5ndy

>  <RESIDUE_NAME>  (2572) 
ASP   PHE

>  <FRAG_NAME>  (2572) 
ACET   MBZ

>  <FRAG_ATOM_NUM>  (2572) 
fragi: 7  fragj: 15

>  <atom.prop.CHAIN_ID>  (2572) 
A A A A A A A Z Z Z Z Z Z Z Z Z Z Z Z Z Z Z

>  <atom.prop.IS_HEAVY_ATOM>  (2572) 
1 0 0 0 1 1 1 1 0 0 0 1 1 0 1 0 1 0 1 0 1 0

>  <DIFUSE_FUNC_ATOM>  (2572) 
atom 6   atom 7   

>  <FINAL_SINGLE_POINT_ENERGY>  (2572) 
0

>  <NONCOV_INTER_ENERGY_QM>  (2572) 
0

>  <FF_Energy>  (2572) 
-0.08

>  <QM_Energy>  (2572) 
-5.21

>  <source>  (2572) 
ACET_MBZ_02

>  <Index>  (2572) 
39699

$$$$
ACET-pdb6u0y-D-ASP-162:MBZ-pdb6u0y-D-PHE-177
     RDKit          3D

 22 21  0  0  0  0  0  0  0  0999 V2000
    0.5054    0.4269   -3.5257 C   0  0  0  0  0  0  0  0  0  0  0  0
    1.1098    0.2912   -2.7524 H   0  0  0  0  0  0  0  0  0  0  0  0
    0.9959    0.3249   -4.3803 H   0  0  0  0  0  0  0  0  0  0  0  0
   -0.2765   -0.3315   -3.4869 H   0  0  0  0  0  0  0  0  0  0  0  0
   -0.0463    1.8707   -3.4565 C   0  0  0  0  0  0  0  0  0  0  0  0
   -1.2635    2.0602   -3.2616 O   0  0  0  0  0  1  0  0  0  0  0  0
    0.7452    2.8189   -3.6041 O   0  0  0  0  0  0  0  0  0  0  0  0
    0.0450    2.9218   -0.0034 C   0  0  0  0  0  0  0  0  0  0  0  0
    0.4167    3.2046   -0.8801 H   0  0  0  0  0  0  0  0  0  0  0  0
    0.6416    3.2100    0.7374 H   0  0  0  0  0  0  0  0  0  0  0  0
   -0.9173    3.4167    0.1285 H   0  0  0  0  0  0  0  0  0  0  0  0
    0.0006    1.4077    0.0082 C   0  0  0  0  0  0  0  0  0  0  0  0
   -1.1915    0.6990    0.0055 C   0  0  0  0  0  0  0  0  0  0  0  0
   -2.0611    1.1861    0.0064 H   0  0  0  0  0  0  0  0  0  0  0  0
   -1.1979   -0.6959    0.0000 C   0  0  0  0  0  0  0  0  0  0  0  0
   -2.0821   -1.1818    0.0099 H   0  0  0  0  0  0  0  0  0  0  0  0
   -0.0093   -1.3973   -0.0177 C   0  0  0  0  0  0  0  0  0  0  0  0
   -0.0153   -2.3957   -0.0437 H   0  0  0  0  0  0  0  0  0  0  0  0
    1.1979   -0.7073    0.0000 C   0  0  0  0  0  0  0  0  0  0  0  0
    2.0760   -1.2054    0.0122 H   0  0  0  0  0  0  0  0  0  0  0  0
    1.2002    0.6938    0.0039 C   0  0  0  0  0  0  0  0  0  0  0  0
    2.0676    1.1831    0.0032 H   0  0  0  0  0  0  0  0  0  0  0  0
  1  5  1  0
  5  6  1  0
  5  7  2  0
  1  2  1  0
  1  3  1  0
  1  4  1  0
  8 12  1  0
 12 13  2  0
 13 15  1  0
 15 17  2  0
 17 19  1  0
 19 21  2  0
 21 12  1  0
  8  9  1  0
  8 10  1  0
  8 11  1  0
 13 14  1  0
 15 16  1  0
 17 18  1  0
 19 20  1  0
 21 22  1  0
M  CHG  1   6  -1
M  END
>  <PDB_ID>  (2573) 
pdb6u0y

>  <RESIDUE_NAME>  (2573) 
ASP   PHE

>  <FRAG_NAME>  (2573) 
ACET   MBZ

>  <FRAG_ATOM_NUM>  (2573) 
fragi: 7  fragj: 15

>  <atom.prop.CHAIN_ID>  (2573) 
A A A A A A A Z Z Z Z Z Z Z Z Z Z Z Z Z Z Z

>  <atom.prop.IS_HEAVY_ATOM>  (2573) 
1 0 0 0 1 1 1 1 0 0 0 1 1 0 1 0 1 0 1 0 1 0

>  <DIFUSE_FUNC_ATOM>  (2573) 
atom 6   atom 7   

>  <FINAL_SINGLE_POINT_ENERGY>  (2573) 
0

>  <NONCOV_INTER_ENERGY_QM>  (2573) 
0

>  <FF_Energy>  (2573) 
0.12

>  <QM_Energy>  (2573) 
-5.39

>  <source>  (2573) 
ACET_MBZ_03

>  <Index>  (2573) 
213

$$$$
ACET-pdb5nrk-D-ASP-37:MBZ-pdb5nrk-D-PHE-32
     RDKit          3D

 22 21  0  0  0  0  0  0  0  0999 V2000
    4.5119    3.0102    1.2979 C   0  0  0  0  0  0  0  0  0  0  0  0
    5.4547    3.2553    1.1139 H   0  0  0  0  0  0  0  0  0  0  0  0
    4.3776    2.0327    1.2088 H   0  0  0  0  0  0  0  0  0  0  0  0
    4.2808    3.2942    2.3245 H   0  0  0  0  0  0  0  0  0  0  0  0
    3.6190    3.7181    0.2887 C   0  0  0  0  0  0  0  0  0  0  0  0
    3.0099    4.7625    0.6063 O   0  0  0  0  0  1  0  0  0  0  0  0
    3.4611    3.2072   -0.8262 O   0  0  0  0  0  0  0  0  0  0  0  0
   -0.0319    2.9260    0.0488 C   0  0  0  0  0  0  0  0  0  0  0  0
    0.8460    3.2262    0.3997 H   0  0  0  0  0  0  0  0  0  0  0  0
   -0.7657    3.1919    0.6608 H   0  0  0  0  0  0  0  0  0  0  0  0
   -0.1981    3.4171   -0.9100 H   0  0  0  0  0  0  0  0  0  0  0  0
   -0.0065    1.4007    0.0018 C   0  0  0  0  0  0  0  0  0  0  0  0
   -1.1807    0.6735   -0.0051 C   0  0  0  0  0  0  0  0  0  0  0  0
   -2.0608    1.1605   -0.0151 H   0  0  0  0  0  0  0  0  0  0  0  0
   -1.1809   -0.7041    0.0000 C   0  0  0  0  0  0  0  0  0  0  0  0
   -2.0641   -1.1995    0.0059 H   0  0  0  0  0  0  0  0  0  0  0  0
    0.0022   -1.3845   -0.0011 C   0  0  0  0  0  0  0  0  0  0  0  0
    0.0097   -2.3868   -0.0032 H   0  0  0  0  0  0  0  0  0  0  0  0
    1.1809   -0.6817   -0.0000 C   0  0  0  0  0  0  0  0  0  0  0  0
    2.0753   -1.1818   -0.0005 H   0  0  0  0  0  0  0  0  0  0  0  0
    1.1850    0.6962    0.0043 C   0  0  0  0  0  0  0  0  0  0  0  0
    2.0535    1.1925    0.0087 H   0  0  0  0  0  0  0  0  0  0  0  0
  1  5  1  0
  5  6  1  0
  5  7  2  0
  1  2  1  0
  1  3  1  0
  1  4  1  0
  8 12  1  0
 12 13  2  0
 13 15  1  0
 15 17  2  0
 17 19  1  0
 19 21  2  0
 21 12  1  0
  8  9  1  0
  8 10  1  0
  8 11  1  0
 13 14  1  0
 15 16  1  0
 17 18  1  0
 19 20  1  0
 21 22  1  0
M  CHG  1   6  -1
M  END
>  <PDB_ID>  (2574) 
pdb5nrk

>  <RESIDUE_NAME>  (2574) 
ASP   PHE

>  <FRAG_NAME>  (2574) 
ACET   MBZ

>  <FRAG_ATOM_NUM>  (2574) 
fragi: 7  fragj: 15

>  <atom.prop.CHAIN_ID>  (2574) 
A A A A A A A Z Z Z Z Z Z Z Z Z Z Z Z Z Z Z

>  <atom.prop.IS_HEAVY_ATOM>  (2574) 
1 0 0 0 1 1 1 1 0 0 0 1 1 0 1 0 1 0 1 0 1 0

>  <DIFUSE_FUNC_ATOM>  (2574) 
atom 6   atom 7   

>  <FINAL_SINGLE_POINT_ENERGY>  (2574) 
0

>  <NONCOV_INTER_ENERGY_QM>  (2574) 
0

>  <FF_Energy>  (2574) 
-2.55

>  <QM_Energy>  (2574) 
-8.01

>  <source>  (2574) 
ACET_MBZ_03

>  <Index>  (2574) 
353

$$$$
ACET-pdb6s7j-D-ASP-448:MBZ-pdb6s7j-D-PHE-472
     RDKit          3D

 22 21  0  0  0  0  0  0  0  0999 V2000
   -3.5108    0.7538   -2.5475 C   0  0  0  0  0  0  0  0  0  0  0  0
   -3.9184    0.5366   -1.6685 H   0  0  0  0  0  0  0  0  0  0  0  0
   -2.6353    0.2992   -2.6499 H   0  0  0  0  0  0  0  0  0  0  0  0
   -4.1764    0.3857   -3.3283 H   0  0  0  0  0  0  0  0  0  0  0  0
   -3.3017    2.2469   -2.6342 C   0  0  0  0  0  0  0  0  0  0  0  0
   -3.5720    2.8098   -3.7189 O   0  0  0  0  0  1  0  0  0  0  0  0
   -2.9009    2.8574   -1.6136 O   0  0  0  0  0  0  0  0  0  0  0  0
    0.0178    2.8969   -0.0236 C   0  0  0  0  0  0  0  0  0  0  0  0
   -0.5787    3.1943   -0.7594 H   0  0  0  0  0  0  0  0  0  0  0  0
    0.9505    3.1955   -0.1852 H   0  0  0  0  0  0  0  0  0  0  0  0
   -0.3272    3.3722    0.8946 H   0  0  0  0  0  0  0  0  0  0  0  0
    0.0076    1.3990    0.0065 C   0  0  0  0  0  0  0  0  0  0  0  0
   -1.1865    0.6949    0.0051 C   0  0  0  0  0  0  0  0  0  0  0  0
   -2.0544    1.1869    0.0063 H   0  0  0  0  0  0  0  0  0  0  0  0
   -1.1977   -0.6951   -0.0000 C   0  0  0  0  0  0  0  0  0  0  0  0
   -2.0840   -1.1794   -0.0033 H   0  0  0  0  0  0  0  0  0  0  0  0
   -0.0146   -1.3909    0.0015 C   0  0  0  0  0  0  0  0  0  0  0  0
   -0.0117   -2.3902    0.0028 H   0  0  0  0  0  0  0  0  0  0  0  0
    1.1977   -0.6957    0.0000 C   0  0  0  0  0  0  0  0  0  0  0  0
    2.0723   -1.2015    0.0099 H   0  0  0  0  0  0  0  0  0  0  0  0
    1.1935    0.6879   -0.0131 C   0  0  0  0  0  0  0  0  0  0  0  0
    2.0670    1.1840   -0.0382 H   0  0  0  0  0  0  0  0  0  0  0  0
  1  5  1  0
  5  6  1  0
  5  7  2  0
  1  2  1  0
  1  3  1  0
  1  4  1  0
  8 12  1  0
 12 13  2  0
 13 15  1  0
 15 17  2  0
 17 19  1  0
 19 21  2  0
 21 12  1  0
  8  9  1  0
  8 10  1  0
  8 11  1  0
 13 14  1  0
 15 16  1  0
 17 18  1  0
 19 20  1  0
 21 22  1  0
M  CHG  1   6  -1
M  END
>  <PDB_ID>  (2575) 
pdb6s7j

>  <RESIDUE_NAME>  (2575) 
ASP   PHE

>  <FRAG_NAME>  (2575) 
ACET   MBZ

>  <FRAG_ATOM_NUM>  (2575) 
fragi: 7  fragj: 15

>  <atom.prop.CHAIN_ID>  (2575) 
A A A A A A A Z Z Z Z Z Z Z Z Z Z Z Z Z Z Z

>  <atom.prop.IS_HEAVY_ATOM>  (2575) 
1 0 0 0 1 1 1 1 0 0 0 1 1 0 1 0 1 0 1 0 1 0

>  <DIFUSE_FUNC_ATOM>  (2575) 
atom 6   atom 7   

>  <FINAL_SINGLE_POINT_ENERGY>  (2575) 
0

>  <NONCOV_INTER_ENERGY_QM>  (2575) 
0

>  <FF_Energy>  (2575) 
-1.31

>  <QM_Energy>  (2575) 
-7.42

>  <source>  (2575) 
ACET_MBZ_03

>  <Index>  (2575) 
456

$$$$
ACET-pdb5o06-C-ASP-11:MBZ-pdb5o06-C-PHE-45
     RDKit          3D

 22 21  0  0  0  0  0  0  0  0999 V2000
    5.3312    3.6438    0.4538 C   0  0  0  0  0  0  0  0  0  0  0  0
    5.1674    4.5639    0.7910 H   0  0  0  0  0  0  0  0  0  0  0  0
    6.2874    3.5290    0.2111 H   0  0  0  0  0  0  0  0  0  0  0  0
    5.1018    2.9450    1.2584 H   0  0  0  0  0  0  0  0  0  0  0  0
    4.4822    3.4185   -0.7816 C   0  0  0  0  0  0  0  0  0  0  0  0
    3.2732    3.1589   -0.6331 O   0  0  0  0  0  1  0  0  0  0  0  0
    5.0357    3.4916   -1.8951 O   0  0  0  0  0  0  0  0  0  0  0  0
   -0.0045    2.8970    0.0109 C   0  0  0  0  0  0  0  0  0  0  0  0
    0.8601    3.2040    0.3824 H   0  0  0  0  0  0  0  0  0  0  0  0
   -0.7612    3.1978    0.5730 H   0  0  0  0  0  0  0  0  0  0  0  0
   -0.1226    3.3472   -0.9747 H   0  0  0  0  0  0  0  0  0  0  0  0
   -0.0005    1.3972   -0.0010 C   0  0  0  0  0  0  0  0  0  0  0  0
   -1.1934    0.6878   -0.0012 C   0  0  0  0  0  0  0  0  0  0  0  0
   -2.0617    1.1789   -0.0031 H   0  0  0  0  0  0  0  0  0  0  0  0
   -1.1981   -0.6984   -0.0000 C   0  0  0  0  0  0  0  0  0  0  0  0
   -2.0750   -1.1929    0.0034 H   0  0  0  0  0  0  0  0  0  0  0  0
   -0.0002   -1.3894   -0.0010 C   0  0  0  0  0  0  0  0  0  0  0  0
    0.0004   -2.3885   -0.0030 H   0  0  0  0  0  0  0  0  0  0  0  0
    1.1981   -0.6905   -0.0000 C   0  0  0  0  0  0  0  0  0  0  0  0
    2.0809   -1.1905    0.0005 H   0  0  0  0  0  0  0  0  0  0  0  0
    1.1941    0.6933    0.0031 C   0  0  0  0  0  0  0  0  0  0  0  0
    2.0620    1.1920    0.0081 H   0  0  0  0  0  0  0  0  0  0  0  0
  1  5  1  0
  5  6  1  0
  5  7  2  0
  1  2  1  0
  1  3  1  0
  1  4  1  0
  8 12  1  0
 12 13  2  0
 13 15  1  0
 15 17  2  0
 17 19  1  0
 19 21  2  0
 21 12  1  0
  8  9  1  0
  8 10  1  0
  8 11  1  0
 13 14  1  0
 15 16  1  0
 17 18  1  0
 19 20  1  0
 21 22  1  0
M  CHG  1   6  -1
M  END
>  <PDB_ID>  (2576) 
pdb5o06

>  <RESIDUE_NAME>  (2576) 
ASP   PHE

>  <FRAG_NAME>  (2576) 
ACET   MBZ

>  <FRAG_ATOM_NUM>  (2576) 
fragi: 7  fragj: 15

>  <atom.prop.CHAIN_ID>  (2576) 
A A A A A A A Z Z Z Z Z Z Z Z Z Z Z Z Z Z Z

>  <atom.prop.IS_HEAVY_ATOM>  (2576) 
1 0 0 0 1 1 1 1 0 0 0 1 1 0 1 0 1 0 1 0 1 0

>  <DIFUSE_FUNC_ATOM>  (2576) 
atom 6   atom 7   

>  <FINAL_SINGLE_POINT_ENERGY>  (2576) 
0

>  <NONCOV_INTER_ENERGY_QM>  (2576) 
0

>  <FF_Energy>  (2576) 
-1.55

>  <QM_Energy>  (2576) 
-7.57

>  <source>  (2576) 
ACET_MBZ_03

>  <Index>  (2576) 
487

$$$$
ACET-pdb5o1v-A-GLU-340:MBZ-pdb5o1v-B-PHE-315
     RDKit          3D

 22 21  0  0  0  0  0  0  0  0999 V2000
    1.7362   -6.2091    0.7961 C   0  0  0  0  0  0  0  0  0  0  0  0
    2.4125   -6.7688    0.3523 H   0  0  0  0  0  0  0  0  0  0  0  0
    1.1208   -6.7419    1.3497 H   0  0  0  0  0  0  0  0  0  0  0  0
    2.2520   -5.4993    1.4428 H   0  0  0  0  0  0  0  0  0  0  0  0
    0.9053   -5.5427   -0.2963 C   0  0  0  0  0  0  0  0  0  0  0  0
    0.7999   -4.3015   -0.3049 O   0  0  0  0  0  1  0  0  0  0  0  0
    0.3466   -6.2676   -1.1471 O   0  0  0  0  0  0  0  0  0  0  0  0
   -0.0025    2.8981    0.0063 C   0  0  0  0  0  0  0  0  0  0  0  0
   -0.5946    3.2012   -0.7239 H   0  0  0  0  0  0  0  0  0  0  0  0
    0.9270    3.2041   -0.1320 H   0  0  0  0  0  0  0  0  0  0  0  0
   -0.3647    3.3376    0.9357 H   0  0  0  0  0  0  0  0  0  0  0  0
    0.0003    1.3926    0.0069 C   0  0  0  0  0  0  0  0  0  0  0  0
   -1.1916    0.6797   -0.0062 C   0  0  0  0  0  0  0  0  0  0  0  0
   -2.0592    1.1757   -0.0216 H   0  0  0  0  0  0  0  0  0  0  0  0
   -1.1930   -0.6933   -0.0000 C   0  0  0  0  0  0  0  0  0  0  0  0
   -2.0711   -1.1936    0.0051 H   0  0  0  0  0  0  0  0  0  0  0  0
   -0.0007   -1.3788    0.0018 C   0  0  0  0  0  0  0  0  0  0  0  0
   -0.0030   -2.3834    0.0038 H   0  0  0  0  0  0  0  0  0  0  0  0
    1.1930   -0.6903   -0.0000 C   0  0  0  0  0  0  0  0  0  0  0  0
    2.0760   -1.1916    0.0020 H   0  0  0  0  0  0  0  0  0  0  0  0
    1.1919    0.6900   -0.0025 C   0  0  0  0  0  0  0  0  0  0  0  0
    2.0603    1.1880   -0.0123 H   0  0  0  0  0  0  0  0  0  0  0  0
  1  5  1  0
  5  6  1  0
  5  7  2  0
  1  2  1  0
  1  3  1  0
  1  4  1  0
  8 12  1  0
 12 13  2  0
 13 15  1  0
 15 17  2  0
 17 19  1  0
 19 21  2  0
 21 12  1  0
  8  9  1  0
  8 10  1  0
  8 11  1  0
 13 14  1  0
 15 16  1  0
 17 18  1  0
 19 20  1  0
 21 22  1  0
M  CHG  1   6  -1
M  END
>  <PDB_ID>  (2577) 
pdb5o1v

>  <RESIDUE_NAME>  (2577) 
GLU   PHE

>  <FRAG_NAME>  (2577) 
ACET   MBZ

>  <FRAG_ATOM_NUM>  (2577) 
fragi: 7  fragj: 15

>  <atom.prop.CHAIN_ID>  (2577) 
A A A A A A A Z Z Z Z Z Z Z Z Z Z Z Z Z Z Z

>  <atom.prop.IS_HEAVY_ATOM>  (2577) 
1 0 0 0 1 1 1 1 0 0 0 1 1 0 1 0 1 0 1 0 1 0

>  <DIFUSE_FUNC_ATOM>  (2577) 
atom 6   atom 7   

>  <FINAL_SINGLE_POINT_ENERGY>  (2577) 
0

>  <NONCOV_INTER_ENERGY_QM>  (2577) 
0

>  <FF_Energy>  (2577) 
1.09

>  <QM_Energy>  (2577) 
-5.76

>  <source>  (2577) 
ACET_MBZ_03

>  <Index>  (2577) 
522

$$$$
ACET-pdb5o30-A-GLU-49:MBZ-pdb5o30-A-PHE-200
     RDKit          3D

 22 21  0  0  0  0  0  0  0  0999 V2000
    5.9830    3.4526    0.4868 C   0  0  0  0  0  0  0  0  0  0  0  0
    5.9417    3.7467   -0.4368 H   0  0  0  0  0  0  0  0  0  0  0  0
    6.6918    2.7994    0.5941 H   0  0  0  0  0  0  0  0  0  0  0  0
    6.1949    4.3118    1.1231 H   0  0  0  0  0  0  0  0  0  0  0  0
    4.6693    2.7742    0.8189 C   0  0  0  0  0  0  0  0  0  0  0  0
    3.9105    3.3101    1.6544 O   0  0  0  0  0  1  0  0  0  0  0  0
    4.3968    1.6989    0.2428 O   0  0  0  0  0  0  0  0  0  0  0  0
    0.0006    2.9045    0.0102 C   0  0  0  0  0  0  0  0  0  0  0  0
    0.8895    3.1975    0.2674 H   0  0  0  0  0  0  0  0  0  0  0  0
   -0.6436    3.1952    0.6749 H   0  0  0  0  0  0  0  0  0  0  0  0
   -0.2537    3.3604   -0.9466 H   0  0  0  0  0  0  0  0  0  0  0  0
   -0.0003    1.3983   -0.0008 C   0  0  0  0  0  0  0  0  0  0  0  0
   -1.1924    0.6906    0.0001 C   0  0  0  0  0  0  0  0  0  0  0  0
   -1.9996    1.1513    0.0018 H   0  0  0  0  0  0  0  0  0  0  0  0
   -1.1954   -0.6944   -0.0000 C   0  0  0  0  0  0  0  0  0  0  0  0
   -2.0024   -1.1571   -0.0018 H   0  0  0  0  0  0  0  0  0  0  0  0
   -0.0008   -1.3871   -0.0016 C   0  0  0  0  0  0  0  0  0  0  0  0
   -0.0016   -2.3174   -0.0042 H   0  0  0  0  0  0  0  0  0  0  0  0
    1.1954   -0.6965   -0.0000 C   0  0  0  0  0  0  0  0  0  0  0  0
    2.0015   -1.1610   -0.0008 H   0  0  0  0  0  0  0  0  0  0  0  0
    1.1935    0.6891    0.0023 C   0  0  0  0  0  0  0  0  0  0  0  0
    2.0017    1.1492    0.0039 H   0  0  0  0  0  0  0  0  0  0  0  0
  1  5  1  0
  5  6  1  0
  5  7  2  0
  1  2  1  0
  1  3  1  0
  1  4  1  0
  8 12  1  0
 12 13  2  0
 13 15  1  0
 15 17  2  0
 17 19  1  0
 19 21  2  0
 21 12  1  0
  8  9  1  0
  8 10  1  0
  8 11  1  0
 13 14  1  0
 15 16  1  0
 17 18  1  0
 19 20  1  0
 21 22  1  0
M  CHG  1   6  -1
M  END
>  <PDB_ID>  (2578) 
pdb5o30

>  <RESIDUE_NAME>  (2578) 
GLU   PHE

>  <FRAG_NAME>  (2578) 
ACET   MBZ

>  <FRAG_ATOM_NUM>  (2578) 
fragi: 7  fragj: 15

>  <atom.prop.CHAIN_ID>  (2578) 
A A A A A A A Z Z Z Z Z Z Z Z Z Z Z Z Z Z Z

>  <atom.prop.IS_HEAVY_ATOM>  (2578) 
1 0 0 0 1 1 1 1 0 0 0 1 1 0 1 0 1 0 1 0 1 0

>  <DIFUSE_FUNC_ATOM>  (2578) 
atom 6   atom 7   

>  <FINAL_SINGLE_POINT_ENERGY>  (2578) 
0

>  <NONCOV_INTER_ENERGY_QM>  (2578) 
0

>  <FF_Energy>  (2578) 
-2.42

>  <QM_Energy>  (2578) 
-7.5

>  <source>  (2578) 
ACET_MBZ_03

>  <Index>  (2578) 
544

$$$$
ACET-pdb5o30-C-GLU-49:MBZ-pdb5o30-C-PHE-200
     RDKit          3D

 22 21  0  0  0  0  0  0  0  0999 V2000
    5.9380    3.4666    0.2496 C   0  0  0  0  0  0  0  0  0  0  0  0
    5.8427    3.7903   -0.6590 H   0  0  0  0  0  0  0  0  0  0  0  0
    6.6477    2.8065    0.2927 H   0  0  0  0  0  0  0  0  0  0  0  0
    6.1940    4.3039    0.8989 H   0  0  0  0  0  0  0  0  0  0  0  0
    4.6411    2.7817    0.6403 C   0  0  0  0  0  0  0  0  0  0  0  0
    3.9309    3.2907    1.5357 O   0  0  0  0  0  1  0  0  0  0  0  0
    4.3340    1.7240    0.0479 O   0  0  0  0  0  0  0  0  0  0  0  0
   -0.0007    2.9014    0.0123 C   0  0  0  0  0  0  0  0  0  0  0  0
    0.8921    3.1942    0.2531 H   0  0  0  0  0  0  0  0  0  0  0  0
   -0.6330    3.1894    0.6899 H   0  0  0  0  0  0  0  0  0  0  0  0
   -0.2734    3.3616   -0.9374 H   0  0  0  0  0  0  0  0  0  0  0  0
   -0.0008    1.3965   -0.0039 C   0  0  0  0  0  0  0  0  0  0  0  0
   -1.1911    0.6889    0.0017 C   0  0  0  0  0  0  0  0  0  0  0  0
   -1.9998    1.1501    0.0020 H   0  0  0  0  0  0  0  0  0  0  0  0
   -1.1947   -0.6935    0.0000 C   0  0  0  0  0  0  0  0  0  0  0  0
   -2.0008   -1.1568   -0.0024 H   0  0  0  0  0  0  0  0  0  0  0  0
   -0.0005   -1.3859   -0.0016 C   0  0  0  0  0  0  0  0  0  0  0  0
   -0.0016   -2.3153   -0.0042 H   0  0  0  0  0  0  0  0  0  0  0  0
    1.1947   -0.6946    0.0000 C   0  0  0  0  0  0  0  0  0  0  0  0
    2.0005   -1.1581   -0.0009 H   0  0  0  0  0  0  0  0  0  0  0  0
    1.1925    0.6886    0.0038 C   0  0  0  0  0  0  0  0  0  0  0  0
    1.9997    1.1494    0.0036 H   0  0  0  0  0  0  0  0  0  0  0  0
  1  5  1  0
  5  6  1  0
  5  7  2  0
  1  2  1  0
  1  3  1  0
  1  4  1  0
  8 12  1  0
 12 13  2  0
 13 15  1  0
 15 17  2  0
 17 19  1  0
 19 21  2  0
 21 12  1  0
  8  9  1  0
  8 10  1  0
  8 11  1  0
 13 14  1  0
 15 16  1  0
 17 18  1  0
 19 20  1  0
 21 22  1  0
M  CHG  1   6  -1
M  END
>  <PDB_ID>  (2579) 
pdb5o30

>  <RESIDUE_NAME>  (2579) 
GLU   PHE

>  <FRAG_NAME>  (2579) 
ACET   MBZ

>  <FRAG_ATOM_NUM>  (2579) 
fragi: 7  fragj: 15

>  <atom.prop.CHAIN_ID>  (2579) 
A A A A A A A Z Z Z Z Z Z Z Z Z Z Z Z Z Z Z

>  <atom.prop.IS_HEAVY_ATOM>  (2579) 
1 0 0 0 1 1 1 1 0 0 0 1 1 0 1 0 1 0 1 0 1 0

>  <DIFUSE_FUNC_ATOM>  (2579) 
atom 6   atom 7   

>  <FINAL_SINGLE_POINT_ENERGY>  (2579) 
0

>  <NONCOV_INTER_ENERGY_QM>  (2579) 
0

>  <FF_Energy>  (2579) 
-2.34

>  <QM_Energy>  (2579) 
-7.72

>  <source>  (2579) 
ACET_MBZ_03

>  <Index>  (2579) 
548

$$$$
ACET-pdb5o30-D-GLU-49:MBZ-pdb5o30-D-PHE-200
     RDKit          3D

 22 21  0  0  0  0  0  0  0  0999 V2000
    5.9572    3.1026    0.0577 C   0  0  0  0  0  0  0  0  0  0  0  0
    5.8607    3.4172   -0.8556 H   0  0  0  0  0  0  0  0  0  0  0  0
    6.6747    2.4527    0.1087 H   0  0  0  0  0  0  0  0  0  0  0  0
    6.2029    3.9498    0.6980 H   0  0  0  0  0  0  0  0  0  0  0  0
    4.6666    2.4044    0.4487 C   0  0  0  0  0  0  0  0  0  0  0  0
    3.9575    2.9051    1.3471 O   0  0  0  0  0  1  0  0  0  0  0  0
    4.3552    1.3543   -0.1548 O   0  0  0  0  0  0  0  0  0  0  0  0
    0.0037    2.8983    0.0061 C   0  0  0  0  0  0  0  0  0  0  0  0
    0.8963    3.1907    0.2514 H   0  0  0  0  0  0  0  0  0  0  0  0
   -0.6332    3.1925    0.6755 H   0  0  0  0  0  0  0  0  0  0  0  0
   -0.2607    3.3494   -0.9502 H   0  0  0  0  0  0  0  0  0  0  0  0
    0.0004    1.3943   -0.0021 C   0  0  0  0  0  0  0  0  0  0  0  0
   -1.1911    0.6889    0.0008 C   0  0  0  0  0  0  0  0  0  0  0  0
   -1.9978    1.1503    0.0016 H   0  0  0  0  0  0  0  0  0  0  0  0
   -1.1947   -0.6924    0.0000 C   0  0  0  0  0  0  0  0  0  0  0  0
   -2.0007   -1.1550   -0.0005 H   0  0  0  0  0  0  0  0  0  0  0  0
   -0.0004   -1.3843   -0.0010 C   0  0  0  0  0  0  0  0  0  0  0  0
   -0.0020   -2.3150   -0.0015 H   0  0  0  0  0  0  0  0  0  0  0  0
    1.1947   -0.6940   -0.0000 C   0  0  0  0  0  0  0  0  0  0  0  0
    2.0005   -1.1583    0.0001 H   0  0  0  0  0  0  0  0  0  0  0  0
    1.1911    0.6876    0.0024 C   0  0  0  0  0  0  0  0  0  0  0  0
    1.9996    1.1483    0.0015 H   0  0  0  0  0  0  0  0  0  0  0  0
  1  5  1  0
  5  6  1  0
  5  7  2  0
  1  2  1  0
  1  3  1  0
  1  4  1  0
  8 12  1  0
 12 13  2  0
 13 15  1  0
 15 17  2  0
 17 19  1  0
 19 21  2  0
 21 12  1  0
  8  9  1  0
  8 10  1  0
  8 11  1  0
 13 14  1  0
 15 16  1  0
 17 18  1  0
 19 20  1  0
 21 22  1  0
M  CHG  1   6  -1
M  END
>  <PDB_ID>  (2580) 
pdb5o30

>  <RESIDUE_NAME>  (2580) 
GLU   PHE

>  <FRAG_NAME>  (2580) 
ACET   MBZ

>  <FRAG_ATOM_NUM>  (2580) 
fragi: 7  fragj: 15

>  <atom.prop.CHAIN_ID>  (2580) 
A A A A A A A Z Z Z Z Z Z Z Z Z Z Z Z Z Z Z

>  <atom.prop.IS_HEAVY_ATOM>  (2580) 
1 0 0 0 1 1 1 1 0 0 0 1 1 0 1 0 1 0 1 0 1 0

>  <DIFUSE_FUNC_ATOM>  (2580) 
atom 6   atom 7   

>  <FINAL_SINGLE_POINT_ENERGY>  (2580) 
0

>  <NONCOV_INTER_ENERGY_QM>  (2580) 
0

>  <FF_Energy>  (2580) 
-2.33

>  <QM_Energy>  (2580) 
-8.06

>  <source>  (2580) 
ACET_MBZ_03

>  <Index>  (2580) 
550

$$$$
ACET-pdb5o30-G-GLU-49:MBZ-pdb5o30-G-PHE-200
     RDKit          3D

 22 21  0  0  0  0  0  0  0  0999 V2000
    5.9320    3.2549    0.0369 C   0  0  0  0  0  0  0  0  0  0  0  0
    5.8578    3.5118   -0.8957 H   0  0  0  0  0  0  0  0  0  0  0  0
    6.6444    2.6050    0.1469 H   0  0  0  0  0  0  0  0  0  0  0  0
    6.1643    4.1392    0.6304 H   0  0  0  0  0  0  0  0  0  0  0  0
    4.6304    2.5937    0.4439 C   0  0  0  0  0  0  0  0  0  0  0  0
    3.9009    3.1701    1.2803 O   0  0  0  0  0  1  0  0  0  0  0  0
    4.3381    1.4944   -0.0716 O   0  0  0  0  0  0  0  0  0  0  0  0
    0.0016    2.9005    0.0082 C   0  0  0  0  0  0  0  0  0  0  0  0
    0.8939    3.1926    0.2509 H   0  0  0  0  0  0  0  0  0  0  0  0
   -0.6334    3.1912    0.6821 H   0  0  0  0  0  0  0  0  0  0  0  0
   -0.2681    3.3556   -0.9448 H   0  0  0  0  0  0  0  0  0  0  0  0
   -0.0007    1.3964   -0.0030 C   0  0  0  0  0  0  0  0  0  0  0  0
   -1.1924    0.6890    0.0009 C   0  0  0  0  0  0  0  0  0  0  0  0
   -2.0000    1.1503    0.0012 H   0  0  0  0  0  0  0  0  0  0  0  0
   -1.1950   -0.6942    0.0000 C   0  0  0  0  0  0  0  0  0  0  0  0
   -2.0008   -1.1579   -0.0016 H   0  0  0  0  0  0  0  0  0  0  0  0
    0.0008   -1.3859   -0.0003 C   0  0  0  0  0  0  0  0  0  0  0  0
   -0.0001   -2.3157   -0.0028 H   0  0  0  0  0  0  0  0  0  0  0  0
    1.1950   -0.6941    0.0000 C   0  0  0  0  0  0  0  0  0  0  0  0
    2.0018   -1.1581    0.0005 H   0  0  0  0  0  0  0  0  0  0  0  0
    1.1923    0.6888    0.0025 C   0  0  0  0  0  0  0  0  0  0  0  0
    1.9991    1.1494    0.0025 H   0  0  0  0  0  0  0  0  0  0  0  0
  1  5  1  0
  5  6  1  0
  5  7  2  0
  1  2  1  0
  1  3  1  0
  1  4  1  0
  8 12  1  0
 12 13  2  0
 13 15  1  0
 15 17  2  0
 17 19  1  0
 19 21  2  0
 21 12  1  0
  8  9  1  0
  8 10  1  0
  8 11  1  0
 13 14  1  0
 15 16  1  0
 17 18  1  0
 19 20  1  0
 21 22  1  0
M  CHG  1   6  -1
M  END
>  <PDB_ID>  (2581) 
pdb5o30

>  <RESIDUE_NAME>  (2581) 
GLU   PHE

>  <FRAG_NAME>  (2581) 
ACET   MBZ

>  <FRAG_ATOM_NUM>  (2581) 
fragi: 7  fragj: 15

>  <atom.prop.CHAIN_ID>  (2581) 
A A A A A A A Z Z Z Z Z Z Z Z Z Z Z Z Z Z Z

>  <atom.prop.IS_HEAVY_ATOM>  (2581) 
1 0 0 0 1 1 1 1 0 0 0 1 1 0 1 0 1 0 1 0 1 0

>  <DIFUSE_FUNC_ATOM>  (2581) 
atom 6   atom 7   

>  <FINAL_SINGLE_POINT_ENERGY>  (2581) 
0

>  <NONCOV_INTER_ENERGY_QM>  (2581) 
0

>  <FF_Energy>  (2581) 
-2.35

>  <QM_Energy>  (2581) 
-8.14

>  <source>  (2581) 
ACET_MBZ_03

>  <Index>  (2581) 
557

$$$$
ACET-pdb5o30-H-GLU-49:MBZ-pdb5o30-H-PHE-200
     RDKit          3D

 22 21  0  0  0  0  0  0  0  0999 V2000
    6.0821    3.1118   -0.2298 C   0  0  0  0  0  0  0  0  0  0  0  0
    5.9558    3.4490   -1.1299 H   0  0  0  0  0  0  0  0  0  0  0  0
    6.7582    2.4161   -0.2286 H   0  0  0  0  0  0  0  0  0  0  0  0
    6.4158    3.9287    0.4102 H   0  0  0  0  0  0  0  0  0  0  0  0
    4.7743    2.4939    0.2249 C   0  0  0  0  0  0  0  0  0  0  0  0
    4.1444    3.0331    1.1606 O   0  0  0  0  0  1  0  0  0  0  0  0
    4.3780    1.4592   -0.3539 O   0  0  0  0  0  0  0  0  0  0  0  0
    0.0128    2.8998    0.0102 C   0  0  0  0  0  0  0  0  0  0  0  0
    0.9162    3.1844    0.2198 H   0  0  0  0  0  0  0  0  0  0  0  0
   -0.5930    3.1912    0.7091 H   0  0  0  0  0  0  0  0  0  0  0  0
   -0.2898    3.3629   -0.9290 H   0  0  0  0  0  0  0  0  0  0  0  0
   -0.0002    1.3954   -0.0087 C   0  0  0  0  0  0  0  0  0  0  0  0
   -1.1924    0.6910    0.0052 C   0  0  0  0  0  0  0  0  0  0  0  0
   -1.9998    1.1523    0.0026 H   0  0  0  0  0  0  0  0  0  0  0  0
   -1.1951   -0.6930   -0.0000 C   0  0  0  0  0  0  0  0  0  0  0  0
   -2.0007   -1.1570    0.0008 H   0  0  0  0  0  0  0  0  0  0  0  0
    0.0010   -1.3850    0.0007 C   0  0  0  0  0  0  0  0  0  0  0  0
    0.0013   -2.3149   -0.0011 H   0  0  0  0  0  0  0  0  0  0  0  0
    1.1951   -0.6942   -0.0000 C   0  0  0  0  0  0  0  0  0  0  0  0
    2.0015   -1.1572   -0.0004 H   0  0  0  0  0  0  0  0  0  0  0  0
    1.1916    0.6858    0.0028 C   0  0  0  0  0  0  0  0  0  0  0  0
    1.9993    1.1468    0.0016 H   0  0  0  0  0  0  0  0  0  0  0  0
  1  5  1  0
  5  6  1  0
  5  7  2  0
  1  2  1  0
  1  3  1  0
  1  4  1  0
  8 12  1  0
 12 13  2  0
 13 15  1  0
 15 17  2  0
 17 19  1  0
 19 21  2  0
 21 12  1  0
  8  9  1  0
  8 10  1  0
  8 11  1  0
 13 14  1  0
 15 16  1  0
 17 18  1  0
 19 20  1  0
 21 22  1  0
M  CHG  1   6  -1
M  END
>  <PDB_ID>  (2582) 
pdb5o30

>  <RESIDUE_NAME>  (2582) 
GLU   PHE

>  <FRAG_NAME>  (2582) 
ACET   MBZ

>  <FRAG_ATOM_NUM>  (2582) 
fragi: 7  fragj: 15

>  <atom.prop.CHAIN_ID>  (2582) 
A A A A A A A Z Z Z Z Z Z Z Z Z Z Z Z Z Z Z

>  <atom.prop.IS_HEAVY_ATOM>  (2582) 
1 0 0 0 1 1 1 1 0 0 0 1 1 0 1 0 1 0 1 0 1 0

>  <DIFUSE_FUNC_ATOM>  (2582) 
atom 6   atom 7   

>  <FINAL_SINGLE_POINT_ENERGY>  (2582) 
0

>  <NONCOV_INTER_ENERGY_QM>  (2582) 
0

>  <FF_Energy>  (2582) 
-2.51

>  <QM_Energy>  (2582) 
-7.83

>  <source>  (2582) 
ACET_MBZ_03

>  <Index>  (2582) 
559

$$$$
ACET-pdb5o5c-B-GLU-143:MBZ-pdb5o5c-B-PHE-164
     RDKit          3D

 22 21  0  0  0  0  0  0  0  0999 V2000
   -4.2236    1.2889   -1.7869 C   0  0  0  0  0  0  0  0  0  0  0  0
   -5.0668    1.3841   -1.2765 H   0  0  0  0  0  0  0  0  0  0  0  0
   -3.6344    0.6078   -1.3755 H   0  0  0  0  0  0  0  0  0  0  0  0
   -4.4827    0.9409   -2.7869 H   0  0  0  0  0  0  0  0  0  0  0  0
   -3.5017    2.6144   -1.7446 C   0  0  0  0  0  0  0  0  0  0  0  0
   -2.8723    2.9438   -2.8003 O   0  0  0  0  0  1  0  0  0  0  0  0
   -3.6123    3.3307   -0.6800 O   0  0  0  0  0  0  0  0  0  0  0  0
   -0.0058    2.9179    0.0146 C   0  0  0  0  0  0  0  0  0  0  0  0
   -0.7470    3.2103   -0.5810 H   0  0  0  0  0  0  0  0  0  0  0  0
    0.8711    3.2091   -0.3539 H   0  0  0  0  0  0  0  0  0  0  0  0
   -0.1423    3.3833    0.9908 H   0  0  0  0  0  0  0  0  0  0  0  0
   -0.0096    1.4111    0.0317 C   0  0  0  0  0  0  0  0  0  0  0  0
   -1.1978    0.6967   -0.0132 C   0  0  0  0  0  0  0  0  0  0  0  0
   -2.0686    1.1832   -0.0567 H   0  0  0  0  0  0  0  0  0  0  0  0
   -1.2029   -0.6962   -0.0000 C   0  0  0  0  0  0  0  0  0  0  0  0
   -2.0746   -1.1919    0.0229 H   0  0  0  0  0  0  0  0  0  0  0  0
    0.0090   -1.3978   -0.0166 C   0  0  0  0  0  0  0  0  0  0  0  0
   -0.0046   -2.3960   -0.0415 H   0  0  0  0  0  0  0  0  0  0  0  0
    1.2029   -0.7069    0.0000 C   0  0  0  0  0  0  0  0  0  0  0  0
    2.0873   -1.1973    0.0147 H   0  0  0  0  0  0  0  0  0  0  0  0
    1.1985    0.6930   -0.0018 C   0  0  0  0  0  0  0  0  0  0  0  0
    2.0620    1.1898   -0.0277 H   0  0  0  0  0  0  0  0  0  0  0  0
  1  5  1  0
  5  6  1  0
  5  7  2  0
  1  2  1  0
  1  3  1  0
  1  4  1  0
  8 12  1  0
 12 13  2  0
 13 15  1  0
 15 17  2  0
 17 19  1  0
 19 21  2  0
 21 12  1  0
  8  9  1  0
  8 10  1  0
  8 11  1  0
 13 14  1  0
 15 16  1  0
 17 18  1  0
 19 20  1  0
 21 22  1  0
M  CHG  1   6  -1
M  END
>  <PDB_ID>  (2583) 
pdb5o5c

>  <RESIDUE_NAME>  (2583) 
GLU   PHE

>  <FRAG_NAME>  (2583) 
ACET   MBZ

>  <FRAG_ATOM_NUM>  (2583) 
fragi: 7  fragj: 15

>  <atom.prop.CHAIN_ID>  (2583) 
A A A A A A A Z Z Z Z Z Z Z Z Z Z Z Z Z Z Z

>  <atom.prop.IS_HEAVY_ATOM>  (2583) 
1 0 0 0 1 1 1 1 0 0 0 1 1 0 1 0 1 0 1 0 1 0

>  <DIFUSE_FUNC_ATOM>  (2583) 
atom 6   atom 7   

>  <FINAL_SINGLE_POINT_ENERGY>  (2583) 
0

>  <NONCOV_INTER_ENERGY_QM>  (2583) 
0

>  <FF_Energy>  (2583) 
-1.1

>  <QM_Energy>  (2583) 
-7.03

>  <source>  (2583) 
ACET_MBZ_03

>  <Index>  (2583) 
703

$$$$
ACET-pdb5o4h-A-ASP-107:MBZ-pdb5o4h-A-PHE-42
     RDKit          3D

 22 21  0  0  0  0  0  0  0  0999 V2000
   -4.8313    2.6473    0.5198 C   0  0  0  0  0  0  0  0  0  0  0  0
   -4.6941    1.7586    0.0515 H   0  0  0  0  0  0  0  0  0  0  0  0
   -5.6988    3.0390    0.1756 H   0  0  0  0  0  0  0  0  0  0  0  0
   -4.9696    2.4359    1.5801 H   0  0  0  0  0  0  0  0  0  0  0  0
   -3.7052    3.5669    0.1514 C   0  0  0  0  0  0  0  0  0  0  0  0
   -3.0115    4.0464    1.0655 O   0  0  0  0  0  1  0  0  0  0  0  0
   -3.5021    3.8011   -1.0639 O   0  0  0  0  0  0  0  0  0  0  0  0
   -0.0012    2.9082   -0.0039 C   0  0  0  0  0  0  0  0  0  0  0  0
    0.8538    3.2134    0.3857 H   0  0  0  0  0  0  0  0  0  0  0  0
   -0.7728    3.2150    0.5316 H   0  0  0  0  0  0  0  0  0  0  0  0
   -0.0905    3.3489   -0.9968 H   0  0  0  0  0  0  0  0  0  0  0  0
   -0.0023    1.4003   -0.0010 C   0  0  0  0  0  0  0  0  0  0  0  0
   -1.1926    0.6905   -0.0060 C   0  0  0  0  0  0  0  0  0  0  0  0
   -2.0621    1.1783   -0.0156 H   0  0  0  0  0  0  0  0  0  0  0  0
   -1.1909   -0.6957    0.0000 C   0  0  0  0  0  0  0  0  0  0  0  0
   -2.0694   -1.1919   -0.0038 H   0  0  0  0  0  0  0  0  0  0  0  0
    0.0052   -1.3862    0.0128 C   0  0  0  0  0  0  0  0  0  0  0  0
   -0.0034   -2.3899    0.0313 H   0  0  0  0  0  0  0  0  0  0  0  0
    1.1909   -0.6992    0.0000 C   0  0  0  0  0  0  0  0  0  0  0  0
    2.0790   -1.1936   -0.0041 H   0  0  0  0  0  0  0  0  0  0  0  0
    1.1897    0.6902   -0.0058 C   0  0  0  0  0  0  0  0  0  0  0  0
    2.0605    1.1842   -0.0148 H   0  0  0  0  0  0  0  0  0  0  0  0
  1  5  1  0
  5  6  1  0
  5  7  2  0
  1  2  1  0
  1  3  1  0
  1  4  1  0
  8 12  1  0
 12 13  2  0
 13 15  1  0
 15 17  2  0
 17 19  1  0
 19 21  2  0
 21 12  1  0
  8  9  1  0
  8 10  1  0
  8 11  1  0
 13 14  1  0
 15 16  1  0
 17 18  1  0
 19 20  1  0
 21 22  1  0
M  CHG  1   6  -1
M  END
>  <PDB_ID>  (2584) 
pdb5o4h

>  <RESIDUE_NAME>  (2584) 
ASP   PHE

>  <FRAG_NAME>  (2584) 
ACET   MBZ

>  <FRAG_ATOM_NUM>  (2584) 
fragi: 7  fragj: 15

>  <atom.prop.CHAIN_ID>  (2584) 
A A A A A A A Z Z Z Z Z Z Z Z Z Z Z Z Z Z Z

>  <atom.prop.IS_HEAVY_ATOM>  (2584) 
1 0 0 0 1 1 1 1 0 0 0 1 1 0 1 0 1 0 1 0 1 0

>  <DIFUSE_FUNC_ATOM>  (2584) 
atom 6   atom 7   

>  <FINAL_SINGLE_POINT_ENERGY>  (2584) 
0

>  <NONCOV_INTER_ENERGY_QM>  (2584) 
0

>  <FF_Energy>  (2584) 
-2.17

>  <QM_Energy>  (2584) 
-7.73

>  <source>  (2584) 
ACET_MBZ_03

>  <Index>  (2584) 
714

$$$$
ACET-pdb5o4h-B-ASP-107:MBZ-pdb5o4h-B-PHE-42
     RDKit          3D

 22 21  0  0  0  0  0  0  0  0999 V2000
   -4.8418    2.6447    0.5184 C   0  0  0  0  0  0  0  0  0  0  0  0
   -4.7042    1.7514    0.0558 H   0  0  0  0  0  0  0  0  0  0  0  0
   -5.7087    3.0339    0.1634 H   0  0  0  0  0  0  0  0  0  0  0  0
   -4.9887    2.4400    1.5789 H   0  0  0  0  0  0  0  0  0  0  0  0
   -3.7156    3.5586    0.1491 C   0  0  0  0  0  0  0  0  0  0  0  0
   -3.0090    4.0369    1.0684 O   0  0  0  0  0  1  0  0  0  0  0  0
   -3.5077    3.7731   -1.0594 O   0  0  0  0  0  0  0  0  0  0  0  0
   -0.0020    2.9086   -0.0020 C   0  0  0  0  0  0  0  0  0  0  0  0
    0.8503    3.2153    0.3922 H   0  0  0  0  0  0  0  0  0  0  0  0
   -0.7782    3.2145    0.5264 H   0  0  0  0  0  0  0  0  0  0  0  0
   -0.0844    3.3469   -0.9966 H   0  0  0  0  0  0  0  0  0  0  0  0
   -0.0012    1.4026   -0.0014 C   0  0  0  0  0  0  0  0  0  0  0  0
   -1.1912    0.6925   -0.0109 C   0  0  0  0  0  0  0  0  0  0  0  0
   -2.0611    1.1765   -0.0273 H   0  0  0  0  0  0  0  0  0  0  0  0
   -1.1896   -0.6992   -0.0000 C   0  0  0  0  0  0  0  0  0  0  0  0
   -2.0691   -1.1924    0.0047 H   0  0  0  0  0  0  0  0  0  0  0  0
    0.0042   -1.3881    0.0061 C   0  0  0  0  0  0  0  0  0  0  0  0
   -0.0030   -2.3926    0.0140 H   0  0  0  0  0  0  0  0  0  0  0  0
    1.1896   -0.7014   -0.0000 C   0  0  0  0  0  0  0  0  0  0  0  0
    2.0779   -1.1921   -0.0081 H   0  0  0  0  0  0  0  0  0  0  0  0
    1.1883    0.6936    0.0062 C   0  0  0  0  0  0  0  0  0  0  0  0
    2.0602    1.1839    0.0151 H   0  0  0  0  0  0  0  0  0  0  0  0
  1  5  1  0
  5  6  1  0
  5  7  2  0
  1  2  1  0
  1  3  1  0
  1  4  1  0
  8 12  1  0
 12 13  2  0
 13 15  1  0
 15 17  2  0
 17 19  1  0
 19 21  2  0
 21 12  1  0
  8  9  1  0
  8 10  1  0
  8 11  1  0
 13 14  1  0
 15 16  1  0
 17 18  1  0
 19 20  1  0
 21 22  1  0
M  CHG  1   6  -1
M  END
>  <PDB_ID>  (2585) 
pdb5o4h

>  <RESIDUE_NAME>  (2585) 
ASP   PHE

>  <FRAG_NAME>  (2585) 
ACET   MBZ

>  <FRAG_ATOM_NUM>  (2585) 
fragi: 7  fragj: 15

>  <atom.prop.CHAIN_ID>  (2585) 
A A A A A A A Z Z Z Z Z Z Z Z Z Z Z Z Z Z Z

>  <atom.prop.IS_HEAVY_ATOM>  (2585) 
1 0 0 0 1 1 1 1 0 0 0 1 1 0 1 0 1 0 1 0 1 0

>  <DIFUSE_FUNC_ATOM>  (2585) 
atom 6   atom 7   

>  <FINAL_SINGLE_POINT_ENERGY>  (2585) 
0

>  <NONCOV_INTER_ENERGY_QM>  (2585) 
0

>  <FF_Energy>  (2585) 
-2.16

>  <QM_Energy>  (2585) 
-7.82

>  <source>  (2585) 
ACET_MBZ_03

>  <Index>  (2585) 
739

$$$$
ACET-pdb5o81-A-ASP-46:MBZ-pdb5o81-A-PHE-50
     RDKit          3D

 22 21  0  0  0  0  0  0  0  0999 V2000
    3.4613    5.2745   -2.9641 C   0  0  0  0  0  0  0  0  0  0  0  0
    4.4201    5.1395   -3.1834 H   0  0  0  0  0  0  0  0  0  0  0  0
    3.3538    5.9953   -2.2910 H   0  0  0  0  0  0  0  0  0  0  0  0
    2.9472    5.5831   -3.8743 H   0  0  0  0  0  0  0  0  0  0  0  0
    2.9090    3.9763   -2.3805 C   0  0  0  0  0  0  0  0  0  0  0  0
    1.7331    3.6364   -2.6532 O   0  0  0  0  0  1  0  0  0  0  0  0
    3.6542    3.3041   -1.6361 O   0  0  0  0  0  0  0  0  0  0  0  0
    0.0047    2.9110    0.0111 C   0  0  0  0  0  0  0  0  0  0  0  0
    0.9112    3.2109   -0.2496 H   0  0  0  0  0  0  0  0  0  0  0  0
   -0.2163    3.2034    0.9310 H   0  0  0  0  0  0  0  0  0  0  0  0
   -0.7108    3.3721   -0.6697 H   0  0  0  0  0  0  0  0  0  0  0  0
   -0.0002    1.3960   -0.0041 C   0  0  0  0  0  0  0  0  0  0  0  0
   -1.1967    0.6826    0.0073 C   0  0  0  0  0  0  0  0  0  0  0  0
   -2.0630    1.1782    0.0199 H   0  0  0  0  0  0  0  0  0  0  0  0
   -1.1972   -0.6941    0.0000 C   0  0  0  0  0  0  0  0  0  0  0  0
   -2.0748   -1.1941   -0.0052 H   0  0  0  0  0  0  0  0  0  0  0  0
   -0.0023   -1.3791    0.0013 C   0  0  0  0  0  0  0  0  0  0  0  0
   -0.0046   -2.3855    0.0027 H   0  0  0  0  0  0  0  0  0  0  0  0
    1.1972   -0.6935   -0.0000 C   0  0  0  0  0  0  0  0  0  0  0  0
    2.0769   -1.1979    0.0041 H   0  0  0  0  0  0  0  0  0  0  0  0
    1.1992    0.6881   -0.0045 C   0  0  0  0  0  0  0  0  0  0  0  0
    2.0649    1.1872   -0.0089 H   0  0  0  0  0  0  0  0  0  0  0  0
  1  5  1  0
  5  6  1  0
  5  7  2  0
  1  2  1  0
  1  3  1  0
  1  4  1  0
  8 12  1  0
 12 13  2  0
 13 15  1  0
 15 17  2  0
 17 19  1  0
 19 21  2  0
 21 12  1  0
  8  9  1  0
  8 10  1  0
  8 11  1  0
 13 14  1  0
 15 16  1  0
 17 18  1  0
 19 20  1  0
 21 22  1  0
M  CHG  1   6  -1
M  END
>  <PDB_ID>  (2586) 
pdb5o81

>  <RESIDUE_NAME>  (2586) 
ASP   PHE

>  <FRAG_NAME>  (2586) 
ACET   MBZ

>  <FRAG_ATOM_NUM>  (2586) 
fragi: 7  fragj: 15

>  <atom.prop.CHAIN_ID>  (2586) 
A A A A A A A Z Z Z Z Z Z Z Z Z Z Z Z Z Z Z

>  <atom.prop.IS_HEAVY_ATOM>  (2586) 
1 0 0 0 1 1 1 1 0 0 0 1 1 0 1 0 1 0 1 0 1 0

>  <DIFUSE_FUNC_ATOM>  (2586) 
atom 6   atom 7   

>  <FINAL_SINGLE_POINT_ENERGY>  (2586) 
0

>  <NONCOV_INTER_ENERGY_QM>  (2586) 
0

>  <FF_Energy>  (2586) 
-1.04

>  <QM_Energy>  (2586) 
-6.68

>  <source>  (2586) 
ACET_MBZ_03

>  <Index>  (2586) 
745

$$$$
ACET-pdb5o81-B-ASP-46:MBZ-pdb5o81-B-PHE-50
     RDKit          3D

 22 21  0  0  0  0  0  0  0  0999 V2000
    4.0077    5.2194   -3.0276 C   0  0  0  0  0  0  0  0  0  0  0  0
    4.9076    5.0358   -3.4119 H   0  0  0  0  0  0  0  0  0  0  0  0
    4.0735    5.9054   -2.3104 H   0  0  0  0  0  0  0  0  0  0  0  0
    3.3755    5.6184   -3.8208 H   0  0  0  0  0  0  0  0  0  0  0  0
    3.4683    3.9343   -2.4227 C   0  0  0  0  0  0  0  0  0  0  0  0
    3.5811    2.8620   -3.0627 O   0  0  0  0  0  1  0  0  0  0  0  0
    2.9576    3.9923   -1.2866 O   0  0  0  0  0  0  0  0  0  0  0  0
    0.0211    2.9036    0.0066 C   0  0  0  0  0  0  0  0  0  0  0  0
    0.9401    3.2003   -0.2237 H   0  0  0  0  0  0  0  0  0  0  0  0
   -0.2270    3.2081    0.9188 H   0  0  0  0  0  0  0  0  0  0  0  0
   -0.6651    3.3749   -0.6971 H   0  0  0  0  0  0  0  0  0  0  0  0
    0.0016    1.4022   -0.0031 C   0  0  0  0  0  0  0  0  0  0  0  0
   -1.1982    0.6963    0.0005 C   0  0  0  0  0  0  0  0  0  0  0  0
   -2.0619    1.1867    0.0023 H   0  0  0  0  0  0  0  0  0  0  0  0
   -1.1993   -0.6921   -0.0000 C   0  0  0  0  0  0  0  0  0  0  0  0
   -2.0771   -1.1880    0.0005 H   0  0  0  0  0  0  0  0  0  0  0  0
    0.0011   -1.3948    0.0004 C   0  0  0  0  0  0  0  0  0  0  0  0
   -0.0075   -2.3926    0.0005 H   0  0  0  0  0  0  0  0  0  0  0  0
    1.1993   -0.7004    0.0000 C   0  0  0  0  0  0  0  0  0  0  0  0
    2.0818   -1.1982   -0.0008 H   0  0  0  0  0  0  0  0  0  0  0  0
    1.1955    0.6888    0.0021 C   0  0  0  0  0  0  0  0  0  0  0  0
    2.0658    1.1847    0.0064 H   0  0  0  0  0  0  0  0  0  0  0  0
  1  5  1  0
  5  6  1  0
  5  7  2  0
  1  2  1  0
  1  3  1  0
  1  4  1  0
  8 12  1  0
 12 13  2  0
 13 15  1  0
 15 17  2  0
 17 19  1  0
 19 21  2  0
 21 12  1  0
  8  9  1  0
  8 10  1  0
  8 11  1  0
 13 14  1  0
 15 16  1  0
 17 18  1  0
 19 20  1  0
 21 22  1  0
M  CHG  1   6  -1
M  END
>  <PDB_ID>  (2587) 
pdb5o81

>  <RESIDUE_NAME>  (2587) 
ASP   PHE

>  <FRAG_NAME>  (2587) 
ACET   MBZ

>  <FRAG_ATOM_NUM>  (2587) 
fragi: 7  fragj: 15

>  <atom.prop.CHAIN_ID>  (2587) 
A A A A A A A Z Z Z Z Z Z Z Z Z Z Z Z Z Z Z

>  <atom.prop.IS_HEAVY_ATOM>  (2587) 
1 0 0 0 1 1 1 1 0 0 0 1 1 0 1 0 1 0 1 0 1 0

>  <DIFUSE_FUNC_ATOM>  (2587) 
atom 6   atom 7   

>  <FINAL_SINGLE_POINT_ENERGY>  (2587) 
0

>  <NONCOV_INTER_ENERGY_QM>  (2587) 
0

>  <FF_Energy>  (2587) 
-1.2

>  <QM_Energy>  (2587) 
-6.5

>  <source>  (2587) 
ACET_MBZ_03

>  <Index>  (2587) 
748

$$$$
ACET-pdb5o81-D-ASP-46:MBZ-pdb5o81-D-PHE-50
     RDKit          3D

 22 21  0  0  0  0  0  0  0  0999 V2000
    3.1612    5.1255   -3.5792 C   0  0  0  0  0  0  0  0  0  0  0  0
    3.9848    4.8751   -4.0796 H   0  0  0  0  0  0  0  0  0  0  0  0
    3.3563    5.8703   -2.9482 H   0  0  0  0  0  0  0  0  0  0  0  0
    2.4165    5.4701   -4.2967 H   0  0  0  0  0  0  0  0  0  0  0  0
    2.7185    3.8967   -2.7450 C   0  0  0  0  0  0  0  0  0  0  0  0
    1.9801    3.0103   -3.2355 O   0  0  0  0  0  1  0  0  0  0  0  0
    3.1622    3.8016   -1.5782 O   0  0  0  0  0  0  0  0  0  0  0  0
   -0.0154    2.9308   -0.0019 C   0  0  0  0  0  0  0  0  0  0  0  0
    0.8348    3.2368   -0.3961 H   0  0  0  0  0  0  0  0  0  0  0  0
   -0.1156    3.2287    0.9321 H   0  0  0  0  0  0  0  0  0  0  0  0
   -0.8315    3.3607   -0.5825 H   0  0  0  0  0  0  0  0  0  0  0  0
   -0.0001    1.4074   -0.0003 C   0  0  0  0  0  0  0  0  0  0  0  0
   -1.1925    0.6833    0.0014 C   0  0  0  0  0  0  0  0  0  0  0  0
   -2.0639    1.1706    0.0021 H   0  0  0  0  0  0  0  0  0  0  0  0
   -1.1926   -0.7068    0.0000 C   0  0  0  0  0  0  0  0  0  0  0  0
   -2.0716   -1.1996    0.0020 H   0  0  0  0  0  0  0  0  0  0  0  0
    0.0014   -1.3910   -0.0020 C   0  0  0  0  0  0  0  0  0  0  0  0
    0.0031   -2.3939   -0.0058 H   0  0  0  0  0  0  0  0  0  0  0  0
    1.1926   -0.6956   -0.0000 C   0  0  0  0  0  0  0  0  0  0  0  0
    2.0799   -1.1875    0.0029 H   0  0  0  0  0  0  0  0  0  0  0  0
    1.1912    0.7027    0.0009 C   0  0  0  0  0  0  0  0  0  0  0  0
    2.0624    1.1918    0.0013 H   0  0  0  0  0  0  0  0  0  0  0  0
  1  5  1  0
  5  6  1  0
  5  7  2  0
  1  2  1  0
  1  3  1  0
  1  4  1  0
  8 12  1  0
 12 13  2  0
 13 15  1  0
 15 17  2  0
 17 19  1  0
 19 21  2  0
 21 12  1  0
  8  9  1  0
  8 10  1  0
  8 11  1  0
 13 14  1  0
 15 16  1  0
 17 18  1  0
 19 20  1  0
 21 22  1  0
M  CHG  1   6  -1
M  END
>  <PDB_ID>  (2588) 
pdb5o81

>  <RESIDUE_NAME>  (2588) 
ASP   PHE

>  <FRAG_NAME>  (2588) 
ACET   MBZ

>  <FRAG_ATOM_NUM>  (2588) 
fragi: 7  fragj: 15

>  <atom.prop.CHAIN_ID>  (2588) 
A A A A A A A Z Z Z Z Z Z Z Z Z Z Z Z Z Z Z

>  <atom.prop.IS_HEAVY_ATOM>  (2588) 
1 0 0 0 1 1 1 1 0 0 0 1 1 0 1 0 1 0 1 0 1 0

>  <DIFUSE_FUNC_ATOM>  (2588) 
atom 6   atom 7   

>  <FINAL_SINGLE_POINT_ENERGY>  (2588) 
0

>  <NONCOV_INTER_ENERGY_QM>  (2588) 
0

>  <FF_Energy>  (2588) 
-0.89

>  <QM_Energy>  (2588) 
-6.36

>  <source>  (2588) 
ACET_MBZ_03

>  <Index>  (2588) 
752

$$$$
ACET-pdb5o81-E-ASP-46:MBZ-pdb5o81-E-PHE-50
     RDKit          3D

 22 21  0  0  0  0  0  0  0  0999 V2000
    3.1742    5.3841   -2.8480 C   0  0  0  0  0  0  0  0  0  0  0  0
    4.1425    5.3742   -3.0667 H   0  0  0  0  0  0  0  0  0  0  0  0
    2.9810    6.0548   -2.1439 H   0  0  0  0  0  0  0  0  0  0  0  0
    2.6227    5.6605   -3.7466 H   0  0  0  0  0  0  0  0  0  0  0  0
    2.7964    3.9839   -2.2918 C   0  0  0  0  0  0  0  0  0  0  0  0
    1.9155    3.2828   -2.8607 O   0  0  0  0  0  1  0  0  0  0  0  0
    3.4039    3.5884   -1.2568 O   0  0  0  0  0  0  0  0  0  0  0  0
    0.0169    2.9064    0.0185 C   0  0  0  0  0  0  0  0  0  0  0  0
    0.9014    3.2037   -0.3180 H   0  0  0  0  0  0  0  0  0  0  0  0
   -0.1204    3.1977    0.9558 H   0  0  0  0  0  0  0  0  0  0  0  0
   -0.7498    3.3809   -0.5938 H   0  0  0  0  0  0  0  0  0  0  0  0
   -0.0022    1.3965   -0.0039 C   0  0  0  0  0  0  0  0  0  0  0  0
   -1.1951    0.6896   -0.0010 C   0  0  0  0  0  0  0  0  0  0  0  0
   -2.0622    1.1777   -0.0006 H   0  0  0  0  0  0  0  0  0  0  0  0
   -1.1905   -0.6937    0.0000 C   0  0  0  0  0  0  0  0  0  0  0  0
   -2.0664   -1.1953    0.0002 H   0  0  0  0  0  0  0  0  0  0  0  0
    0.0102   -1.3831    0.0031 C   0  0  0  0  0  0  0  0  0  0  0  0
    0.0011   -2.3861    0.0073 H   0  0  0  0  0  0  0  0  0  0  0  0
    1.1905   -0.6943   -0.0000 C   0  0  0  0  0  0  0  0  0  0  0  0
    2.0807   -1.1901   -0.0026 H   0  0  0  0  0  0  0  0  0  0  0  0
    1.1871    0.6851    0.0019 C   0  0  0  0  0  0  0  0  0  0  0  0
    2.0584    1.1836    0.0066 H   0  0  0  0  0  0  0  0  0  0  0  0
  1  5  1  0
  5  6  1  0
  5  7  2  0
  1  2  1  0
  1  3  1  0
  1  4  1  0
  8 12  1  0
 12 13  2  0
 13 15  1  0
 15 17  2  0
 17 19  1  0
 19 21  2  0
 21 12  1  0
  8  9  1  0
  8 10  1  0
  8 11  1  0
 13 14  1  0
 15 16  1  0
 17 18  1  0
 19 20  1  0
 21 22  1  0
M  CHG  1   6  -1
M  END
>  <PDB_ID>  (2589) 
pdb5o81

>  <RESIDUE_NAME>  (2589) 
ASP   PHE

>  <FRAG_NAME>  (2589) 
ACET   MBZ

>  <FRAG_ATOM_NUM>  (2589) 
fragi: 7  fragj: 15

>  <atom.prop.CHAIN_ID>  (2589) 
A A A A A A A Z Z Z Z Z Z Z Z Z Z Z Z Z Z Z

>  <atom.prop.IS_HEAVY_ATOM>  (2589) 
1 0 0 0 1 1 1 1 0 0 0 1 1 0 1 0 1 0 1 0 1 0

>  <DIFUSE_FUNC_ATOM>  (2589) 
atom 6   atom 7   

>  <FINAL_SINGLE_POINT_ENERGY>  (2589) 
0

>  <NONCOV_INTER_ENERGY_QM>  (2589) 
0

>  <FF_Energy>  (2589) 
-1.19

>  <QM_Energy>  (2589) 
-7.12

>  <source>  (2589) 
ACET_MBZ_03

>  <Index>  (2589) 
755

$$$$
ACET-pdb5ob5-H-ASP-50:MBZ-pdb5ob5-H-PHE-59
     RDKit          3D

 22 21  0  0  0  0  0  0  0  0999 V2000
    5.2257    5.0188    0.1786 C   0  0  0  0  0  0  0  0  0  0  0  0
    6.1745    4.7678   -0.0967 H   0  0  0  0  0  0  0  0  0  0  0  0
    5.3135    5.7627    0.8687 H   0  0  0  0  0  0  0  0  0  0  0  0
    4.7341    5.4421   -0.6974 H   0  0  0  0  0  0  0  0  0  0  0  0
    4.5958    3.8173    0.8554 C   0  0  0  0  0  0  0  0  0  0  0  0
    3.4742    3.4074    0.4505 O   0  0  0  0  0  1  0  0  0  0  0  0
    5.2112    3.2873    1.7845 O   0  0  0  0  0  0  0  0  0  0  0  0
   -0.0012    2.9199   -0.0232 C   0  0  0  0  0  0  0  0  0  0  0  0
    0.9022    3.2275    0.1977 H   0  0  0  0  0  0  0  0  0  0  0  0
   -0.6766    3.2327    0.6148 H   0  0  0  0  0  0  0  0  0  0  0  0
   -0.2592    3.3175   -1.0048 H   0  0  0  0  0  0  0  0  0  0  0  0
   -0.0007    1.4076   -0.0013 C   0  0  0  0  0  0  0  0  0  0  0  0
   -1.1965    0.6974   -0.0008 C   0  0  0  0  0  0  0  0  0  0  0  0
   -2.0646    1.1809   -0.0026 H   0  0  0  0  0  0  0  0  0  0  0  0
   -1.1963   -0.7017    0.0000 C   0  0  0  0  0  0  0  0  0  0  0  0
   -2.0744   -1.1919   -0.0089 H   0  0  0  0  0  0  0  0  0  0  0  0
    0.0018   -1.3935    0.0148 C   0  0  0  0  0  0  0  0  0  0  0  0
   -0.0046   -2.3963    0.0359 H   0  0  0  0  0  0  0  0  0  0  0  0
    1.1963   -0.7054   -0.0000 C   0  0  0  0  0  0  0  0  0  0  0  0
    2.0809   -1.1973   -0.0004 H   0  0  0  0  0  0  0  0  0  0  0  0
    1.1954    0.6957   -0.0127 C   0  0  0  0  0  0  0  0  0  0  0  0
    2.0647    1.1853   -0.0308 H   0  0  0  0  0  0  0  0  0  0  0  0
  1  5  1  0
  5  6  1  0
  5  7  2  0
  1  2  1  0
  1  3  1  0
  1  4  1  0
  8 12  1  0
 12 13  2  0
 13 15  1  0
 15 17  2  0
 17 19  1  0
 19 21  2  0
 21 12  1  0
  8  9  1  0
  8 10  1  0
  8 11  1  0
 13 14  1  0
 15 16  1  0
 17 18  1  0
 19 20  1  0
 21 22  1  0
M  CHG  1   6  -1
M  END
>  <PDB_ID>  (2590) 
pdb5ob5

>  <RESIDUE_NAME>  (2590) 
ASP   PHE

>  <FRAG_NAME>  (2590) 
ACET   MBZ

>  <FRAG_ATOM_NUM>  (2590) 
fragi: 7  fragj: 15

>  <atom.prop.CHAIN_ID>  (2590) 
A A A A A A A Z Z Z Z Z Z Z Z Z Z Z Z Z Z Z

>  <atom.prop.IS_HEAVY_ATOM>  (2590) 
1 0 0 0 1 1 1 1 0 0 0 1 1 0 1 0 1 0 1 0 1 0

>  <DIFUSE_FUNC_ATOM>  (2590) 
atom 6   atom 7   

>  <FINAL_SINGLE_POINT_ENERGY>  (2590) 
0

>  <NONCOV_INTER_ENERGY_QM>  (2590) 
0

>  <FF_Energy>  (2590) 
-2.1

>  <QM_Energy>  (2590) 
-7.58

>  <source>  (2590) 
ACET_MBZ_03

>  <Index>  (2590) 
824

$$$$
ACET-pdb5o4h-D-ASP-107:MBZ-pdb5o4h-D-PHE-42
     RDKit          3D

 22 21  0  0  0  0  0  0  0  0999 V2000
   -4.8357    2.6347    0.5401 C   0  0  0  0  0  0  0  0  0  0  0  0
   -4.7051    1.7440    0.0738 H   0  0  0  0  0  0  0  0  0  0  0  0
   -5.7071    3.0253    0.2008 H   0  0  0  0  0  0  0  0  0  0  0  0
   -4.9714    2.4234    1.6008 H   0  0  0  0  0  0  0  0  0  0  0  0
   -3.7142    3.5481    0.1675 C   0  0  0  0  0  0  0  0  0  0  0  0
   -3.0103    4.0233    1.0799 O   0  0  0  0  0  1  0  0  0  0  0  0
   -3.5235    3.7852   -1.0483 O   0  0  0  0  0  0  0  0  0  0  0  0
   -0.0007    2.9044   -0.0029 C   0  0  0  0  0  0  0  0  0  0  0  0
    0.8538    3.2124    0.3840 H   0  0  0  0  0  0  0  0  0  0  0  0
   -0.7722    3.2124    0.5296 H   0  0  0  0  0  0  0  0  0  0  0  0
   -0.0898    3.3419   -0.9973 H   0  0  0  0  0  0  0  0  0  0  0  0
   -0.0015    1.4007   -0.0025 C   0  0  0  0  0  0  0  0  0  0  0  0
   -1.1911    0.6906   -0.0107 C   0  0  0  0  0  0  0  0  0  0  0  0
   -2.0615    1.1757   -0.0258 H   0  0  0  0  0  0  0  0  0  0  0  0
   -1.1898   -0.6992   -0.0000 C   0  0  0  0  0  0  0  0  0  0  0  0
   -2.0703   -1.1918    0.0033 H   0  0  0  0  0  0  0  0  0  0  0  0
    0.0010   -1.3827    0.0075 C   0  0  0  0  0  0  0  0  0  0  0  0
   -0.0034   -2.3900    0.0181 H   0  0  0  0  0  0  0  0  0  0  0  0
    1.1898   -0.6986   -0.0000 C   0  0  0  0  0  0  0  0  0  0  0  0
    2.0755   -1.1960   -0.0087 H   0  0  0  0  0  0  0  0  0  0  0  0
    1.1916    0.6893    0.0057 C   0  0  0  0  0  0  0  0  0  0  0  0
    2.0615    1.1832    0.0145 H   0  0  0  0  0  0  0  0  0  0  0  0
  1  5  1  0
  5  6  1  0
  5  7  2  0
  1  2  1  0
  1  3  1  0
  1  4  1  0
  8 12  1  0
 12 13  2  0
 13 15  1  0
 15 17  2  0
 17 19  1  0
 19 21  2  0
 21 12  1  0
  8  9  1  0
  8 10  1  0
  8 11  1  0
 13 14  1  0
 15 16  1  0
 17 18  1  0
 19 20  1  0
 21 22  1  0
M  CHG  1   6  -1
M  END
>  <PDB_ID>  (2591) 
pdb5o4h

>  <RESIDUE_NAME>  (2591) 
ASP   PHE

>  <FRAG_NAME>  (2591) 
ACET   MBZ

>  <FRAG_ATOM_NUM>  (2591) 
fragi: 7  fragj: 15

>  <atom.prop.CHAIN_ID>  (2591) 
A A A A A A A Z Z Z Z Z Z Z Z Z Z Z Z Z Z Z

>  <atom.prop.IS_HEAVY_ATOM>  (2591) 
1 0 0 0 1 1 1 1 0 0 0 1 1 0 1 0 1 0 1 0 1 0

>  <DIFUSE_FUNC_ATOM>  (2591) 
atom 6   atom 7   

>  <FINAL_SINGLE_POINT_ENERGY>  (2591) 
0

>  <NONCOV_INTER_ENERGY_QM>  (2591) 
0

>  <FF_Energy>  (2591) 
-2.16

>  <QM_Energy>  (2591) 
-7.75

>  <source>  (2591) 
ACET_MBZ_03

>  <Index>  (2591) 
844

$$$$
ACET-pdb5ohc-A-ASP-252:MBZ-pdb5ohc-A-PHE-255
     RDKit          3D

 22 21  0  0  0  0  0  0  0  0999 V2000
    1.4453    4.5581    3.0712 C   0  0  0  0  0  0  0  0  0  0  0  0
    2.2001    4.2594    3.6453 H   0  0  0  0  0  0  0  0  0  0  0  0
    0.8058    3.8128    2.9248 H   0  0  0  0  0  0  0  0  0  0  0  0
    0.9200    5.3596    3.5905 H   0  0  0  0  0  0  0  0  0  0  0  0
    2.0061    4.9888    1.7190 C   0  0  0  0  0  0  0  0  0  0  0  0
    1.4707    5.9208    1.0741 O   0  0  0  0  0  1  0  0  0  0  0  0
    2.9821    4.3444    1.2779 O   0  0  0  0  0  0  0  0  0  0  0  0
    0.0462    2.9479    0.0530 C   0  0  0  0  0  0  0  0  0  0  0  0
    1.0051    3.2174    0.0219 H   0  0  0  0  0  0  0  0  0  0  0  0
   -0.3591    3.2224    0.9206 H   0  0  0  0  0  0  0  0  0  0  0  0
   -0.4735    3.4886   -0.7380 H   0  0  0  0  0  0  0  0  0  0  0  0
   -0.0039    1.4229   -0.0148 C   0  0  0  0  0  0  0  0  0  0  0  0
   -1.2053    0.7170    0.0094 C   0  0  0  0  0  0  0  0  0  0  0  0
   -2.0720    1.1879    0.0317 H   0  0  0  0  0  0  0  0  0  0  0  0
   -1.2038   -0.7111   -0.0000 C   0  0  0  0  0  0  0  0  0  0  0  0
   -2.0748   -1.1956   -0.0043 H   0  0  0  0  0  0  0  0  0  0  0  0
    0.0165   -1.4126   -0.0011 C   0  0  0  0  0  0  0  0  0  0  0  0
    0.0017   -2.4097   -0.0031 H   0  0  0  0  0  0  0  0  0  0  0  0
    1.2038   -0.7178   -0.0000 C   0  0  0  0  0  0  0  0  0  0  0  0
    2.0938   -1.1937   -0.0023 H   0  0  0  0  0  0  0  0  0  0  0  0
    1.1927    0.7016    0.0065 C   0  0  0  0  0  0  0  0  0  0  0  0
    2.0659    1.1878    0.0261 H   0  0  0  0  0  0  0  0  0  0  0  0
  1  5  1  0
  5  6  1  0
  5  7  2  0
  1  2  1  0
  1  3  1  0
  1  4  1  0
  8 12  1  0
 12 13  2  0
 13 15  1  0
 15 17  2  0
 17 19  1  0
 19 21  2  0
 21 12  1  0
  8  9  1  0
  8 10  1  0
  8 11  1  0
 13 14  1  0
 15 16  1  0
 17 18  1  0
 19 20  1  0
 21 22  1  0
M  CHG  1   6  -1
M  END
>  <PDB_ID>  (2592) 
pdb5ohc

>  <RESIDUE_NAME>  (2592) 
ASP   PHE

>  <FRAG_NAME>  (2592) 
ACET   MBZ

>  <FRAG_ATOM_NUM>  (2592) 
fragi: 7  fragj: 15

>  <atom.prop.CHAIN_ID>  (2592) 
A A A A A A A Z Z Z Z Z Z Z Z Z Z Z Z Z Z Z

>  <atom.prop.IS_HEAVY_ATOM>  (2592) 
1 0 0 0 1 1 1 1 0 0 0 1 1 0 1 0 1 0 1 0 1 0

>  <DIFUSE_FUNC_ATOM>  (2592) 
atom 6   atom 7   

>  <FINAL_SINGLE_POINT_ENERGY>  (2592) 
0

>  <NONCOV_INTER_ENERGY_QM>  (2592) 
0

>  <FF_Energy>  (2592) 
-1.57

>  <QM_Energy>  (2592) 
-6.58

>  <source>  (2592) 
ACET_MBZ_03

>  <Index>  (2592) 
1019

$$$$
ACET-pdb5ohc-B-ASP-252:MBZ-pdb5ohc-B-PHE-255
     RDKit          3D

 22 21  0  0  0  0  0  0  0  0999 V2000
    1.5202    4.5187    3.1426 C   0  0  0  0  0  0  0  0  0  0  0  0
    2.3315    4.2881    3.6722 H   0  0  0  0  0  0  0  0  0  0  0  0
    0.9242    3.7249    3.0669 H   0  0  0  0  0  0  0  0  0  0  0  0
    0.9783    5.3000    3.6755 H   0  0  0  0  0  0  0  0  0  0  0  0
    1.9645    4.9254    1.7324 C   0  0  0  0  0  0  0  0  0  0  0  0
    1.3329    5.8104    1.1046 O   0  0  0  0  0  1  0  0  0  0  0  0
    2.9318    4.3007    1.2107 O   0  0  0  0  0  0  0  0  0  0  0  0
    0.0359    2.9168    0.0654 C   0  0  0  0  0  0  0  0  0  0  0  0
    0.9778    3.2038   -0.0899 H   0  0  0  0  0  0  0  0  0  0  0  0
   -0.2550    3.1855    0.9810 H   0  0  0  0  0  0  0  0  0  0  0  0
   -0.5909    3.4531   -0.6471 H   0  0  0  0  0  0  0  0  0  0  0  0
   -0.0032    1.4039   -0.0054 C   0  0  0  0  0  0  0  0  0  0  0  0
   -1.1974    0.6910    0.0142 C   0  0  0  0  0  0  0  0  0  0  0  0
   -2.0657    1.1803    0.0378 H   0  0  0  0  0  0  0  0  0  0  0  0
   -1.2001   -0.6972   -0.0000 C   0  0  0  0  0  0  0  0  0  0  0  0
   -2.0717   -1.1958   -0.0048 H   0  0  0  0  0  0  0  0  0  0  0  0
    0.0097   -1.3936   -0.0059 C   0  0  0  0  0  0  0  0  0  0  0  0
    0.0036   -2.3912   -0.0146 H   0  0  0  0  0  0  0  0  0  0  0  0
    1.2001   -0.6943    0.0000 C   0  0  0  0  0  0  0  0  0  0  0  0
    2.0864   -1.1884    0.0084 H   0  0  0  0  0  0  0  0  0  0  0  0
    1.1910    0.6903   -0.0029 C   0  0  0  0  0  0  0  0  0  0  0  0
    2.0611    1.1915   -0.0039 H   0  0  0  0  0  0  0  0  0  0  0  0
  1  5  1  0
  5  6  1  0
  5  7  2  0
  1  2  1  0
  1  3  1  0
  1  4  1  0
  8 12  1  0
 12 13  2  0
 13 15  1  0
 15 17  2  0
 17 19  1  0
 19 21  2  0
 21 12  1  0
  8  9  1  0
  8 10  1  0
  8 11  1  0
 13 14  1  0
 15 16  1  0
 17 18  1  0
 19 20  1  0
 21 22  1  0
M  CHG  1   6  -1
M  END
>  <PDB_ID>  (2593) 
pdb5ohc

>  <RESIDUE_NAME>  (2593) 
ASP   PHE

>  <FRAG_NAME>  (2593) 
ACET   MBZ

>  <FRAG_ATOM_NUM>  (2593) 
fragi: 7  fragj: 15

>  <atom.prop.CHAIN_ID>  (2593) 
A A A A A A A Z Z Z Z Z Z Z Z Z Z Z Z Z Z Z

>  <atom.prop.IS_HEAVY_ATOM>  (2593) 
1 0 0 0 1 1 1 1 0 0 0 1 1 0 1 0 1 0 1 0 1 0

>  <DIFUSE_FUNC_ATOM>  (2593) 
atom 6   atom 7   

>  <FINAL_SINGLE_POINT_ENERGY>  (2593) 
0

>  <NONCOV_INTER_ENERGY_QM>  (2593) 
0

>  <FF_Energy>  (2593) 
-1.52

>  <QM_Energy>  (2593) 
-6.82

>  <source>  (2593) 
ACET_MBZ_03

>  <Index>  (2593) 
1027

$$$$
ACET-pdb5omb-A-ASP-52:MBZ-pdb5omb-A-PHE-11
     RDKit          3D

 22 21  0  0  0  0  0  0  0  0999 V2000
    0.8212   -0.0180   -3.6838 C   0  0  0  0  0  0  0  0  0  0  0  0
    0.1346    0.0924   -4.4182 H   0  0  0  0  0  0  0  0  0  0  0  0
    0.3234   -0.1903   -2.8218 H   0  0  0  0  0  0  0  0  0  0  0  0
    1.4011   -0.9125   -3.9113 H   0  0  0  0  0  0  0  0  0  0  0  0
    1.5867    1.2900   -3.5428 C   0  0  0  0  0  0  0  0  0  0  0  0
    2.6762    1.4172   -4.1483 O   0  0  0  0  0  1  0  0  0  0  0  0
    1.0505    2.2158   -2.9100 O   0  0  0  0  0  0  0  0  0  0  0  0
    0.0047    2.9291    0.0678 C   0  0  0  0  0  0  0  0  0  0  0  0
    0.8014    3.2461   -0.4450 H   0  0  0  0  0  0  0  0  0  0  0  0
    0.0955    3.1966    1.0265 H   0  0  0  0  0  0  0  0  0  0  0  0
   -0.8686    3.4426   -0.3343 H   0  0  0  0  0  0  0  0  0  0  0  0
    0.0003    1.4086    0.0147 C   0  0  0  0  0  0  0  0  0  0  0  0
   -1.1958    0.6933    0.0363 C   0  0  0  0  0  0  0  0  0  0  0  0
   -2.0631    1.1774    0.0761 H   0  0  0  0  0  0  0  0  0  0  0  0
   -1.1949   -0.7026   -0.0000 C   0  0  0  0  0  0  0  0  0  0  0  0
   -2.0738   -1.1947    0.0178 H   0  0  0  0  0  0  0  0  0  0  0  0
    0.0000   -1.3911   -0.0578 C   0  0  0  0  0  0  0  0  0  0  0  0
   -0.0037   -2.3902   -0.1420 H   0  0  0  0  0  0  0  0  0  0  0  0
    1.1949   -0.7019    0.0000 C   0  0  0  0  0  0  0  0  0  0  0  0
    2.0772   -1.1977    0.0394 H   0  0  0  0  0  0  0  0  0  0  0  0
    1.1955    0.6937    0.0069 C   0  0  0  0  0  0  0  0  0  0  0  0
    2.0656    1.1847    0.0056 H   0  0  0  0  0  0  0  0  0  0  0  0
  1  5  1  0
  5  6  1  0
  5  7  2  0
  1  2  1  0
  1  3  1  0
  1  4  1  0
  8 12  1  0
 12 13  2  0
 13 15  1  0
 15 17  2  0
 17 19  1  0
 19 21  2  0
 21 12  1  0
  8  9  1  0
  8 10  1  0
  8 11  1  0
 13 14  1  0
 15 16  1  0
 17 18  1  0
 19 20  1  0
 21 22  1  0
M  CHG  1   6  -1
M  END
>  <PDB_ID>  (2594) 
pdb5omb

>  <RESIDUE_NAME>  (2594) 
ASP   PHE

>  <FRAG_NAME>  (2594) 
ACET   MBZ

>  <FRAG_ATOM_NUM>  (2594) 
fragi: 7  fragj: 15

>  <atom.prop.CHAIN_ID>  (2594) 
A A A A A A A Z Z Z Z Z Z Z Z Z Z Z Z Z Z Z

>  <atom.prop.IS_HEAVY_ATOM>  (2594) 
1 0 0 0 1 1 1 1 0 0 0 1 1 0 1 0 1 0 1 0 1 0

>  <DIFUSE_FUNC_ATOM>  (2594) 
atom 6   atom 7   

>  <FINAL_SINGLE_POINT_ENERGY>  (2594) 
0

>  <NONCOV_INTER_ENERGY_QM>  (2594) 
0

>  <FF_Energy>  (2594) 
1.05

>  <QM_Energy>  (2594) 
-4.33

>  <source>  (2594) 
ACET_MBZ_03

>  <Index>  (2594) 
1200

$$$$
ACET-pdb5omb-B-ASP-52:MBZ-pdb5omb-B-PHE-11
     RDKit          3D

 22 21  0  0  0  0  0  0  0  0999 V2000
    0.5758   -0.1028   -3.7479 C   0  0  0  0  0  0  0  0  0  0  0  0
   -0.1418    0.0282   -4.4447 H   0  0  0  0  0  0  0  0  0  0  0  0
    0.1250   -0.2673   -2.8620 H   0  0  0  0  0  0  0  0  0  0  0  0
    1.1238   -1.0081   -4.0093 H   0  0  0  0  0  0  0  0  0  0  0  0
    1.3834    1.2025   -3.6406 C   0  0  0  0  0  0  0  0  0  0  0  0
    2.4734    1.2982   -4.2616 O   0  0  0  0  0  1  0  0  0  0  0  0
    0.8951    2.1435   -3.0027 O   0  0  0  0  0  0  0  0  0  0  0  0
    0.0016    2.9219    0.0420 C   0  0  0  0  0  0  0  0  0  0  0  0
    0.7526    3.2365   -0.5251 H   0  0  0  0  0  0  0  0  0  0  0  0
    0.1322    3.2007    0.9855 H   0  0  0  0  0  0  0  0  0  0  0  0
   -0.9103    3.3960   -0.3212 H   0  0  0  0  0  0  0  0  0  0  0  0
   -0.0007    1.4061    0.0057 C   0  0  0  0  0  0  0  0  0  0  0  0
   -1.1978    0.6909    0.0242 C   0  0  0  0  0  0  0  0  0  0  0  0
   -2.0652    1.1761    0.0535 H   0  0  0  0  0  0  0  0  0  0  0  0
   -1.1948   -0.7026    0.0000 C   0  0  0  0  0  0  0  0  0  0  0  0
   -2.0716   -1.1977    0.0054 H   0  0  0  0  0  0  0  0  0  0  0  0
    0.0035   -1.3870   -0.0294 C   0  0  0  0  0  0  0  0  0  0  0  0
   -0.0012   -2.3917   -0.0736 H   0  0  0  0  0  0  0  0  0  0  0  0
    1.1948   -0.7014    0.0000 C   0  0  0  0  0  0  0  0  0  0  0  0
    2.0794   -1.1955    0.0231 H   0  0  0  0  0  0  0  0  0  0  0  0
    1.1950    0.6940   -0.0004 C   0  0  0  0  0  0  0  0  0  0  0  0
    2.0646    1.1859   -0.0063 H   0  0  0  0  0  0  0  0  0  0  0  0
  1  5  1  0
  5  6  1  0
  5  7  2  0
  1  2  1  0
  1  3  1  0
  1  4  1  0
  8 12  1  0
 12 13  2  0
 13 15  1  0
 15 17  2  0
 17 19  1  0
 19 21  2  0
 21 12  1  0
  8  9  1  0
  8 10  1  0
  8 11  1  0
 13 14  1  0
 15 16  1  0
 17 18  1  0
 19 20  1  0
 21 22  1  0
M  CHG  1   6  -1
M  END
>  <PDB_ID>  (2595) 
pdb5omb

>  <RESIDUE_NAME>  (2595) 
ASP   PHE

>  <FRAG_NAME>  (2595) 
ACET   MBZ

>  <FRAG_ATOM_NUM>  (2595) 
fragi: 7  fragj: 15

>  <atom.prop.CHAIN_ID>  (2595) 
A A A A A A A Z Z Z Z Z Z Z Z Z Z Z Z Z Z Z

>  <atom.prop.IS_HEAVY_ATOM>  (2595) 
1 0 0 0 1 1 1 1 0 0 0 1 1 0 1 0 1 0 1 0 1 0

>  <DIFUSE_FUNC_ATOM>  (2595) 
atom 6   atom 7   

>  <FINAL_SINGLE_POINT_ENERGY>  (2595) 
0

>  <NONCOV_INTER_ENERGY_QM>  (2595) 
0

>  <FF_Energy>  (2595) 
1.03

>  <QM_Energy>  (2595) 
-4.2

>  <source>  (2595) 
ACET_MBZ_03

>  <Index>  (2595) 
1201

$$$$
ACET-pdb5oqd-B-GLU-693:MBZ-pdb5oqd-B-PHE-556
     RDKit          3D

 22 21  0  0  0  0  0  0  0  0999 V2000
    5.3009    0.1111   -0.6717 C   0  0  0  0  0  0  0  0  0  0  0  0
    5.1302    0.1671    0.3140 H   0  0  0  0  0  0  0  0  0  0  0  0
    5.8811    0.8795   -0.9479 H   0  0  0  0  0  0  0  0  0  0  0  0
    5.8574   -0.8075   -0.8574 H   0  0  0  0  0  0  0  0  0  0  0  0
    3.9880    0.2545   -1.3714 C   0  0  0  0  0  0  0  0  0  0  0  0
    3.5226   -0.5914   -2.1252 O   0  0  0  0  0  1  0  0  0  0  0  0
    3.4259    1.3379   -1.1142 O   0  0  0  0  0  0  0  0  0  0  0  0
   -0.0017    2.8797   -0.0203 C   0  0  0  0  0  0  0  0  0  0  0  0
   -0.8046    3.1796   -0.5211 H   0  0  0  0  0  0  0  0  0  0  0  0
    0.8275    3.1813   -0.4747 H   0  0  0  0  0  0  0  0  0  0  0  0
   -0.0300    3.3468    0.9641 H   0  0  0  0  0  0  0  0  0  0  0  0
   -0.0008    1.3874    0.0047 C   0  0  0  0  0  0  0  0  0  0  0  0
   -1.1832    0.6870   -0.0056 C   0  0  0  0  0  0  0  0  0  0  0  0
   -2.0545    1.1787   -0.0184 H   0  0  0  0  0  0  0  0  0  0  0  0
   -1.1885   -0.6896   -0.0000 C   0  0  0  0  0  0  0  0  0  0  0  0
   -2.0702   -1.1845    0.0032 H   0  0  0  0  0  0  0  0  0  0  0  0
   -0.0003   -1.3797    0.0030 C   0  0  0  0  0  0  0  0  0  0  0  0
   -0.0051   -2.3830    0.0065 H   0  0  0  0  0  0  0  0  0  0  0  0
    1.1885   -0.6907    0.0000 C   0  0  0  0  0  0  0  0  0  0  0  0
    2.0734   -1.1910    0.0012 H   0  0  0  0  0  0  0  0  0  0  0  0
    1.1843    0.6857   -0.0021 C   0  0  0  0  0  0  0  0  0  0  0  0
    2.0558    1.1839   -0.0093 H   0  0  0  0  0  0  0  0  0  0  0  0
  1  5  1  0
  5  6  1  0
  5  7  2  0
  1  2  1  0
  1  3  1  0
  1  4  1  0
  8 12  1  0
 12 13  2  0
 13 15  1  0
 15 17  2  0
 17 19  1  0
 19 21  2  0
 21 12  1  0
  8  9  1  0
  8 10  1  0
  8 11  1  0
 13 14  1  0
 15 16  1  0
 17 18  1  0
 19 20  1  0
 21 22  1  0
M  CHG  1   6  -1
M  END
>  <PDB_ID>  (2596) 
pdb5oqd

>  <RESIDUE_NAME>  (2596) 
GLU   PHE

>  <FRAG_NAME>  (2596) 
ACET   MBZ

>  <FRAG_ATOM_NUM>  (2596) 
fragi: 7  fragj: 15

>  <atom.prop.CHAIN_ID>  (2596) 
A A A A A A A Z Z Z Z Z Z Z Z Z Z Z Z Z Z Z

>  <atom.prop.IS_HEAVY_ATOM>  (2596) 
1 0 0 0 1 1 1 1 0 0 0 1 1 0 1 0 1 0 1 0 1 0

>  <DIFUSE_FUNC_ATOM>  (2596) 
atom 6   atom 7   

>  <FINAL_SINGLE_POINT_ENERGY>  (2596) 
0

>  <NONCOV_INTER_ENERGY_QM>  (2596) 
0

>  <FF_Energy>  (2596) 
44.23

>  <QM_Energy>  (2596) 
-0.22

>  <source>  (2596) 
ACET_MBZ_03

>  <Index>  (2596) 
1286

$$$$
ACET-pdb5oqd-E-GLU-648:MBZ-pdb5oqd-E-PHE-655
     RDKit          3D

 22 21  0  0  0  0  0  0  0  0999 V2000
    2.7957   -1.0185    2.6967 C   0  0  0  0  0  0  0  0  0  0  0  0
    2.6086   -0.7028    3.6286 H   0  0  0  0  0  0  0  0  0  0  0  0
    2.8037   -0.2320    2.0777 H   0  0  0  0  0  0  0  0  0  0  0  0
    3.7955   -1.4527    2.6916 H   0  0  0  0  0  0  0  0  0  0  0  0
    1.6739   -1.9152    2.2830 C   0  0  0  0  0  0  0  0  0  0  0  0
    1.8225   -3.0832    1.9485 O   0  0  0  0  0  1  0  0  0  0  0  0
    0.5685   -1.3364    2.3047 O   0  0  0  0  0  0  0  0  0  0  0  0
   -0.0005    2.8793   -0.0007 C   0  0  0  0  0  0  0  0  0  0  0  0
    0.7920    3.1889    0.5050 H   0  0  0  0  0  0  0  0  0  0  0  0
   -0.8397    3.1891    0.4234 H   0  0  0  0  0  0  0  0  0  0  0  0
    0.0493    3.3143   -0.9989 H   0  0  0  0  0  0  0  0  0  0  0  0
   -0.0008    1.3869    0.0010 C   0  0  0  0  0  0  0  0  0  0  0  0
   -1.1888    0.6878   -0.0004 C   0  0  0  0  0  0  0  0  0  0  0  0
   -2.0577    1.1818   -0.0028 H   0  0  0  0  0  0  0  0  0  0  0  0
   -1.1935   -0.6887   -0.0000 C   0  0  0  0  0  0  0  0  0  0  0  0
   -2.0719   -1.1866    0.0017 H   0  0  0  0  0  0  0  0  0  0  0  0
    0.0009   -1.3801    0.0004 C   0  0  0  0  0  0  0  0  0  0  0  0
   -0.0038   -2.3826    0.0006 H   0  0  0  0  0  0  0  0  0  0  0  0
    1.1935   -0.6903    0.0000 C   0  0  0  0  0  0  0  0  0  0  0  0
    2.0763   -1.1922    0.0019 H   0  0  0  0  0  0  0  0  0  0  0  0
    1.1888    0.6844   -0.0010 C   0  0  0  0  0  0  0  0  0  0  0  0
    2.0589    1.1863   -0.0041 H   0  0  0  0  0  0  0  0  0  0  0  0
  1  5  1  0
  5  6  1  0
  5  7  2  0
  1  2  1  0
  1  3  1  0
  1  4  1  0
  8 12  1  0
 12 13  2  0
 13 15  1  0
 15 17  2  0
 17 19  1  0
 19 21  2  0
 21 12  1  0
  8  9  1  0
  8 10  1  0
  8 11  1  0
 13 14  1  0
 15 16  1  0
 17 18  1  0
 19 20  1  0
 21 22  1  0
M  CHG  1   6  -1
M  END
>  <PDB_ID>  (2597) 
pdb5oqd

>  <RESIDUE_NAME>  (2597) 
GLU   PHE

>  <FRAG_NAME>  (2597) 
ACET   MBZ

>  <FRAG_ATOM_NUM>  (2597) 
fragi: 7  fragj: 15

>  <atom.prop.CHAIN_ID>  (2597) 
A A A A A A A Z Z Z Z Z Z Z Z Z Z Z Z Z Z Z

>  <atom.prop.IS_HEAVY_ATOM>  (2597) 
1 0 0 0 1 1 1 1 0 0 0 1 1 0 1 0 1 0 1 0 1 0

>  <DIFUSE_FUNC_ATOM>  (2597) 
atom 6   atom 7   

>  <FINAL_SINGLE_POINT_ENERGY>  (2597) 
0

>  <NONCOV_INTER_ENERGY_QM>  (2597) 
0

>  <FF_Energy>  (2597) 
44.42

>  <QM_Energy>  (2597) 
10.06

>  <source>  (2597) 
ACET_MBZ_03

>  <Index>  (2597) 
1292

$$$$
ACET-pdb5osn-C-GLU-54:MBZ-pdb5osn-A-PHE-264
     RDKit          3D

 22 21  0  0  0  0  0  0  0  0999 V2000
    4.8927    4.1152   -2.4585 C   0  0  0  0  0  0  0  0  0  0  0  0
    4.9869    5.0107   -2.8416 H   0  0  0  0  0  0  0  0  0  0  0  0
    5.1932    3.4069   -3.0637 H   0  0  0  0  0  0  0  0  0  0  0  0
    5.4883    4.0663   -1.5470 H   0  0  0  0  0  0  0  0  0  0  0  0
    3.3994    3.8858   -2.1941 C   0  0  0  0  0  0  0  0  0  0  0  0
    2.9292    4.1337   -1.0742 O   0  0  0  0  0  1  0  0  0  0  0  0
    2.6821    3.4686   -3.1162 O   0  0  0  0  0  0  0  0  0  0  0  0
   -0.0076    2.9333   -0.0449 C   0  0  0  0  0  0  0  0  0  0  0  0
    0.9225    3.2372   -0.1572 H   0  0  0  0  0  0  0  0  0  0  0  0
   -0.4030    3.2591    0.7967 H   0  0  0  0  0  0  0  0  0  0  0  0
   -0.5933    3.3425   -0.8681 H   0  0  0  0  0  0  0  0  0  0  0  0
   -0.0001    1.4173   -0.0009 C   0  0  0  0  0  0  0  0  0  0  0  0
   -1.1958    0.7052    0.0021 C   0  0  0  0  0  0  0  0  0  0  0  0
   -2.0656    1.1828    0.0045 H   0  0  0  0  0  0  0  0  0  0  0  0
   -1.1971   -0.7082   -0.0000 C   0  0  0  0  0  0  0  0  0  0  0  0
   -2.0795   -1.1907    0.0019 H   0  0  0  0  0  0  0  0  0  0  0  0
   -0.0018   -1.4052   -0.0023 C   0  0  0  0  0  0  0  0  0  0  0  0
   -0.0054   -2.4041   -0.0062 H   0  0  0  0  0  0  0  0  0  0  0  0
    1.1971   -0.7098    0.0000 C   0  0  0  0  0  0  0  0  0  0  0  0
    2.0818   -1.1996    0.0027 H   0  0  0  0  0  0  0  0  0  0  0  0
    1.1977    0.7007    0.0011 C   0  0  0  0  0  0  0  0  0  0  0  0
    2.0677    1.1859    0.0028 H   0  0  0  0  0  0  0  0  0  0  0  0
  1  5  1  0
  5  6  1  0
  5  7  2  0
  1  2  1  0
  1  3  1  0
  1  4  1  0
  8 12  1  0
 12 13  2  0
 13 15  1  0
 15 17  2  0
 17 19  1  0
 19 21  2  0
 21 12  1  0
  8  9  1  0
  8 10  1  0
  8 11  1  0
 13 14  1  0
 15 16  1  0
 17 18  1  0
 19 20  1  0
 21 22  1  0
M  CHG  1   6  -1
M  END
>  <PDB_ID>  (2598) 
pdb5osn

>  <RESIDUE_NAME>  (2598) 
GLU   PHE

>  <FRAG_NAME>  (2598) 
ACET   MBZ

>  <FRAG_ATOM_NUM>  (2598) 
fragi: 7  fragj: 15

>  <atom.prop.CHAIN_ID>  (2598) 
A A A A A A A Z Z Z Z Z Z Z Z Z Z Z Z Z Z Z

>  <atom.prop.IS_HEAVY_ATOM>  (2598) 
1 0 0 0 1 1 1 1 0 0 0 1 1 0 1 0 1 0 1 0 1 0

>  <DIFUSE_FUNC_ATOM>  (2598) 
atom 6   atom 7   

>  <FINAL_SINGLE_POINT_ENERGY>  (2598) 
0

>  <NONCOV_INTER_ENERGY_QM>  (2598) 
0

>  <FF_Energy>  (2598) 
-0.97

>  <QM_Energy>  (2598) 
-6.56

>  <source>  (2598) 
ACET_MBZ_03

>  <Index>  (2598) 
1308

$$$$
ACET-pdb5oyh-G-ASP-501:MBZ-pdb5oyh-G-PHE-461
     RDKit          3D

 22 21  0  0  0  0  0  0  0  0999 V2000
   -0.2754    0.5683   -3.4088 C   0  0  0  0  0  0  0  0  0  0  0  0
   -1.1351    1.0569   -3.4994 H   0  0  0  0  0  0  0  0  0  0  0  0
   -0.1858    0.1840   -2.4978 H   0  0  0  0  0  0  0  0  0  0  0  0
   -0.2780   -0.2544   -4.1238 H   0  0  0  0  0  0  0  0  0  0  0  0
    0.8733    1.5631   -3.6315 C   0  0  0  0  0  0  0  0  0  0  0  0
    1.8878    1.1800   -4.2555 O   0  0  0  0  0  1  0  0  0  0  0  0
    0.7719    2.7394   -3.1886 O   0  0  0  0  0  0  0  0  0  0  0  0
    0.0088    2.9241    0.0020 C   0  0  0  0  0  0  0  0  0  0  0  0
   -0.5645    3.2240   -0.7450 H   0  0  0  0  0  0  0  0  0  0  0  0
    0.9448    3.2162   -0.1211 H   0  0  0  0  0  0  0  0  0  0  0  0
   -0.3679    3.3746    0.9202 H   0  0  0  0  0  0  0  0  0  0  0  0
   -0.0007    1.4021    0.0047 C   0  0  0  0  0  0  0  0  0  0  0  0
   -1.1981    0.7045   -0.0050 C   0  0  0  0  0  0  0  0  0  0  0  0
   -2.0632    1.1905   -0.0166 H   0  0  0  0  0  0  0  0  0  0  0  0
   -1.2020   -0.6941    0.0000 C   0  0  0  0  0  0  0  0  0  0  0  0
   -2.0793   -1.1848    0.0084 H   0  0  0  0  0  0  0  0  0  0  0  0
   -0.0003   -1.3913   -0.0047 C   0  0  0  0  0  0  0  0  0  0  0  0
   -0.0111   -2.3935   -0.0123 H   0  0  0  0  0  0  0  0  0  0  0  0
    1.2020   -0.7058   -0.0000 C   0  0  0  0  0  0  0  0  0  0  0  0
    2.0807   -1.2044    0.0009 H   0  0  0  0  0  0  0  0  0  0  0  0
    1.1991    0.6847    0.0050 C   0  0  0  0  0  0  0  0  0  0  0  0
    2.0669    1.1814    0.0084 H   0  0  0  0  0  0  0  0  0  0  0  0
  1  5  1  0
  5  6  1  0
  5  7  2  0
  1  2  1  0
  1  3  1  0
  1  4  1  0
  8 12  1  0
 12 13  2  0
 13 15  1  0
 15 17  2  0
 17 19  1  0
 19 21  2  0
 21 12  1  0
  8  9  1  0
  8 10  1  0
  8 11  1  0
 13 14  1  0
 15 16  1  0
 17 18  1  0
 19 20  1  0
 21 22  1  0
M  CHG  1   6  -1
M  END
>  <PDB_ID>  (2599) 
pdb5oyh

>  <RESIDUE_NAME>  (2599) 
ASP   PHE

>  <FRAG_NAME>  (2599) 
ACET   MBZ

>  <FRAG_ATOM_NUM>  (2599) 
fragi: 7  fragj: 15

>  <atom.prop.CHAIN_ID>  (2599) 
A A A A A A A Z Z Z Z Z Z Z Z Z Z Z Z Z Z Z

>  <atom.prop.IS_HEAVY_ATOM>  (2599) 
1 0 0 0 1 1 1 1 0 0 0 1 1 0 1 0 1 0 1 0 1 0

>  <DIFUSE_FUNC_ATOM>  (2599) 
atom 6   atom 7   

>  <FINAL_SINGLE_POINT_ENERGY>  (2599) 
0

>  <NONCOV_INTER_ENERGY_QM>  (2599) 
0

>  <FF_Energy>  (2599) 
0.58

>  <QM_Energy>  (2599) 
-4.44

>  <source>  (2599) 
ACET_MBZ_03

>  <Index>  (2599) 
1395

$$$$
ACET-pdb5oya-D-GLU-64:MBZ-pdb5oya-D-PHE-131
     RDKit          3D

 22 21  0  0  0  0  0  0  0  0999 V2000
    0.5443   -3.2427   -2.5805 C   0  0  0  0  0  0  0  0  0  0  0  0
    1.1345   -3.6590   -3.2601 H   0  0  0  0  0  0  0  0  0  0  0  0
    0.9405   -2.3984   -2.2412 H   0  0  0  0  0  0  0  0  0  0  0  0
   -0.4081   -3.0067   -3.0551 H   0  0  0  0  0  0  0  0  0  0  0  0
    0.4602   -4.2064   -1.4035 C   0  0  0  0  0  0  0  0  0  0  0  0
   -0.6563   -4.5567   -0.9408 O   0  0  0  0  0  1  0  0  0  0  0  0
    1.5410   -4.5853   -0.8952 O   0  0  0  0  0  0  0  0  0  0  0  0
   -0.0292    2.8308    0.0244 C   0  0  0  0  0  0  0  0  0  0  0  0
   -0.6420    3.1708   -0.6677 H   0  0  0  0  0  0  0  0  0  0  0  0
    0.8851    3.1775   -0.0895 H   0  0  0  0  0  0  0  0  0  0  0  0
   -0.3956    3.1829    0.9887 H   0  0  0  0  0  0  0  0  0  0  0  0
   -0.0007    1.3744   -0.0340 C   0  0  0  0  0  0  0  0  0  0  0  0
   -1.1997    0.6806    0.0195 C   0  0  0  0  0  0  0  0  0  0  0  0
   -2.0595    1.1788    0.0709 H   0  0  0  0  0  0  0  0  0  0  0  0
   -1.2118   -0.7011   -0.0000 C   0  0  0  0  0  0  0  0  0  0  0  0
   -2.0728   -1.2014   -0.0172 H   0  0  0  0  0  0  0  0  0  0  0  0
    0.0063   -1.3722    0.0077 C   0  0  0  0  0  0  0  0  0  0  0  0
    0.0146   -2.3782    0.0184 H   0  0  0  0  0  0  0  0  0  0  0  0
    1.2118   -0.6732   -0.0000 C   0  0  0  0  0  0  0  0  0  0  0  0
    2.0881   -1.1793   -0.0087 H   0  0  0  0  0  0  0  0  0  0  0  0
    1.1940    0.6916    0.0068 C   0  0  0  0  0  0  0  0  0  0  0  0
    2.0558    1.2056    0.0411 H   0  0  0  0  0  0  0  0  0  0  0  0
  1  5  1  0
  5  6  1  0
  5  7  2  0
  1  2  1  0
  1  3  1  0
  1  4  1  0
  8 12  1  0
 12 13  2  0
 13 15  1  0
 15 17  2  0
 17 19  1  0
 19 21  2  0
 21 12  1  0
  8  9  1  0
  8 10  1  0
  8 11  1  0
 13 14  1  0
 15 16  1  0
 17 18  1  0
 19 20  1  0
 21 22  1  0
M  CHG  1   6  -1
M  END
>  <PDB_ID>  (2600) 
pdb5oya

>  <RESIDUE_NAME>  (2600) 
GLU   PHE

>  <FRAG_NAME>  (2600) 
ACET   MBZ

>  <FRAG_ATOM_NUM>  (2600) 
fragi: 7  fragj: 15

>  <atom.prop.CHAIN_ID>  (2600) 
A A A A A A A Z Z Z Z Z Z Z Z Z Z Z Z Z Z Z

>  <atom.prop.IS_HEAVY_ATOM>  (2600) 
1 0 0 0 1 1 1 1 0 0 0 1 1 0 1 0 1 0 1 0 1 0

>  <DIFUSE_FUNC_ATOM>  (2600) 
atom 6   atom 7   

>  <FINAL_SINGLE_POINT_ENERGY>  (2600) 
0

>  <NONCOV_INTER_ENERGY_QM>  (2600) 
0

>  <FF_Energy>  (2600) 
0.57

>  <QM_Energy>  (2600) 
-4.73

>  <source>  (2600) 
ACET_MBZ_03

>  <Index>  (2600) 
1416

$$$$
ACET-pdb5swu-A-ASP-1088:MBZ-pdb5swu-A-PHE-1100
     RDKit          3D

 22 21  0  0  0  0  0  0  0  0999 V2000
    1.0446    1.1877   -3.5896 C   0  0  0  0  0  0  0  0  0  0  0  0
    1.6288    1.1691   -2.7841 H   0  0  0  0  0  0  0  0  0  0  0  0
    1.5792    1.4161   -4.3971 H   0  0  0  0  0  0  0  0  0  0  0  0
    0.6239    0.1918   -3.7291 H   0  0  0  0  0  0  0  0  0  0  0  0
   -0.0145    2.2932   -3.3870 C   0  0  0  0  0  0  0  0  0  0  0  0
   -1.2405    2.0816   -3.5168 O   0  0  0  0  0  1  0  0  0  0  0  0
    0.4157    3.4250   -3.0945 O   0  0  0  0  0  0  0  0  0  0  0  0
    0.0017    2.9084   -0.0078 C   0  0  0  0  0  0  0  0  0  0  0  0
   -0.6870    3.2095   -0.6517 H   0  0  0  0  0  0  0  0  0  0  0  0
    0.9033    3.2106   -0.2813 H   0  0  0  0  0  0  0  0  0  0  0  0
   -0.2233    3.3622    0.9574 H   0  0  0  0  0  0  0  0  0  0  0  0
   -0.0002    1.4049    0.0058 C   0  0  0  0  0  0  0  0  0  0  0  0
   -1.1883    0.7014    0.0045 C   0  0  0  0  0  0  0  0  0  0  0  0
   -2.0594    1.1890    0.0056 H   0  0  0  0  0  0  0  0  0  0  0  0
   -1.1983   -0.6927   -0.0000 C   0  0  0  0  0  0  0  0  0  0  0  0
   -2.0784   -1.1814    0.0001 H   0  0  0  0  0  0  0  0  0  0  0  0
    0.0002   -1.3999   -0.0031 C   0  0  0  0  0  0  0  0  0  0  0  0
   -0.0107   -2.3958   -0.0084 H   0  0  0  0  0  0  0  0  0  0  0  0
    1.1983   -0.7052   -0.0000 C   0  0  0  0  0  0  0  0  0  0  0  0
    2.0806   -1.1967    0.0087 H   0  0  0  0  0  0  0  0  0  0  0  0
    1.1883    0.6916   -0.0071 C   0  0  0  0  0  0  0  0  0  0  0  0
    2.0621    1.1845   -0.0226 H   0  0  0  0  0  0  0  0  0  0  0  0
  1  5  1  0
  5  6  1  0
  5  7  2  0
  1  2  1  0
  1  3  1  0
  1  4  1  0
  8 12  1  0
 12 13  2  0
 13 15  1  0
 15 17  2  0
 17 19  1  0
 19 21  2  0
 21 12  1  0
  8  9  1  0
  8 10  1  0
  8 11  1  0
 13 14  1  0
 15 16  1  0
 17 18  1  0
 19 20  1  0
 21 22  1  0
M  CHG  1   6  -1
M  END
>  <PDB_ID>  (2601) 
pdb5swu

>  <RESIDUE_NAME>  (2601) 
ASP   PHE

>  <FRAG_NAME>  (2601) 
ACET   MBZ

>  <FRAG_ATOM_NUM>  (2601) 
fragi: 7  fragj: 15

>  <atom.prop.CHAIN_ID>  (2601) 
A A A A A A A Z Z Z Z Z Z Z Z Z Z Z Z Z Z Z

>  <atom.prop.IS_HEAVY_ATOM>  (2601) 
1 0 0 0 1 1 1 1 0 0 0 1 1 0 1 0 1 0 1 0 1 0

>  <DIFUSE_FUNC_ATOM>  (2601) 
atom 6   atom 7   

>  <FINAL_SINGLE_POINT_ENERGY>  (2601) 
0

>  <NONCOV_INTER_ENERGY_QM>  (2601) 
0

>  <FF_Energy>  (2601) 
0.26

>  <QM_Energy>  (2601) 
-5.22

>  <source>  (2601) 
ACET_MBZ_03

>  <Index>  (2601) 
1539

$$$$
ACET-pdb5swu-B-ASP-1088:MBZ-pdb5swu-B-PHE-1100
     RDKit          3D

 22 21  0  0  0  0  0  0  0  0999 V2000
    0.8874    1.3377   -3.7108 C   0  0  0  0  0  0  0  0  0  0  0  0
    1.6335    1.2787   -3.0479 H   0  0  0  0  0  0  0  0  0  0  0  0
    1.2534    1.6069   -4.6004 H   0  0  0  0  0  0  0  0  0  0  0  0
    0.4444    0.3469   -3.8119 H   0  0  0  0  0  0  0  0  0  0  0  0
   -0.0867    2.3840   -3.2503 C   0  0  0  0  0  0  0  0  0  0  0  0
   -1.3288    2.1858   -3.2726 O   0  0  0  0  0  1  0  0  0  0  0  0
    0.4397    3.4410   -2.8622 O   0  0  0  0  0  0  0  0  0  0  0  0
   -0.0038    2.9012    0.0418 C   0  0  0  0  0  0  0  0  0  0  0  0
   -0.7216    3.2256   -0.5526 H   0  0  0  0  0  0  0  0  0  0  0  0
    0.8831    3.2214   -0.2514 H   0  0  0  0  0  0  0  0  0  0  0  0
   -0.1896    3.3037    1.0376 H   0  0  0  0  0  0  0  0  0  0  0  0
    0.0001    1.4039   -0.0038 C   0  0  0  0  0  0  0  0  0  0  0  0
   -1.1928    0.6941   -0.0015 C   0  0  0  0  0  0  0  0  0  0  0  0
   -2.0617    1.1832   -0.0026 H   0  0  0  0  0  0  0  0  0  0  0  0
   -1.1963   -0.6960    0.0000 C   0  0  0  0  0  0  0  0  0  0  0  0
   -2.0757   -1.1893    0.0084 H   0  0  0  0  0  0  0  0  0  0  0  0
    0.0017   -1.3954   -0.0080 C   0  0  0  0  0  0  0  0  0  0  0  0
   -0.0061   -2.3935   -0.0200 H   0  0  0  0  0  0  0  0  0  0  0  0
    1.1963   -0.7010    0.0000 C   0  0  0  0  0  0  0  0  0  0  0  0
    2.0808   -1.1940   -0.0019 H   0  0  0  0  0  0  0  0  0  0  0  0
    1.1910    0.6944    0.0134 C   0  0  0  0  0  0  0  0  0  0  0  0
    2.0624    1.1866    0.0351 H   0  0  0  0  0  0  0  0  0  0  0  0
  1  5  1  0
  5  6  1  0
  5  7  2  0
  1  2  1  0
  1  3  1  0
  1  4  1  0
  8 12  1  0
 12 13  2  0
 13 15  1  0
 15 17  2  0
 17 19  1  0
 19 21  2  0
 21 12  1  0
  8  9  1  0
  8 10  1  0
  8 11  1  0
 13 14  1  0
 15 16  1  0
 17 18  1  0
 19 20  1  0
 21 22  1  0
M  CHG  1   6  -1
M  END
>  <PDB_ID>  (2602) 
pdb5swu

>  <RESIDUE_NAME>  (2602) 
ASP   PHE

>  <FRAG_NAME>  (2602) 
ACET   MBZ

>  <FRAG_ATOM_NUM>  (2602) 
fragi: 7  fragj: 15

>  <atom.prop.CHAIN_ID>  (2602) 
A A A A A A A Z Z Z Z Z Z Z Z Z Z Z Z Z Z Z

>  <atom.prop.IS_HEAVY_ATOM>  (2602) 
1 0 0 0 1 1 1 1 0 0 0 1 1 0 1 0 1 0 1 0 1 0

>  <DIFUSE_FUNC_ATOM>  (2602) 
atom 6   atom 7   

>  <FINAL_SINGLE_POINT_ENERGY>  (2602) 
0

>  <NONCOV_INTER_ENERGY_QM>  (2602) 
0

>  <FF_Energy>  (2602) 
1.29

>  <QM_Energy>  (2602) 
-5.51

>  <source>  (2602) 
ACET_MBZ_03

>  <Index>  (2602) 
1541

$$$$
ACET-pdb5svd-A-GLU-188:MBZ-pdb5svd-A-PHE-133
     RDKit          3D

 22 21  0  0  0  0  0  0  0  0999 V2000
    4.5240    4.3891    0.7249 C   0  0  0  0  0  0  0  0  0  0  0  0
    3.8962    5.1171    0.9498 H   0  0  0  0  0  0  0  0  0  0  0  0
    5.3867    4.7437    0.4007 H   0  0  0  0  0  0  0  0  0  0  0  0
    4.7091    3.8049    1.6262 H   0  0  0  0  0  0  0  0  0  0  0  0
    3.9015    3.5946   -0.4256 C   0  0  0  0  0  0  0  0  0  0  0  0
    3.1363    4.2223   -1.2074 O   0  0  0  0  0  1  0  0  0  0  0  0
    4.2057    2.3807   -0.5530 O   0  0  0  0  0  0  0  0  0  0  0  0
    0.0155    2.8993    0.0153 C   0  0  0  0  0  0  0  0  0  0  0  0
    0.9527    3.1947    0.1139 H   0  0  0  0  0  0  0  0  0  0  0  0
   -0.5420    3.2010    0.7732 H   0  0  0  0  0  0  0  0  0  0  0  0
   -0.3858    3.3364   -0.8991 H   0  0  0  0  0  0  0  0  0  0  0  0
    0.0048    1.3977    0.0059 C   0  0  0  0  0  0  0  0  0  0  0  0
   -1.1963    0.6927   -0.0044 C   0  0  0  0  0  0  0  0  0  0  0  0
   -2.0597    1.1861   -0.0162 H   0  0  0  0  0  0  0  0  0  0  0  0
   -1.2001   -0.6947   -0.0000 C   0  0  0  0  0  0  0  0  0  0  0  0
   -2.0784   -1.1890    0.0029 H   0  0  0  0  0  0  0  0  0  0  0  0
   -0.0025   -1.3899    0.0021 C   0  0  0  0  0  0  0  0  0  0  0  0
   -0.0046   -2.3887    0.0048 H   0  0  0  0  0  0  0  0  0  0  0  0
    1.2001   -0.6938    0.0000 C   0  0  0  0  0  0  0  0  0  0  0  0
    2.0799   -1.1959    0.0022 H   0  0  0  0  0  0  0  0  0  0  0  0
    1.1940    0.6881   -0.0036 C   0  0  0  0  0  0  0  0  0  0  0  0
    2.0660    1.1872   -0.0143 H   0  0  0  0  0  0  0  0  0  0  0  0
  1  5  1  0
  5  6  1  0
  5  7  2  0
  1  2  1  0
  1  3  1  0
  1  4  1  0
  8 12  1  0
 12 13  2  0
 13 15  1  0
 15 17  2  0
 17 19  1  0
 19 21  2  0
 21 12  1  0
  8  9  1  0
  8 10  1  0
  8 11  1  0
 13 14  1  0
 15 16  1  0
 17 18  1  0
 19 20  1  0
 21 22  1  0
M  CHG  1   6  -1
M  END
>  <PDB_ID>  (2603) 
pdb5svd

>  <RESIDUE_NAME>  (2603) 
GLU   PHE

>  <FRAG_NAME>  (2603) 
ACET   MBZ

>  <FRAG_ATOM_NUM>  (2603) 
fragi: 7  fragj: 15

>  <atom.prop.CHAIN_ID>  (2603) 
A A A A A A A Z Z Z Z Z Z Z Z Z Z Z Z Z Z Z

>  <atom.prop.IS_HEAVY_ATOM>  (2603) 
1 0 0 0 1 1 1 1 0 0 0 1 1 0 1 0 1 0 1 0 1 0

>  <DIFUSE_FUNC_ATOM>  (2603) 
atom 6   atom 7   

>  <FINAL_SINGLE_POINT_ENERGY>  (2603) 
0

>  <NONCOV_INTER_ENERGY_QM>  (2603) 
0

>  <FF_Energy>  (2603) 
-2.77

>  <QM_Energy>  (2603) 
-7.82

>  <source>  (2603) 
ACET_MBZ_03

>  <Index>  (2603) 
1664

$$$$
ACET-pdb5t5q-B-GLU-215:MBZ-pdb5t5q-A-PHE-230
     RDKit          3D

 22 21  0  0  0  0  0  0  0  0999 V2000
   -0.5447    4.6788   -3.7775 C   0  0  0  0  0  0  0  0  0  0  0  0
   -0.9359    5.5483   -3.5316 H   0  0  0  0  0  0  0  0  0  0  0  0
   -0.4955    4.5603   -4.7549 H   0  0  0  0  0  0  0  0  0  0  0  0
    0.4682    4.6367   -3.3771 H   0  0  0  0  0  0  0  0  0  0  0  0
   -1.4536    3.5954   -3.2301 C   0  0  0  0  0  0  0  0  0  0  0  0
   -2.4280    3.9427   -2.5285 O   0  0  0  0  0  1  0  0  0  0  0  0
   -1.1875    2.4038   -3.4813 O   0  0  0  0  0  0  0  0  0  0  0  0
   -0.0084    2.9210    0.0143 C   0  0  0  0  0  0  0  0  0  0  0  0
   -0.3883    3.2289   -0.8416 H   0  0  0  0  0  0  0  0  0  0  0  0
    0.9203    3.2285    0.1356 H   0  0  0  0  0  0  0  0  0  0  0  0
   -0.6097    3.3412    0.8204 H   0  0  0  0  0  0  0  0  0  0  0  0
    0.0015    1.4090    0.0000 C   0  0  0  0  0  0  0  0  0  0  0  0
   -1.1960    0.6939   -0.0127 C   0  0  0  0  0  0  0  0  0  0  0  0
   -2.0641    1.1796   -0.0328 H   0  0  0  0  0  0  0  0  0  0  0  0
   -1.2006   -0.7062   -0.0000 C   0  0  0  0  0  0  0  0  0  0  0  0
   -2.0782   -1.1944    0.0039 H   0  0  0  0  0  0  0  0  0  0  0  0
   -0.0001   -1.3994    0.0088 C   0  0  0  0  0  0  0  0  0  0  0  0
    0.0014   -2.3968    0.0203 H   0  0  0  0  0  0  0  0  0  0  0  0
    1.2006   -0.6969    0.0000 C   0  0  0  0  0  0  0  0  0  0  0  0
    2.0835   -1.1913   -0.0080 H   0  0  0  0  0  0  0  0  0  0  0  0
    1.1946    0.6996    0.0039 C   0  0  0  0  0  0  0  0  0  0  0  0
    2.0658    1.1924    0.0087 H   0  0  0  0  0  0  0  0  0  0  0  0
  1  5  1  0
  5  6  1  0
  5  7  2  0
  1  2  1  0
  1  3  1  0
  1  4  1  0
  8 12  1  0
 12 13  2  0
 13 15  1  0
 15 17  2  0
 17 19  1  0
 19 21  2  0
 21 12  1  0
  8  9  1  0
  8 10  1  0
  8 11  1  0
 13 14  1  0
 15 16  1  0
 17 18  1  0
 19 20  1  0
 21 22  1  0
M  CHG  1   6  -1
M  END
>  <PDB_ID>  (2604) 
pdb5t5q

>  <RESIDUE_NAME>  (2604) 
GLU   PHE

>  <FRAG_NAME>  (2604) 
ACET   MBZ

>  <FRAG_ATOM_NUM>  (2604) 
fragi: 7  fragj: 15

>  <atom.prop.CHAIN_ID>  (2604) 
A A A A A A A Z Z Z Z Z Z Z Z Z Z Z Z Z Z Z

>  <atom.prop.IS_HEAVY_ATOM>  (2604) 
1 0 0 0 1 1 1 1 0 0 0 1 1 0 1 0 1 0 1 0 1 0

>  <DIFUSE_FUNC_ATOM>  (2604) 
atom 6   atom 7   

>  <FINAL_SINGLE_POINT_ENERGY>  (2604) 
0

>  <NONCOV_INTER_ENERGY_QM>  (2604) 
0

>  <FF_Energy>  (2604) 
0.44

>  <QM_Energy>  (2604) 
-4.72

>  <source>  (2604) 
ACET_MBZ_03

>  <Index>  (2604) 
1694

$$$$
ACET-pdb5t5q-A-GLU-215:MBZ-pdb5t5q-B-PHE-230
     RDKit          3D

 22 21  0  0  0  0  0  0  0  0999 V2000
   -0.7431    4.8226   -3.6915 C   0  0  0  0  0  0  0  0  0  0  0  0
   -1.1009    5.6719   -3.3495 H   0  0  0  0  0  0  0  0  0  0  0  0
   -0.7883    4.7662   -4.6720 H   0  0  0  0  0  0  0  0  0  0  0  0
    0.3025    4.7488   -3.3926 H   0  0  0  0  0  0  0  0  0  0  0  0
   -1.6020    3.7018   -3.1277 C   0  0  0  0  0  0  0  0  0  0  0  0
   -2.5336    3.9939   -2.3391 O   0  0  0  0  0  1  0  0  0  0  0  0
   -1.3428    2.5242   -3.4919 O   0  0  0  0  0  0  0  0  0  0  0  0
   -0.0040    2.9158    0.0051 C   0  0  0  0  0  0  0  0  0  0  0  0
   -0.4064    3.2242   -0.8413 H   0  0  0  0  0  0  0  0  0  0  0  0
    0.9302    3.2207    0.0968 H   0  0  0  0  0  0  0  0  0  0  0  0
   -0.5775    3.3500    0.8240 H   0  0  0  0  0  0  0  0  0  0  0  0
   -0.0031    1.4044   -0.0026 C   0  0  0  0  0  0  0  0  0  0  0  0
   -1.1976    0.6991   -0.0104 C   0  0  0  0  0  0  0  0  0  0  0  0
   -2.0657    1.1851   -0.0252 H   0  0  0  0  0  0  0  0  0  0  0  0
   -1.2020   -0.6975    0.0000 C   0  0  0  0  0  0  0  0  0  0  0  0
   -2.0762   -1.1910    0.0042 H   0  0  0  0  0  0  0  0  0  0  0  0
    0.0052   -1.3962    0.0066 C   0  0  0  0  0  0  0  0  0  0  0  0
   -0.0006   -2.3928    0.0157 H   0  0  0  0  0  0  0  0  0  0  0  0
    1.2020   -0.6976   -0.0000 C   0  0  0  0  0  0  0  0  0  0  0  0
    2.0856   -1.1955   -0.0077 H   0  0  0  0  0  0  0  0  0  0  0  0
    1.1955    0.6878    0.0065 C   0  0  0  0  0  0  0  0  0  0  0  0
    2.0633    1.1886    0.0169 H   0  0  0  0  0  0  0  0  0  0  0  0
  1  5  1  0
  5  6  1  0
  5  7  2  0
  1  2  1  0
  1  3  1  0
  1  4  1  0
  8 12  1  0
 12 13  2  0
 13 15  1  0
 15 17  2  0
 17 19  1  0
 19 21  2  0
 21 12  1  0
  8  9  1  0
  8 10  1  0
  8 11  1  0
 13 14  1  0
 15 16  1  0
 17 18  1  0
 19 20  1  0
 21 22  1  0
M  CHG  1   6  -1
M  END
>  <PDB_ID>  (2605) 
pdb5t5q

>  <RESIDUE_NAME>  (2605) 
GLU   PHE

>  <FRAG_NAME>  (2605) 
ACET   MBZ

>  <FRAG_ATOM_NUM>  (2605) 
fragi: 7  fragj: 15

>  <atom.prop.CHAIN_ID>  (2605) 
A A A A A A A Z Z Z Z Z Z Z Z Z Z Z Z Z Z Z

>  <atom.prop.IS_HEAVY_ATOM>  (2605) 
1 0 0 0 1 1 1 1 0 0 0 1 1 0 1 0 1 0 1 0 1 0

>  <DIFUSE_FUNC_ATOM>  (2605) 
atom 6   atom 7   

>  <FINAL_SINGLE_POINT_ENERGY>  (2605) 
0

>  <NONCOV_INTER_ENERGY_QM>  (2605) 
0

>  <FF_Energy>  (2605) 
0.26

>  <QM_Energy>  (2605) 
-4.88

>  <source>  (2605) 
ACET_MBZ_03

>  <Index>  (2605) 
1697

$$$$
ACET-pdb5t9a-A-GLU-684:MBZ-pdb5t9a-A-PHE-698
     RDKit          3D

 22 21  0  0  0  0  0  0  0  0999 V2000
   -3.1266   -0.7327   -2.7213 C   0  0  0  0  0  0  0  0  0  0  0  0
   -2.4081   -0.3529   -2.1389 H   0  0  0  0  0  0  0  0  0  0  0  0
   -3.9920   -0.2733   -2.5244 H   0  0  0  0  0  0  0  0  0  0  0  0
   -2.8631   -0.5149   -3.7563 H   0  0  0  0  0  0  0  0  0  0  0  0
   -3.2861   -2.1788   -2.3663 C   0  0  0  0  0  0  0  0  0  0  0  0
   -3.1370   -3.0970   -3.1593 O   0  0  0  0  0  1  0  0  0  0  0  0
   -3.5999   -2.3410   -1.1683 O   0  0  0  0  0  0  0  0  0  0  0  0
   -0.0021    2.8980   -0.0013 C   0  0  0  0  0  0  0  0  0  0  0  0
    0.7395    3.2070    0.5754 H   0  0  0  0  0  0  0  0  0  0  0  0
   -0.8775    3.2037    0.3423 H   0  0  0  0  0  0  0  0  0  0  0  0
    0.1395    3.3352   -0.9897 H   0  0  0  0  0  0  0  0  0  0  0  0
    0.0004    1.3991   -0.0002 C   0  0  0  0  0  0  0  0  0  0  0  0
   -1.1977    0.6877    0.0014 C   0  0  0  0  0  0  0  0  0  0  0  0
   -2.0632    1.1805    0.0021 H   0  0  0  0  0  0  0  0  0  0  0  0
   -1.2030   -0.6990    0.0000 C   0  0  0  0  0  0  0  0  0  0  0  0
   -2.0786   -1.1937    0.0021 H   0  0  0  0  0  0  0  0  0  0  0  0
   -0.0020   -1.3901   -0.0020 C   0  0  0  0  0  0  0  0  0  0  0  0
   -0.0012   -2.3892   -0.0057 H   0  0  0  0  0  0  0  0  0  0  0  0
    1.2030   -0.6913   -0.0000 C   0  0  0  0  0  0  0  0  0  0  0  0
    2.0820   -1.1933    0.0030 H   0  0  0  0  0  0  0  0  0  0  0  0
    1.1993    0.6936    0.0008 C   0  0  0  0  0  0  0  0  0  0  0  0
    2.0653    1.1933    0.0013 H   0  0  0  0  0  0  0  0  0  0  0  0
  1  5  1  0
  5  6  1  0
  5  7  2  0
  1  2  1  0
  1  3  1  0
  1  4  1  0
  8 12  1  0
 12 13  2  0
 13 15  1  0
 15 17  2  0
 17 19  1  0
 19 21  2  0
 21 12  1  0
  8  9  1  0
  8 10  1  0
  8 11  1  0
 13 14  1  0
 15 16  1  0
 17 18  1  0
 19 20  1  0
 21 22  1  0
M  CHG  1   6  -1
M  END
>  <PDB_ID>  (2606) 
pdb5t9a

>  <RESIDUE_NAME>  (2606) 
GLU   PHE

>  <FRAG_NAME>  (2606) 
ACET   MBZ

>  <FRAG_ATOM_NUM>  (2606) 
fragi: 7  fragj: 15

>  <atom.prop.CHAIN_ID>  (2606) 
A A A A A A A Z Z Z Z Z Z Z Z Z Z Z Z Z Z Z

>  <atom.prop.IS_HEAVY_ATOM>  (2606) 
1 0 0 0 1 1 1 1 0 0 0 1 1 0 1 0 1 0 1 0 1 0

>  <DIFUSE_FUNC_ATOM>  (2606) 
atom 6   atom 7   

>  <FINAL_SINGLE_POINT_ENERGY>  (2606) 
0

>  <NONCOV_INTER_ENERGY_QM>  (2606) 
0

>  <FF_Energy>  (2606) 
0.41

>  <QM_Energy>  (2606) 
-4.83

>  <source>  (2606) 
ACET_MBZ_03

>  <Index>  (2606) 
1829

$$$$
ACET-pdb5t9a-B-ASP-602:MBZ-pdb5t9a-B-PHE-606
     RDKit          3D

 22 21  0  0  0  0  0  0  0  0999 V2000
    4.0233    4.9680   -2.4740 C   0  0  0  0  0  0  0  0  0  0  0  0
    4.8829    4.5423   -2.7403 H   0  0  0  0  0  0  0  0  0  0  0  0
    4.1832    5.6510   -1.7682 H   0  0  0  0  0  0  0  0  0  0  0  0
    3.6262    5.4831   -3.3487 H   0  0  0  0  0  0  0  0  0  0  0  0
    3.0948    3.9041   -1.9285 C   0  0  0  0  0  0  0  0  0  0  0  0
    2.4395    3.1860   -2.7198 O   0  0  0  0  0  1  0  0  0  0  0  0
    3.0386    3.7855   -0.6809 O   0  0  0  0  0  0  0  0  0  0  0  0
    0.0125    2.9139    0.0060 C   0  0  0  0  0  0  0  0  0  0  0  0
    0.9433    3.2157   -0.1592 H   0  0  0  0  0  0  0  0  0  0  0  0
   -0.3004    3.2119    0.8991 H   0  0  0  0  0  0  0  0  0  0  0  0
   -0.6239    3.3893   -0.7404 H   0  0  0  0  0  0  0  0  0  0  0  0
    0.0007    1.4063   -0.0121 C   0  0  0  0  0  0  0  0  0  0  0  0
   -1.1985    0.6918    0.0070 C   0  0  0  0  0  0  0  0  0  0  0  0
   -2.0646    1.1825    0.0246 H   0  0  0  0  0  0  0  0  0  0  0  0
   -1.2021   -0.6984   -0.0000 C   0  0  0  0  0  0  0  0  0  0  0  0
   -2.0784   -1.1923   -0.0011 H   0  0  0  0  0  0  0  0  0  0  0  0
   -0.0010   -1.3932   -0.0029 C   0  0  0  0  0  0  0  0  0  0  0  0
   -0.0040   -2.3925   -0.0078 H   0  0  0  0  0  0  0  0  0  0  0  0
    1.2021   -0.6980    0.0000 C   0  0  0  0  0  0  0  0  0  0  0  0
    2.0822   -1.1976   -0.0017 H   0  0  0  0  0  0  0  0  0  0  0  0
    1.1987    0.6914    0.0080 C   0  0  0  0  0  0  0  0  0  0  0  0
    2.0671    1.1889    0.0274 H   0  0  0  0  0  0  0  0  0  0  0  0
  1  5  1  0
  5  6  1  0
  5  7  2  0
  1  2  1  0
  1  3  1  0
  1  4  1  0
  8 12  1  0
 12 13  2  0
 13 15  1  0
 15 17  2  0
 17 19  1  0
 19 21  2  0
 21 12  1  0
  8  9  1  0
  8 10  1  0
  8 11  1  0
 13 14  1  0
 15 16  1  0
 17 18  1  0
 19 20  1  0
 21 22  1  0
M  CHG  1   6  -1
M  END
>  <PDB_ID>  (2607) 
pdb5t9a

>  <RESIDUE_NAME>  (2607) 
ASP   PHE

>  <FRAG_NAME>  (2607) 
ACET   MBZ

>  <FRAG_ATOM_NUM>  (2607) 
fragi: 7  fragj: 15

>  <atom.prop.CHAIN_ID>  (2607) 
A A A A A A A Z Z Z Z Z Z Z Z Z Z Z Z Z Z Z

>  <atom.prop.IS_HEAVY_ATOM>  (2607) 
1 0 0 0 1 1 1 1 0 0 0 1 1 0 1 0 1 0 1 0 1 0

>  <DIFUSE_FUNC_ATOM>  (2607) 
atom 6   atom 7   

>  <FINAL_SINGLE_POINT_ENERGY>  (2607) 
0

>  <NONCOV_INTER_ENERGY_QM>  (2607) 
0

>  <FF_Energy>  (2607) 
-0.23

>  <QM_Energy>  (2607) 
-7.9

>  <source>  (2607) 
ACET_MBZ_03

>  <Index>  (2607) 
1836

$$$$
ACET-pdb5t9a-C-ASP-602:MBZ-pdb5t9a-C-PHE-606
     RDKit          3D

 22 21  0  0  0  0  0  0  0  0999 V2000
    3.9886    4.8632   -2.6717 C   0  0  0  0  0  0  0  0  0  0  0  0
    4.8430    4.4110   -2.9063 H   0  0  0  0  0  0  0  0  0  0  0  0
    4.1491    5.5767   -1.9983 H   0  0  0  0  0  0  0  0  0  0  0  0
    3.6057    5.3382   -3.5749 H   0  0  0  0  0  0  0  0  0  0  0  0
    3.0375    3.8176   -2.0568 C   0  0  0  0  0  0  0  0  0  0  0  0
    1.9610    3.5233   -2.6192 O   0  0  0  0  0  1  0  0  0  0  0  0
    3.3809    3.2861   -0.9746 O   0  0  0  0  0  0  0  0  0  0  0  0
    0.0139    2.9123    0.0103 C   0  0  0  0  0  0  0  0  0  0  0  0
    0.9428    3.2108   -0.1666 H   0  0  0  0  0  0  0  0  0  0  0  0
   -0.2878    3.2084    0.9074 H   0  0  0  0  0  0  0  0  0  0  0  0
   -0.6317    3.3866   -0.7288 H   0  0  0  0  0  0  0  0  0  0  0  0
   -0.0009    1.4027   -0.0091 C   0  0  0  0  0  0  0  0  0  0  0  0
   -1.1957    0.6940    0.0043 C   0  0  0  0  0  0  0  0  0  0  0  0
   -2.0623    1.1854    0.0159 H   0  0  0  0  0  0  0  0  0  0  0  0
   -1.1991   -0.6923    0.0000 C   0  0  0  0  0  0  0  0  0  0  0  0
   -2.0771   -1.1875   -0.0009 H   0  0  0  0  0  0  0  0  0  0  0  0
   -0.0006   -1.3913   -0.0009 C   0  0  0  0  0  0  0  0  0  0  0  0
   -0.0091   -2.3904   -0.0025 H   0  0  0  0  0  0  0  0  0  0  0  0
    1.1991   -0.7007   -0.0000 C   0  0  0  0  0  0  0  0  0  0  0  0
    2.0800   -1.2006   -0.0021 H   0  0  0  0  0  0  0  0  0  0  0  0
    1.1973    0.6876    0.0057 C   0  0  0  0  0  0  0  0  0  0  0  0
    2.0658    1.1849    0.0198 H   0  0  0  0  0  0  0  0  0  0  0  0
  1  5  1  0
  5  6  1  0
  5  7  2  0
  1  2  1  0
  1  3  1  0
  1  4  1  0
  8 12  1  0
 12 13  2  0
 13 15  1  0
 15 17  2  0
 17 19  1  0
 19 21  2  0
 21 12  1  0
  8  9  1  0
  8 10  1  0
  8 11  1  0
 13 14  1  0
 15 16  1  0
 17 18  1  0
 19 20  1  0
 21 22  1  0
M  CHG  1   6  -1
M  END
>  <PDB_ID>  (2608) 
pdb5t9a

>  <RESIDUE_NAME>  (2608) 
ASP   PHE

>  <FRAG_NAME>  (2608) 
ACET   MBZ

>  <FRAG_ATOM_NUM>  (2608) 
fragi: 7  fragj: 15

>  <atom.prop.CHAIN_ID>  (2608) 
A A A A A A A Z Z Z Z Z Z Z Z Z Z Z Z Z Z Z

>  <atom.prop.IS_HEAVY_ATOM>  (2608) 
1 0 0 0 1 1 1 1 0 0 0 1 1 0 1 0 1 0 1 0 1 0

>  <DIFUSE_FUNC_ATOM>  (2608) 
atom 6   atom 7   

>  <FINAL_SINGLE_POINT_ENERGY>  (2608) 
0

>  <NONCOV_INTER_ENERGY_QM>  (2608) 
0

>  <FF_Energy>  (2608) 
-1.48

>  <QM_Energy>  (2608) 
-8.32

>  <source>  (2608) 
ACET_MBZ_03

>  <Index>  (2608) 
1849

$$$$
ACET-pdb5t9a-C-GLU-684:MBZ-pdb5t9a-C-PHE-698
     RDKit          3D

 22 21  0  0  0  0  0  0  0  0999 V2000
   -4.2532   -0.5956    0.6613 C   0  0  0  0  0  0  0  0  0  0  0  0
   -3.2816   -0.3722    0.5646 H   0  0  0  0  0  0  0  0  0  0  0  0
   -4.6481   -0.0352    1.3908 H   0  0  0  0  0  0  0  0  0  0  0  0
   -4.7481   -0.3224   -0.2705 H   0  0  0  0  0  0  0  0  0  0  0  0
   -4.3540   -2.0279    1.0789 C   0  0  0  0  0  0  0  0  0  0  0  0
   -4.9496   -2.8833    0.4386 O   0  0  0  0  0  1  0  0  0  0  0  0
   -3.7717   -2.2504    2.1596 O   0  0  0  0  0  0  0  0  0  0  0  0
   -0.0063    2.9136    0.0010 C   0  0  0  0  0  0  0  0  0  0  0  0
    0.9313    3.2210   -0.0286 H   0  0  0  0  0  0  0  0  0  0  0  0
   -0.4612    3.2142    0.8240 H   0  0  0  0  0  0  0  0  0  0  0  0
   -0.5290    3.3507   -0.8498 H   0  0  0  0  0  0  0  0  0  0  0  0
   -0.0000    1.4040   -0.0007 C   0  0  0  0  0  0  0  0  0  0  0  0
   -1.1992    0.6886    0.0031 C   0  0  0  0  0  0  0  0  0  0  0  0
   -2.0652    1.1800    0.0065 H   0  0  0  0  0  0  0  0  0  0  0  0
   -1.2024   -0.7000   -0.0000 C   0  0  0  0  0  0  0  0  0  0  0  0
   -2.0772   -1.1956    0.0001 H   0  0  0  0  0  0  0  0  0  0  0  0
   -0.0005   -1.3918   -0.0016 C   0  0  0  0  0  0  0  0  0  0  0  0
   -0.0017   -2.3915   -0.0043 H   0  0  0  0  0  0  0  0  0  0  0  0
    1.2024   -0.6949    0.0000 C   0  0  0  0  0  0  0  0  0  0  0  0
    2.0821   -1.1945    0.0035 H   0  0  0  0  0  0  0  0  0  0  0  0
    1.1997    0.6942   -0.0009 C   0  0  0  0  0  0  0  0  0  0  0  0
    2.0666    1.1914   -0.0027 H   0  0  0  0  0  0  0  0  0  0  0  0
  1  5  1  0
  5  6  1  0
  5  7  2  0
  1  2  1  0
  1  3  1  0
  1  4  1  0
  8 12  1  0
 12 13  2  0
 13 15  1  0
 15 17  2  0
 17 19  1  0
 19 21  2  0
 21 12  1  0
  8  9  1  0
  8 10  1  0
  8 11  1  0
 13 14  1  0
 15 16  1  0
 17 18  1  0
 19 20  1  0
 21 22  1  0
M  CHG  1   6  -1
M  END
>  <PDB_ID>  (2609) 
pdb5t9a

>  <RESIDUE_NAME>  (2609) 
GLU   PHE

>  <FRAG_NAME>  (2609) 
ACET   MBZ

>  <FRAG_ATOM_NUM>  (2609) 
fragi: 7  fragj: 15

>  <atom.prop.CHAIN_ID>  (2609) 
A A A A A A A Z Z Z Z Z Z Z Z Z Z Z Z Z Z Z

>  <atom.prop.IS_HEAVY_ATOM>  (2609) 
1 0 0 0 1 1 1 1 0 0 0 1 1 0 1 0 1 0 1 0 1 0

>  <DIFUSE_FUNC_ATOM>  (2609) 
atom 6   atom 7   

>  <FINAL_SINGLE_POINT_ENERGY>  (2609) 
0

>  <NONCOV_INTER_ENERGY_QM>  (2609) 
0

>  <FF_Energy>  (2609) 
27.25

>  <QM_Energy>  (2609) 
2.77

>  <source>  (2609) 
ACET_MBZ_03

>  <Index>  (2609) 
1851

$$$$
ACET-pdb5ta1-A-ASP-204:MBZ-pdb5ta1-A-PHE-139
     RDKit          3D

 22 21  0  0  0  0  0  0  0  0999 V2000
   -0.4503    0.1339    3.3892 C   0  0  0  0  0  0  0  0  0  0  0  0
    0.3766    0.1747    2.8480 H   0  0  0  0  0  0  0  0  0  0  0  0
   -1.1541   -0.3873    2.9313 H   0  0  0  0  0  0  0  0  0  0  0  0
   -0.2140   -0.3688    4.3271 H   0  0  0  0  0  0  0  0  0  0  0  0
   -0.9599    1.5555    3.6124 C   0  0  0  0  0  0  0  0  0  0  0  0
   -2.0223    1.7152    4.2472 O   0  0  0  0  0  1  0  0  0  0  0  0
   -0.2873    2.5103    3.1733 O   0  0  0  0  0  0  0  0  0  0  0  0
    0.0183    2.8937    0.0101 C   0  0  0  0  0  0  0  0  0  0  0  0
    0.7427    3.1912    0.6137 H   0  0  0  0  0  0  0  0  0  0  0  0
   -0.8648    3.2102    0.3231 H   0  0  0  0  0  0  0  0  0  0  0  0
    0.2009    3.3234   -0.9748 H   0  0  0  0  0  0  0  0  0  0  0  0
    0.0016    1.4003    0.0074 C   0  0  0  0  0  0  0  0  0  0  0  0
   -1.2013    0.6954   -0.0032 C   0  0  0  0  0  0  0  0  0  0  0  0
   -2.0629    1.1875   -0.0141 H   0  0  0  0  0  0  0  0  0  0  0  0
   -1.2010   -0.6906    0.0000 C   0  0  0  0  0  0  0  0  0  0  0  0
   -2.0771   -1.1891    0.0059 H   0  0  0  0  0  0  0  0  0  0  0  0
    0.0017   -1.3904   -0.0035 C   0  0  0  0  0  0  0  0  0  0  0  0
   -0.0082   -2.3898   -0.0089 H   0  0  0  0  0  0  0  0  0  0  0  0
    1.2010   -0.7003   -0.0000 C   0  0  0  0  0  0  0  0  0  0  0  0
    2.0819   -1.2003    0.0048 H   0  0  0  0  0  0  0  0  0  0  0  0
    1.1980    0.6855   -0.0007 C   0  0  0  0  0  0  0  0  0  0  0  0
    2.0668    1.1841   -0.0075 H   0  0  0  0  0  0  0  0  0  0  0  0
  1  5  1  0
  5  6  1  0
  5  7  2  0
  1  2  1  0
  1  3  1  0
  1  4  1  0
  8 12  1  0
 12 13  2  0
 13 15  1  0
 15 17  2  0
 17 19  1  0
 19 21  2  0
 21 12  1  0
  8  9  1  0
  8 10  1  0
  8 11  1  0
 13 14  1  0
 15 16  1  0
 17 18  1  0
 19 20  1  0
 21 22  1  0
M  CHG  1   6  -1
M  END
>  <PDB_ID>  (2610) 
pdb5ta1

>  <RESIDUE_NAME>  (2610) 
ASP   PHE

>  <FRAG_NAME>  (2610) 
ACET   MBZ

>  <FRAG_ATOM_NUM>  (2610) 
fragi: 7  fragj: 15

>  <atom.prop.CHAIN_ID>  (2610) 
A A A A A A A Z Z Z Z Z Z Z Z Z Z Z Z Z Z Z

>  <atom.prop.IS_HEAVY_ATOM>  (2610) 
1 0 0 0 1 1 1 1 0 0 0 1 1 0 1 0 1 0 1 0 1 0

>  <DIFUSE_FUNC_ATOM>  (2610) 
atom 6   atom 7   

>  <FINAL_SINGLE_POINT_ENERGY>  (2610) 
0

>  <NONCOV_INTER_ENERGY_QM>  (2610) 
0

>  <FF_Energy>  (2610) 
0.76

>  <QM_Energy>  (2610) 
-4.65

>  <source>  (2610) 
ACET_MBZ_03

>  <Index>  (2610) 
1879

$$$$
ACET-pdb5tl8-A-GLU-154:MBZ-pdb5tl8-A-PHE-180
     RDKit          3D

 22 21  0  0  0  0  0  0  0  0999 V2000
    2.1449    4.9878   -2.4566 C   0  0  0  0  0  0  0  0  0  0  0  0
    2.9342    5.5707   -2.5352 H   0  0  0  0  0  0  0  0  0  0  0  0
    1.5974    5.2124   -1.6693 H   0  0  0  0  0  0  0  0  0  0  0  0
    1.5347    5.1067   -3.3518 H   0  0  0  0  0  0  0  0  0  0  0  0
    2.6547    3.5622   -2.2591 C   0  0  0  0  0  0  0  0  0  0  0  0
    2.1092    2.6366   -2.8921 O   0  0  0  0  0  1  0  0  0  0  0  0
    3.5809    3.3615   -1.4527 O   0  0  0  0  0  0  0  0  0  0  0  0
   -0.0109    2.8965    0.0494 C   0  0  0  0  0  0  0  0  0  0  0  0
   -0.6691    3.2135   -0.6153 H   0  0  0  0  0  0  0  0  0  0  0  0
    0.8999    3.2159   -0.1629 H   0  0  0  0  0  0  0  0  0  0  0  0
   -0.2921    3.2946    1.0244 H   0  0  0  0  0  0  0  0  0  0  0  0
    0.0051    1.3933    0.0008 C   0  0  0  0  0  0  0  0  0  0  0  0
   -1.1843    0.6959   -0.0069 C   0  0  0  0  0  0  0  0  0  0  0  0
   -2.0527    1.1896   -0.0185 H   0  0  0  0  0  0  0  0  0  0  0  0
   -1.1930   -0.6867   -0.0000 C   0  0  0  0  0  0  0  0  0  0  0  0
   -2.0830   -1.1727    0.0141 H   0  0  0  0  0  0  0  0  0  0  0  0
   -0.0170   -1.3885   -0.0103 C   0  0  0  0  0  0  0  0  0  0  0  0
   -0.0231   -2.3897   -0.0255 H   0  0  0  0  0  0  0  0  0  0  0  0
    1.1930   -0.7048    0.0000 C   0  0  0  0  0  0  0  0  0  0  0  0
    2.0676   -1.2068   -0.0025 H   0  0  0  0  0  0  0  0  0  0  0  0
    1.1962    0.6908    0.0165 C   0  0  0  0  0  0  0  0  0  0  0  0
    2.0659    1.1790    0.0391 H   0  0  0  0  0  0  0  0  0  0  0  0
  1  5  1  0
  5  6  1  0
  5  7  2  0
  1  2  1  0
  1  3  1  0
  1  4  1  0
  8 12  1  0
 12 13  2  0
 13 15  1  0
 15 17  2  0
 17 19  1  0
 19 21  2  0
 21 12  1  0
  8  9  1  0
  8 10  1  0
  8 11  1  0
 13 14  1  0
 15 16  1  0
 17 18  1  0
 19 20  1  0
 21 22  1  0
M  CHG  1   6  -1
M  END
>  <PDB_ID>  (2611) 
pdb5tl8

>  <RESIDUE_NAME>  (2611) 
GLU   PHE

>  <FRAG_NAME>  (2611) 
ACET   MBZ

>  <FRAG_ATOM_NUM>  (2611) 
fragi: 7  fragj: 15

>  <atom.prop.CHAIN_ID>  (2611) 
A A A A A A A Z Z Z Z Z Z Z Z Z Z Z Z Z Z Z

>  <atom.prop.IS_HEAVY_ATOM>  (2611) 
1 0 0 0 1 1 1 1 0 0 0 1 1 0 1 0 1 0 1 0 1 0

>  <DIFUSE_FUNC_ATOM>  (2611) 
atom 6   atom 7   

>  <FINAL_SINGLE_POINT_ENERGY>  (2611) 
0

>  <NONCOV_INTER_ENERGY_QM>  (2611) 
0

>  <FF_Energy>  (2611) 
-0.81

>  <QM_Energy>  (2611) 
-6.04

>  <source>  (2611) 
ACET_MBZ_03

>  <Index>  (2611) 
2263

$$$$
ACET-pdb5tpu-D-GLU-24:MBZ-pdb5tpu-C-PHE-115
     RDKit          3D

 22 21  0  0  0  0  0  0  0  0999 V2000
   -4.9117    2.5812   -0.6802 C   0  0  0  0  0  0  0  0  0  0  0  0
   -4.7916    2.8296   -1.6240 H   0  0  0  0  0  0  0  0  0  0  0  0
   -5.7555    2.9263   -0.3094 H   0  0  0  0  0  0  0  0  0  0  0  0
   -4.8960    1.4950   -0.5907 H   0  0  0  0  0  0  0  0  0  0  0  0
   -3.7944    3.2011    0.0937 C   0  0  0  0  0  0  0  0  0  0  0  0
   -3.4715    2.9077    1.2687 O   0  0  0  0  0  1  0  0  0  0  0  0
   -3.2119    4.0391   -0.5287 O   0  0  0  0  0  0  0  0  0  0  0  0
   -0.0002    2.9279   -0.0689 C   0  0  0  0  0  0  0  0  0  0  0  0
    0.8889    3.2450    0.2173 H   0  0  0  0  0  0  0  0  0  0  0  0
   -0.7148    3.2590    0.5260 H   0  0  0  0  0  0  0  0  0  0  0  0
   -0.1879    3.3334   -1.0631 H   0  0  0  0  0  0  0  0  0  0  0  0
   -0.0017    1.4172   -0.0098 C   0  0  0  0  0  0  0  0  0  0  0  0
   -1.1803    0.7135   -0.0126 C   0  0  0  0  0  0  0  0  0  0  0  0
   -2.0573    1.1978   -0.0257 H   0  0  0  0  0  0  0  0  0  0  0  0
   -1.1959   -0.6851   -0.0000 C   0  0  0  0  0  0  0  0  0  0  0  0
   -2.0880   -1.1641   -0.0178 H   0  0  0  0  0  0  0  0  0  0  0  0
   -0.0131   -1.4136    0.0377 C   0  0  0  0  0  0  0  0  0  0  0  0
   -0.0289   -2.4001    0.0893 H   0  0  0  0  0  0  0  0  0  0  0  0
    1.1959   -0.7186    0.0000 C   0  0  0  0  0  0  0  0  0  0  0  0
    2.0735   -1.2146   -0.0148 H   0  0  0  0  0  0  0  0  0  0  0  0
    1.1951    0.6865   -0.0153 C   0  0  0  0  0  0  0  0  0  0  0  0
    2.0683    1.1749   -0.0307 H   0  0  0  0  0  0  0  0  0  0  0  0
  1  5  1  0
  5  6  1  0
  5  7  2  0
  1  2  1  0
  1  3  1  0
  1  4  1  0
  8 12  1  0
 12 13  2  0
 13 15  1  0
 15 17  2  0
 17 19  1  0
 19 21  2  0
 21 12  1  0
  8  9  1  0
  8 10  1  0
  8 11  1  0
 13 14  1  0
 15 16  1  0
 17 18  1  0
 19 20  1  0
 21 22  1  0
M  CHG  1   6  -1
M  END
>  <PDB_ID>  (2612) 
pdb5tpu

>  <RESIDUE_NAME>  (2612) 
GLU   PHE

>  <FRAG_NAME>  (2612) 
ACET   MBZ

>  <FRAG_ATOM_NUM>  (2612) 
fragi: 7  fragj: 15

>  <atom.prop.CHAIN_ID>  (2612) 
A A A A A A A Z Z Z Z Z Z Z Z Z Z Z Z Z Z Z

>  <atom.prop.IS_HEAVY_ATOM>  (2612) 
1 0 0 0 1 1 1 1 0 0 0 1 1 0 1 0 1 0 1 0 1 0

>  <DIFUSE_FUNC_ATOM>  (2612) 
atom 6   atom 7   

>  <FINAL_SINGLE_POINT_ENERGY>  (2612) 
0

>  <NONCOV_INTER_ENERGY_QM>  (2612) 
0

>  <FF_Energy>  (2612) 
-2.19

>  <QM_Energy>  (2612) 
-8.38

>  <source>  (2612) 
ACET_MBZ_03

>  <Index>  (2612) 
2369

$$$$
ACET-pdb5tr4-C-GLU-1004:MBZ-pdb5tr4-C-PHE-1019
     RDKit          3D

 22 21  0  0  0  0  0  0  0  0999 V2000
    4.1024   -0.2951   -0.7254 C   0  0  0  0  0  0  0  0  0  0  0  0
    3.1175   -0.1382   -0.6401 H   0  0  0  0  0  0  0  0  0  0  0  0
    4.4709    0.3011   -1.4402 H   0  0  0  0  0  0  0  0  0  0  0  0
    4.5656   -0.0077    0.2185 H   0  0  0  0  0  0  0  0  0  0  0  0
    4.3032   -1.7115   -1.1641 C   0  0  0  0  0  0  0  0  0  0  0  0
    4.9446   -2.5377   -0.5290 O   0  0  0  0  0  1  0  0  0  0  0  0
    3.7524   -1.9530   -2.2579 O   0  0  0  0  0  0  0  0  0  0  0  0
   -0.0079    2.8927   -0.0259 C   0  0  0  0  0  0  0  0  0  0  0  0
   -0.8191    3.1925   -0.5286 H   0  0  0  0  0  0  0  0  0  0  0  0
    0.8135    3.2040   -0.5066 H   0  0  0  0  0  0  0  0  0  0  0  0
   -0.0245    3.3928    0.9424 H   0  0  0  0  0  0  0  0  0  0  0  0
    0.0025    1.3994   -0.0084 C   0  0  0  0  0  0  0  0  0  0  0  0
   -1.1982    0.6931   -0.0087 C   0  0  0  0  0  0  0  0  0  0  0  0
   -2.0637    1.1946   -0.0174 H   0  0  0  0  0  0  0  0  0  0  0  0
   -1.2192   -0.6925   -0.0000 C   0  0  0  0  0  0  0  0  0  0  0  0
   -2.0891   -1.1855   -0.0099 H   0  0  0  0  0  0  0  0  0  0  0  0
   -0.0073   -1.3903    0.0262 C   0  0  0  0  0  0  0  0  0  0  0  0
   -0.0124   -2.3900    0.0624 H   0  0  0  0  0  0  0  0  0  0  0  0
    1.2192   -0.7014   -0.0000 C   0  0  0  0  0  0  0  0  0  0  0  0
    2.0843   -1.2021   -0.0087 H   0  0  0  0  0  0  0  0  0  0  0  0
    1.2029    0.6918   -0.0092 C   0  0  0  0  0  0  0  0  0  0  0  0
    2.0701    1.1935   -0.0192 H   0  0  0  0  0  0  0  0  0  0  0  0
  1  5  1  0
  5  6  1  0
  5  7  2  0
  1  2  1  0
  1  3  1  0
  1  4  1  0
  8 12  1  0
 12 13  2  0
 13 15  1  0
 15 17  2  0
 17 19  1  0
 19 21  2  0
 21 12  1  0
  8  9  1  0
  8 10  1  0
  8 11  1  0
 13 14  1  0
 15 16  1  0
 17 18  1  0
 19 20  1  0
 21 22  1  0
M  CHG  1   6  -1
M  END
>  <PDB_ID>  (2613) 
pdb5tr4

>  <RESIDUE_NAME>  (2613) 
GLU   PHE

>  <FRAG_NAME>  (2613) 
ACET   MBZ

>  <FRAG_ATOM_NUM>  (2613) 
fragi: 7  fragj: 15

>  <atom.prop.CHAIN_ID>  (2613) 
A A A A A A A Z Z Z Z Z Z Z Z Z Z Z Z Z Z Z

>  <atom.prop.IS_HEAVY_ATOM>  (2613) 
1 0 0 0 1 1 1 1 0 0 0 1 1 0 1 0 1 0 1 0 1 0

>  <DIFUSE_FUNC_ATOM>  (2613) 
atom 6   atom 7   

>  <FINAL_SINGLE_POINT_ENERGY>  (2613) 
0

>  <NONCOV_INTER_ENERGY_QM>  (2613) 
0

>  <FF_Energy>  (2613) 
35.82

>  <QM_Energy>  (2613) 
5.37

>  <source>  (2613) 
ACET_MBZ_03

>  <Index>  (2613) 
2420

$$$$
ACET-pdb5ts5-B-ASP-181:MBZ-pdb5ts5-B-PHE-438
     RDKit          3D

 22 21  0  0  0  0  0  0  0  0999 V2000
    3.3569    4.2479    2.6404 C   0  0  0  0  0  0  0  0  0  0  0  0
    2.7738    3.5788    3.0889 H   0  0  0  0  0  0  0  0  0  0  0  0
    3.1388    5.1640    2.9565 H   0  0  0  0  0  0  0  0  0  0  0  0
    4.3890    4.0331    2.9175 H   0  0  0  0  0  0  0  0  0  0  0  0
    3.1175    4.1779    1.1428 C   0  0  0  0  0  0  0  0  0  0  0  0
    3.2984    3.0910    0.5565 O   0  0  0  0  0  1  0  0  0  0  0  0
    2.7258    5.2094    0.5561 O   0  0  0  0  0  0  0  0  0  0  0  0
   -0.0028    2.9014    0.0069 C   0  0  0  0  0  0  0  0  0  0  0  0
    0.9044    3.2056    0.2577 H   0  0  0  0  0  0  0  0  0  0  0  0
   -0.6771    3.2013    0.6658 H   0  0  0  0  0  0  0  0  0  0  0  0
   -0.2526    3.3512   -0.9540 H   0  0  0  0  0  0  0  0  0  0  0  0
   -0.0008    1.3965   -0.0033 C   0  0  0  0  0  0  0  0  0  0  0  0
   -1.1918    0.6898    0.0023 C   0  0  0  0  0  0  0  0  0  0  0  0
   -2.0604    1.1803    0.0067 H   0  0  0  0  0  0  0  0  0  0  0  0
   -1.1950   -0.6952    0.0000 C   0  0  0  0  0  0  0  0  0  0  0  0
   -2.0738   -1.1903   -0.0003 H   0  0  0  0  0  0  0  0  0  0  0  0
    0.0006   -1.3868   -0.0006 C   0  0  0  0  0  0  0  0  0  0  0  0
   -0.0032   -2.3885   -0.0023 H   0  0  0  0  0  0  0  0  0  0  0  0
    1.1950   -0.6939   -0.0000 C   0  0  0  0  0  0  0  0  0  0  0  0
    2.0788   -1.1927    0.0007 H   0  0  0  0  0  0  0  0  0  0  0  0
    1.1920    0.6896    0.0016 C   0  0  0  0  0  0  0  0  0  0  0  0
    2.0612    1.1872    0.0058 H   0  0  0  0  0  0  0  0  0  0  0  0
  1  5  1  0
  5  6  1  0
  5  7  2  0
  1  2  1  0
  1  3  1  0
  1  4  1  0
  8 12  1  0
 12 13  2  0
 13 15  1  0
 15 17  2  0
 17 19  1  0
 19 21  2  0
 21 12  1  0
  8  9  1  0
  8 10  1  0
  8 11  1  0
 13 14  1  0
 15 16  1  0
 17 18  1  0
 19 20  1  0
 21 22  1  0
M  CHG  1   6  -1
M  END
>  <PDB_ID>  (2614) 
pdb5ts5

>  <RESIDUE_NAME>  (2614) 
ASP   PHE

>  <FRAG_NAME>  (2614) 
ACET   MBZ

>  <FRAG_ATOM_NUM>  (2614) 
fragi: 7  fragj: 15

>  <atom.prop.CHAIN_ID>  (2614) 
A A A A A A A Z Z Z Z Z Z Z Z Z Z Z Z Z Z Z

>  <atom.prop.IS_HEAVY_ATOM>  (2614) 
1 0 0 0 1 1 1 1 0 0 0 1 1 0 1 0 1 0 1 0 1 0

>  <DIFUSE_FUNC_ATOM>  (2614) 
atom 6   atom 7   

>  <FINAL_SINGLE_POINT_ENERGY>  (2614) 
0

>  <NONCOV_INTER_ENERGY_QM>  (2614) 
0

>  <FF_Energy>  (2614) 
-1.31

>  <QM_Energy>  (2614) 
-8.85

>  <source>  (2614) 
ACET_MBZ_03

>  <Index>  (2614) 
2455

$$$$
ACET-pdb5tt0-A-ASP-29:MBZ-pdb5tt0-A-PHE-24
     RDKit          3D

 22 21  0  0  0  0  0  0  0  0999 V2000
    3.9709    4.8421    0.1195 C   0  0  0  0  0  0  0  0  0  0  0  0
    2.9819    4.9587    0.1744 H   0  0  0  0  0  0  0  0  0  0  0  0
    4.2539    4.7949   -0.8352 H   0  0  0  0  0  0  0  0  0  0  0  0
    4.4392    5.7184    0.5677 H   0  0  0  0  0  0  0  0  0  0  0  0
    4.3444    3.5455    0.8011 C   0  0  0  0  0  0  0  0  0  0  0  0
    3.7604    2.5314    0.3821 O   0  0  0  0  0  1  0  0  0  0  0  0
    5.1828    3.5362    1.7368 O   0  0  0  0  0  0  0  0  0  0  0  0
   -0.0151    2.9299    0.0082 C   0  0  0  0  0  0  0  0  0  0  0  0
   -0.6724    3.2294   -0.6608 H   0  0  0  0  0  0  0  0  0  0  0  0
    0.8957    3.2367   -0.2064 H   0  0  0  0  0  0  0  0  0  0  0  0
   -0.2962    3.3535    0.9724 H   0  0  0  0  0  0  0  0  0  0  0  0
   -0.0044    1.4083   -0.0047 C   0  0  0  0  0  0  0  0  0  0  0  0
   -1.1940    0.6969    0.0157 C   0  0  0  0  0  0  0  0  0  0  0  0
   -2.0666    1.1755    0.0407 H   0  0  0  0  0  0  0  0  0  0  0  0
   -1.1991   -0.7115    0.0000 C   0  0  0  0  0  0  0  0  0  0  0  0
   -2.0753   -1.1962   -0.0037 H   0  0  0  0  0  0  0  0  0  0  0  0
    0.0023   -1.3981   -0.0085 C   0  0  0  0  0  0  0  0  0  0  0  0
    0.0048   -2.3984   -0.0209 H   0  0  0  0  0  0  0  0  0  0  0  0
    1.1991   -0.6974   -0.0000 C   0  0  0  0  0  0  0  0  0  0  0  0
    2.0839   -1.1900    0.0093 H   0  0  0  0  0  0  0  0  0  0  0  0
    1.1960    0.7018   -0.0025 C   0  0  0  0  0  0  0  0  0  0  0  0
    2.0627    1.1946   -0.0040 H   0  0  0  0  0  0  0  0  0  0  0  0
  1  5  1  0
  5  6  1  0
  5  7  2  0
  1  2  1  0
  1  3  1  0
  1  4  1  0
  8 12  1  0
 12 13  2  0
 13 15  1  0
 15 17  2  0
 17 19  1  0
 19 21  2  0
 21 12  1  0
  8  9  1  0
  8 10  1  0
  8 11  1  0
 13 14  1  0
 15 16  1  0
 17 18  1  0
 19 20  1  0
 21 22  1  0
M  CHG  1   6  -1
M  END
>  <PDB_ID>  (2615) 
pdb5tt0

>  <RESIDUE_NAME>  (2615) 
ASP   PHE

>  <FRAG_NAME>  (2615) 
ACET   MBZ

>  <FRAG_ATOM_NUM>  (2615) 
fragi: 7  fragj: 15

>  <atom.prop.CHAIN_ID>  (2615) 
A A A A A A A Z Z Z Z Z Z Z Z Z Z Z Z Z Z Z

>  <atom.prop.IS_HEAVY_ATOM>  (2615) 
1 0 0 0 1 1 1 1 0 0 0 1 1 0 1 0 1 0 1 0 1 0

>  <DIFUSE_FUNC_ATOM>  (2615) 
atom 6   atom 7   

>  <FINAL_SINGLE_POINT_ENERGY>  (2615) 
0

>  <NONCOV_INTER_ENERGY_QM>  (2615) 
0

>  <FF_Energy>  (2615) 
-0.77

>  <QM_Energy>  (2615) 
-7.59

>  <source>  (2615) 
ACET_MBZ_03

>  <Index>  (2615) 
2477

$$$$
ACET-pdb5tt0-B-ASP-29:MBZ-pdb5tt0-B-PHE-24
     RDKit          3D

 22 21  0  0  0  0  0  0  0  0999 V2000
    3.9926    4.7868    0.1616 C   0  0  0  0  0  0  0  0  0  0  0  0
    3.0134    4.8785    0.3143 H   0  0  0  0  0  0  0  0  0  0  0  0
    4.1918    4.7983   -0.8127 H   0  0  0  0  0  0  0  0  0  0  0  0
    4.4870    5.6441    0.6183 H   0  0  0  0  0  0  0  0  0  0  0  0
    4.4536    3.4659    0.7381 C   0  0  0  0  0  0  0  0  0  0  0  0
    5.2847    3.4749    1.6750 O   0  0  0  0  0  1  0  0  0  0  0  0
    3.9738    2.4275    0.2389 O   0  0  0  0  0  0  0  0  0  0  0  0
   -0.0128    2.9302    0.0150 C   0  0  0  0  0  0  0  0  0  0  0  0
   -0.6772    3.2388   -0.6417 H   0  0  0  0  0  0  0  0  0  0  0  0
    0.8952    3.2390   -0.2018 H   0  0  0  0  0  0  0  0  0  0  0  0
   -0.2850    3.3380    0.9885 H   0  0  0  0  0  0  0  0  0  0  0  0
   -0.0037    1.4100   -0.0146 C   0  0  0  0  0  0  0  0  0  0  0  0
   -1.1999    0.6950    0.0007 C   0  0  0  0  0  0  0  0  0  0  0  0
   -2.0688    1.1784    0.0115 H   0  0  0  0  0  0  0  0  0  0  0  0
   -1.2034   -0.7093    0.0000 C   0  0  0  0  0  0  0  0  0  0  0  0
   -2.0764   -1.1996   -0.0010 H   0  0  0  0  0  0  0  0  0  0  0  0
    0.0060   -1.4016    0.0018 C   0  0  0  0  0  0  0  0  0  0  0  0
    0.0085   -2.3980    0.0040 H   0  0  0  0  0  0  0  0  0  0  0  0
    1.2034   -0.6935    0.0000 C   0  0  0  0  0  0  0  0  0  0  0  0
    2.0892   -1.1883   -0.0082 H   0  0  0  0  0  0  0  0  0  0  0  0
    1.1976    0.6994    0.0120 C   0  0  0  0  0  0  0  0  0  0  0  0
    2.0633    1.1970    0.0398 H   0  0  0  0  0  0  0  0  0  0  0  0
  1  5  1  0
  5  6  1  0
  5  7  2  0
  1  2  1  0
  1  3  1  0
  1  4  1  0
  8 12  1  0
 12 13  2  0
 13 15  1  0
 15 17  2  0
 17 19  1  0
 19 21  2  0
 21 12  1  0
  8  9  1  0
  8 10  1  0
  8 11  1  0
 13 14  1  0
 15 16  1  0
 17 18  1  0
 19 20  1  0
 21 22  1  0
M  CHG  1   6  -1
M  END
>  <PDB_ID>  (2616) 
pdb5tt0

>  <RESIDUE_NAME>  (2616) 
ASP   PHE

>  <FRAG_NAME>  (2616) 
ACET   MBZ

>  <FRAG_ATOM_NUM>  (2616) 
fragi: 7  fragj: 15

>  <atom.prop.CHAIN_ID>  (2616) 
A A A A A A A Z Z Z Z Z Z Z Z Z Z Z Z Z Z Z

>  <atom.prop.IS_HEAVY_ATOM>  (2616) 
1 0 0 0 1 1 1 1 0 0 0 1 1 0 1 0 1 0 1 0 1 0

>  <DIFUSE_FUNC_ATOM>  (2616) 
atom 6   atom 7   

>  <FINAL_SINGLE_POINT_ENERGY>  (2616) 
0

>  <NONCOV_INTER_ENERGY_QM>  (2616) 
0

>  <FF_Energy>  (2616) 
-1.78

>  <QM_Energy>  (2616) 
-7.34

>  <source>  (2616) 
ACET_MBZ_03

>  <Index>  (2616) 
2478

$$$$
ACET-pdb5tsh-A-GLU-208:MBZ-pdb5tsh-A-PHE-279
     RDKit          3D

 22 21  0  0  0  0  0  0  0  0999 V2000
    0.7721   -1.3091    2.8511 C   0  0  0  0  0  0  0  0  0  0  0  0
    0.9423   -0.9128    1.9466 H   0  0  0  0  0  0  0  0  0  0  0  0
    1.5744   -1.1568    3.4317 H   0  0  0  0  0  0  0  0  0  0  0  0
   -0.0647   -0.7695    3.2945 H   0  0  0  0  0  0  0  0  0  0  0  0
    0.6060   -2.7839    2.6797 C   0  0  0  0  0  0  0  0  0  0  0  0
   -0.4017   -3.3978    3.0057 O   0  0  0  0  0  1  0  0  0  0  0  0
    1.6138   -3.3229    2.1782 O   0  0  0  0  0  0  0  0  0  0  0  0
   -0.0039    2.8957   -0.0043 C   0  0  0  0  0  0  0  0  0  0  0  0
    0.9069    3.2036    0.2219 H   0  0  0  0  0  0  0  0  0  0  0  0
   -0.6657    3.2021    0.6620 H   0  0  0  0  0  0  0  0  0  0  0  0
   -0.2744    3.3281   -0.9676 H   0  0  0  0  0  0  0  0  0  0  0  0
   -0.0006    1.3938   -0.0001 C   0  0  0  0  0  0  0  0  0  0  0  0
   -1.1909    0.6876    0.0000 C   0  0  0  0  0  0  0  0  0  0  0  0
   -2.0598    1.1805   -0.0014 H   0  0  0  0  0  0  0  0  0  0  0  0
   -1.1951   -0.6930    0.0000 C   0  0  0  0  0  0  0  0  0  0  0  0
   -2.0734   -1.1892    0.0005 H   0  0  0  0  0  0  0  0  0  0  0  0
    0.0001   -1.3842    0.0006 C   0  0  0  0  0  0  0  0  0  0  0  0
   -0.0034   -2.3861    0.0008 H   0  0  0  0  0  0  0  0  0  0  0  0
    1.1951   -0.6928   -0.0000 C   0  0  0  0  0  0  0  0  0  0  0  0
    2.0783   -1.1930    0.0016 H   0  0  0  0  0  0  0  0  0  0  0  0
    1.1914    0.6886   -0.0006 C   0  0  0  0  0  0  0  0  0  0  0  0
    2.0604    1.1873   -0.0021 H   0  0  0  0  0  0  0  0  0  0  0  0
  1  5  1  0
  5  6  1  0
  5  7  2  0
  1  2  1  0
  1  3  1  0
  1  4  1  0
  8 12  1  0
 12 13  2  0
 13 15  1  0
 15 17  2  0
 17 19  1  0
 19 21  2  0
 21 12  1  0
  8  9  1  0
  8 10  1  0
  8 11  1  0
 13 14  1  0
 15 16  1  0
 17 18  1  0
 19 20  1  0
 21 22  1  0
M  CHG  1   6  -1
M  END
>  <PDB_ID>  (2617) 
pdb5tsh

>  <RESIDUE_NAME>  (2617) 
GLU   PHE

>  <FRAG_NAME>  (2617) 
ACET   MBZ

>  <FRAG_ATOM_NUM>  (2617) 
fragi: 7  fragj: 15

>  <atom.prop.CHAIN_ID>  (2617) 
A A A A A A A Z Z Z Z Z Z Z Z Z Z Z Z Z Z Z

>  <atom.prop.IS_HEAVY_ATOM>  (2617) 
1 0 0 0 1 1 1 1 0 0 0 1 1 0 1 0 1 0 1 0 1 0

>  <DIFUSE_FUNC_ATOM>  (2617) 
atom 6   atom 7   

>  <FINAL_SINGLE_POINT_ENERGY>  (2617) 
0

>  <NONCOV_INTER_ENERGY_QM>  (2617) 
0

>  <FF_Energy>  (2617) 
28.53

>  <QM_Energy>  (2617) 
3.79

>  <source>  (2617) 
ACET_MBZ_03

>  <Index>  (2617) 
2542

$$$$
ACET-pdb5ty0-A-GLU-96:MBZ-pdb5ty0-A-PHE-93
     RDKit          3D

 22 21  0  0  0  0  0  0  0  0999 V2000
    0.9373    4.9683   -3.2085 C   0  0  0  0  0  0  0  0  0  0  0  0
    1.3668    5.1678   -4.0694 H   0  0  0  0  0  0  0  0  0  0  0  0
    1.5896    4.8744   -2.4802 H   0  0  0  0  0  0  0  0  0  0  0  0
    0.2644    5.7902   -2.9634 H   0  0  0  0  0  0  0  0  0  0  0  0
    0.2180    3.6363   -3.3527 C   0  0  0  0  0  0  0  0  0  0  0  0
    0.8695    2.5879   -3.1176 O   0  0  0  0  0  1  0  0  0  0  0  0
   -1.0016    3.6359   -3.6690 O   0  0  0  0  0  0  0  0  0  0  0  0
   -0.0010    2.9228    0.0077 C   0  0  0  0  0  0  0  0  0  0  0  0
   -0.7874    3.2277   -0.5027 H   0  0  0  0  0  0  0  0  0  0  0  0
    0.8424    3.2281   -0.4012 H   0  0  0  0  0  0  0  0  0  0  0  0
   -0.0635    3.3531    1.0072 H   0  0  0  0  0  0  0  0  0  0  0  0
    0.0002    1.4080   -0.0005 C   0  0  0  0  0  0  0  0  0  0  0  0
   -1.2015    0.6901   -0.0013 C   0  0  0  0  0  0  0  0  0  0  0  0
   -2.0666    1.1807   -0.0042 H   0  0  0  0  0  0  0  0  0  0  0  0
   -1.2020   -0.7009    0.0000 C   0  0  0  0  0  0  0  0  0  0  0  0
   -2.0775   -1.1970    0.0021 H   0  0  0  0  0  0  0  0  0  0  0  0
    0.0010   -1.3947   -0.0002 C   0  0  0  0  0  0  0  0  0  0  0  0
   -0.0014   -2.3935   -0.0010 H   0  0  0  0  0  0  0  0  0  0  0  0
    1.2020   -0.6971   -0.0000 C   0  0  0  0  0  0  0  0  0  0  0  0
    2.0841   -1.1960    0.0000 H   0  0  0  0  0  0  0  0  0  0  0  0
    1.2003    0.6945    0.0021 C   0  0  0  0  0  0  0  0  0  0  0  0
    2.0675    1.1911    0.0047 H   0  0  0  0  0  0  0  0  0  0  0  0
  1  5  1  0
  5  6  1  0
  5  7  2  0
  1  2  1  0
  1  3  1  0
  1  4  1  0
  8 12  1  0
 12 13  2  0
 13 15  1  0
 15 17  2  0
 17 19  1  0
 19 21  2  0
 21 12  1  0
  8  9  1  0
  8 10  1  0
  8 11  1  0
 13 14  1  0
 15 16  1  0
 17 18  1  0
 19 20  1  0
 21 22  1  0
M  CHG  1   6  -1
M  END
>  <PDB_ID>  (2618) 
pdb5ty0

>  <RESIDUE_NAME>  (2618) 
GLU   PHE

>  <FRAG_NAME>  (2618) 
ACET   MBZ

>  <FRAG_ATOM_NUM>  (2618) 
fragi: 7  fragj: 15

>  <atom.prop.CHAIN_ID>  (2618) 
A A A A A A A Z Z Z Z Z Z Z Z Z Z Z Z Z Z Z

>  <atom.prop.IS_HEAVY_ATOM>  (2618) 
1 0 0 0 1 1 1 1 0 0 0 1 1 0 1 0 1 0 1 0 1 0

>  <DIFUSE_FUNC_ATOM>  (2618) 
atom 6   atom 7   

>  <FINAL_SINGLE_POINT_ENERGY>  (2618) 
0

>  <NONCOV_INTER_ENERGY_QM>  (2618) 
0

>  <FF_Energy>  (2618) 
1.53

>  <QM_Energy>  (2618) 
-3.9

>  <source>  (2618) 
ACET_MBZ_03

>  <Index>  (2618) 
2695

$$$$
ACET-pdb5u0l-B-ASP-264:MBZ-pdb5u0l-A-PHE-490
     RDKit          3D

 22 21  0  0  0  0  0  0  0  0999 V2000
    4.1467   -0.3001    1.7898 C   0  0  0  0  0  0  0  0  0  0  0  0
    5.0315   -0.0882    1.3939 H   0  0  0  0  0  0  0  0  0  0  0  0
    3.5035   -0.5722    1.0853 H   0  0  0  0  0  0  0  0  0  0  0  0
    4.2746   -1.1390    2.4740 H   0  0  0  0  0  0  0  0  0  0  0  0
    3.6123    0.9479    2.4821 C   0  0  0  0  0  0  0  0  0  0  0  0
    3.1455    0.8351    3.6385 O   0  0  0  0  0  1  0  0  0  0  0  0
    3.6328    2.0358    1.8609 O   0  0  0  0  0  0  0  0  0  0  0  0
    0.0057    2.9228    0.0040 C   0  0  0  0  0  0  0  0  0  0  0  0
   -0.0306    3.2264   -0.9358 H   0  0  0  0  0  0  0  0  0  0  0  0
    0.8373    3.2202    0.4475 H   0  0  0  0  0  0  0  0  0  0  0  0
   -0.8335    3.3751    0.5324 H   0  0  0  0  0  0  0  0  0  0  0  0
   -0.0013    1.4049    0.0020 C   0  0  0  0  0  0  0  0  0  0  0  0
   -1.1898    0.6925    0.0049 C   0  0  0  0  0  0  0  0  0  0  0  0
   -2.0613    1.1785    0.0091 H   0  0  0  0  0  0  0  0  0  0  0  0
   -1.1924   -0.6985   -0.0000 C   0  0  0  0  0  0  0  0  0  0  0  0
   -2.0728   -1.1902    0.0005 H   0  0  0  0  0  0  0  0  0  0  0  0
    0.0006   -1.3929   -0.0035 C   0  0  0  0  0  0  0  0  0  0  0  0
   -0.0041   -2.3931   -0.0095 H   0  0  0  0  0  0  0  0  0  0  0  0
    1.1924   -0.6993    0.0000 C   0  0  0  0  0  0  0  0  0  0  0  0
    2.0781   -1.1937    0.0065 H   0  0  0  0  0  0  0  0  0  0  0  0
    1.1905    0.6934   -0.0034 C   0  0  0  0  0  0  0  0  0  0  0  0
    2.0615    1.1858   -0.0103 H   0  0  0  0  0  0  0  0  0  0  0  0
  1  5  1  0
  5  6  1  0
  5  7  2  0
  1  2  1  0
  1  3  1  0
  1  4  1  0
  8 12  1  0
 12 13  2  0
 13 15  1  0
 15 17  2  0
 17 19  1  0
 19 21  2  0
 21 12  1  0
  8  9  1  0
  8 10  1  0
  8 11  1  0
 13 14  1  0
 15 16  1  0
 17 18  1  0
 19 20  1  0
 21 22  1  0
M  CHG  1   6  -1
M  END
>  <PDB_ID>  (2619) 
pdb5u0l

>  <RESIDUE_NAME>  (2619) 
ASP   PHE

>  <FRAG_NAME>  (2619) 
ACET   MBZ

>  <FRAG_ATOM_NUM>  (2619) 
fragi: 7  fragj: 15

>  <atom.prop.CHAIN_ID>  (2619) 
A A A A A A A Z Z Z Z Z Z Z Z Z Z Z Z Z Z Z

>  <atom.prop.IS_HEAVY_ATOM>  (2619) 
1 0 0 0 1 1 1 1 0 0 0 1 1 0 1 0 1 0 1 0 1 0

>  <DIFUSE_FUNC_ATOM>  (2619) 
atom 6   atom 7   

>  <FINAL_SINGLE_POINT_ENERGY>  (2619) 
0

>  <NONCOV_INTER_ENERGY_QM>  (2619) 
0

>  <FF_Energy>  (2619) 
1.35

>  <QM_Energy>  (2619) 
-3.89

>  <source>  (2619) 
ACET_MBZ_03

>  <Index>  (2619) 
2704

$$$$
ACET-pdb5u1z-C-ASP-75:MBZ-pdb5u1z-C-PHE-71
     RDKit          3D

 22 21  0  0  0  0  0  0  0  0999 V2000
    0.1390    4.2134    3.6084 C   0  0  0  0  0  0  0  0  0  0  0  0
    0.7326    4.3968    2.8321 H   0  0  0  0  0  0  0  0  0  0  0  0
    0.1117    3.2386    3.8000 H   0  0  0  0  0  0  0  0  0  0  0  0
    0.5621    4.7141    4.4792 H   0  0  0  0  0  0  0  0  0  0  0  0
   -1.2420    4.6944    3.2964 C   0  0  0  0  0  0  0  0  0  0  0  0
   -1.8206    5.4821    4.0864 O   0  0  0  0  0  1  0  0  0  0  0  0
   -1.7502    4.2479    2.2664 O   0  0  0  0  0  0  0  0  0  0  0  0
    0.0038    2.9179   -0.0038 C   0  0  0  0  0  0  0  0  0  0  0  0
    0.9249    3.2174   -0.2052 H   0  0  0  0  0  0  0  0  0  0  0  0
   -0.2810    3.2165    0.8958 H   0  0  0  0  0  0  0  0  0  0  0  0
   -0.6636    3.3757   -0.7340 H   0  0  0  0  0  0  0  0  0  0  0  0
   -0.0034    1.4057   -0.0131 C   0  0  0  0  0  0  0  0  0  0  0  0
   -1.1927    0.6810    0.0098 C   0  0  0  0  0  0  0  0  0  0  0  0
   -2.0651    1.1703    0.0332 H   0  0  0  0  0  0  0  0  0  0  0  0
   -1.1951   -0.7040    0.0000 C   0  0  0  0  0  0  0  0  0  0  0  0
   -2.0709   -1.2015   -0.0146 H   0  0  0  0  0  0  0  0  0  0  0  0
    0.0064   -1.4001    0.0123 C   0  0  0  0  0  0  0  0  0  0  0  0
    0.0100   -2.3920    0.0292 H   0  0  0  0  0  0  0  0  0  0  0  0
    1.1951   -0.6843   -0.0000 C   0  0  0  0  0  0  0  0  0  0  0  0
    2.0864   -1.1800   -0.0008 H   0  0  0  0  0  0  0  0  0  0  0  0
    1.1897    0.7017   -0.0089 C   0  0  0  0  0  0  0  0  0  0  0  0
    2.0583    1.1997   -0.0136 H   0  0  0  0  0  0  0  0  0  0  0  0
  1  5  1  0
  5  6  1  0
  5  7  2  0
  1  2  1  0
  1  3  1  0
  1  4  1  0
  8 12  1  0
 12 13  2  0
 13 15  1  0
 15 17  2  0
 17 19  1  0
 19 21  2  0
 21 12  1  0
  8  9  1  0
  8 10  1  0
  8 11  1  0
 13 14  1  0
 15 16  1  0
 17 18  1  0
 19 20  1  0
 21 22  1  0
M  CHG  1   6  -1
M  END
>  <PDB_ID>  (2620) 
pdb5u1z

>  <RESIDUE_NAME>  (2620) 
ASP   PHE

>  <FRAG_NAME>  (2620) 
ACET   MBZ

>  <FRAG_ATOM_NUM>  (2620) 
fragi: 7  fragj: 15

>  <atom.prop.CHAIN_ID>  (2620) 
A A A A A A A Z Z Z Z Z Z Z Z Z Z Z Z Z Z Z

>  <atom.prop.IS_HEAVY_ATOM>  (2620) 
1 0 0 0 1 1 1 1 0 0 0 1 1 0 1 0 1 0 1 0 1 0

>  <DIFUSE_FUNC_ATOM>  (2620) 
atom 6   atom 7   

>  <FINAL_SINGLE_POINT_ENERGY>  (2620) 
0

>  <NONCOV_INTER_ENERGY_QM>  (2620) 
0

>  <FF_Energy>  (2620) 
0.08

>  <QM_Energy>  (2620) 
-5.29

>  <source>  (2620) 
ACET_MBZ_03

>  <Index>  (2620) 
2774

$$$$
ACET-pdb5u7z-C-GLU-113:MBZ-pdb5u7z-C-PHE-108
     RDKit          3D

 22 21  0  0  0  0  0  0  0  0999 V2000
    4.5759    4.8393    0.0159 C   0  0  0  0  0  0  0  0  0  0  0  0
    4.6325    5.2956   -0.8386 H   0  0  0  0  0  0  0  0  0  0  0  0
    5.3652    5.0280    0.5465 H   0  0  0  0  0  0  0  0  0  0  0  0
    3.6956    5.1959    0.5507 H   0  0  0  0  0  0  0  0  0  0  0  0
    4.5348    3.3440   -0.2514 C   0  0  0  0  0  0  0  0  0  0  0  0
    3.4730    2.8427   -0.6796 O   0  0  0  0  0  1  0  0  0  0  0  0
    5.5638    2.6690   -0.0336 O   0  0  0  0  0  0  0  0  0  0  0  0
    0.0014    2.8954    0.0042 C   0  0  0  0  0  0  0  0  0  0  0  0
    0.8020    3.1889    0.4657 H   0  0  0  0  0  0  0  0  0  0  0  0
   -0.7845    3.1895    0.4908 H   0  0  0  0  0  0  0  0  0  0  0  0
   -0.0141    3.3425   -0.9898 H   0  0  0  0  0  0  0  0  0  0  0  0
    0.0007    1.3945   -0.0019 C   0  0  0  0  0  0  0  0  0  0  0  0
   -1.1899    0.6893    0.0015 C   0  0  0  0  0  0  0  0  0  0  0  0
   -1.9972    1.1503    0.0014 H   0  0  0  0  0  0  0  0  0  0  0  0
   -1.1937   -0.6915   -0.0000 C   0  0  0  0  0  0  0  0  0  0  0  0
   -2.0003   -1.1541    0.0001 H   0  0  0  0  0  0  0  0  0  0  0  0
   -0.0024   -1.3845    0.0004 C   0  0  0  0  0  0  0  0  0  0  0  0
   -0.0038   -2.3149   -0.0013 H   0  0  0  0  0  0  0  0  0  0  0  0
    1.1937   -0.6956    0.0000 C   0  0  0  0  0  0  0  0  0  0  0  0
    1.9993   -1.1599   -0.0007 H   0  0  0  0  0  0  0  0  0  0  0  0
    1.1916    0.6879    0.0000 C   0  0  0  0  0  0  0  0  0  0  0  0
    1.9996    1.1487    0.0005 H   0  0  0  0  0  0  0  0  0  0  0  0
  1  5  1  0
  5  6  1  0
  5  7  2  0
  1  2  1  0
  1  3  1  0
  1  4  1  0
  8 12  1  0
 12 13  2  0
 13 15  1  0
 15 17  2  0
 17 19  1  0
 19 21  2  0
 21 12  1  0
  8  9  1  0
  8 10  1  0
  8 11  1  0
 13 14  1  0
 15 16  1  0
 17 18  1  0
 19 20  1  0
 21 22  1  0
M  CHG  1   6  -1
M  END
>  <PDB_ID>  (2621) 
pdb5u7z

>  <RESIDUE_NAME>  (2621) 
GLU   PHE

>  <FRAG_NAME>  (2621) 
ACET   MBZ

>  <FRAG_ATOM_NUM>  (2621) 
fragi: 7  fragj: 15

>  <atom.prop.CHAIN_ID>  (2621) 
A A A A A A A Z Z Z Z Z Z Z Z Z Z Z Z Z Z Z

>  <atom.prop.IS_HEAVY_ATOM>  (2621) 
1 0 0 0 1 1 1 1 0 0 0 1 1 0 1 0 1 0 1 0 1 0

>  <DIFUSE_FUNC_ATOM>  (2621) 
atom 6   atom 7   

>  <FINAL_SINGLE_POINT_ENERGY>  (2621) 
0

>  <NONCOV_INTER_ENERGY_QM>  (2621) 
0

>  <FF_Energy>  (2621) 
-1.62

>  <QM_Energy>  (2621) 
-7.15

>  <source>  (2621) 
ACET_MBZ_03

>  <Index>  (2621) 
2863

$$$$
ACET-pdb5u8u-A-ASP-296:MBZ-pdb5u8u-A-PHE-300
     RDKit          3D

 22 21  0  0  0  0  0  0  0  0999 V2000
    4.3017    5.5659    0.8093 C   0  0  0  0  0  0  0  0  0  0  0  0
    5.1271    5.4580    1.3072 H   0  0  0  0  0  0  0  0  0  0  0  0
    3.6927    6.1356    1.3046 H   0  0  0  0  0  0  0  0  0  0  0  0
    4.5293    6.0448   -0.1430 H   0  0  0  0  0  0  0  0  0  0  0  0
    3.6476    4.1826    0.6845 C   0  0  0  0  0  0  0  0  0  0  0  0
    3.6163    3.5665   -0.3985 O   0  0  0  0  0  1  0  0  0  0  0  0
    3.1541    3.7189    1.7402 O   0  0  0  0  0  0  0  0  0  0  0  0
    0.0048    2.8791   -0.0318 C   0  0  0  0  0  0  0  0  0  0  0  0
    0.8045    3.1831    0.4247 H   0  0  0  0  0  0  0  0  0  0  0  0
   -0.7830    3.1850    0.4426 H   0  0  0  0  0  0  0  0  0  0  0  0
   -0.0056    3.2969   -1.0385 H   0  0  0  0  0  0  0  0  0  0  0  0
    0.0040    1.3902   -0.0081 C   0  0  0  0  0  0  0  0  0  0  0  0
   -1.1993    0.6848   -0.0007 C   0  0  0  0  0  0  0  0  0  0  0  0
   -2.0054    1.1474   -0.0100 H   0  0  0  0  0  0  0  0  0  0  0  0
   -1.2019   -0.6871   -0.0000 C   0  0  0  0  0  0  0  0  0  0  0  0
   -2.0091   -1.1495    0.0077 H   0  0  0  0  0  0  0  0  0  0  0  0
   -0.0055   -1.3850    0.0103 C   0  0  0  0  0  0  0  0  0  0  0  0
   -0.0071   -2.3148    0.0163 H   0  0  0  0  0  0  0  0  0  0  0  0
    1.2019   -0.6857   -0.0000 C   0  0  0  0  0  0  0  0  0  0  0  0
    2.0070   -1.1495    0.0070 H   0  0  0  0  0  0  0  0  0  0  0  0
    1.2009    0.6828   -0.0014 C   0  0  0  0  0  0  0  0  0  0  0  0
    2.0083    1.1440   -0.0104 H   0  0  0  0  0  0  0  0  0  0  0  0
  1  5  1  0
  5  6  1  0
  5  7  2  0
  1  2  1  0
  1  3  1  0
  1  4  1  0
  8 12  1  0
 12 13  2  0
 13 15  1  0
 15 17  2  0
 17 19  1  0
 19 21  2  0
 21 12  1  0
  8  9  1  0
  8 10  1  0
  8 11  1  0
 13 14  1  0
 15 16  1  0
 17 18  1  0
 19 20  1  0
 21 22  1  0
M  CHG  1   6  -1
M  END
>  <PDB_ID>  (2622) 
pdb5u8u

>  <RESIDUE_NAME>  (2622) 
ASP   PHE

>  <FRAG_NAME>  (2622) 
ACET   MBZ

>  <FRAG_ATOM_NUM>  (2622) 
fragi: 7  fragj: 15

>  <atom.prop.CHAIN_ID>  (2622) 
A A A A A A A Z Z Z Z Z Z Z Z Z Z Z Z Z Z Z

>  <atom.prop.IS_HEAVY_ATOM>  (2622) 
1 0 0 0 1 1 1 1 0 0 0 1 1 0 1 0 1 0 1 0 1 0

>  <DIFUSE_FUNC_ATOM>  (2622) 
atom 6   atom 7   

>  <FINAL_SINGLE_POINT_ENERGY>  (2622) 
0

>  <NONCOV_INTER_ENERGY_QM>  (2622) 
0

>  <FF_Energy>  (2622) 
-2.38

>  <QM_Energy>  (2622) 
-8.04

>  <source>  (2622) 
ACET_MBZ_03

>  <Index>  (2622) 
2892

$$$$
ACET-pdb5u8v-A-ASP-296:MBZ-pdb5u8v-A-PHE-300
     RDKit          3D

 22 21  0  0  0  0  0  0  0  0999 V2000
   -4.2794    5.6908   -1.0364 C   0  0  0  0  0  0  0  0  0  0  0  0
   -5.0731    5.5516   -1.5763 H   0  0  0  0  0  0  0  0  0  0  0  0
   -3.6674    6.2842   -1.4986 H   0  0  0  0  0  0  0  0  0  0  0  0
   -4.5707    6.1495   -0.0915 H   0  0  0  0  0  0  0  0  0  0  0  0
   -3.5885    4.3475   -0.8696 C   0  0  0  0  0  0  0  0  0  0  0  0
   -3.6186    3.7651    0.2293 O   0  0  0  0  0  1  0  0  0  0  0  0
   -3.0134    3.8630   -1.8670 O   0  0  0  0  0  0  0  0  0  0  0  0
   -0.0054    2.8932    0.0089 C   0  0  0  0  0  0  0  0  0  0  0  0
   -0.7799    3.1904   -0.4932 H   0  0  0  0  0  0  0  0  0  0  0  0
    0.8057    3.1960   -0.4275 H   0  0  0  0  0  0  0  0  0  0  0  0
   -0.0484    3.3237    1.0094 H   0  0  0  0  0  0  0  0  0  0  0  0
   -0.0000    1.3940    0.0018 C   0  0  0  0  0  0  0  0  0  0  0  0
   -1.1918    0.6877    0.0000 C   0  0  0  0  0  0  0  0  0  0  0  0
   -1.9992    1.1491    0.0020 H   0  0  0  0  0  0  0  0  0  0  0  0
   -1.1936   -0.6944    0.0000 C   0  0  0  0  0  0  0  0  0  0  0  0
   -2.0003   -1.1583   -0.0024 H   0  0  0  0  0  0  0  0  0  0  0  0
    0.0003   -1.3842   -0.0020 C   0  0  0  0  0  0  0  0  0  0  0  0
    0.0008   -2.3144   -0.0046 H   0  0  0  0  0  0  0  0  0  0  0  0
    1.1936   -0.6918   -0.0000 C   0  0  0  0  0  0  0  0  0  0  0  0
    1.9999   -1.1552   -0.0017 H   0  0  0  0  0  0  0  0  0  0  0  0
    1.1915    0.6887    0.0001 C   0  0  0  0  0  0  0  0  0  0  0  0
    1.9993    1.1497    0.0030 H   0  0  0  0  0  0  0  0  0  0  0  0
  1  5  1  0
  5  6  1  0
  5  7  2  0
  1  2  1  0
  1  3  1  0
  1  4  1  0
  8 12  1  0
 12 13  2  0
 13 15  1  0
 15 17  2  0
 17 19  1  0
 19 21  2  0
 21 12  1  0
  8  9  1  0
  8 10  1  0
  8 11  1  0
 13 14  1  0
 15 16  1  0
 17 18  1  0
 19 20  1  0
 21 22  1  0
M  CHG  1   6  -1
M  END
>  <PDB_ID>  (2623) 
pdb5u8v

>  <RESIDUE_NAME>  (2623) 
ASP   PHE

>  <FRAG_NAME>  (2623) 
ACET   MBZ

>  <FRAG_ATOM_NUM>  (2623) 
fragi: 7  fragj: 15

>  <atom.prop.CHAIN_ID>  (2623) 
A A A A A A A Z Z Z Z Z Z Z Z Z Z Z Z Z Z Z

>  <atom.prop.IS_HEAVY_ATOM>  (2623) 
1 0 0 0 1 1 1 1 0 0 0 1 1 0 1 0 1 0 1 0 1 0

>  <DIFUSE_FUNC_ATOM>  (2623) 
atom 6   atom 7   

>  <FINAL_SINGLE_POINT_ENERGY>  (2623) 
0

>  <NONCOV_INTER_ENERGY_QM>  (2623) 
0

>  <FF_Energy>  (2623) 
-2.24

>  <QM_Energy>  (2623) 
-7.73

>  <source>  (2623) 
ACET_MBZ_03

>  <Index>  (2623) 
2896

$$$$
ACET-pdb5u8u-B-ASP-296:MBZ-pdb5u8u-B-PHE-300
     RDKit          3D

 22 21  0  0  0  0  0  0  0  0999 V2000
   -4.2120    5.5106   -1.0826 C   0  0  0  0  0  0  0  0  0  0  0  0
   -4.9775    5.3914   -1.6663 H   0  0  0  0  0  0  0  0  0  0  0  0
   -3.5652    6.0968   -1.5064 H   0  0  0  0  0  0  0  0  0  0  0  0
   -4.5488    5.9753   -0.1560 H   0  0  0  0  0  0  0  0  0  0  0  0
   -3.5540    4.1526   -0.9027 C   0  0  0  0  0  0  0  0  0  0  0  0
   -3.6458    3.5231    0.1750 O   0  0  0  0  0  1  0  0  0  0  0  0
   -2.9218    3.7196   -1.9036 O   0  0  0  0  0  0  0  0  0  0  0  0
   -0.0013    2.9134    0.0256 C   0  0  0  0  0  0  0  0  0  0  0  0
   -0.7696    3.2225   -0.4782 H   0  0  0  0  0  0  0  0  0  0  0  0
    0.8156    3.2162   -0.4006 H   0  0  0  0  0  0  0  0  0  0  0  0
   -0.0491    3.3301    1.0317 H   0  0  0  0  0  0  0  0  0  0  0  0
   -0.0052    1.4010   -0.0025 C   0  0  0  0  0  0  0  0  0  0  0  0
   -1.1975    0.6894   -0.0103 C   0  0  0  0  0  0  0  0  0  0  0  0
   -2.0063    1.1473   -0.0061 H   0  0  0  0  0  0  0  0  0  0  0  0
   -1.1961   -0.7056   -0.0000 C   0  0  0  0  0  0  0  0  0  0  0  0
   -1.9993   -1.1743   -0.0165 H   0  0  0  0  0  0  0  0  0  0  0  0
    0.0229   -1.3974   -0.0044 C   0  0  0  0  0  0  0  0  0  0  0  0
    0.0356   -2.3281   -0.0094 H   0  0  0  0  0  0  0  0  0  0  0  0
    1.1961   -0.6884   -0.0000 C   0  0  0  0  0  0  0  0  0  0  0  0
    2.0079   -1.1407    0.0082 H   0  0  0  0  0  0  0  0  0  0  0  0
    1.1799    0.7010    0.0172 C   0  0  0  0  0  0  0  0  0  0  0  0
    1.9843    1.1674    0.0208 H   0  0  0  0  0  0  0  0  0  0  0  0
  1  5  1  0
  5  6  1  0
  5  7  2  0
  1  2  1  0
  1  3  1  0
  1  4  1  0
  8 12  1  0
 12 13  2  0
 13 15  1  0
 15 17  2  0
 17 19  1  0
 19 21  2  0
 21 12  1  0
  8  9  1  0
  8 10  1  0
  8 11  1  0
 13 14  1  0
 15 16  1  0
 17 18  1  0
 19 20  1  0
 21 22  1  0
M  CHG  1   6  -1
M  END
>  <PDB_ID>  (2624) 
pdb5u8u

>  <RESIDUE_NAME>  (2624) 
ASP   PHE

>  <FRAG_NAME>  (2624) 
ACET   MBZ

>  <FRAG_ATOM_NUM>  (2624) 
fragi: 7  fragj: 15

>  <atom.prop.CHAIN_ID>  (2624) 
A A A A A A A Z Z Z Z Z Z Z Z Z Z Z Z Z Z Z

>  <atom.prop.IS_HEAVY_ATOM>  (2624) 
1 0 0 0 1 1 1 1 0 0 0 1 1 0 1 0 1 0 1 0 1 0

>  <DIFUSE_FUNC_ATOM>  (2624) 
atom 6   atom 7   

>  <FINAL_SINGLE_POINT_ENERGY>  (2624) 
0

>  <NONCOV_INTER_ENERGY_QM>  (2624) 
0

>  <FF_Energy>  (2624) 
-2.27

>  <QM_Energy>  (2624) 
-8.23

>  <source>  (2624) 
ACET_MBZ_03

>  <Index>  (2624) 
2898

$$$$
ACET-pdb5u8v-B-ASP-296:MBZ-pdb5u8v-B-PHE-300
     RDKit          3D

 22 21  0  0  0  0  0  0  0  0999 V2000
   -4.1894    5.5398   -1.0287 C   0  0  0  0  0  0  0  0  0  0  0  0
   -4.9860    5.3886   -1.5601 H   0  0  0  0  0  0  0  0  0  0  0  0
   -3.5707    6.1053   -1.5157 H   0  0  0  0  0  0  0  0  0  0  0  0
   -4.4728    6.0429   -0.1043 H   0  0  0  0  0  0  0  0  0  0  0  0
   -3.5137    4.1925   -0.8060 C   0  0  0  0  0  0  0  0  0  0  0  0
   -3.5566    3.6478    0.3156 O   0  0  0  0  0  1  0  0  0  0  0  0
   -2.9344    3.6700   -1.7802 O   0  0  0  0  0  0  0  0  0  0  0  0
    0.0028    2.8950   -0.0024 C   0  0  0  0  0  0  0  0  0  0  0  0
   -0.7815    3.1935   -0.4889 H   0  0  0  0  0  0  0  0  0  0  0  0
    0.8051    3.1893   -0.4613 H   0  0  0  0  0  0  0  0  0  0  0  0
   -0.0130    3.3350    0.9947 H   0  0  0  0  0  0  0  0  0  0  0  0
   -0.0004    1.3928   -0.0048 C   0  0  0  0  0  0  0  0  0  0  0  0
   -1.1915    0.6889    0.0026 C   0  0  0  0  0  0  0  0  0  0  0  0
   -1.9990    1.1493    0.0005 H   0  0  0  0  0  0  0  0  0  0  0  0
   -1.1929   -0.6934   -0.0000 C   0  0  0  0  0  0  0  0  0  0  0  0
   -1.9988   -1.1577    0.0037 H   0  0  0  0  0  0  0  0  0  0  0  0
    0.0022   -1.3832    0.0034 C   0  0  0  0  0  0  0  0  0  0  0  0
    0.0024   -2.3129    0.0035 H   0  0  0  0  0  0  0  0  0  0  0  0
    1.1929   -0.6923    0.0000 C   0  0  0  0  0  0  0  0  0  0  0  0
    1.9992   -1.1556    0.0006 H   0  0  0  0  0  0  0  0  0  0  0  0
    1.1897    0.6870   -0.0013 C   0  0  0  0  0  0  0  0  0  0  0  0
    1.9972    1.1490   -0.0031 H   0  0  0  0  0  0  0  0  0  0  0  0
  1  5  1  0
  5  6  1  0
  5  7  2  0
  1  2  1  0
  1  3  1  0
  1  4  1  0
  8 12  1  0
 12 13  2  0
 13 15  1  0
 15 17  2  0
 17 19  1  0
 19 21  2  0
 21 12  1  0
  8  9  1  0
  8 10  1  0
  8 11  1  0
 13 14  1  0
 15 16  1  0
 17 18  1  0
 19 20  1  0
 21 22  1  0
M  CHG  1   6  -1
M  END
>  <PDB_ID>  (2625) 
pdb5u8v

>  <RESIDUE_NAME>  (2625) 
ASP   PHE

>  <FRAG_NAME>  (2625) 
ACET   MBZ

>  <FRAG_ATOM_NUM>  (2625) 
fragi: 7  fragj: 15

>  <atom.prop.CHAIN_ID>  (2625) 
A A A A A A A Z Z Z Z Z Z Z Z Z Z Z Z Z Z Z

>  <atom.prop.IS_HEAVY_ATOM>  (2625) 
1 0 0 0 1 1 1 1 0 0 0 1 1 0 1 0 1 0 1 0 1 0

>  <DIFUSE_FUNC_ATOM>  (2625) 
atom 6   atom 7   

>  <FINAL_SINGLE_POINT_ENERGY>  (2625) 
0

>  <NONCOV_INTER_ENERGY_QM>  (2625) 
0

>  <FF_Energy>  (2625) 
-2.23

>  <QM_Energy>  (2625) 
-8.33

>  <source>  (2625) 
ACET_MBZ_03

>  <Index>  (2625) 
2903

$$$$
ACET-pdb5u8u-D-ASP-296:MBZ-pdb5u8u-D-PHE-300
     RDKit          3D

 22 21  0  0  0  0  0  0  0  0999 V2000
   -3.9834    5.7962   -1.1527 C   0  0  0  0  0  0  0  0  0  0  0  0
   -4.7163    5.7296   -1.7854 H   0  0  0  0  0  0  0  0  0  0  0  0
   -3.2847    6.3613   -1.5176 H   0  0  0  0  0  0  0  0  0  0  0  0
   -4.3538    6.2444   -0.2308 H   0  0  0  0  0  0  0  0  0  0  0  0
   -3.4142    4.4268   -0.9658 C   0  0  0  0  0  0  0  0  0  0  0  0
   -3.5799    3.8053    0.1052 O   0  0  0  0  0  1  0  0  0  0  0  0
   -2.7841    3.9660   -1.9313 O   0  0  0  0  0  0  0  0  0  0  0  0
   -0.0140    2.9174    0.0007 C   0  0  0  0  0  0  0  0  0  0  0  0
   -0.7863    3.2093   -0.5089 H   0  0  0  0  0  0  0  0  0  0  0  0
    0.7998    3.2259   -0.4276 H   0  0  0  0  0  0  0  0  0  0  0  0
   -0.0696    3.3468    1.0009 H   0  0  0  0  0  0  0  0  0  0  0  0
    0.0020    1.3981   -0.0083 C   0  0  0  0  0  0  0  0  0  0  0  0
   -1.1922    0.6890   -0.0007 C   0  0  0  0  0  0  0  0  0  0  0  0
   -2.0010    1.1468   -0.0048 H   0  0  0  0  0  0  0  0  0  0  0  0
   -1.1871   -0.7036    0.0000 C   0  0  0  0  0  0  0  0  0  0  0  0
   -1.9915   -1.1702   -0.0019 H   0  0  0  0  0  0  0  0  0  0  0  0
   -0.0060   -1.3834    0.0015 C   0  0  0  0  0  0  0  0  0  0  0  0
   -0.0048   -2.3129    0.0017 H   0  0  0  0  0  0  0  0  0  0  0  0
    1.1871   -0.6923   -0.0000 C   0  0  0  0  0  0  0  0  0  0  0  0
    1.9913   -1.1594    0.0048 H   0  0  0  0  0  0  0  0  0  0  0  0
    1.1962    0.6921    0.0075 C   0  0  0  0  0  0  0  0  0  0  0  0
    2.0060    1.1503    0.0037 H   0  0  0  0  0  0  0  0  0  0  0  0
  1  5  1  0
  5  6  1  0
  5  7  2  0
  1  2  1  0
  1  3  1  0
  1  4  1  0
  8 12  1  0
 12 13  2  0
 13 15  1  0
 15 17  2  0
 17 19  1  0
 19 21  2  0
 21 12  1  0
  8  9  1  0
  8 10  1  0
  8 11  1  0
 13 14  1  0
 15 16  1  0
 17 18  1  0
 19 20  1  0
 21 22  1  0
M  CHG  1   6  -1
M  END
>  <PDB_ID>  (2626) 
pdb5u8u

>  <RESIDUE_NAME>  (2626) 
ASP   PHE

>  <FRAG_NAME>  (2626) 
ACET   MBZ

>  <FRAG_ATOM_NUM>  (2626) 
fragi: 7  fragj: 15

>  <atom.prop.CHAIN_ID>  (2626) 
A A A A A A A Z Z Z Z Z Z Z Z Z Z Z Z Z Z Z

>  <atom.prop.IS_HEAVY_ATOM>  (2626) 
1 0 0 0 1 1 1 1 0 0 0 1 1 0 1 0 1 0 1 0 1 0

>  <DIFUSE_FUNC_ATOM>  (2626) 
atom 6   atom 7   

>  <FINAL_SINGLE_POINT_ENERGY>  (2626) 
0

>  <NONCOV_INTER_ENERGY_QM>  (2626) 
0

>  <FF_Energy>  (2626) 
-2.1

>  <QM_Energy>  (2626) 
-7.85

>  <source>  (2626) 
ACET_MBZ_03

>  <Index>  (2626) 
2908

$$$$
ACET-pdb5u8v-C-ASP-296:MBZ-pdb5u8v-C-PHE-300
     RDKit          3D

 22 21  0  0  0  0  0  0  0  0999 V2000
   -4.1457    5.5926   -1.0691 C   0  0  0  0  0  0  0  0  0  0  0  0
   -4.9148    5.4306   -1.6371 H   0  0  0  0  0  0  0  0  0  0  0  0
   -3.5174    6.1774   -1.5209 H   0  0  0  0  0  0  0  0  0  0  0  0
   -4.4811    6.0772   -0.1522 H   0  0  0  0  0  0  0  0  0  0  0  0
   -3.4538    4.2611   -0.8277 C   0  0  0  0  0  0  0  0  0  0  0  0
   -3.5366    3.7135    0.2926 O   0  0  0  0  0  1  0  0  0  0  0  0
   -2.8243    3.7549   -1.7810 O   0  0  0  0  0  0  0  0  0  0  0  0
    0.0013    2.8949    0.0048 C   0  0  0  0  0  0  0  0  0  0  0  0
   -0.7739    3.1939   -0.4949 H   0  0  0  0  0  0  0  0  0  0  0  0
    0.8122    3.1917   -0.4377 H   0  0  0  0  0  0  0  0  0  0  0  0
   -0.0344    3.3327    1.0024 H   0  0  0  0  0  0  0  0  0  0  0  0
   -0.0003    1.3931    0.0011 C   0  0  0  0  0  0  0  0  0  0  0  0
   -1.1914    0.6879    0.0010 C   0  0  0  0  0  0  0  0  0  0  0  0
   -1.9986    1.1489    0.0019 H   0  0  0  0  0  0  0  0  0  0  0  0
   -1.1938   -0.6928    0.0000 C   0  0  0  0  0  0  0  0  0  0  0  0
   -1.9996   -1.1570   -0.0003 H   0  0  0  0  0  0  0  0  0  0  0  0
    0.0008   -1.3836   -0.0006 C   0  0  0  0  0  0  0  0  0  0  0  0
    0.0015   -2.3137   -0.0018 H   0  0  0  0  0  0  0  0  0  0  0  0
    1.1938   -0.6923   -0.0000 C   0  0  0  0  0  0  0  0  0  0  0  0
    1.9998   -1.1560   -0.0014 H   0  0  0  0  0  0  0  0  0  0  0  0
    1.1908    0.6876   -0.0016 C   0  0  0  0  0  0  0  0  0  0  0  0
    1.9988    1.1490    0.0008 H   0  0  0  0  0  0  0  0  0  0  0  0
  1  5  1  0
  5  6  1  0
  5  7  2  0
  1  2  1  0
  1  3  1  0
  1  4  1  0
  8 12  1  0
 12 13  2  0
 13 15  1  0
 15 17  2  0
 17 19  1  0
 19 21  2  0
 21 12  1  0
  8  9  1  0
  8 10  1  0
  8 11  1  0
 13 14  1  0
 15 16  1  0
 17 18  1  0
 19 20  1  0
 21 22  1  0
M  CHG  1   6  -1
M  END
>  <PDB_ID>  (2627) 
pdb5u8v

>  <RESIDUE_NAME>  (2627) 
ASP   PHE

>  <FRAG_NAME>  (2627) 
ACET   MBZ

>  <FRAG_ATOM_NUM>  (2627) 
fragi: 7  fragj: 15

>  <atom.prop.CHAIN_ID>  (2627) 
A A A A A A A Z Z Z Z Z Z Z Z Z Z Z Z Z Z Z

>  <atom.prop.IS_HEAVY_ATOM>  (2627) 
1 0 0 0 1 1 1 1 0 0 0 1 1 0 1 0 1 0 1 0 1 0

>  <DIFUSE_FUNC_ATOM>  (2627) 
atom 6   atom 7   

>  <FINAL_SINGLE_POINT_ENERGY>  (2627) 
0

>  <NONCOV_INTER_ENERGY_QM>  (2627) 
0

>  <FF_Energy>  (2627) 
-2.08

>  <QM_Energy>  (2627) 
-8.34

>  <source>  (2627) 
ACET_MBZ_03

>  <Index>  (2627) 
2910

$$$$
ACET-pdb5u8v-D-ASP-296:MBZ-pdb5u8v-D-PHE-300
     RDKit          3D

 22 21  0  0  0  0  0  0  0  0999 V2000
   -4.1156    5.7103   -1.2003 C   0  0  0  0  0  0  0  0  0  0  0  0
   -4.8955    5.5589   -1.7568 H   0  0  0  0  0  0  0  0  0  0  0  0
   -3.4847    6.2814   -1.6652 H   0  0  0  0  0  0  0  0  0  0  0  0
   -4.4294    6.2054   -0.2813 H   0  0  0  0  0  0  0  0  0  0  0  0
   -3.4431    4.3670   -0.9613 C   0  0  0  0  0  0  0  0  0  0  0  0
   -3.5185    3.8273    0.1594 O   0  0  0  0  0  1  0  0  0  0  0  0
   -2.8312    3.8450   -1.9142 O   0  0  0  0  0  0  0  0  0  0  0  0
    0.0016    2.8951    0.0016 C   0  0  0  0  0  0  0  0  0  0  0  0
   -0.7709    3.1918   -0.5034 H   0  0  0  0  0  0  0  0  0  0  0  0
    0.8140    3.1907   -0.4375 H   0  0  0  0  0  0  0  0  0  0  0  0
   -0.0399    3.3356    0.9978 H   0  0  0  0  0  0  0  0  0  0  0  0
    0.0006    1.3944    0.0015 C   0  0  0  0  0  0  0  0  0  0  0  0
   -1.1916    0.6889   -0.0006 C   0  0  0  0  0  0  0  0  0  0  0  0
   -1.9987    1.1511    0.0003 H   0  0  0  0  0  0  0  0  0  0  0  0
   -1.1950   -0.6925   -0.0000 C   0  0  0  0  0  0  0  0  0  0  0  0
   -2.0011   -1.1557   -0.0010 H   0  0  0  0  0  0  0  0  0  0  0  0
   -0.0011   -1.3842   -0.0006 C   0  0  0  0  0  0  0  0  0  0  0  0
   -0.0022   -2.3144   -0.0009 H   0  0  0  0  0  0  0  0  0  0  0  0
    1.1950   -0.6937   -0.0000 C   0  0  0  0  0  0  0  0  0  0  0  0
    2.0008   -1.1579   -0.0002 H   0  0  0  0  0  0  0  0  0  0  0  0
    1.1922    0.6873   -0.0003 C   0  0  0  0  0  0  0  0  0  0  0  0
    1.9994    1.1489    0.0011 H   0  0  0  0  0  0  0  0  0  0  0  0
  1  5  1  0
  5  6  1  0
  5  7  2  0
  1  2  1  0
  1  3  1  0
  1  4  1  0
  8 12  1  0
 12 13  2  0
 13 15  1  0
 15 17  2  0
 17 19  1  0
 19 21  2  0
 21 12  1  0
  8  9  1  0
  8 10  1  0
  8 11  1  0
 13 14  1  0
 15 16  1  0
 17 18  1  0
 19 20  1  0
 21 22  1  0
M  CHG  1   6  -1
M  END
>  <PDB_ID>  (2628) 
pdb5u8v

>  <RESIDUE_NAME>  (2628) 
ASP   PHE

>  <FRAG_NAME>  (2628) 
ACET   MBZ

>  <FRAG_ATOM_NUM>  (2628) 
fragi: 7  fragj: 15

>  <atom.prop.CHAIN_ID>  (2628) 
A A A A A A A Z Z Z Z Z Z Z Z Z Z Z Z Z Z Z

>  <atom.prop.IS_HEAVY_ATOM>  (2628) 
1 0 0 0 1 1 1 1 0 0 0 1 1 0 1 0 1 0 1 0 1 0

>  <DIFUSE_FUNC_ATOM>  (2628) 
atom 6   atom 7   

>  <FINAL_SINGLE_POINT_ENERGY>  (2628) 
0

>  <NONCOV_INTER_ENERGY_QM>  (2628) 
0

>  <FF_Energy>  (2628) 
-2.14

>  <QM_Energy>  (2628) 
-8.01

>  <source>  (2628) 
ACET_MBZ_03

>  <Index>  (2628) 
2914

$$$$
ACET-pdb5u8x-A-GLU-59:MBZ-pdb5u8x-D-PHE-37
     RDKit          3D

 22 21  0  0  0  0  0  0  0  0999 V2000
    4.7249    0.7696   -1.7427 C   0  0  0  0  0  0  0  0  0  0  0  0
    3.8996    0.6796   -2.2672 H   0  0  0  0  0  0  0  0  0  0  0  0
    4.9894   -0.0713   -1.3114 H   0  0  0  0  0  0  0  0  0  0  0  0
    5.5274    1.0882   -2.4080 H   0  0  0  0  0  0  0  0  0  0  0  0
    4.4387    1.7810   -0.6216 C   0  0  0  0  0  0  0  0  0  0  0  0
    3.7331    2.7537   -0.9315 O   0  0  0  0  0  1  0  0  0  0  0  0
    4.8682    1.6008    0.5747 O   0  0  0  0  0  0  0  0  0  0  0  0
    0.0055    2.8858   -0.0049 C   0  0  0  0  0  0  0  0  0  0  0  0
    0.8672    3.1992    0.3631 H   0  0  0  0  0  0  0  0  0  0  0  0
   -0.7563    3.2025    0.5378 H   0  0  0  0  0  0  0  0  0  0  0  0
   -0.1017    3.3049   -1.0053 H   0  0  0  0  0  0  0  0  0  0  0  0
    0.0039    1.3956    0.0101 C   0  0  0  0  0  0  0  0  0  0  0  0
   -1.1887    0.6964   -0.0062 C   0  0  0  0  0  0  0  0  0  0  0  0
   -2.0559    1.1949   -0.0237 H   0  0  0  0  0  0  0  0  0  0  0  0
   -1.2052   -0.6854    0.0000 C   0  0  0  0  0  0  0  0  0  0  0  0
   -2.0866   -1.1757    0.0165 H   0  0  0  0  0  0  0  0  0  0  0  0
   -0.0117   -1.3955   -0.0149 C   0  0  0  0  0  0  0  0  0  0  0  0
   -0.0176   -2.3890   -0.0366 H   0  0  0  0  0  0  0  0  0  0  0  0
    1.2052   -0.6987   -0.0000 C   0  0  0  0  0  0  0  0  0  0  0  0
    2.0778   -1.2029    0.0039 H   0  0  0  0  0  0  0  0  0  0  0  0
    1.1965    0.6876    0.0110 C   0  0  0  0  0  0  0  0  0  0  0  0
    2.0672    1.1865    0.0187 H   0  0  0  0  0  0  0  0  0  0  0  0
  1  5  1  0
  5  6  1  0
  5  7  2  0
  1  2  1  0
  1  3  1  0
  1  4  1  0
  8 12  1  0
 12 13  2  0
 13 15  1  0
 15 17  2  0
 17 19  1  0
 19 21  2  0
 21 12  1  0
  8  9  1  0
  8 10  1  0
  8 11  1  0
 13 14  1  0
 15 16  1  0
 17 18  1  0
 19 20  1  0
 21 22  1  0
M  CHG  1   6  -1
M  END
>  <PDB_ID>  (2629) 
pdb5u8x

>  <RESIDUE_NAME>  (2629) 
GLU   PHE

>  <FRAG_NAME>  (2629) 
ACET   MBZ

>  <FRAG_ATOM_NUM>  (2629) 
fragi: 7  fragj: 15

>  <atom.prop.CHAIN_ID>  (2629) 
A A A A A A A Z Z Z Z Z Z Z Z Z Z Z Z Z Z Z

>  <atom.prop.IS_HEAVY_ATOM>  (2629) 
1 0 0 0 1 1 1 1 0 0 0 1 1 0 1 0 1 0 1 0 1 0

>  <DIFUSE_FUNC_ATOM>  (2629) 
atom 6   atom 7   

>  <FINAL_SINGLE_POINT_ENERGY>  (2629) 
0

>  <NONCOV_INTER_ENERGY_QM>  (2629) 
0

>  <FF_Energy>  (2629) 
-1.91

>  <QM_Energy>  (2629) 
-7.24

>  <source>  (2629) 
ACET_MBZ_03

>  <Index>  (2629) 
2936

$$$$
ACET-pdb5ul3-A-GLU-635:MBZ-pdb5ul3-A-PHE-661
     RDKit          3D

 22 21  0  0  0  0  0  0  0  0999 V2000
   -3.7864   -2.3953   -1.2670 C   0  0  0  0  0  0  0  0  0  0  0  0
   -2.8530   -2.1696   -1.0978 H   0  0  0  0  0  0  0  0  0  0  0  0
   -4.2050   -1.8414   -1.9519 H   0  0  0  0  0  0  0  0  0  0  0  0
   -3.8560   -3.4437   -1.5569 H   0  0  0  0  0  0  0  0  0  0  0  0
   -4.5482   -2.1572    0.0286 C   0  0  0  0  0  0  0  0  0  0  0  0
   -5.7955   -2.1902   -0.0095 O   0  0  0  0  0  1  0  0  0  0  0  0
   -3.9068   -1.9936    1.0879 O   0  0  0  0  0  0  0  0  0  0  0  0
    0.0075    2.8911   -0.0042 C   0  0  0  0  0  0  0  0  0  0  0  0
   -0.7332    3.2031   -0.5827 H   0  0  0  0  0  0  0  0  0  0  0  0
    0.8838    3.1956   -0.3529 H   0  0  0  0  0  0  0  0  0  0  0  0
   -0.1304    3.3408    0.9791 H   0  0  0  0  0  0  0  0  0  0  0  0
   -0.0001    1.3952   -0.0001 C   0  0  0  0  0  0  0  0  0  0  0  0
   -1.1924    0.6921   -0.0041 C   0  0  0  0  0  0  0  0  0  0  0  0
   -2.0591    1.1841   -0.0113 H   0  0  0  0  0  0  0  0  0  0  0  0
   -1.1960   -0.6905   -0.0000 C   0  0  0  0  0  0  0  0  0  0  0  0
   -2.0747   -1.1871    0.0029 H   0  0  0  0  0  0  0  0  0  0  0  0
    0.0006   -1.3871    0.0024 C   0  0  0  0  0  0  0  0  0  0  0  0
   -0.0057   -2.3865    0.0051 H   0  0  0  0  0  0  0  0  0  0  0  0
    1.1960   -0.6949    0.0000 C   0  0  0  0  0  0  0  0  0  0  0  0
    2.0785   -1.1957   -0.0013 H   0  0  0  0  0  0  0  0  0  0  0  0
    1.1919    0.6851    0.0018 C   0  0  0  0  0  0  0  0  0  0  0  0
    2.0619    1.1853    0.0042 H   0  0  0  0  0  0  0  0  0  0  0  0
  1  5  1  0
  5  6  1  0
  5  7  2  0
  1  2  1  0
  1  3  1  0
  1  4  1  0
  8 12  1  0
 12 13  2  0
 13 15  1  0
 15 17  2  0
 17 19  1  0
 19 21  2  0
 21 12  1  0
  8  9  1  0
  8 10  1  0
  8 11  1  0
 13 14  1  0
 15 16  1  0
 17 18  1  0
 19 20  1  0
 21 22  1  0
M  CHG  1   6  -1
M  END
>  <PDB_ID>  (2630) 
pdb5ul3

>  <RESIDUE_NAME>  (2630) 
GLU   PHE

>  <FRAG_NAME>  (2630) 
ACET   MBZ

>  <FRAG_ATOM_NUM>  (2630) 
fragi: 7  fragj: 15

>  <atom.prop.CHAIN_ID>  (2630) 
A A A A A A A Z Z Z Z Z Z Z Z Z Z Z Z Z Z Z

>  <atom.prop.IS_HEAVY_ATOM>  (2630) 
1 0 0 0 1 1 1 1 0 0 0 1 1 0 1 0 1 0 1 0 1 0

>  <DIFUSE_FUNC_ATOM>  (2630) 
atom 6   atom 7   

>  <FINAL_SINGLE_POINT_ENERGY>  (2630) 
0

>  <NONCOV_INTER_ENERGY_QM>  (2630) 
0

>  <FF_Energy>  (2630) 
9.55

>  <QM_Energy>  (2630) 
-2.0

>  <source>  (2630) 
ACET_MBZ_03

>  <Index>  (2630) 
3312

$$$$
ACET-pdb5ur0-A-GLU-169:MBZ-pdb5ur0-B-PHE-305
     RDKit          3D

 22 21  0  0  0  0  0  0  0  0999 V2000
    2.4857    0.1140   -3.2400 C   0  0  0  0  0  0  0  0  0  0  0  0
    2.5043   -0.2278   -4.1617 H   0  0  0  0  0  0  0  0  0  0  0  0
    1.9680   -0.4657   -2.6377 H   0  0  0  0  0  0  0  0  0  0  0  0
    3.5091    0.1790   -2.8707 H   0  0  0  0  0  0  0  0  0  0  0  0
    1.8099    1.4592   -3.2671 C   0  0  0  0  0  0  0  0  0  0  0  0
    2.4673    2.4548   -2.8881 O   0  0  0  0  0  1  0  0  0  0  0  0
    0.6282    1.5238   -3.6606 O   0  0  0  0  0  0  0  0  0  0  0  0
    0.0077    2.9069   -0.0266 C   0  0  0  0  0  0  0  0  0  0  0  0
   -0.0318    3.2008   -0.9717 H   0  0  0  0  0  0  0  0  0  0  0  0
    0.8430    3.2171    0.4069 H   0  0  0  0  0  0  0  0  0  0  0  0
   -0.8277    3.3705    0.4981 H   0  0  0  0  0  0  0  0  0  0  0  0
   -0.0002    1.4049   -0.0038 C   0  0  0  0  0  0  0  0  0  0  0  0
   -1.1905    0.6989    0.0056 C   0  0  0  0  0  0  0  0  0  0  0  0
   -2.0607    1.1842    0.0152 H   0  0  0  0  0  0  0  0  0  0  0  0
   -1.1991   -0.7008   -0.0000 C   0  0  0  0  0  0  0  0  0  0  0  0
   -2.0808   -1.1849   -0.0024 H   0  0  0  0  0  0  0  0  0  0  0  0
   -0.0067   -1.3980   -0.0004 C   0  0  0  0  0  0  0  0  0  0  0  0
   -0.0066   -2.3958   -0.0013 H   0  0  0  0  0  0  0  0  0  0  0  0
    1.1991   -0.6996    0.0000 C   0  0  0  0  0  0  0  0  0  0  0  0
    2.0790   -1.1984    0.0027 H   0  0  0  0  0  0  0  0  0  0  0  0
    1.1973    0.6946   -0.0014 C   0  0  0  0  0  0  0  0  0  0  0  0
    2.0654    1.1889   -0.0017 H   0  0  0  0  0  0  0  0  0  0  0  0
  1  5  1  0
  5  6  1  0
  5  7  2  0
  1  2  1  0
  1  3  1  0
  1  4  1  0
  8 12  1  0
 12 13  2  0
 13 15  1  0
 15 17  2  0
 17 19  1  0
 19 21  2  0
 21 12  1  0
  8  9  1  0
  8 10  1  0
  8 11  1  0
 13 14  1  0
 15 16  1  0
 17 18  1  0
 19 20  1  0
 21 22  1  0
M  CHG  1   6  -1
M  END
>  <PDB_ID>  (2631) 
pdb5ur0

>  <RESIDUE_NAME>  (2631) 
GLU   PHE

>  <FRAG_NAME>  (2631) 
ACET   MBZ

>  <FRAG_ATOM_NUM>  (2631) 
fragi: 7  fragj: 15

>  <atom.prop.CHAIN_ID>  (2631) 
A A A A A A A Z Z Z Z Z Z Z Z Z Z Z Z Z Z Z

>  <atom.prop.IS_HEAVY_ATOM>  (2631) 
1 0 0 0 1 1 1 1 0 0 0 1 1 0 1 0 1 0 1 0 1 0

>  <DIFUSE_FUNC_ATOM>  (2631) 
atom 6   atom 7   

>  <FINAL_SINGLE_POINT_ENERGY>  (2631) 
0

>  <NONCOV_INTER_ENERGY_QM>  (2631) 
0

>  <FF_Energy>  (2631) 
0.63

>  <QM_Energy>  (2631) 
-4.87

>  <source>  (2631) 
ACET_MBZ_03

>  <Index>  (2631) 
3456

$$$$
ACET-pdb5us1-F-ASP-37:MBZ-pdb5us1-F-PHE-33
     RDKit          3D

 22 21  0  0  0  0  0  0  0  0999 V2000
    1.0902   -0.7878   -3.1796 C   0  0  0  0  0  0  0  0  0  0  0  0
    0.5801   -0.0091   -3.5439 H   0  0  0  0  0  0  0  0  0  0  0  0
    0.8235   -0.9455   -2.2303 H   0  0  0  0  0  0  0  0  0  0  0  0
    0.8129   -1.6696   -3.7573 H   0  0  0  0  0  0  0  0  0  0  0  0
    2.5478   -0.4866   -3.2354 C   0  0  0  0  0  0  0  0  0  0  0  0
    2.9866    0.4206   -2.5116 O   0  0  0  0  0  1  0  0  0  0  0  0
    3.2568   -1.1468   -4.0166 O   0  0  0  0  0  0  0  0  0  0  0  0
    0.0178    2.8675   -0.0325 C   0  0  0  0  0  0  0  0  0  0  0  0
    0.4457    3.1977    0.7922 H   0  0  0  0  0  0  0  0  0  0  0  0
   -0.9104    3.1895   -0.1165 H   0  0  0  0  0  0  0  0  0  0  0  0
    0.5826    3.2570   -0.8795 H   0  0  0  0  0  0  0  0  0  0  0  0
    0.0011    1.3848    0.0057 C   0  0  0  0  0  0  0  0  0  0  0  0
   -1.1892    0.6938    0.0098 C   0  0  0  0  0  0  0  0  0  0  0  0
   -2.0544    1.1931    0.0183 H   0  0  0  0  0  0  0  0  0  0  0  0
   -1.1952   -0.6735   -0.0000 C   0  0  0  0  0  0  0  0  0  0  0  0
   -2.0755   -1.1748   -0.0095 H   0  0  0  0  0  0  0  0  0  0  0  0
   -0.0021   -1.3797    0.0041 C   0  0  0  0  0  0  0  0  0  0  0  0
   -0.0208   -2.3811    0.0089 H   0  0  0  0  0  0  0  0  0  0  0  0
    1.1952   -0.7012    0.0000 C   0  0  0  0  0  0  0  0  0  0  0  0
    2.0740   -1.2039    0.0129 H   0  0  0  0  0  0  0  0  0  0  0  0
    1.1902    0.6757   -0.0195 C   0  0  0  0  0  0  0  0  0  0  0  0
    2.0604    1.1763   -0.0533 H   0  0  0  0  0  0  0  0  0  0  0  0
  1  5  1  0
  5  6  1  0
  5  7  2  0
  1  2  1  0
  1  3  1  0
  1  4  1  0
  8 12  1  0
 12 13  2  0
 13 15  1  0
 15 17  2  0
 17 19  1  0
 19 21  2  0
 21 12  1  0
  8  9  1  0
  8 10  1  0
  8 11  1  0
 13 14  1  0
 15 16  1  0
 17 18  1  0
 19 20  1  0
 21 22  1  0
M  CHG  1   6  -1
M  END
>  <PDB_ID>  (2632) 
pdb5us1

>  <RESIDUE_NAME>  (2632) 
ASP   PHE

>  <FRAG_NAME>  (2632) 
ACET   MBZ

>  <FRAG_ATOM_NUM>  (2632) 
fragi: 7  fragj: 15

>  <atom.prop.CHAIN_ID>  (2632) 
A A A A A A A Z Z Z Z Z Z Z Z Z Z Z Z Z Z Z

>  <atom.prop.IS_HEAVY_ATOM>  (2632) 
1 0 0 0 1 1 1 1 0 0 0 1 1 0 1 0 1 0 1 0 1 0

>  <DIFUSE_FUNC_ATOM>  (2632) 
atom 6   atom 7   

>  <FINAL_SINGLE_POINT_ENERGY>  (2632) 
0

>  <NONCOV_INTER_ENERGY_QM>  (2632) 
0

>  <FF_Energy>  (2632) 
4.82

>  <QM_Energy>  (2632) 
-1.15

>  <source>  (2632) 
ACET_MBZ_03

>  <Index>  (2632) 
3475

$$$$
ACET-pdb5us8-B-ASP-128:MBZ-pdb5us8-B-PHE-140
     RDKit          3D

 22 21  0  0  0  0  0  0  0  0999 V2000
    4.0951    2.9410    3.9469 C   0  0  0  0  0  0  0  0  0  0  0  0
    3.2399    2.9076    4.4538 H   0  0  0  0  0  0  0  0  0  0  0  0
    4.3741    3.8848    3.8033 H   0  0  0  0  0  0  0  0  0  0  0  0
    4.8623    2.4475    4.5435 H   0  0  0  0  0  0  0  0  0  0  0  0
    3.8664    2.2909    2.5726 C   0  0  0  0  0  0  0  0  0  0  0  0
    4.2354    1.1160    2.3645 O   0  0  0  0  0  1  0  0  0  0  0  0
    3.3028    2.9918    1.6909 O   0  0  0  0  0  0  0  0  0  0  0  0
    0.0329    2.9304    0.0682 C   0  0  0  0  0  0  0  0  0  0  0  0
    0.8765    3.2410   -0.3473 H   0  0  0  0  0  0  0  0  0  0  0  0
   -0.0032    3.1752    1.0267 H   0  0  0  0  0  0  0  0  0  0  0  0
   -0.7913    3.4359   -0.4349 H   0  0  0  0  0  0  0  0  0  0  0  0
    0.0021    1.4155   -0.0239 C   0  0  0  0  0  0  0  0  0  0  0  0
   -1.2034    0.6995    0.0099 C   0  0  0  0  0  0  0  0  0  0  0  0
   -2.0665    1.1866    0.0400 H   0  0  0  0  0  0  0  0  0  0  0  0
   -1.2022   -0.6988   -0.0000 C   0  0  0  0  0  0  0  0  0  0  0  0
   -2.0799   -1.1920   -0.0058 H   0  0  0  0  0  0  0  0  0  0  0  0
    0.0006   -1.3999   -0.0004 C   0  0  0  0  0  0  0  0  0  0  0  0
   -0.0078   -2.3979   -0.0015 H   0  0  0  0  0  0  0  0  0  0  0  0
    1.2022   -0.7058    0.0000 C   0  0  0  0  0  0  0  0  0  0  0  0
    2.0826   -1.2024   -0.0085 H   0  0  0  0  0  0  0  0  0  0  0  0
    1.2007    0.6895    0.0143 C   0  0  0  0  0  0  0  0  0  0  0  0
    2.0703    1.1833    0.0518 H   0  0  0  0  0  0  0  0  0  0  0  0
  1  5  1  0
  5  6  1  0
  5  7  2  0
  1  2  1  0
  1  3  1  0
  1  4  1  0
  8 12  1  0
 12 13  2  0
 13 15  1  0
 15 17  2  0
 17 19  1  0
 19 21  2  0
 21 12  1  0
  8  9  1  0
  8 10  1  0
  8 11  1  0
 13 14  1  0
 15 16  1  0
 17 18  1  0
 19 20  1  0
 21 22  1  0
M  CHG  1   6  -1
M  END
>  <PDB_ID>  (2633) 
pdb5us8

>  <RESIDUE_NAME>  (2633) 
ASP   PHE

>  <FRAG_NAME>  (2633) 
ACET   MBZ

>  <FRAG_ATOM_NUM>  (2633) 
fragi: 7  fragj: 15

>  <atom.prop.CHAIN_ID>  (2633) 
A A A A A A A Z Z Z Z Z Z Z Z Z Z Z Z Z Z Z

>  <atom.prop.IS_HEAVY_ATOM>  (2633) 
1 0 0 0 1 1 1 1 0 0 0 1 1 0 1 0 1 0 1 0 1 0

>  <DIFUSE_FUNC_ATOM>  (2633) 
atom 6   atom 7   

>  <FINAL_SINGLE_POINT_ENERGY>  (2633) 
0

>  <NONCOV_INTER_ENERGY_QM>  (2633) 
0

>  <FF_Energy>  (2633) 
-2.03

>  <QM_Energy>  (2633) 
-7.09

>  <source>  (2633) 
ACET_MBZ_03

>  <Index>  (2633) 
3484

$$$$
ACET-pdb5ur2-A-GLU-744:MBZ-pdb5ur2-A-PHE-941
     RDKit          3D

 22 21  0  0  0  0  0  0  0  0999 V2000
    5.1991   -2.0524    2.3278 C   0  0  0  0  0  0  0  0  0  0  0  0
    5.2689   -3.0283    2.2582 H   0  0  0  0  0  0  0  0  0  0  0  0
    4.5716   -1.7677    3.0259 H   0  0  0  0  0  0  0  0  0  0  0  0
    6.1852   -1.6552    2.5689 H   0  0  0  0  0  0  0  0  0  0  0  0
    4.6800   -1.5323    1.0033 C   0  0  0  0  0  0  0  0  0  0  0  0
    4.9899   -0.3714    0.6334 O   0  0  0  0  0  1  0  0  0  0  0  0
    3.9833   -2.3015    0.3119 O   0  0  0  0  0  0  0  0  0  0  0  0
   -0.0032    2.9020    0.0143 C   0  0  0  0  0  0  0  0  0  0  0  0
   -0.7352    3.2163   -0.5656 H   0  0  0  0  0  0  0  0  0  0  0  0
    0.8756    3.2180   -0.2994 H   0  0  0  0  0  0  0  0  0  0  0  0
   -0.1679    3.3109    1.0112 H   0  0  0  0  0  0  0  0  0  0  0  0
    0.0021    1.4018   -0.0110 C   0  0  0  0  0  0  0  0  0  0  0  0
   -1.1976    0.6925    0.0197 C   0  0  0  0  0  0  0  0  0  0  0  0
   -2.0618    1.1876    0.0557 H   0  0  0  0  0  0  0  0  0  0  0  0
   -1.2073   -0.6945   -0.0000 C   0  0  0  0  0  0  0  0  0  0  0  0
   -2.0835   -1.1885   -0.0061 H   0  0  0  0  0  0  0  0  0  0  0  0
   -0.0031   -1.4007   -0.0101 C   0  0  0  0  0  0  0  0  0  0  0  0
   -0.0106   -2.3961   -0.0254 H   0  0  0  0  0  0  0  0  0  0  0  0
    1.2073   -0.7046   -0.0000 C   0  0  0  0  0  0  0  0  0  0  0  0
    2.0846   -1.1944    0.0074 H   0  0  0  0  0  0  0  0  0  0  0  0
    1.1986    0.7055    0.0014 C   0  0  0  0  0  0  0  0  0  0  0  0
    2.0667    1.1938    0.0104 H   0  0  0  0  0  0  0  0  0  0  0  0
  1  5  1  0
  5  6  1  0
  5  7  2  0
  1  2  1  0
  1  3  1  0
  1  4  1  0
  8 12  1  0
 12 13  2  0
 13 15  1  0
 15 17  2  0
 17 19  1  0
 19 21  2  0
 21 12  1  0
  8  9  1  0
  8 10  1  0
  8 11  1  0
 13 14  1  0
 15 16  1  0
 17 18  1  0
 19 20  1  0
 21 22  1  0
M  CHG  1   6  -1
M  END
>  <PDB_ID>  (2634) 
pdb5ur2

>  <RESIDUE_NAME>  (2634) 
GLU   PHE

>  <FRAG_NAME>  (2634) 
ACET   MBZ

>  <FRAG_ATOM_NUM>  (2634) 
fragi: 7  fragj: 15

>  <atom.prop.CHAIN_ID>  (2634) 
A A A A A A A Z Z Z Z Z Z Z Z Z Z Z Z Z Z Z

>  <atom.prop.IS_HEAVY_ATOM>  (2634) 
1 0 0 0 1 1 1 1 0 0 0 1 1 0 1 0 1 0 1 0 1 0

>  <DIFUSE_FUNC_ATOM>  (2634) 
atom 6   atom 7   

>  <FINAL_SINGLE_POINT_ENERGY>  (2634) 
0

>  <NONCOV_INTER_ENERGY_QM>  (2634) 
0

>  <FF_Energy>  (2634) 
-1.74

>  <QM_Energy>  (2634) 
-7.59

>  <source>  (2634) 
ACET_MBZ_03

>  <Index>  (2634) 
3510

$$$$
ACET-pdb5uzh-A-GLU-76:MBZ-pdb5uzh-A-PHE-70
     RDKit          3D

 22 21  0  0  0  0  0  0  0  0999 V2000
    0.7630   -4.8668    0.9286 C   0  0  0  0  0  0  0  0  0  0  0  0
    0.7224   -4.3379    1.7778 H   0  0  0  0  0  0  0  0  0  0  0  0
    1.3761   -5.6487    1.0566 H   0  0  0  0  0  0  0  0  0  0  0  0
   -0.2360   -5.2578    0.7356 H   0  0  0  0  0  0  0  0  0  0  0  0
    1.3548   -3.9897   -0.1285 C   0  0  0  0  0  0  0  0  0  0  0  0
    0.7839   -3.6997   -1.1710 O   0  0  0  0  0  1  0  0  0  0  0  0
    2.5020   -3.5974    0.1654 O   0  0  0  0  0  0  0  0  0  0  0  0
    0.0171    2.9010   -0.0272 C   0  0  0  0  0  0  0  0  0  0  0  0
   -0.5718    3.1970   -0.7695 H   0  0  0  0  0  0  0  0  0  0  0  0
    0.9527    3.1935   -0.1853 H   0  0  0  0  0  0  0  0  0  0  0  0
   -0.3311    3.3874    0.8840 H   0  0  0  0  0  0  0  0  0  0  0  0
    0.0015    1.3955    0.0067 C   0  0  0  0  0  0  0  0  0  0  0  0
   -1.1918    0.6928   -0.0081 C   0  0  0  0  0  0  0  0  0  0  0  0
   -2.0587    1.1813   -0.0258 H   0  0  0  0  0  0  0  0  0  0  0  0
   -1.1928   -0.6956   -0.0000 C   0  0  0  0  0  0  0  0  0  0  0  0
   -2.0713   -1.1895    0.0042 H   0  0  0  0  0  0  0  0  0  0  0  0
    0.0009   -1.3825    0.0035 C   0  0  0  0  0  0  0  0  0  0  0  0
   -0.0024   -2.3874    0.0077 H   0  0  0  0  0  0  0  0  0  0  0  0
    1.1928   -0.6940    0.0000 C   0  0  0  0  0  0  0  0  0  0  0  0
    2.0765   -1.1948    0.0013 H   0  0  0  0  0  0  0  0  0  0  0  0
    1.1895    0.6838   -0.0021 C   0  0  0  0  0  0  0  0  0  0  0  0
    2.0609    1.1829   -0.0110 H   0  0  0  0  0  0  0  0  0  0  0  0
  1  5  1  0
  5  6  1  0
  5  7  2  0
  1  2  1  0
  1  3  1  0
  1  4  1  0
  8 12  1  0
 12 13  2  0
 13 15  1  0
 15 17  2  0
 17 19  1  0
 19 21  2  0
 21 12  1  0
  8  9  1  0
  8 10  1  0
  8 11  1  0
 13 14  1  0
 15 16  1  0
 17 18  1  0
 19 20  1  0
 21 22  1  0
M  CHG  1   6  -1
M  END
>  <PDB_ID>  (2635) 
pdb5uzh

>  <RESIDUE_NAME>  (2635) 
GLU   PHE

>  <FRAG_NAME>  (2635) 
ACET   MBZ

>  <FRAG_ATOM_NUM>  (2635) 
fragi: 7  fragj: 15

>  <atom.prop.CHAIN_ID>  (2635) 
A A A A A A A Z Z Z Z Z Z Z Z Z Z Z Z Z Z Z

>  <atom.prop.IS_HEAVY_ATOM>  (2635) 
1 0 0 0 1 1 1 1 0 0 0 1 1 0 1 0 1 0 1 0 1 0

>  <DIFUSE_FUNC_ATOM>  (2635) 
atom 6   atom 7   

>  <FINAL_SINGLE_POINT_ENERGY>  (2635) 
0

>  <NONCOV_INTER_ENERGY_QM>  (2635) 
0

>  <FF_Energy>  (2635) 
25.61

>  <QM_Energy>  (2635) 
-0.77

>  <source>  (2635) 
ACET_MBZ_03

>  <Index>  (2635) 
3652

$$$$
ACET-pdb5ur2-A-ASP-591:MBZ-pdb5ur2-A-PHE-641
     RDKit          3D

 22 21  0  0  0  0  0  0  0  0999 V2000
    5.2147    2.6996    1.9434 C   0  0  0  0  0  0  0  0  0  0  0  0
    4.9094    1.9295    2.4905 H   0  0  0  0  0  0  0  0  0  0  0  0
    5.8269    3.2794    2.4647 H   0  0  0  0  0  0  0  0  0  0  0  0
    5.7643    2.3093    1.0868 H   0  0  0  0  0  0  0  0  0  0  0  0
    3.9908    3.5232    1.5392 C   0  0  0  0  0  0  0  0  0  0  0  0
    2.9349    2.9001    1.3159 O   0  0  0  0  0  1  0  0  0  0  0  0
    4.0532    4.7718    1.4602 O   0  0  0  0  0  0  0  0  0  0  0  0
    0.0155    2.9032    0.0039 C   0  0  0  0  0  0  0  0  0  0  0  0
   -0.7622    3.2188   -0.5162 H   0  0  0  0  0  0  0  0  0  0  0  0
    0.8662    3.2067   -0.3947 H   0  0  0  0  0  0  0  0  0  0  0  0
   -0.0559    3.3272    1.0054 H   0  0  0  0  0  0  0  0  0  0  0  0
    0.0053    1.4025   -0.0093 C   0  0  0  0  0  0  0  0  0  0  0  0
   -1.1907    0.7026    0.0066 C   0  0  0  0  0  0  0  0  0  0  0  0
   -2.0566    1.1958    0.0215 H   0  0  0  0  0  0  0  0  0  0  0  0
   -1.2009   -0.6860    0.0000 C   0  0  0  0  0  0  0  0  0  0  0  0
   -2.0867   -1.1735   -0.0084 H   0  0  0  0  0  0  0  0  0  0  0  0
   -0.0135   -1.3961    0.0066 C   0  0  0  0  0  0  0  0  0  0  0  0
   -0.0254   -2.3944    0.0153 H   0  0  0  0  0  0  0  0  0  0  0  0
    1.2009   -0.7120   -0.0000 C   0  0  0  0  0  0  0  0  0  0  0  0
    2.0737   -1.2101   -0.0009 H   0  0  0  0  0  0  0  0  0  0  0  0
    1.1989    0.6889   -0.0039 C   0  0  0  0  0  0  0  0  0  0  0  0
    2.0704    1.1786   -0.0035 H   0  0  0  0  0  0  0  0  0  0  0  0
  1  5  1  0
  5  6  1  0
  5  7  2  0
  1  2  1  0
  1  3  1  0
  1  4  1  0
  8 12  1  0
 12 13  2  0
 13 15  1  0
 15 17  2  0
 17 19  1  0
 19 21  2  0
 21 12  1  0
  8  9  1  0
  8 10  1  0
  8 11  1  0
 13 14  1  0
 15 16  1  0
 17 18  1  0
 19 20  1  0
 21 22  1  0
M  CHG  1   6  -1
M  END
>  <PDB_ID>  (2636) 
pdb5ur2

>  <RESIDUE_NAME>  (2636) 
ASP   PHE

>  <FRAG_NAME>  (2636) 
ACET   MBZ

>  <FRAG_ATOM_NUM>  (2636) 
fragi: 7  fragj: 15

>  <atom.prop.CHAIN_ID>  (2636) 
A A A A A A A Z Z Z Z Z Z Z Z Z Z Z Z Z Z Z

>  <atom.prop.IS_HEAVY_ATOM>  (2636) 
1 0 0 0 1 1 1 1 0 0 0 1 1 0 1 0 1 0 1 0 1 0

>  <DIFUSE_FUNC_ATOM>  (2636) 
atom 6   atom 7   

>  <FINAL_SINGLE_POINT_ENERGY>  (2636) 
0

>  <NONCOV_INTER_ENERGY_QM>  (2636) 
0

>  <FF_Energy>  (2636) 
-0.54

>  <QM_Energy>  (2636) 
-7.12

>  <source>  (2636) 
ACET_MBZ_03

>  <Index>  (2636) 
3680

$$$$
ACET-pdb5v2l-A-ASP-38:MBZ-pdb5v2l-A-PHE-316
     RDKit          3D

 22 21  0  0  0  0  0  0  0  0999 V2000
    4.2745    5.4924    0.0902 C   0  0  0  0  0  0  0  0  0  0  0  0
    4.9598    5.4980    0.7769 H   0  0  0  0  0  0  0  0  0  0  0  0
    3.5264    6.0433    0.3697 H   0  0  0  0  0  0  0  0  0  0  0  0
    4.6939    5.9108   -0.8248 H   0  0  0  0  0  0  0  0  0  0  0  0
    3.7587    4.0328   -0.0517 C   0  0  0  0  0  0  0  0  0  0  0  0
    3.6627    3.4888   -1.1664 O   0  0  0  0  0  1  0  0  0  0  0  0
    3.4361    3.4334    1.0020 O   0  0  0  0  0  0  0  0  0  0  0  0
    0.0184    2.9323   -0.0286 C   0  0  0  0  0  0  0  0  0  0  0  0
    0.8031    3.2449    0.4482 H   0  0  0  0  0  0  0  0  0  0  0  0
   -0.7868    3.2572    0.4045 H   0  0  0  0  0  0  0  0  0  0  0  0
    0.0499    3.3069   -1.0517 H   0  0  0  0  0  0  0  0  0  0  0  0
    0.0051    1.4045    0.0256 C   0  0  0  0  0  0  0  0  0  0  0  0
   -1.1819    0.7055   -0.0227 C   0  0  0  0  0  0  0  0  0  0  0  0
   -1.9869    1.1705   -0.0172 H   0  0  0  0  0  0  0  0  0  0  0  0
   -1.1958   -0.6867    0.0000 C   0  0  0  0  0  0  0  0  0  0  0  0
   -2.0079   -1.1401   -0.0145 H   0  0  0  0  0  0  0  0  0  0  0  0
   -0.0230   -1.3937   -0.0073 C   0  0  0  0  0  0  0  0  0  0  0  0
   -0.0387   -2.3237    0.0033 H   0  0  0  0  0  0  0  0  0  0  0  0
    1.1958   -0.7153    0.0000 C   0  0  0  0  0  0  0  0  0  0  0  0
    1.9971   -1.1874    0.0101 H   0  0  0  0  0  0  0  0  0  0  0  0
    1.1998    0.6857    0.0044 C   0  0  0  0  0  0  0  0  0  0  0  0
    2.0097    1.1423    0.0085 H   0  0  0  0  0  0  0  0  0  0  0  0
  1  5  1  0
  5  6  1  0
  5  7  2  0
  1  2  1  0
  1  3  1  0
  1  4  1  0
  8 12  1  0
 12 13  2  0
 13 15  1  0
 15 17  2  0
 17 19  1  0
 19 21  2  0
 21 12  1  0
  8  9  1  0
  8 10  1  0
  8 11  1  0
 13 14  1  0
 15 16  1  0
 17 18  1  0
 19 20  1  0
 21 22  1  0
M  CHG  1   6  -1
M  END
>  <PDB_ID>  (2637) 
pdb5v2l

>  <RESIDUE_NAME>  (2637) 
ASP   PHE

>  <FRAG_NAME>  (2637) 
ACET   MBZ

>  <FRAG_ATOM_NUM>  (2637) 
fragi: 7  fragj: 15

>  <atom.prop.CHAIN_ID>  (2637) 
A A A A A A A Z Z Z Z Z Z Z Z Z Z Z Z Z Z Z

>  <atom.prop.IS_HEAVY_ATOM>  (2637) 
1 0 0 0 1 1 1 1 0 0 0 1 1 0 1 0 1 0 1 0 1 0

>  <DIFUSE_FUNC_ATOM>  (2637) 
atom 6   atom 7   

>  <FINAL_SINGLE_POINT_ENERGY>  (2637) 
0

>  <NONCOV_INTER_ENERGY_QM>  (2637) 
0

>  <FF_Energy>  (2637) 
-2.51

>  <QM_Energy>  (2637) 
-8.1

>  <source>  (2637) 
ACET_MBZ_03

>  <Index>  (2637) 
3760

$$$$
ACET-pdb5v7p-A-GLU-170:MBZ-pdb5v7p-A-PHE-102
     RDKit          3D

 22 21  0  0  0  0  0  0  0  0999 V2000
   -4.9740    3.0570    0.6606 C   0  0  0  0  0  0  0  0  0  0  0  0
   -4.7706    2.4908   -0.1140 H   0  0  0  0  0  0  0  0  0  0  0  0
   -4.6930    3.9879    0.5311 H   0  0  0  0  0  0  0  0  0  0  0  0
   -6.0517    3.0417    0.8230 H   0  0  0  0  0  0  0  0  0  0  0  0
   -4.2084    2.5068    1.8453 C   0  0  0  0  0  0  0  0  0  0  0  0
   -4.3535    3.0609    2.9561 O   0  0  0  0  0  1  0  0  0  0  0  0
   -3.4737    1.5129    1.6743 O   0  0  0  0  0  0  0  0  0  0  0  0
   -0.0031    2.8960    0.0091 C   0  0  0  0  0  0  0  0  0  0  0  0
   -0.8049    3.2040   -0.4775 H   0  0  0  0  0  0  0  0  0  0  0  0
    0.8269    3.2060   -0.4258 H   0  0  0  0  0  0  0  0  0  0  0  0
   -0.0353    3.3216    1.0121 H   0  0  0  0  0  0  0  0  0  0  0  0
   -0.0005    1.3936   -0.0024 C   0  0  0  0  0  0  0  0  0  0  0  0
   -1.1917    0.6888    0.0016 C   0  0  0  0  0  0  0  0  0  0  0  0
   -2.0591    1.1815    0.0045 H   0  0  0  0  0  0  0  0  0  0  0  0
   -1.1952   -0.6908   -0.0000 C   0  0  0  0  0  0  0  0  0  0  0  0
   -2.0737   -1.1884   -0.0002 H   0  0  0  0  0  0  0  0  0  0  0  0
   -0.0004   -1.3846    0.0001 C   0  0  0  0  0  0  0  0  0  0  0  0
   -0.0059   -2.3865   -0.0001 H   0  0  0  0  0  0  0  0  0  0  0  0
    1.1952   -0.6947    0.0000 C   0  0  0  0  0  0  0  0  0  0  0  0
    2.0781   -1.1955    0.0012 H   0  0  0  0  0  0  0  0  0  0  0  0
    1.1927    0.6877    0.0008 C   0  0  0  0  0  0  0  0  0  0  0  0
    2.0613    1.1861    0.0022 H   0  0  0  0  0  0  0  0  0  0  0  0
  1  5  1  0
  5  6  1  0
  5  7  2  0
  1  2  1  0
  1  3  1  0
  1  4  1  0
  8 12  1  0
 12 13  2  0
 13 15  1  0
 15 17  2  0
 17 19  1  0
 19 21  2  0
 21 12  1  0
  8  9  1  0
  8 10  1  0
  8 11  1  0
 13 14  1  0
 15 16  1  0
 17 18  1  0
 19 20  1  0
 21 22  1  0
M  CHG  1   6  -1
M  END
>  <PDB_ID>  (2638) 
pdb5v7p

>  <RESIDUE_NAME>  (2638) 
GLU   PHE

>  <FRAG_NAME>  (2638) 
ACET   MBZ

>  <FRAG_ATOM_NUM>  (2638) 
fragi: 7  fragj: 15

>  <atom.prop.CHAIN_ID>  (2638) 
A A A A A A A Z Z Z Z Z Z Z Z Z Z Z Z Z Z Z

>  <atom.prop.IS_HEAVY_ATOM>  (2638) 
1 0 0 0 1 1 1 1 0 0 0 1 1 0 1 0 1 0 1 0 1 0

>  <DIFUSE_FUNC_ATOM>  (2638) 
atom 6   atom 7   

>  <FINAL_SINGLE_POINT_ENERGY>  (2638) 
0

>  <NONCOV_INTER_ENERGY_QM>  (2638) 
0

>  <FF_Energy>  (2638) 
1.0

>  <QM_Energy>  (2638) 
-4.69

>  <source>  (2638) 
ACET_MBZ_03

>  <Index>  (2638) 
3923

$$$$
ACET-pdb5v8d-A-GLU-263:MBZ-pdb5v8d-A-PHE-197
     RDKit          3D

 22 21  0  0  0  0  0  0  0  0999 V2000
   -5.5840    3.2274    1.3656 C   0  0  0  0  0  0  0  0  0  0  0  0
   -6.0787    3.7732    0.7200 H   0  0  0  0  0  0  0  0  0  0  0  0
   -5.8436    3.4075    2.2933 H   0  0  0  0  0  0  0  0  0  0  0  0
   -5.7728    2.1761    1.1482 H   0  0  0  0  0  0  0  0  0  0  0  0
   -4.1173    3.5721    1.2267 C   0  0  0  0  0  0  0  0  0  0  0  0
   -3.5339    4.0565    2.2169 O   0  0  0  0  0  1  0  0  0  0  0  0
   -3.5601    3.3599    0.1260 O   0  0  0  0  0  0  0  0  0  0  0  0
   -0.0005    2.8921    0.0106 C   0  0  0  0  0  0  0  0  0  0  0  0
    0.9265    3.1979    0.1745 H   0  0  0  0  0  0  0  0  0  0  0  0
   -0.6082    3.1945    0.7314 H   0  0  0  0  0  0  0  0  0  0  0  0
   -0.3405    3.3403   -0.9230 H   0  0  0  0  0  0  0  0  0  0  0  0
   -0.0013    1.3957   -0.0003 C   0  0  0  0  0  0  0  0  0  0  0  0
   -1.1932    0.6922   -0.0013 C   0  0  0  0  0  0  0  0  0  0  0  0
   -2.0605    1.1767   -0.0039 H   0  0  0  0  0  0  0  0  0  0  0  0
   -1.1892   -0.6984   -0.0000 C   0  0  0  0  0  0  0  0  0  0  0  0
   -2.0675   -1.1936    0.0033 H   0  0  0  0  0  0  0  0  0  0  0  0
    0.0059   -1.3827   -0.0008 C   0  0  0  0  0  0  0  0  0  0  0  0
   -0.0005   -2.3891   -0.0019 H   0  0  0  0  0  0  0  0  0  0  0  0
    1.1892   -0.6980    0.0000 C   0  0  0  0  0  0  0  0  0  0  0  0
    2.0779   -1.1914    0.0007 H   0  0  0  0  0  0  0  0  0  0  0  0
    1.1886    0.6912    0.0023 C   0  0  0  0  0  0  0  0  0  0  0  0
    2.0594    1.1838    0.0051 H   0  0  0  0  0  0  0  0  0  0  0  0
  1  5  1  0
  5  6  1  0
  5  7  2  0
  1  2  1  0
  1  3  1  0
  1  4  1  0
  8 12  1  0
 12 13  2  0
 13 15  1  0
 15 17  2  0
 17 19  1  0
 19 21  2  0
 21 12  1  0
  8  9  1  0
  8 10  1  0
  8 11  1  0
 13 14  1  0
 15 16  1  0
 17 18  1  0
 19 20  1  0
 21 22  1  0
M  CHG  1   6  -1
M  END
>  <PDB_ID>  (2639) 
pdb5v8d

>  <RESIDUE_NAME>  (2639) 
GLU   PHE

>  <FRAG_NAME>  (2639) 
ACET   MBZ

>  <FRAG_ATOM_NUM>  (2639) 
fragi: 7  fragj: 15

>  <atom.prop.CHAIN_ID>  (2639) 
A A A A A A A Z Z Z Z Z Z Z Z Z Z Z Z Z Z Z

>  <atom.prop.IS_HEAVY_ATOM>  (2639) 
1 0 0 0 1 1 1 1 0 0 0 1 1 0 1 0 1 0 1 0 1 0

>  <DIFUSE_FUNC_ATOM>  (2639) 
atom 6   atom 7   

>  <FINAL_SINGLE_POINT_ENERGY>  (2639) 
0

>  <NONCOV_INTER_ENERGY_QM>  (2639) 
0

>  <FF_Energy>  (2639) 
-2.21

>  <QM_Energy>  (2639) 
-7.51

>  <source>  (2639) 
ACET_MBZ_03

>  <Index>  (2639) 
4000

$$$$
ACET-pdb5vbn-A-GLU-411:MBZ-pdb5vbn-A-PHE-261
     RDKit          3D

 22 21  0  0  0  0  0  0  0  0999 V2000
    0.1761    0.8333   -3.9630 C   0  0  0  0  0  0  0  0  0  0  0  0
    1.0893    0.9639   -3.6088 H   0  0  0  0  0  0  0  0  0  0  0  0
    0.1691    0.8337   -4.9517 H   0  0  0  0  0  0  0  0  0  0  0  0
   -0.1772   -0.1409   -3.6251 H   0  0  0  0  0  0  0  0  0  0  0  0
   -0.6713    1.9962   -3.4958 C   0  0  0  0  0  0  0  0  0  0  0  0
   -1.9224    1.9453   -3.6333 O   0  0  0  0  0  1  0  0  0  0  0  0
   -0.0769    2.9782   -2.9980 O   0  0  0  0  0  0  0  0  0  0  0  0
   -0.0047    2.9111    0.0431 C   0  0  0  0  0  0  0  0  0  0  0  0
   -0.4833    3.2342   -0.7547 H   0  0  0  0  0  0  0  0  0  0  0  0
    0.9322    3.2162    0.0587 H   0  0  0  0  0  0  0  0  0  0  0  0
   -0.5049    3.3165    0.9226 H   0  0  0  0  0  0  0  0  0  0  0  0
    0.0011    1.3988    0.0000 C   0  0  0  0  0  0  0  0  0  0  0  0
   -1.1979    0.6879   -0.0016 C   0  0  0  0  0  0  0  0  0  0  0  0
   -2.0627    1.1805   -0.0053 H   0  0  0  0  0  0  0  0  0  0  0  0
   -1.1996   -0.6970    0.0000 C   0  0  0  0  0  0  0  0  0  0  0  0
   -2.0752   -1.1954    0.0011 H   0  0  0  0  0  0  0  0  0  0  0  0
    0.0020   -1.3906    0.0019 C   0  0  0  0  0  0  0  0  0  0  0  0
    0.0004   -2.3896    0.0042 H   0  0  0  0  0  0  0  0  0  0  0  0
    1.1996   -0.6913    0.0000 C   0  0  0  0  0  0  0  0  0  0  0  0
    2.0823   -1.1906    0.0005 H   0  0  0  0  0  0  0  0  0  0  0  0
    1.1947    0.6922   -0.0003 C   0  0  0  0  0  0  0  0  0  0  0  0
    2.0632    1.1907   -0.0020 H   0  0  0  0  0  0  0  0  0  0  0  0
  1  5  1  0
  5  6  1  0
  5  7  2  0
  1  2  1  0
  1  3  1  0
  1  4  1  0
  8 12  1  0
 12 13  2  0
 13 15  1  0
 15 17  2  0
 17 19  1  0
 19 21  2  0
 21 12  1  0
  8  9  1  0
  8 10  1  0
  8 11  1  0
 13 14  1  0
 15 16  1  0
 17 18  1  0
 19 20  1  0
 21 22  1  0
M  CHG  1   6  -1
M  END
>  <PDB_ID>  (2640) 
pdb5vbn

>  <RESIDUE_NAME>  (2640) 
GLU   PHE

>  <FRAG_NAME>  (2640) 
ACET   MBZ

>  <FRAG_ATOM_NUM>  (2640) 
fragi: 7  fragj: 15

>  <atom.prop.CHAIN_ID>  (2640) 
A A A A A A A Z Z Z Z Z Z Z Z Z Z Z Z Z Z Z

>  <atom.prop.IS_HEAVY_ATOM>  (2640) 
1 0 0 0 1 1 1 1 0 0 0 1 1 0 1 0 1 0 1 0 1 0

>  <DIFUSE_FUNC_ATOM>  (2640) 
atom 6   atom 7   

>  <FINAL_SINGLE_POINT_ENERGY>  (2640) 
0

>  <NONCOV_INTER_ENERGY_QM>  (2640) 
0

>  <FF_Energy>  (2640) 
1.37

>  <QM_Energy>  (2640) 
-5.6

>  <source>  (2640) 
ACET_MBZ_03

>  <Index>  (2640) 
4029

$$$$
ACET-pdb5ve3-A-GLU-46:MBZ-pdb5ve3-A-PHE-250
     RDKit          3D

 22 21  0  0  0  0  0  0  0  0999 V2000
    0.9722    5.4632   -3.4141 C   0  0  0  0  0  0  0  0  0  0  0  0
    1.3472    6.3328   -3.7041 H   0  0  0  0  0  0  0  0  0  0  0  0
   -0.0169    5.4991   -3.3747 H   0  0  0  0  0  0  0  0  0  0  0  0
    1.2229    4.7465   -4.1961 H   0  0  0  0  0  0  0  0  0  0  0  0
    1.4985    5.1485   -2.0306 C   0  0  0  0  0  0  0  0  0  0  0  0
    2.3046    4.1912   -1.9108 O   0  0  0  0  0  1  0  0  0  0  0  0
    1.1177    5.8697   -1.0450 O   0  0  0  0  0  0  0  0  0  0  0  0
    0.0281    2.9404   -0.0028 C   0  0  0  0  0  0  0  0  0  0  0  0
   -0.4006    3.2244   -0.8460 H   0  0  0  0  0  0  0  0  0  0  0  0
    0.9788    3.2091    0.0278 H   0  0  0  0  0  0  0  0  0  0  0  0
   -0.4943    3.4099    0.8306 H   0  0  0  0  0  0  0  0  0  0  0  0
    0.0017    1.3927    0.0105 C   0  0  0  0  0  0  0  0  0  0  0  0
   -1.1912    0.6972   -0.0051 C   0  0  0  0  0  0  0  0  0  0  0  0
   -2.0540    1.2165   -0.0220 H   0  0  0  0  0  0  0  0  0  0  0  0
   -1.2133   -0.6468   -0.0000 C   0  0  0  0  0  0  0  0  0  0  0  0
   -2.0939   -1.1549    0.0217 H   0  0  0  0  0  0  0  0  0  0  0  0
   -0.0136   -1.3933   -0.0229 C   0  0  0  0  0  0  0  0  0  0  0  0
   -0.0567   -2.3847   -0.0557 H   0  0  0  0  0  0  0  0  0  0  0  0
    1.2133   -0.7312    0.0000 C   0  0  0  0  0  0  0  0  0  0  0  0
    2.0758   -1.2249    0.0054 H   0  0  0  0  0  0  0  0  0  0  0  0
    1.2031    0.6814    0.0175 C   0  0  0  0  0  0  0  0  0  0  0  0
    2.0717    1.1711    0.0346 H   0  0  0  0  0  0  0  0  0  0  0  0
  1  5  1  0
  5  6  1  0
  5  7  2  0
  1  2  1  0
  1  3  1  0
  1  4  1  0
  8 12  1  0
 12 13  2  0
 13 15  1  0
 15 17  2  0
 17 19  1  0
 19 21  2  0
 21 12  1  0
  8  9  1  0
  8 10  1  0
  8 11  1  0
 13 14  1  0
 15 16  1  0
 17 18  1  0
 19 20  1  0
 21 22  1  0
M  CHG  1   6  -1
M  END
>  <PDB_ID>  (2641) 
pdb5ve3

>  <RESIDUE_NAME>  (2641) 
GLU   PHE

>  <FRAG_NAME>  (2641) 
ACET   MBZ

>  <FRAG_ATOM_NUM>  (2641) 
fragi: 7  fragj: 15

>  <atom.prop.CHAIN_ID>  (2641) 
A A A A A A A Z Z Z Z Z Z Z Z Z Z Z Z Z Z Z

>  <atom.prop.IS_HEAVY_ATOM>  (2641) 
1 0 0 0 1 1 1 1 0 0 0 1 1 0 1 0 1 0 1 0 1 0

>  <DIFUSE_FUNC_ATOM>  (2641) 
atom 6   atom 7   

>  <FINAL_SINGLE_POINT_ENERGY>  (2641) 
0

>  <NONCOV_INTER_ENERGY_QM>  (2641) 
0

>  <FF_Energy>  (2641) 
-0.86

>  <QM_Energy>  (2641) 
-6.3

>  <source>  (2641) 
ACET_MBZ_03

>  <Index>  (2641) 
4052

$$$$
ACET-pdb5ve3-B-GLU-46:MBZ-pdb5ve3-B-PHE-250
     RDKit          3D

 22 21  0  0  0  0  0  0  0  0999 V2000
    0.9536    5.6016   -3.4221 C   0  0  0  0  0  0  0  0  0  0  0  0
    1.3821    6.4477   -3.6968 H   0  0  0  0  0  0  0  0  0  0  0  0
   -0.0288    5.6922   -3.3737 H   0  0  0  0  0  0  0  0  0  0  0  0
    1.1750    4.8611   -4.1907 H   0  0  0  0  0  0  0  0  0  0  0  0
    1.4602    5.2484   -2.0343 C   0  0  0  0  0  0  0  0  0  0  0  0
    2.2480    4.2705   -1.8899 O   0  0  0  0  0  1  0  0  0  0  0  0
    1.0578    5.9492   -1.0646 O   0  0  0  0  0  0  0  0  0  0  0  0
   -0.0030    2.9239   -0.0173 C   0  0  0  0  0  0  0  0  0  0  0  0
   -0.4550    3.2036   -0.8535 H   0  0  0  0  0  0  0  0  0  0  0  0
    0.9433    3.2166   -0.0095 H   0  0  0  0  0  0  0  0  0  0  0  0
   -0.5139    3.3950    0.8224 H   0  0  0  0  0  0  0  0  0  0  0  0
   -0.0055    1.3981    0.0100 C   0  0  0  0  0  0  0  0  0  0  0  0
   -1.1834    0.6944   -0.0140 C   0  0  0  0  0  0  0  0  0  0  0  0
   -2.0599    1.1717   -0.0428 H   0  0  0  0  0  0  0  0  0  0  0  0
   -1.1906   -0.7102   -0.0000 C   0  0  0  0  0  0  0  0  0  0  0  0
   -2.0676   -1.1939    0.0204 H   0  0  0  0  0  0  0  0  0  0  0  0
    0.0061   -1.3921   -0.0121 C   0  0  0  0  0  0  0  0  0  0  0  0
    0.0054   -2.3969   -0.0302 H   0  0  0  0  0  0  0  0  0  0  0  0
    1.1906   -0.6998    0.0000 C   0  0  0  0  0  0  0  0  0  0  0  0
    2.0815   -1.1810   -0.0004 H   0  0  0  0  0  0  0  0  0  0  0  0
    1.1828    0.7096    0.0161 C   0  0  0  0  0  0  0  0  0  0  0  0
    2.0536    1.1950    0.0312 H   0  0  0  0  0  0  0  0  0  0  0  0
  1  5  1  0
  5  6  1  0
  5  7  2  0
  1  2  1  0
  1  3  1  0
  1  4  1  0
  8 12  1  0
 12 13  2  0
 13 15  1  0
 15 17  2  0
 17 19  1  0
 19 21  2  0
 21 12  1  0
  8  9  1  0
  8 10  1  0
  8 11  1  0
 13 14  1  0
 15 16  1  0
 17 18  1  0
 19 20  1  0
 21 22  1  0
M  CHG  1   6  -1
M  END
>  <PDB_ID>  (2642) 
pdb5ve3

>  <RESIDUE_NAME>  (2642) 
GLU   PHE

>  <FRAG_NAME>  (2642) 
ACET   MBZ

>  <FRAG_ATOM_NUM>  (2642) 
fragi: 7  fragj: 15

>  <atom.prop.CHAIN_ID>  (2642) 
A A A A A A A Z Z Z Z Z Z Z Z Z Z Z Z Z Z Z

>  <atom.prop.IS_HEAVY_ATOM>  (2642) 
1 0 0 0 1 1 1 1 0 0 0 1 1 0 1 0 1 0 1 0 1 0

>  <DIFUSE_FUNC_ATOM>  (2642) 
atom 6   atom 7   

>  <FINAL_SINGLE_POINT_ENERGY>  (2642) 
0

>  <NONCOV_INTER_ENERGY_QM>  (2642) 
0

>  <FF_Energy>  (2642) 
-1.04

>  <QM_Energy>  (2642) 
-6.33

>  <source>  (2642) 
ACET_MBZ_03

>  <Index>  (2642) 
4058

$$$$
ACET-pdb5vhv-A-GLU-170:MBZ-pdb5vhv-A-PHE-132
     RDKit          3D

 22 21  0  0  0  0  0  0  0  0999 V2000
    0.4815    0.0907   -4.1916 C   0  0  0  0  0  0  0  0  0  0  0  0
    0.4889   -0.6239   -3.5353 H   0  0  0  0  0  0  0  0  0  0  0  0
    1.0905   -0.1214   -4.9167 H   0  0  0  0  0  0  0  0  0  0  0  0
   -0.5264    0.1891   -4.5949 H   0  0  0  0  0  0  0  0  0  0  0  0
    0.9904    1.3596   -3.5082 C   0  0  0  0  0  0  0  0  0  0  0  0
    0.1866    2.2750   -3.2245 O   0  0  0  0  0  1  0  0  0  0  0  0
    2.2141    1.4365   -3.2719 O   0  0  0  0  0  0  0  0  0  0  0  0
   -0.0302    2.8729    0.0483 C   0  0  0  0  0  0  0  0  0  0  0  0
   -0.6950    3.1889   -0.5835 H   0  0  0  0  0  0  0  0  0  0  0  0
    0.8491    3.2017   -0.1976 H   0  0  0  0  0  0  0  0  0  0  0  0
   -0.2818    3.2355    1.0450 H   0  0  0  0  0  0  0  0  0  0  0  0
   -0.0036    1.3872   -0.0095 C   0  0  0  0  0  0  0  0  0  0  0  0
   -1.1864    0.6817    0.0078 C   0  0  0  0  0  0  0  0  0  0  0  0
   -1.9939    1.1445    0.0139 H   0  0  0  0  0  0  0  0  0  0  0  0
   -1.1999   -0.6903    0.0000 C   0  0  0  0  0  0  0  0  0  0  0  0
   -2.0084   -1.1507   -0.0039 H   0  0  0  0  0  0  0  0  0  0  0  0
   -0.0015   -1.3879   -0.0031 C   0  0  0  0  0  0  0  0  0  0  0  0
   -0.0026   -2.3176   -0.0163 H   0  0  0  0  0  0  0  0  0  0  0  0
    1.1999   -0.6919    0.0000 C   0  0  0  0  0  0  0  0  0  0  0  0
    2.0069   -1.1535   -0.0067 H   0  0  0  0  0  0  0  0  0  0  0  0
    1.1915    0.7012    0.0048 C   0  0  0  0  0  0  0  0  0  0  0  0
    1.9950    1.1698    0.0111 H   0  0  0  0  0  0  0  0  0  0  0  0
  1  5  1  0
  5  6  1  0
  5  7  2  0
  1  2  1  0
  1  3  1  0
  1  4  1  0
  8 12  1  0
 12 13  2  0
 13 15  1  0
 15 17  2  0
 17 19  1  0
 19 21  2  0
 21 12  1  0
  8  9  1  0
  8 10  1  0
  8 11  1  0
 13 14  1  0
 15 16  1  0
 17 18  1  0
 19 20  1  0
 21 22  1  0
M  CHG  1   6  -1
M  END
>  <PDB_ID>  (2643) 
pdb5vhv

>  <RESIDUE_NAME>  (2643) 
GLU   PHE

>  <FRAG_NAME>  (2643) 
ACET   MBZ

>  <FRAG_ATOM_NUM>  (2643) 
fragi: 7  fragj: 15

>  <atom.prop.CHAIN_ID>  (2643) 
A A A A A A A Z Z Z Z Z Z Z Z Z Z Z Z Z Z Z

>  <atom.prop.IS_HEAVY_ATOM>  (2643) 
1 0 0 0 1 1 1 1 0 0 0 1 1 0 1 0 1 0 1 0 1 0

>  <DIFUSE_FUNC_ATOM>  (2643) 
atom 6   atom 7   

>  <FINAL_SINGLE_POINT_ENERGY>  (2643) 
0

>  <NONCOV_INTER_ENERGY_QM>  (2643) 
0

>  <FF_Energy>  (2643) 
0.85

>  <QM_Energy>  (2643) 
-4.99

>  <source>  (2643) 
ACET_MBZ_03

>  <Index>  (2643) 
4161

$$$$
ACET-pdb5vit-P-GLU-315:MBZ-pdb5vit-P-PHE-226
     RDKit          3D

 22 21  0  0  0  0  0  0  0  0999 V2000
    2.6399    5.2872    2.5864 C   0  0  0  0  0  0  0  0  0  0  0  0
    2.6477    4.5656    3.2443 H   0  0  0  0  0  0  0  0  0  0  0  0
    1.7568    5.6843    2.4568 H   0  0  0  0  0  0  0  0  0  0  0  0
    3.3183    6.0679    2.9303 H   0  0  0  0  0  0  0  0  0  0  0  0
    3.0835    4.7001    1.2507 C   0  0  0  0  0  0  0  0  0  0  0  0
    3.5136    5.4897    0.3839 O   0  0  0  0  0  1  0  0  0  0  0  0
    3.0221    3.4569    1.0694 O   0  0  0  0  0  0  0  0  0  0  0  0
   -0.0011    2.9255    0.0153 C   0  0  0  0  0  0  0  0  0  0  0  0
    0.6604    3.2196    0.6890 H   0  0  0  0  0  0  0  0  0  0  0  0
   -0.9129    3.2242    0.2518 H   0  0  0  0  0  0  0  0  0  0  0  0
    0.2644    3.3873   -0.9358 H   0  0  0  0  0  0  0  0  0  0  0  0
    0.0004    1.4115   -0.0072 C   0  0  0  0  0  0  0  0  0  0  0  0
   -1.1938    0.7050   -0.0032 C   0  0  0  0  0  0  0  0  0  0  0  0
   -2.0631    1.1888   -0.0043 H   0  0  0  0  0  0  0  0  0  0  0  0
   -1.2009   -0.6996    0.0000 C   0  0  0  0  0  0  0  0  0  0  0  0
   -2.0820   -1.1837    0.0012 H   0  0  0  0  0  0  0  0  0  0  0  0
   -0.0038   -1.4044    0.0034 C   0  0  0  0  0  0  0  0  0  0  0  0
   -0.0117   -2.4004    0.0075 H   0  0  0  0  0  0  0  0  0  0  0  0
    1.2009   -0.7096    0.0000 C   0  0  0  0  0  0  0  0  0  0  0  0
    2.0814   -1.2012   -0.0059 H   0  0  0  0  0  0  0  0  0  0  0  0
    1.1972    0.6970    0.0070 C   0  0  0  0  0  0  0  0  0  0  0  0
    2.0681    1.1854    0.0215 H   0  0  0  0  0  0  0  0  0  0  0  0
  1  5  1  0
  5  6  1  0
  5  7  2  0
  1  2  1  0
  1  3  1  0
  1  4  1  0
  8 12  1  0
 12 13  2  0
 13 15  1  0
 15 17  2  0
 17 19  1  0
 19 21  2  0
 21 12  1  0
  8  9  1  0
  8 10  1  0
  8 11  1  0
 13 14  1  0
 15 16  1  0
 17 18  1  0
 19 20  1  0
 21 22  1  0
M  CHG  1   6  -1
M  END
>  <PDB_ID>  (2644) 
pdb5vit

>  <RESIDUE_NAME>  (2644) 
GLU   PHE

>  <FRAG_NAME>  (2644) 
ACET   MBZ

>  <FRAG_ATOM_NUM>  (2644) 
fragi: 7  fragj: 15

>  <atom.prop.CHAIN_ID>  (2644) 
A A A A A A A Z Z Z Z Z Z Z Z Z Z Z Z Z Z Z

>  <atom.prop.IS_HEAVY_ATOM>  (2644) 
1 0 0 0 1 1 1 1 0 0 0 1 1 0 1 0 1 0 1 0 1 0

>  <DIFUSE_FUNC_ATOM>  (2644) 
atom 6   atom 7   

>  <FINAL_SINGLE_POINT_ENERGY>  (2644) 
0

>  <NONCOV_INTER_ENERGY_QM>  (2644) 
0

>  <FF_Energy>  (2644) 
-1.68

>  <QM_Energy>  (2644) 
-7.48

>  <source>  (2644) 
ACET_MBZ_03

>  <Index>  (2644) 
4216

$$$$
ACET-pdb5vna-D-GLU-109:MBZ-pdb5vna-D-PHE-144
     RDKit          3D

 22 21  0  0  0  0  0  0  0  0999 V2000
   -3.6902    1.9372    2.6033 C   0  0  0  0  0  0  0  0  0  0  0  0
   -3.7681    2.6335    3.3044 H   0  0  0  0  0  0  0  0  0  0  0  0
   -2.8286    1.4530    2.6813 H   0  0  0  0  0  0  0  0  0  0  0  0
   -4.5028    1.2226    2.7340 H   0  0  0  0  0  0  0  0  0  0  0  0
   -3.6762    2.6584    1.2560 C   0  0  0  0  0  0  0  0  0  0  0  0
   -4.3614    2.2598    0.2790 O   0  0  0  0  0  1  0  0  0  0  0  0
   -2.9290    3.6601    1.1739 O   0  0  0  0  0  0  0  0  0  0  0  0
   -0.0030    2.9034   -0.0281 C   0  0  0  0  0  0  0  0  0  0  0  0
    0.9305    3.2060   -0.0841 H   0  0  0  0  0  0  0  0  0  0  0  0
   -0.4539    3.2292    0.7822 H   0  0  0  0  0  0  0  0  0  0  0  0
   -0.5398    3.2880   -0.8953 H   0  0  0  0  0  0  0  0  0  0  0  0
    0.0007    1.3985    0.0169 C   0  0  0  0  0  0  0  0  0  0  0  0
   -1.1944    0.6925   -0.0192 C   0  0  0  0  0  0  0  0  0  0  0  0
   -2.0596    1.1864   -0.0605 H   0  0  0  0  0  0  0  0  0  0  0  0
   -1.1978   -0.6886    0.0000 C   0  0  0  0  0  0  0  0  0  0  0  0
   -2.0728   -1.1873    0.0172 H   0  0  0  0  0  0  0  0  0  0  0  0
    0.0039   -1.3841   -0.0025 C   0  0  0  0  0  0  0  0  0  0  0  0
   -0.0098   -2.3883   -0.0066 H   0  0  0  0  0  0  0  0  0  0  0  0
    1.1978   -0.7030   -0.0000 C   0  0  0  0  0  0  0  0  0  0  0  0
    2.0793   -1.1977    0.0003 H   0  0  0  0  0  0  0  0  0  0  0  0
    1.1899    0.6847    0.0047 C   0  0  0  0  0  0  0  0  0  0  0  0
    2.0629    1.1818   -0.0014 H   0  0  0  0  0  0  0  0  0  0  0  0
  1  5  1  0
  5  6  1  0
  5  7  2  0
  1  2  1  0
  1  3  1  0
  1  4  1  0
  8 12  1  0
 12 13  2  0
 13 15  1  0
 15 17  2  0
 17 19  1  0
 19 21  2  0
 21 12  1  0
  8  9  1  0
  8 10  1  0
  8 11  1  0
 13 14  1  0
 15 16  1  0
 17 18  1  0
 19 20  1  0
 21 22  1  0
M  CHG  1   6  -1
M  END
>  <PDB_ID>  (2645) 
pdb5vna

>  <RESIDUE_NAME>  (2645) 
GLU   PHE

>  <FRAG_NAME>  (2645) 
ACET   MBZ

>  <FRAG_ATOM_NUM>  (2645) 
fragi: 7  fragj: 15

>  <atom.prop.CHAIN_ID>  (2645) 
A A A A A A A Z Z Z Z Z Z Z Z Z Z Z Z Z Z Z

>  <atom.prop.IS_HEAVY_ATOM>  (2645) 
1 0 0 0 1 1 1 1 0 0 0 1 1 0 1 0 1 0 1 0 1 0

>  <DIFUSE_FUNC_ATOM>  (2645) 
atom 6   atom 7   

>  <FINAL_SINGLE_POINT_ENERGY>  (2645) 
0

>  <NONCOV_INTER_ENERGY_QM>  (2645) 
0

>  <FF_Energy>  (2645) 
-2.07

>  <QM_Energy>  (2645) 
-8.54

>  <source>  (2645) 
ACET_MBZ_03

>  <Index>  (2645) 
4304

$$$$
ACET-pdb5vpj-B-GLU-127:MBZ-pdb5vpj-B-PHE-86
     RDKit          3D

 22 21  0  0  0  0  0  0  0  0999 V2000
   -2.8278   -1.1659    2.0380 C   0  0  0  0  0  0  0  0  0  0  0  0
   -2.3313   -0.3923    1.6431 H   0  0  0  0  0  0  0  0  0  0  0  0
   -2.3505   -2.0161    1.8100 H   0  0  0  0  0  0  0  0  0  0  0  0
   -2.8036   -1.0542    3.1220 H   0  0  0  0  0  0  0  0  0  0  0  0
   -4.1797   -1.2169    1.4002 C   0  0  0  0  0  0  0  0  0  0  0  0
   -5.2303   -1.1390    2.0230 O   0  0  0  0  0  1  0  0  0  0  0  0
   -4.1175   -1.3589    0.1624 O   0  0  0  0  0  0  0  0  0  0  0  0
    0.0010    2.8979   -0.0001 C   0  0  0  0  0  0  0  0  0  0  0  0
   -0.4368    3.2034   -0.8325 H   0  0  0  0  0  0  0  0  0  0  0  0
    0.9398    3.2037    0.0466 H   0  0  0  0  0  0  0  0  0  0  0  0
   -0.5349    3.3403    0.8397 H   0  0  0  0  0  0  0  0  0  0  0  0
    0.0002    1.3949    0.0023 C   0  0  0  0  0  0  0  0  0  0  0  0
   -1.1917    0.6889   -0.0014 C   0  0  0  0  0  0  0  0  0  0  0  0
   -2.0592    1.1815   -0.0065 H   0  0  0  0  0  0  0  0  0  0  0  0
   -1.1948   -0.6929   -0.0000 C   0  0  0  0  0  0  0  0  0  0  0  0
   -2.0736   -1.1892    0.0025 H   0  0  0  0  0  0  0  0  0  0  0  0
    0.0004   -1.3855   -0.0002 C   0  0  0  0  0  0  0  0  0  0  0  0
   -0.0045   -2.3872   -0.0008 H   0  0  0  0  0  0  0  0  0  0  0  0
    1.1948   -0.6936    0.0000 C   0  0  0  0  0  0  0  0  0  0  0  0
    2.0785   -1.1934    0.0018 H   0  0  0  0  0  0  0  0  0  0  0  0
    1.1910    0.6881   -0.0007 C   0  0  0  0  0  0  0  0  0  0  0  0
    2.0613    1.1866   -0.0043 H   0  0  0  0  0  0  0  0  0  0  0  0
  1  5  1  0
  5  6  1  0
  5  7  2  0
  1  2  1  0
  1  3  1  0
  1  4  1  0
  8 12  1  0
 12 13  2  0
 13 15  1  0
 15 17  2  0
 17 19  1  0
 19 21  2  0
 21 12  1  0
  8  9  1  0
  8 10  1  0
  8 11  1  0
 13 14  1  0
 15 16  1  0
 17 18  1  0
 19 20  1  0
 21 22  1  0
M  CHG  1   6  -1
M  END
>  <PDB_ID>  (2646) 
pdb5vpj

>  <RESIDUE_NAME>  (2646) 
GLU   PHE

>  <FRAG_NAME>  (2646) 
ACET   MBZ

>  <FRAG_ATOM_NUM>  (2646) 
fragi: 7  fragj: 15

>  <atom.prop.CHAIN_ID>  (2646) 
A A A A A A A Z Z Z Z Z Z Z Z Z Z Z Z Z Z Z

>  <atom.prop.IS_HEAVY_ATOM>  (2646) 
1 0 0 0 1 1 1 1 0 0 0 1 1 0 1 0 1 0 1 0 1 0

>  <DIFUSE_FUNC_ATOM>  (2646) 
atom 6   atom 7   

>  <FINAL_SINGLE_POINT_ENERGY>  (2646) 
0

>  <NONCOV_INTER_ENERGY_QM>  (2646) 
0

>  <FF_Energy>  (2646) 
43.92

>  <QM_Energy>  (2646) 
6.24

>  <source>  (2646) 
ACET_MBZ_03

>  <Index>  (2646) 
4377

$$$$
ACET-pdb5vpj-B-GLU-36:MBZ-pdb5vpj-C-PHE-13
     RDKit          3D

 22 21  0  0  0  0  0  0  0  0999 V2000
    1.6655    0.5427   -3.5276 C   0  0  0  0  0  0  0  0  0  0  0  0
    1.4861    0.0013   -2.7256 H   0  0  0  0  0  0  0  0  0  0  0  0
    2.5705    0.3887   -3.8817 H   0  0  0  0  0  0  0  0  0  0  0  0
    0.9464    0.2588   -4.2960 H   0  0  0  0  0  0  0  0  0  0  0  0
    1.5721    2.0046   -3.1266 C   0  0  0  0  0  0  0  0  0  0  0  0
    0.4667    2.5807   -3.1970 O   0  0  0  0  0  1  0  0  0  0  0  0
    2.6164    2.5802   -2.7501 O   0  0  0  0  0  0  0  0  0  0  0  0
    0.0065    2.9001    0.0008 C   0  0  0  0  0  0  0  0  0  0  0  0
    0.6465    3.2048   -0.6892 H   0  0  0  0  0  0  0  0  0  0  0  0
    0.2794    3.2025    0.9019 H   0  0  0  0  0  0  0  0  0  0  0  0
   -0.9618    3.3484   -0.2216 H   0  0  0  0  0  0  0  0  0  0  0  0
    0.0001    1.3959   -0.0027 C   0  0  0  0  0  0  0  0  0  0  0  0
   -1.1910    0.6889    0.0016 C   0  0  0  0  0  0  0  0  0  0  0  0
   -2.0597    1.1798    0.0049 H   0  0  0  0  0  0  0  0  0  0  0  0
   -1.1940   -0.6944    0.0000 C   0  0  0  0  0  0  0  0  0  0  0  0
   -2.0732   -1.1895   -0.0005 H   0  0  0  0  0  0  0  0  0  0  0  0
    0.0001   -1.3853    0.0008 C   0  0  0  0  0  0  0  0  0  0  0  0
   -0.0032   -2.3872    0.0013 H   0  0  0  0  0  0  0  0  0  0  0  0
    1.1940   -0.6937   -0.0000 C   0  0  0  0  0  0  0  0  0  0  0  0
    2.0776   -1.1930    0.0007 H   0  0  0  0  0  0  0  0  0  0  0  0
    1.1908    0.6886    0.0003 C   0  0  0  0  0  0  0  0  0  0  0  0
    2.0615    1.1866    0.0017 H   0  0  0  0  0  0  0  0  0  0  0  0
  1  5  1  0
  5  6  1  0
  5  7  2  0
  1  2  1  0
  1  3  1  0
  1  4  1  0
  8 12  1  0
 12 13  2  0
 13 15  1  0
 15 17  2  0
 17 19  1  0
 19 21  2  0
 21 12  1  0
  8  9  1  0
  8 10  1  0
  8 11  1  0
 13 14  1  0
 15 16  1  0
 17 18  1  0
 19 20  1  0
 21 22  1  0
M  CHG  1   6  -1
M  END
>  <PDB_ID>  (2647) 
pdb5vpj

>  <RESIDUE_NAME>  (2647) 
GLU   PHE

>  <FRAG_NAME>  (2647) 
ACET   MBZ

>  <FRAG_ATOM_NUM>  (2647) 
fragi: 7  fragj: 15

>  <atom.prop.CHAIN_ID>  (2647) 
A A A A A A A Z Z Z Z Z Z Z Z Z Z Z Z Z Z Z

>  <atom.prop.IS_HEAVY_ATOM>  (2647) 
1 0 0 0 1 1 1 1 0 0 0 1 1 0 1 0 1 0 1 0 1 0

>  <DIFUSE_FUNC_ATOM>  (2647) 
atom 6   atom 7   

>  <FINAL_SINGLE_POINT_ENERGY>  (2647) 
0

>  <NONCOV_INTER_ENERGY_QM>  (2647) 
0

>  <FF_Energy>  (2647) 
0.04

>  <QM_Energy>  (2647) 
-6.72

>  <source>  (2647) 
ACET_MBZ_03

>  <Index>  (2647) 
4381

$$$$
ACET-pdb5vpj-A-GLU-36:MBZ-pdb5vpj-D-PHE-13
     RDKit          3D

 22 21  0  0  0  0  0  0  0  0999 V2000
    1.3444    0.6572   -3.4960 C   0  0  0  0  0  0  0  0  0  0  0  0
    1.1146    0.1372   -2.6920 H   0  0  0  0  0  0  0  0  0  0  0  0
    2.2382    0.4285   -3.8397 H   0  0  0  0  0  0  0  0  0  0  0  0
    0.6112    0.4295   -4.2697 H   0  0  0  0  0  0  0  0  0  0  0  0
    1.3680    2.1233   -3.1027 C   0  0  0  0  0  0  0  0  0  0  0  0
    0.3327    2.8035   -3.2545 O   0  0  0  0  0  1  0  0  0  0  0  0
    2.4339    2.5978   -2.6538 O   0  0  0  0  0  0  0  0  0  0  0  0
    0.0122    2.9056    0.0039 C   0  0  0  0  0  0  0  0  0  0  0  0
    0.5864    3.2088   -0.7421 H   0  0  0  0  0  0  0  0  0  0  0  0
    0.3714    3.2031    0.8761 H   0  0  0  0  0  0  0  0  0  0  0  0
   -0.9704    3.3595   -0.1249 H   0  0  0  0  0  0  0  0  0  0  0  0
    0.0003    1.3976   -0.0030 C   0  0  0  0  0  0  0  0  0  0  0  0
   -1.1914    0.6895    0.0014 C   0  0  0  0  0  0  0  0  0  0  0  0
   -2.0600    1.1805    0.0047 H   0  0  0  0  0  0  0  0  0  0  0  0
   -1.1944   -0.6937   -0.0000 C   0  0  0  0  0  0  0  0  0  0  0  0
   -2.0734   -1.1894    0.0003 H   0  0  0  0  0  0  0  0  0  0  0  0
    0.0001   -1.3863   -0.0004 C   0  0  0  0  0  0  0  0  0  0  0  0
   -0.0047   -2.3880   -0.0011 H   0  0  0  0  0  0  0  0  0  0  0  0
    1.1944   -0.6948   -0.0000 C   0  0  0  0  0  0  0  0  0  0  0  0
    2.0779   -1.1946    0.0009 H   0  0  0  0  0  0  0  0  0  0  0  0
    1.1910    0.6877    0.0019 C   0  0  0  0  0  0  0  0  0  0  0  0
    2.0621    1.1858    0.0058 H   0  0  0  0  0  0  0  0  0  0  0  0
  1  5  1  0
  5  6  1  0
  5  7  2  0
  1  2  1  0
  1  3  1  0
  1  4  1  0
  8 12  1  0
 12 13  2  0
 13 15  1  0
 15 17  2  0
 17 19  1  0
 19 21  2  0
 21 12  1  0
  8  9  1  0
  8 10  1  0
  8 11  1  0
 13 14  1  0
 15 16  1  0
 17 18  1  0
 19 20  1  0
 21 22  1  0
M  CHG  1   6  -1
M  END
>  <PDB_ID>  (2648) 
pdb5vpj

>  <RESIDUE_NAME>  (2648) 
GLU   PHE

>  <FRAG_NAME>  (2648) 
ACET   MBZ

>  <FRAG_ATOM_NUM>  (2648) 
fragi: 7  fragj: 15

>  <atom.prop.CHAIN_ID>  (2648) 
A A A A A A A Z Z Z Z Z Z Z Z Z Z Z Z Z Z Z

>  <atom.prop.IS_HEAVY_ATOM>  (2648) 
1 0 0 0 1 1 1 1 0 0 0 1 1 0 1 0 1 0 1 0 1 0

>  <DIFUSE_FUNC_ATOM>  (2648) 
atom 6   atom 7   

>  <FINAL_SINGLE_POINT_ENERGY>  (2648) 
0

>  <NONCOV_INTER_ENERGY_QM>  (2648) 
0

>  <FF_Energy>  (2648) 
0.02

>  <QM_Energy>  (2648) 
-7.24

>  <source>  (2648) 
ACET_MBZ_03

>  <Index>  (2648) 
4385

$$$$
ACET-pdb5vpj-L-GLU-36:MBZ-pdb5vpj-I-PHE-13
     RDKit          3D

 22 21  0  0  0  0  0  0  0  0999 V2000
    1.3617    0.7083   -3.5265 C   0  0  0  0  0  0  0  0  0  0  0  0
    1.0931    0.1706   -2.7476 H   0  0  0  0  0  0  0  0  0  0  0  0
    2.2708    0.4867   -3.8329 H   0  0  0  0  0  0  0  0  0  0  0  0
    0.6668    0.4989   -4.3398 H   0  0  0  0  0  0  0  0  0  0  0  0
    1.3618    2.1636   -3.1026 C   0  0  0  0  0  0  0  0  0  0  0  0
    0.3536    2.8602   -3.3409 O   0  0  0  0  0  1  0  0  0  0  0  0
    2.3827    2.6157   -2.5415 O   0  0  0  0  0  0  0  0  0  0  0  0
    0.0051    2.9009    0.0035 C   0  0  0  0  0  0  0  0  0  0  0  0
    0.5953    3.2079   -0.7292 H   0  0  0  0  0  0  0  0  0  0  0  0
    0.3402    3.2017    0.8839 H   0  0  0  0  0  0  0  0  0  0  0  0
   -0.9766    3.3492   -0.1499 H   0  0  0  0  0  0  0  0  0  0  0  0
   -0.0003    1.3966   -0.0026 C   0  0  0  0  0  0  0  0  0  0  0  0
   -1.1914    0.6887    0.0010 C   0  0  0  0  0  0  0  0  0  0  0  0
   -2.0603    1.1798    0.0034 H   0  0  0  0  0  0  0  0  0  0  0  0
   -1.1947   -0.6945   -0.0000 C   0  0  0  0  0  0  0  0  0  0  0  0
   -2.0736   -1.1904    0.0011 H   0  0  0  0  0  0  0  0  0  0  0  0
    0.0004   -1.3861   -0.0003 C   0  0  0  0  0  0  0  0  0  0  0  0
   -0.0032   -2.3876   -0.0010 H   0  0  0  0  0  0  0  0  0  0  0  0
    1.1947   -0.6942    0.0000 C   0  0  0  0  0  0  0  0  0  0  0  0
    2.0782   -1.1933    0.0002 H   0  0  0  0  0  0  0  0  0  0  0  0
    1.1914    0.6895    0.0019 C   0  0  0  0  0  0  0  0  0  0  0  0
    2.0612    1.1867    0.0061 H   0  0  0  0  0  0  0  0  0  0  0  0
  1  5  1  0
  5  6  1  0
  5  7  2  0
  1  2  1  0
  1  3  1  0
  1  4  1  0
  8 12  1  0
 12 13  2  0
 13 15  1  0
 15 17  2  0
 17 19  1  0
 19 21  2  0
 21 12  1  0
  8  9  1  0
  8 10  1  0
  8 11  1  0
 13 14  1  0
 15 16  1  0
 17 18  1  0
 19 20  1  0
 21 22  1  0
M  CHG  1   6  -1
M  END
>  <PDB_ID>  (2649) 
pdb5vpj

>  <RESIDUE_NAME>  (2649) 
GLU   PHE

>  <FRAG_NAME>  (2649) 
ACET   MBZ

>  <FRAG_ATOM_NUM>  (2649) 
fragi: 7  fragj: 15

>  <atom.prop.CHAIN_ID>  (2649) 
A A A A A A A Z Z Z Z Z Z Z Z Z Z Z Z Z Z Z

>  <atom.prop.IS_HEAVY_ATOM>  (2649) 
1 0 0 0 1 1 1 1 0 0 0 1 1 0 1 0 1 0 1 0 1 0

>  <DIFUSE_FUNC_ATOM>  (2649) 
atom 6   atom 7   

>  <FINAL_SINGLE_POINT_ENERGY>  (2649) 
0

>  <NONCOV_INTER_ENERGY_QM>  (2649) 
0

>  <FF_Energy>  (2649) 
-0.26

>  <QM_Energy>  (2649) 
-7.54

>  <source>  (2649) 
ACET_MBZ_03

>  <Index>  (2649) 
4404

$$$$
ACET-pdb5vpj-J-GLU-36:MBZ-pdb5vpj-K-PHE-13
     RDKit          3D

 22 21  0  0  0  0  0  0  0  0999 V2000
    1.2155    0.8405   -3.8522 C   0  0  0  0  0  0  0  0  0  0  0  0
    1.2218    0.2083   -3.0985 H   0  0  0  0  0  0  0  0  0  0  0  0
    2.0569    0.8186   -4.3620 H   0  0  0  0  0  0  0  0  0  0  0  0
    0.4025    0.5623   -4.5228 H   0  0  0  0  0  0  0  0  0  0  0  0
    1.0620    2.2365   -3.2795 C   0  0  0  0  0  0  0  0  0  0  0  0
   -0.0773    2.7441   -3.2396 O   0  0  0  0  0  1  0  0  0  0  0  0
    2.0857    2.8309   -2.8800 O   0  0  0  0  0  0  0  0  0  0  0  0
    0.0089    2.9014    0.0036 C   0  0  0  0  0  0  0  0  0  0  0  0
    0.5287    3.2069   -0.7814 H   0  0  0  0  0  0  0  0  0  0  0  0
    0.4265    3.2009    0.8491 H   0  0  0  0  0  0  0  0  0  0  0  0
   -0.9817    3.3523   -0.0562 H   0  0  0  0  0  0  0  0  0  0  0  0
    0.0005    1.3958   -0.0026 C   0  0  0  0  0  0  0  0  0  0  0  0
   -1.1916    0.6893    0.0030 C   0  0  0  0  0  0  0  0  0  0  0  0
   -2.0599    1.1809    0.0081 H   0  0  0  0  0  0  0  0  0  0  0  0
   -1.1941   -0.6934    0.0000 C   0  0  0  0  0  0  0  0  0  0  0  0
   -2.0737   -1.1887   -0.0009 H   0  0  0  0  0  0  0  0  0  0  0  0
   -0.0007   -1.3850   -0.0005 C   0  0  0  0  0  0  0  0  0  0  0  0
   -0.0043   -2.3866   -0.0018 H   0  0  0  0  0  0  0  0  0  0  0  0
    1.1941   -0.6938    0.0000 C   0  0  0  0  0  0  0  0  0  0  0  0
    2.0772   -1.1954    0.0017 H   0  0  0  0  0  0  0  0  0  0  0  0
    1.1918    0.6870    0.0001 C   0  0  0  0  0  0  0  0  0  0  0  0
    2.0623    1.1850    0.0015 H   0  0  0  0  0  0  0  0  0  0  0  0
  1  5  1  0
  5  6  1  0
  5  7  2  0
  1  2  1  0
  1  3  1  0
  1  4  1  0
  8 12  1  0
 12 13  2  0
 13 15  1  0
 15 17  2  0
 17 19  1  0
 19 21  2  0
 21 12  1  0
  8  9  1  0
  8 10  1  0
  8 11  1  0
 13 14  1  0
 15 16  1  0
 17 18  1  0
 19 20  1  0
 21 22  1  0
M  CHG  1   6  -1
M  END
>  <PDB_ID>  (2650) 
pdb5vpj

>  <RESIDUE_NAME>  (2650) 
GLU   PHE

>  <FRAG_NAME>  (2650) 
ACET   MBZ

>  <FRAG_ATOM_NUM>  (2650) 
fragi: 7  fragj: 15

>  <atom.prop.CHAIN_ID>  (2650) 
A A A A A A A Z Z Z Z Z Z Z Z Z Z Z Z Z Z Z

>  <atom.prop.IS_HEAVY_ATOM>  (2650) 
1 0 0 0 1 1 1 1 0 0 0 1 1 0 1 0 1 0 1 0 1 0

>  <DIFUSE_FUNC_ATOM>  (2650) 
atom 6   atom 7   

>  <FINAL_SINGLE_POINT_ENERGY>  (2650) 
0

>  <NONCOV_INTER_ENERGY_QM>  (2650) 
0

>  <FF_Energy>  (2650) 
0.01

>  <QM_Energy>  (2650) 
-7.15

>  <source>  (2650) 
ACET_MBZ_03

>  <Index>  (2650) 
4413

$$$$
ACET-pdb5vqh-B-ASP-66:MBZ-pdb5vqh-B-PHE-63
     RDKit          3D

 22 21  0  0  0  0  0  0  0  0999 V2000
    4.9812    3.4815    1.5337 C   0  0  0  0  0  0  0  0  0  0  0  0
    5.7510    4.0562    1.2845 H   0  0  0  0  0  0  0  0  0  0  0  0
    5.2231    2.5224    1.4636 H   0  0  0  0  0  0  0  0  0  0  0  0
    4.7347    3.6880    2.5752 H   0  0  0  0  0  0  0  0  0  0  0  0
    3.8264    3.7679    0.5769 C   0  0  0  0  0  0  0  0  0  0  0  0
    3.1283    4.7995    0.7343 O   0  0  0  0  0  1  0  0  0  0  0  0
    3.6342    2.9535   -0.3451 O   0  0  0  0  0  0  0  0  0  0  0  0
   -0.0271    2.8686   -0.0062 C   0  0  0  0  0  0  0  0  0  0  0  0
   -0.3467    3.1731   -0.8897 H   0  0  0  0  0  0  0  0  0  0  0  0
    0.8859    3.1953    0.1804 H   0  0  0  0  0  0  0  0  0  0  0  0
   -0.6929    3.2796    0.7527 H   0  0  0  0  0  0  0  0  0  0  0  0
   -0.0005    1.3823   -0.0060 C   0  0  0  0  0  0  0  0  0  0  0  0
   -1.1832    0.6829    0.0034 C   0  0  0  0  0  0  0  0  0  0  0  0
   -2.0535    1.1789    0.0119 H   0  0  0  0  0  0  0  0  0  0  0  0
   -1.1881   -0.6844    0.0000 C   0  0  0  0  0  0  0  0  0  0  0  0
   -2.0679   -1.1851   -0.0060 H   0  0  0  0  0  0  0  0  0  0  0  0
    0.0018   -1.3757    0.0069 C   0  0  0  0  0  0  0  0  0  0  0  0
   -0.0071   -2.3798    0.0162 H   0  0  0  0  0  0  0  0  0  0  0  0
    1.1881   -0.6922    0.0000 C   0  0  0  0  0  0  0  0  0  0  0  0
    2.0736   -1.1888   -0.0001 H   0  0  0  0  0  0  0  0  0  0  0  0
    1.1819    0.6869   -0.0043 C   0  0  0  0  0  0  0  0  0  0  0  0
    2.0546    1.1847   -0.0069 H   0  0  0  0  0  0  0  0  0  0  0  0
  1  5  1  0
  5  6  1  0
  5  7  2  0
  1  2  1  0
  1  3  1  0
  1  4  1  0
  8 12  1  0
 12 13  2  0
 13 15  1  0
 15 17  2  0
 17 19  1  0
 19 21  2  0
 21 12  1  0
  8  9  1  0
  8 10  1  0
  8 11  1  0
 13 14  1  0
 15 16  1  0
 17 18  1  0
 19 20  1  0
 21 22  1  0
M  CHG  1   6  -1
M  END
>  <PDB_ID>  (2651) 
pdb5vqh

>  <RESIDUE_NAME>  (2651) 
ASP   PHE

>  <FRAG_NAME>  (2651) 
ACET   MBZ

>  <FRAG_ATOM_NUM>  (2651) 
fragi: 7  fragj: 15

>  <atom.prop.CHAIN_ID>  (2651) 
A A A A A A A Z Z Z Z Z Z Z Z Z Z Z Z Z Z Z

>  <atom.prop.IS_HEAVY_ATOM>  (2651) 
1 0 0 0 1 1 1 1 0 0 0 1 1 0 1 0 1 0 1 0 1 0

>  <DIFUSE_FUNC_ATOM>  (2651) 
atom 6   atom 7   

>  <FINAL_SINGLE_POINT_ENERGY>  (2651) 
0

>  <NONCOV_INTER_ENERGY_QM>  (2651) 
0

>  <FF_Energy>  (2651) 
-2.51

>  <QM_Energy>  (2651) 
-8.66

>  <source>  (2651) 
ACET_MBZ_03

>  <Index>  (2651) 
4433

$$$$
ACET-pdb5vvw-H-GLU-110:MBZ-pdb5vvw-F-PHE-219
     RDKit          3D

 22 21  0  0  0  0  0  0  0  0999 V2000
   -5.0454    3.2459    1.4576 C   0  0  0  0  0  0  0  0  0  0  0  0
   -5.7875    3.8718    1.6039 H   0  0  0  0  0  0  0  0  0  0  0  0
   -4.2216    3.5265    1.9103 H   0  0  0  0  0  0  0  0  0  0  0  0
   -5.3376    2.2706    1.8469 H   0  0  0  0  0  0  0  0  0  0  0  0
   -4.7648    3.2030   -0.0233 C   0  0  0  0  0  0  0  0  0  0  0  0
   -3.8343    2.4734   -0.4295 O   0  0  0  0  0  1  0  0  0  0  0  0
   -5.4810    3.8973   -0.7775 O   0  0  0  0  0  0  0  0  0  0  0  0
   -0.0045    2.9049   -0.0177 C   0  0  0  0  0  0  0  0  0  0  0  0
    0.8273    3.2201    0.4113 H   0  0  0  0  0  0  0  0  0  0  0  0
   -0.8051    3.2119    0.4715 H   0  0  0  0  0  0  0  0  0  0  0  0
   -0.0438    3.3334   -1.0191 H   0  0  0  0  0  0  0  0  0  0  0  0
    0.0038    1.3986   -0.0032 C   0  0  0  0  0  0  0  0  0  0  0  0
   -1.1990    0.6857   -0.0036 C   0  0  0  0  0  0  0  0  0  0  0  0
   -2.0625    1.1817   -0.0079 H   0  0  0  0  0  0  0  0  0  0  0  0
   -1.2031   -0.6971    0.0000 C   0  0  0  0  0  0  0  0  0  0  0  0
   -2.0795   -1.1936    0.0034 H   0  0  0  0  0  0  0  0  0  0  0  0
   -0.0044   -1.3882    0.0013 C   0  0  0  0  0  0  0  0  0  0  0  0
   -0.0025   -2.3878    0.0026 H   0  0  0  0  0  0  0  0  0  0  0  0
    1.2031   -0.6905   -0.0000 C   0  0  0  0  0  0  0  0  0  0  0  0
    2.0799   -1.1952   -0.0033 H   0  0  0  0  0  0  0  0  0  0  0  0
    1.1996    0.6914    0.0056 C   0  0  0  0  0  0  0  0  0  0  0  0
    2.0669    1.1914    0.0151 H   0  0  0  0  0  0  0  0  0  0  0  0
  1  5  1  0
  5  6  1  0
  5  7  2  0
  1  2  1  0
  1  3  1  0
  1  4  1  0
  8 12  1  0
 12 13  2  0
 13 15  1  0
 15 17  2  0
 17 19  1  0
 19 21  2  0
 21 12  1  0
  8  9  1  0
  8 10  1  0
  8 11  1  0
 13 14  1  0
 15 16  1  0
 17 18  1  0
 19 20  1  0
 21 22  1  0
M  CHG  1   6  -1
M  END
>  <PDB_ID>  (2652) 
pdb5vvw

>  <RESIDUE_NAME>  (2652) 
GLU   PHE

>  <FRAG_NAME>  (2652) 
ACET   MBZ

>  <FRAG_ATOM_NUM>  (2652) 
fragi: 7  fragj: 15

>  <atom.prop.CHAIN_ID>  (2652) 
A A A A A A A Z Z Z Z Z Z Z Z Z Z Z Z Z Z Z

>  <atom.prop.IS_HEAVY_ATOM>  (2652) 
1 0 0 0 1 1 1 1 0 0 0 1 1 0 1 0 1 0 1 0 1 0

>  <DIFUSE_FUNC_ATOM>  (2652) 
atom 6   atom 7   

>  <FINAL_SINGLE_POINT_ENERGY>  (2652) 
0

>  <NONCOV_INTER_ENERGY_QM>  (2652) 
0

>  <FF_Energy>  (2652) 
-0.99

>  <QM_Energy>  (2652) 
-7.23

>  <source>  (2652) 
ACET_MBZ_03

>  <Index>  (2652) 
4582

$$$$
ACET-pdb5vyd-A-GLU-52:MBZ-pdb5vyd-A-PHE-28
     RDKit          3D

 22 21  0  0  0  0  0  0  0  0999 V2000
    3.5845   -2.6723    1.4696 C   0  0  0  0  0  0  0  0  0  0  0  0
    3.3205   -3.5617    1.1435 H   0  0  0  0  0  0  0  0  0  0  0  0
    2.9825   -1.9645    1.1484 H   0  0  0  0  0  0  0  0  0  0  0  0
    3.5551   -2.6831    2.5592 H   0  0  0  0  0  0  0  0  0  0  0  0
    4.9660   -2.3776    0.9276 C   0  0  0  0  0  0  0  0  0  0  0  0
    5.7395   -1.6805    1.6166 O   0  0  0  0  0  1  0  0  0  0  0  0
    5.2792   -2.8442   -0.1884 O   0  0  0  0  0  0  0  0  0  0  0  0
   -0.0065    2.8950   -0.0111 C   0  0  0  0  0  0  0  0  0  0  0  0
    0.9164    3.2027   -0.1782 H   0  0  0  0  0  0  0  0  0  0  0  0
   -0.3413    3.2074    0.8633 H   0  0  0  0  0  0  0  0  0  0  0  0
   -0.6473    3.3150   -0.7863 H   0  0  0  0  0  0  0  0  0  0  0  0
   -0.0000    1.3947    0.0035 C   0  0  0  0  0  0  0  0  0  0  0  0
   -1.1918    0.6877   -0.0040 C   0  0  0  0  0  0  0  0  0  0  0  0
   -2.0598    1.1795   -0.0136 H   0  0  0  0  0  0  0  0  0  0  0  0
   -1.1955   -0.6952    0.0000 C   0  0  0  0  0  0  0  0  0  0  0  0
   -2.0733   -1.1908    0.0027 H   0  0  0  0  0  0  0  0  0  0  0  0
   -0.0001   -1.3865    0.0018 C   0  0  0  0  0  0  0  0  0  0  0  0
   -0.0015   -2.3875    0.0039 H   0  0  0  0  0  0  0  0  0  0  0  0
    1.1955   -0.6916   -0.0000 C   0  0  0  0  0  0  0  0  0  0  0  0
    2.0785   -1.1911    0.0011 H   0  0  0  0  0  0  0  0  0  0  0  0
    1.1919    0.6910   -0.0013 C   0  0  0  0  0  0  0  0  0  0  0  0
    2.0610    1.1897   -0.0063 H   0  0  0  0  0  0  0  0  0  0  0  0
  1  5  1  0
  5  6  1  0
  5  7  2  0
  1  2  1  0
  1  3  1  0
  1  4  1  0
  8 12  1  0
 12 13  2  0
 13 15  1  0
 15 17  2  0
 17 19  1  0
 19 21  2  0
 21 12  1  0
  8  9  1  0
  8 10  1  0
  8 11  1  0
 13 14  1  0
 15 16  1  0
 17 18  1  0
 19 20  1  0
 21 22  1  0
M  CHG  1   6  -1
M  END
>  <PDB_ID>  (2653) 
pdb5vyd

>  <RESIDUE_NAME>  (2653) 
GLU   PHE

>  <FRAG_NAME>  (2653) 
ACET   MBZ

>  <FRAG_ATOM_NUM>  (2653) 
fragi: 7  fragj: 15

>  <atom.prop.CHAIN_ID>  (2653) 
A A A A A A A Z Z Z Z Z Z Z Z Z Z Z Z Z Z Z

>  <atom.prop.IS_HEAVY_ATOM>  (2653) 
1 0 0 0 1 1 1 1 0 0 0 1 1 0 1 0 1 0 1 0 1 0

>  <DIFUSE_FUNC_ATOM>  (2653) 
atom 6   atom 7   

>  <FINAL_SINGLE_POINT_ENERGY>  (2653) 
0

>  <NONCOV_INTER_ENERGY_QM>  (2653) 
0

>  <FF_Energy>  (2653) 
8.75

>  <QM_Energy>  (2653) 
0.31

>  <source>  (2653) 
ACET_MBZ_03

>  <Index>  (2653) 
4604

$$$$
ACET-pdb5w0m-A-GLU-1248:MBZ-pdb5w0m-A-PHE-1244
     RDKit          3D

 22 21  0  0  0  0  0  0  0  0999 V2000
   -4.2248    0.4526    2.5339 C   0  0  0  0  0  0  0  0  0  0  0  0
   -3.7671   -0.3905    2.6749 H   0  0  0  0  0  0  0  0  0  0  0  0
   -5.0940    0.4369    2.9633 H   0  0  0  0  0  0  0  0  0  0  0  0
   -3.6287    1.2590    2.9611 H   0  0  0  0  0  0  0  0  0  0  0  0
   -4.4375    0.6327    1.0383 C   0  0  0  0  0  0  0  0  0  0  0  0
   -4.1488    1.7372    0.5235 O   0  0  0  0  0  1  0  0  0  0  0  0
   -4.8826   -0.3316    0.3764 O   0  0  0  0  0  0  0  0  0  0  0  0
    0.0023    2.9001   -0.0127 C   0  0  0  0  0  0  0  0  0  0  0  0
   -0.6354    3.1900   -0.6836 H   0  0  0  0  0  0  0  0  0  0  0  0
    0.8944    3.1921   -0.2600 H   0  0  0  0  0  0  0  0  0  0  0  0
   -0.2625    3.3550    0.9419 H   0  0  0  0  0  0  0  0  0  0  0  0
    0.0005    1.3923    0.0011 C   0  0  0  0  0  0  0  0  0  0  0  0
   -1.1961    0.6829   -0.0026 C   0  0  0  0  0  0  0  0  0  0  0  0
   -2.0041    1.1434   -0.0038 H   0  0  0  0  0  0  0  0  0  0  0  0
   -1.1959   -0.6909   -0.0000 C   0  0  0  0  0  0  0  0  0  0  0  0
   -2.0009   -1.1565    0.0011 H   0  0  0  0  0  0  0  0  0  0  0  0
    0.0030   -1.3811    0.0018 C   0  0  0  0  0  0  0  0  0  0  0  0
    0.0045   -2.3110    0.0044 H   0  0  0  0  0  0  0  0  0  0  0  0
    1.1959   -0.6910    0.0000 C   0  0  0  0  0  0  0  0  0  0  0  0
    2.0019   -1.1548    0.0026 H   0  0  0  0  0  0  0  0  0  0  0  0
    1.1926    0.6878   -0.0003 C   0  0  0  0  0  0  0  0  0  0  0  0
    1.9997    1.1496   -0.0030 H   0  0  0  0  0  0  0  0  0  0  0  0
  1  5  1  0
  5  6  1  0
  5  7  2  0
  1  2  1  0
  1  3  1  0
  1  4  1  0
  8 12  1  0
 12 13  2  0
 13 15  1  0
 15 17  2  0
 17 19  1  0
 19 21  2  0
 21 12  1  0
  8  9  1  0
  8 10  1  0
  8 11  1  0
 13 14  1  0
 15 16  1  0
 17 18  1  0
 19 20  1  0
 21 22  1  0
M  CHG  1   6  -1
M  END
>  <PDB_ID>  (2654) 
pdb5w0m

>  <RESIDUE_NAME>  (2654) 
GLU   PHE

>  <FRAG_NAME>  (2654) 
ACET   MBZ

>  <FRAG_ATOM_NUM>  (2654) 
fragi: 7  fragj: 15

>  <atom.prop.CHAIN_ID>  (2654) 
A A A A A A A Z Z Z Z Z Z Z Z Z Z Z Z Z Z Z

>  <atom.prop.IS_HEAVY_ATOM>  (2654) 
1 0 0 0 1 1 1 1 0 0 0 1 1 0 1 0 1 0 1 0 1 0

>  <DIFUSE_FUNC_ATOM>  (2654) 
atom 6   atom 7   

>  <FINAL_SINGLE_POINT_ENERGY>  (2654) 
0

>  <NONCOV_INTER_ENERGY_QM>  (2654) 
0

>  <FF_Energy>  (2654) 
-1.99

>  <QM_Energy>  (2654) 
-7.33

>  <source>  (2654) 
ACET_MBZ_03

>  <Index>  (2654) 
4632

$$$$
ACET-pdb5w3x-A-GLU-364:MBZ-pdb5w3x-B-PHE-1239
     RDKit          3D

 22 21  0  0  0  0  0  0  0  0999 V2000
    3.4014    1.4049   -2.7428 C   0  0  0  0  0  0  0  0  0  0  0  0
    2.5350    0.9591   -2.6170 H   0  0  0  0  0  0  0  0  0  0  0  0
    4.0994    1.0381   -2.1562 H   0  0  0  0  0  0  0  0  0  0  0  0
    3.7125    1.2572   -3.7770 H   0  0  0  0  0  0  0  0  0  0  0  0
    3.2213    2.8718   -2.3795 C   0  0  0  0  0  0  0  0  0  0  0  0
    3.2644    3.7233   -3.2931 O   0  0  0  0  0  1  0  0  0  0  0  0
    3.0401    3.1721   -1.1795 O   0  0  0  0  0  0  0  0  0  0  0  0
    0.0038    2.9037   -0.0168 C   0  0  0  0  0  0  0  0  0  0  0  0
   -0.5467    3.1982   -0.7868 H   0  0  0  0  0  0  0  0  0  0  0  0
    0.9433    3.2043   -0.1182 H   0  0  0  0  0  0  0  0  0  0  0  0
   -0.4009    3.3724    0.8802 H   0  0  0  0  0  0  0  0  0  0  0  0
   -0.0008    1.3991    0.0082 C   0  0  0  0  0  0  0  0  0  0  0  0
   -1.1948    0.6933   -0.0066 C   0  0  0  0  0  0  0  0  0  0  0  0
   -2.0614    1.1840   -0.0232 H   0  0  0  0  0  0  0  0  0  0  0  0
   -1.1976   -0.6930   -0.0000 C   0  0  0  0  0  0  0  0  0  0  0  0
   -2.0758   -1.1884    0.0048 H   0  0  0  0  0  0  0  0  0  0  0  0
    0.0011   -1.3899    0.0012 C   0  0  0  0  0  0  0  0  0  0  0  0
   -0.0059   -2.3902    0.0021 H   0  0  0  0  0  0  0  0  0  0  0  0
    1.1976   -0.6987   -0.0000 C   0  0  0  0  0  0  0  0  0  0  0  0
    2.0798   -1.1967    0.0028 H   0  0  0  0  0  0  0  0  0  0  0  0
    1.1946    0.6892   -0.0028 C   0  0  0  0  0  0  0  0  0  0  0  0
    2.0630    1.1855   -0.0137 H   0  0  0  0  0  0  0  0  0  0  0  0
  1  5  1  0
  5  6  1  0
  5  7  2  0
  1  2  1  0
  1  3  1  0
  1  4  1  0
  8 12  1  0
 12 13  2  0
 13 15  1  0
 15 17  2  0
 17 19  1  0
 19 21  2  0
 21 12  1  0
  8  9  1  0
  8 10  1  0
  8 11  1  0
 13 14  1  0
 15 16  1  0
 17 18  1  0
 19 20  1  0
 21 22  1  0
M  CHG  1   6  -1
M  END
>  <PDB_ID>  (2655) 
pdb5w3x

>  <RESIDUE_NAME>  (2655) 
GLU   PHE

>  <FRAG_NAME>  (2655) 
ACET   MBZ

>  <FRAG_ATOM_NUM>  (2655) 
fragi: 7  fragj: 15

>  <atom.prop.CHAIN_ID>  (2655) 
A A A A A A A Z Z Z Z Z Z Z Z Z Z Z Z Z Z Z

>  <atom.prop.IS_HEAVY_ATOM>  (2655) 
1 0 0 0 1 1 1 1 0 0 0 1 1 0 1 0 1 0 1 0 1 0

>  <DIFUSE_FUNC_ATOM>  (2655) 
atom 6   atom 7   

>  <FINAL_SINGLE_POINT_ENERGY>  (2655) 
0

>  <NONCOV_INTER_ENERGY_QM>  (2655) 
0

>  <FF_Energy>  (2655) 
-1.69

>  <QM_Energy>  (2655) 
-7.91

>  <source>  (2655) 
ACET_MBZ_03

>  <Index>  (2655) 
4761

$$$$
ACET-pdb5w3x-C-GLU-364:MBZ-pdb5w3x-D-PHE-1239
     RDKit          3D

 22 21  0  0  0  0  0  0  0  0999 V2000
    3.2170    1.3173   -2.7538 C   0  0  0  0  0  0  0  0  0  0  0  0
    2.3185    0.9384   -2.6261 H   0  0  0  0  0  0  0  0  0  0  0  0
    3.8940    0.8579   -2.2079 H   0  0  0  0  0  0  0  0  0  0  0  0
    3.4881    1.1979   -3.8028 H   0  0  0  0  0  0  0  0  0  0  0  0
    3.1724    2.7718   -2.3021 C   0  0  0  0  0  0  0  0  0  0  0  0
    3.2506    3.6740   -3.1609 O   0  0  0  0  0  1  0  0  0  0  0  0
    3.0869    3.0103   -1.0774 O   0  0  0  0  0  0  0  0  0  0  0  0
    0.0116    2.9076   -0.0063 C   0  0  0  0  0  0  0  0  0  0  0  0
   -0.5486    3.2119   -0.7619 H   0  0  0  0  0  0  0  0  0  0  0  0
    0.9493    3.2040   -0.1103 H   0  0  0  0  0  0  0  0  0  0  0  0
   -0.3822    3.3575    0.9051 H   0  0  0  0  0  0  0  0  0  0  0  0
    0.0002    1.4008    0.0019 C   0  0  0  0  0  0  0  0  0  0  0  0
   -1.1945    0.6942   -0.0040 C   0  0  0  0  0  0  0  0  0  0  0  0
   -2.0615    1.1841   -0.0123 H   0  0  0  0  0  0  0  0  0  0  0  0
   -1.1988   -0.6953    0.0000 C   0  0  0  0  0  0  0  0  0  0  0  0
   -2.0775   -1.1888    0.0036 H   0  0  0  0  0  0  0  0  0  0  0  0
   -0.0012   -1.3917    0.0003 C   0  0  0  0  0  0  0  0  0  0  0  0
   -0.0053   -2.3909   -0.0000 H   0  0  0  0  0  0  0  0  0  0  0  0
    1.1988   -0.6967    0.0000 C   0  0  0  0  0  0  0  0  0  0  0  0
    2.0797   -1.1974    0.0003 H   0  0  0  0  0  0  0  0  0  0  0  0
    1.1955    0.6887    0.0017 C   0  0  0  0  0  0  0  0  0  0  0  0
    2.0641    1.1863    0.0021 H   0  0  0  0  0  0  0  0  0  0  0  0
  1  5  1  0
  5  6  1  0
  5  7  2  0
  1  2  1  0
  1  3  1  0
  1  4  1  0
  8 12  1  0
 12 13  2  0
 13 15  1  0
 15 17  2  0
 17 19  1  0
 19 21  2  0
 21 12  1  0
  8  9  1  0
  8 10  1  0
  8 11  1  0
 13 14  1  0
 15 16  1  0
 17 18  1  0
 19 20  1  0
 21 22  1  0
M  CHG  1   6  -1
M  END
>  <PDB_ID>  (2656) 
pdb5w3x

>  <RESIDUE_NAME>  (2656) 
GLU   PHE

>  <FRAG_NAME>  (2656) 
ACET   MBZ

>  <FRAG_ATOM_NUM>  (2656) 
fragi: 7  fragj: 15

>  <atom.prop.CHAIN_ID>  (2656) 
A A A A A A A Z Z Z Z Z Z Z Z Z Z Z Z Z Z Z

>  <atom.prop.IS_HEAVY_ATOM>  (2656) 
1 0 0 0 1 1 1 1 0 0 0 1 1 0 1 0 1 0 1 0 1 0

>  <DIFUSE_FUNC_ATOM>  (2656) 
atom 6   atom 7   

>  <FINAL_SINGLE_POINT_ENERGY>  (2656) 
0

>  <NONCOV_INTER_ENERGY_QM>  (2656) 
0

>  <FF_Energy>  (2656) 
-1.17

>  <QM_Energy>  (2656) 
-8.02

>  <source>  (2656) 
ACET_MBZ_03

>  <Index>  (2656) 
4762

$$$$
ACET-pdb5vrb-B-GLU-301:MBZ-pdb5vrb-B-PHE-51
     RDKit          3D

 22 21  0  0  0  0  0  0  0  0999 V2000
   -2.3363    0.5186   -3.4931 C   0  0  0  0  0  0  0  0  0  0  0  0
   -3.0570    0.3846   -4.1487 H   0  0  0  0  0  0  0  0  0  0  0  0
   -2.5211    0.0645   -2.6407 H   0  0  0  0  0  0  0  0  0  0  0  0
   -1.4132    0.1135   -3.9078 H   0  0  0  0  0  0  0  0  0  0  0  0
   -2.2574    2.0146   -3.2030 C   0  0  0  0  0  0  0  0  0  0  0  0
   -1.1766    2.6137   -3.3875 O   0  0  0  0  0  1  0  0  0  0  0  0
   -3.2743    2.5957   -2.7828 O   0  0  0  0  0  0  0  0  0  0  0  0
    0.0229    2.9187   -0.0236 C   0  0  0  0  0  0  0  0  0  0  0  0
   -0.2661    3.2124   -0.9240 H   0  0  0  0  0  0  0  0  0  0  0  0
    0.9490    3.2139    0.1667 H   0  0  0  0  0  0  0  0  0  0  0  0
   -0.6329    3.3938    0.7061 H   0  0  0  0  0  0  0  0  0  0  0  0
    0.0035    1.4082    0.0007 C   0  0  0  0  0  0  0  0  0  0  0  0
   -1.1936    0.7011   -0.0069 C   0  0  0  0  0  0  0  0  0  0  0  0
   -2.0607    1.1847   -0.0191 H   0  0  0  0  0  0  0  0  0  0  0  0
   -1.1970   -0.7012   -0.0000 C   0  0  0  0  0  0  0  0  0  0  0  0
   -2.0790   -1.1859    0.0001 H   0  0  0  0  0  0  0  0  0  0  0  0
   -0.0052   -1.3941    0.0089 C   0  0  0  0  0  0  0  0  0  0  0  0
   -0.0089   -2.3957    0.0216 H   0  0  0  0  0  0  0  0  0  0  0  0
    1.1970   -0.7046   -0.0000 C   0  0  0  0  0  0  0  0  0  0  0  0
    2.0773   -1.2017   -0.0034 H   0  0  0  0  0  0  0  0  0  0  0  0
    1.1953    0.6906   -0.0027 C   0  0  0  0  0  0  0  0  0  0  0  0
    2.0673    1.1818   -0.0082 H   0  0  0  0  0  0  0  0  0  0  0  0
  1  5  1  0
  5  6  1  0
  5  7  2  0
  1  2  1  0
  1  3  1  0
  1  4  1  0
  8 12  1  0
 12 13  2  0
 13 15  1  0
 15 17  2  0
 17 19  1  0
 19 21  2  0
 21 12  1  0
  8  9  1  0
  8 10  1  0
  8 11  1  0
 13 14  1  0
 15 16  1  0
 17 18  1  0
 19 20  1  0
 21 22  1  0
M  CHG  1   6  -1
M  END
>  <PDB_ID>  (2657) 
pdb5vrb

>  <RESIDUE_NAME>  (2657) 
GLU   PHE

>  <FRAG_NAME>  (2657) 
ACET   MBZ

>  <FRAG_ATOM_NUM>  (2657) 
fragi: 7  fragj: 15

>  <atom.prop.CHAIN_ID>  (2657) 
A A A A A A A Z Z Z Z Z Z Z Z Z Z Z Z Z Z Z

>  <atom.prop.IS_HEAVY_ATOM>  (2657) 
1 0 0 0 1 1 1 1 0 0 0 1 1 0 1 0 1 0 1 0 1 0

>  <DIFUSE_FUNC_ATOM>  (2657) 
atom 6   atom 7   

>  <FINAL_SINGLE_POINT_ENERGY>  (2657) 
0

>  <NONCOV_INTER_ENERGY_QM>  (2657) 
0

>  <FF_Energy>  (2657) 
-0.95

>  <QM_Energy>  (2657) 
-5.98

>  <source>  (2657) 
ACET_MBZ_03

>  <Index>  (2657) 
4800

$$$$
ACET-pdb5we0-A-GLU-136:MBZ-pdb5we0-C-PHE-471
     RDKit          3D

 22 21  0  0  0  0  0  0  0  0999 V2000
    4.1315    5.5295    0.6782 C   0  0  0  0  0  0  0  0  0  0  0  0
    3.4322    6.1882    0.4917 H   0  0  0  0  0  0  0  0  0  0  0  0
    5.0337    5.9056    0.6398 H   0  0  0  0  0  0  0  0  0  0  0  0
    3.9651    5.1114    1.6710 H   0  0  0  0  0  0  0  0  0  0  0  0
    4.0415    4.4574   -0.3883 C   0  0  0  0  0  0  0  0  0  0  0  0
    3.0333    3.7377   -0.4035 O   0  0  0  0  0  1  0  0  0  0  0  0
    4.9582    4.3332   -1.2239 O   0  0  0  0  0  0  0  0  0  0  0  0
    0.0027    2.9012   -0.0084 C   0  0  0  0  0  0  0  0  0  0  0  0
    0.8573    3.2091    0.3719 H   0  0  0  0  0  0  0  0  0  0  0  0
   -0.7690    3.2130    0.5189 H   0  0  0  0  0  0  0  0  0  0  0  0
   -0.0866    3.3244   -1.0090 H   0  0  0  0  0  0  0  0  0  0  0  0
   -0.0004    1.3970    0.0003 C   0  0  0  0  0  0  0  0  0  0  0  0
   -1.1958    0.6902    0.0062 C   0  0  0  0  0  0  0  0  0  0  0  0
   -2.0620    1.1834    0.0140 H   0  0  0  0  0  0  0  0  0  0  0  0
   -1.1972   -0.6901    0.0000 C   0  0  0  0  0  0  0  0  0  0  0  0
   -2.0714   -1.1915   -0.0031 H   0  0  0  0  0  0  0  0  0  0  0  0
    0.0074   -1.3863    0.0005 C   0  0  0  0  0  0  0  0  0  0  0  0
   -0.0037   -2.3876    0.0010 H   0  0  0  0  0  0  0  0  0  0  0  0
    1.1972   -0.6968   -0.0000 C   0  0  0  0  0  0  0  0  0  0  0  0
    2.0824   -1.1918    0.0058 H   0  0  0  0  0  0  0  0  0  0  0  0
    1.1887    0.6860   -0.0070 C   0  0  0  0  0  0  0  0  0  0  0  0
    2.0613    1.1855   -0.0182 H   0  0  0  0  0  0  0  0  0  0  0  0
  1  5  1  0
  5  6  1  0
  5  7  2  0
  1  2  1  0
  1  3  1  0
  1  4  1  0
  8 12  1  0
 12 13  2  0
 13 15  1  0
 15 17  2  0
 17 19  1  0
 19 21  2  0
 21 12  1  0
  8  9  1  0
  8 10  1  0
  8 11  1  0
 13 14  1  0
 15 16  1  0
 17 18  1  0
 19 20  1  0
 21 22  1  0
M  CHG  1   6  -1
M  END
>  <PDB_ID>  (2658) 
pdb5we0

>  <RESIDUE_NAME>  (2658) 
GLU   PHE

>  <FRAG_NAME>  (2658) 
ACET   MBZ

>  <FRAG_ATOM_NUM>  (2658) 
fragi: 7  fragj: 15

>  <atom.prop.CHAIN_ID>  (2658) 
A A A A A A A Z Z Z Z Z Z Z Z Z Z Z Z Z Z Z

>  <atom.prop.IS_HEAVY_ATOM>  (2658) 
1 0 0 0 1 1 1 1 0 0 0 1 1 0 1 0 1 0 1 0 1 0

>  <DIFUSE_FUNC_ATOM>  (2658) 
atom 6   atom 7   

>  <FINAL_SINGLE_POINT_ENERGY>  (2658) 
0

>  <NONCOV_INTER_ENERGY_QM>  (2658) 
0

>  <FF_Energy>  (2658) 
-1.42

>  <QM_Energy>  (2658) 
-7.2

>  <source>  (2658) 
ACET_MBZ_03

>  <Index>  (2658) 
5021

$$$$
ACET-pdb5wlh-A-ASP-653:MBZ-pdb5wlh-A-PHE-861
     RDKit          3D

 22 21  0  0  0  0  0  0  0  0999 V2000
   -0.2502    0.3430   -3.4982 C   0  0  0  0  0  0  0  0  0  0  0  0
   -1.2175    0.1759   -3.6533 H   0  0  0  0  0  0  0  0  0  0  0  0
   -0.0176    0.1784   -2.5465 H   0  0  0  0  0  0  0  0  0  0  0  0
    0.3191   -0.3524   -4.1151 H   0  0  0  0  0  0  0  0  0  0  0  0
    0.0465    1.8032   -3.8233 C   0  0  0  0  0  0  0  0  0  0  0  0
    0.8474    2.0678   -4.7441 O   0  0  0  0  0  1  0  0  0  0  0  0
   -0.5242    2.6827   -3.1356 O   0  0  0  0  0  0  0  0  0  0  0  0
    0.0091    2.9117   -0.0188 C   0  0  0  0  0  0  0  0  0  0  0  0
   -0.7184    3.2074   -0.6251 H   0  0  0  0  0  0  0  0  0  0  0  0
    0.8933    3.2045   -0.3608 H   0  0  0  0  0  0  0  0  0  0  0  0
   -0.1480    3.3904    0.9478 H   0  0  0  0  0  0  0  0  0  0  0  0
    0.0014    1.4019    0.0108 C   0  0  0  0  0  0  0  0  0  0  0  0
   -1.1954    0.6888   -0.0101 C   0  0  0  0  0  0  0  0  0  0  0  0
   -2.0625    1.1767   -0.0339 H   0  0  0  0  0  0  0  0  0  0  0  0
   -1.1976   -0.7056   -0.0000 C   0  0  0  0  0  0  0  0  0  0  0  0
   -2.0754   -1.1961    0.0071 H   0  0  0  0  0  0  0  0  0  0  0  0
   -0.0020   -1.3875    0.0021 C   0  0  0  0  0  0  0  0  0  0  0  0
    0.0024   -2.3918    0.0046 H   0  0  0  0  0  0  0  0  0  0  0  0
    1.1976   -0.6931   -0.0000 C   0  0  0  0  0  0  0  0  0  0  0  0
    2.0790   -1.1923    0.0019 H   0  0  0  0  0  0  0  0  0  0  0  0
    1.1959    0.6955   -0.0028 C   0  0  0  0  0  0  0  0  0  0  0  0
    2.0642    1.1903   -0.0152 H   0  0  0  0  0  0  0  0  0  0  0  0
  1  5  1  0
  5  6  1  0
  5  7  2  0
  1  2  1  0
  1  3  1  0
  1  4  1  0
  8 12  1  0
 12 13  2  0
 13 15  1  0
 15 17  2  0
 17 19  1  0
 19 21  2  0
 21 12  1  0
  8  9  1  0
  8 10  1  0
  8 11  1  0
 13 14  1  0
 15 16  1  0
 17 18  1  0
 19 20  1  0
 21 22  1  0
M  CHG  1   6  -1
M  END
>  <PDB_ID>  (2659) 
pdb5wlh

>  <RESIDUE_NAME>  (2659) 
ASP   PHE

>  <FRAG_NAME>  (2659) 
ACET   MBZ

>  <FRAG_ATOM_NUM>  (2659) 
fragi: 7  fragj: 15

>  <atom.prop.CHAIN_ID>  (2659) 
A A A A A A A Z Z Z Z Z Z Z Z Z Z Z Z Z Z Z

>  <atom.prop.IS_HEAVY_ATOM>  (2659) 
1 0 0 0 1 1 1 1 0 0 0 1 1 0 1 0 1 0 1 0 1 0

>  <DIFUSE_FUNC_ATOM>  (2659) 
atom 6   atom 7   

>  <FINAL_SINGLE_POINT_ENERGY>  (2659) 
0

>  <NONCOV_INTER_ENERGY_QM>  (2659) 
0

>  <FF_Energy>  (2659) 
0.64

>  <QM_Energy>  (2659) 
-4.79

>  <source>  (2659) 
ACET_MBZ_03

>  <Index>  (2659) 
5133

$$$$
ACET-pdb5wls-B-ASP-86:MBZ-pdb5wls-B-PHE-32
     RDKit          3D

 22 21  0  0  0  0  0  0  0  0999 V2000
    3.8100    4.7106   -0.3074 C   0  0  0  0  0  0  0  0  0  0  0  0
    3.9749    5.6786   -0.1507 H   0  0  0  0  0  0  0  0  0  0  0  0
    3.2629    4.5798   -1.1258 H   0  0  0  0  0  0  0  0  0  0  0  0
    4.7736    4.2256   -0.4641 H   0  0  0  0  0  0  0  0  0  0  0  0
    3.0565    4.1455    0.8800 C   0  0  0  0  0  0  0  0  0  0  0  0
    3.2684    2.9626    1.2163 O   0  0  0  0  0  1  0  0  0  0  0  0
    2.2442    4.8862    1.4735 O   0  0  0  0  0  0  0  0  0  0  0  0
    0.0497    2.9098    0.0017 C   0  0  0  0  0  0  0  0  0  0  0  0
    0.6764    3.2021   -0.7118 H   0  0  0  0  0  0  0  0  0  0  0  0
    0.3811    3.1973    0.8938 H   0  0  0  0  0  0  0  0  0  0  0  0
   -0.9026    3.4111   -0.1718 H   0  0  0  0  0  0  0  0  0  0  0  0
    0.0040    1.3997   -0.0114 C   0  0  0  0  0  0  0  0  0  0  0  0
   -1.1920    0.7012    0.0104 C   0  0  0  0  0  0  0  0  0  0  0  0
   -2.0564    1.1901    0.0323 H   0  0  0  0  0  0  0  0  0  0  0  0
   -1.1928   -0.6876   -0.0000 C   0  0  0  0  0  0  0  0  0  0  0  0
   -2.0761   -1.1801   -0.0066 H   0  0  0  0  0  0  0  0  0  0  0  0
   -0.0025   -1.3872    0.0013 C   0  0  0  0  0  0  0  0  0  0  0  0
   -0.0145   -2.3897    0.0026 H   0  0  0  0  0  0  0  0  0  0  0  0
    1.1928   -0.7050    0.0000 C   0  0  0  0  0  0  0  0  0  0  0  0
    2.0742   -1.2045    0.0008 H   0  0  0  0  0  0  0  0  0  0  0  0
    1.1905    0.6790   -0.0003 C   0  0  0  0  0  0  0  0  0  0  0  0
    2.0660    1.1746    0.0066 H   0  0  0  0  0  0  0  0  0  0  0  0
  1  5  1  0
  5  6  1  0
  5  7  2  0
  1  2  1  0
  1  3  1  0
  1  4  1  0
  8 12  1  0
 12 13  2  0
 13 15  1  0
 15 17  2  0
 17 19  1  0
 19 21  2  0
 21 12  1  0
  8  9  1  0
  8 10  1  0
  8 11  1  0
 13 14  1  0
 15 16  1  0
 17 18  1  0
 19 20  1  0
 21 22  1  0
M  CHG  1   6  -1
M  END
>  <PDB_ID>  (2660) 
pdb5wls

>  <RESIDUE_NAME>  (2660) 
ASP   PHE

>  <FRAG_NAME>  (2660) 
ACET   MBZ

>  <FRAG_ATOM_NUM>  (2660) 
fragi: 7  fragj: 15

>  <atom.prop.CHAIN_ID>  (2660) 
A A A A A A A Z Z Z Z Z Z Z Z Z Z Z Z Z Z Z

>  <atom.prop.IS_HEAVY_ATOM>  (2660) 
1 0 0 0 1 1 1 1 0 0 0 1 1 0 1 0 1 0 1 0 1 0

>  <DIFUSE_FUNC_ATOM>  (2660) 
atom 6   atom 7   

>  <FINAL_SINGLE_POINT_ENERGY>  (2660) 
0

>  <NONCOV_INTER_ENERGY_QM>  (2660) 
0

>  <FF_Energy>  (2660) 
-1.72

>  <QM_Energy>  (2660) 
-8.44

>  <source>  (2660) 
ACET_MBZ_03

>  <Index>  (2660) 
5142

$$$$
ACET-pdb5wno-A-GLU-1002:MBZ-pdb5wno-A-PHE-1134
     RDKit          3D

 22 21  0  0  0  0  0  0  0  0999 V2000
    5.1316    3.1350    0.4341 C   0  0  0  0  0  0  0  0  0  0  0  0
    5.7302    3.9098    0.5151 H   0  0  0  0  0  0  0  0  0  0  0  0
    5.6189    2.3054    0.2366 H   0  0  0  0  0  0  0  0  0  0  0  0
    4.6087    3.0076    1.3820 H   0  0  0  0  0  0  0  0  0  0  0  0
    4.1888    3.4006   -0.7220 C   0  0  0  0  0  0  0  0  0  0  0  0
    3.0483    3.8410   -0.4700 O   0  0  0  0  0  1  0  0  0  0  0  0
    4.5862    3.1661   -1.8831 O   0  0  0  0  0  0  0  0  0  0  0  0
   -0.0037    2.8964   -0.0041 C   0  0  0  0  0  0  0  0  0  0  0  0
    0.9143    3.2049    0.1915 H   0  0  0  0  0  0  0  0  0  0  0  0
   -0.6427    3.2025    0.6841 H   0  0  0  0  0  0  0  0  0  0  0  0
   -0.3068    3.3293   -0.9574 H   0  0  0  0  0  0  0  0  0  0  0  0
    0.0006    1.3938   -0.0003 C   0  0  0  0  0  0  0  0  0  0  0  0
   -1.1913    0.6880    0.0008 C   0  0  0  0  0  0  0  0  0  0  0  0
   -2.0593    1.1808    0.0008 H   0  0  0  0  0  0  0  0  0  0  0  0
   -1.1952   -0.6932   -0.0000 C   0  0  0  0  0  0  0  0  0  0  0  0
   -2.0743   -1.1892   -0.0001 H   0  0  0  0  0  0  0  0  0  0  0  0
   -0.0007   -1.3850    0.0008 C   0  0  0  0  0  0  0  0  0  0  0  0
   -0.0044   -2.3868    0.0018 H   0  0  0  0  0  0  0  0  0  0  0  0
    1.1952   -0.6931    0.0000 C   0  0  0  0  0  0  0  0  0  0  0  0
    2.0782   -1.1934    0.0018 H   0  0  0  0  0  0  0  0  0  0  0  0
    1.1914    0.6895   -0.0013 C   0  0  0  0  0  0  0  0  0  0  0  0
    2.0619    1.1875   -0.0036 H   0  0  0  0  0  0  0  0  0  0  0  0
  1  5  1  0
  5  6  1  0
  5  7  2  0
  1  2  1  0
  1  3  1  0
  1  4  1  0
  8 12  1  0
 12 13  2  0
 13 15  1  0
 15 17  2  0
 17 19  1  0
 19 21  2  0
 21 12  1  0
  8  9  1  0
  8 10  1  0
  8 11  1  0
 13 14  1  0
 15 16  1  0
 17 18  1  0
 19 20  1  0
 21 22  1  0
M  CHG  1   6  -1
M  END
>  <PDB_ID>  (2661) 
pdb5wno

>  <RESIDUE_NAME>  (2661) 
GLU   PHE

>  <FRAG_NAME>  (2661) 
ACET   MBZ

>  <FRAG_ATOM_NUM>  (2661) 
fragi: 7  fragj: 15

>  <atom.prop.CHAIN_ID>  (2661) 
A A A A A A A Z Z Z Z Z Z Z Z Z Z Z Z Z Z Z

>  <atom.prop.IS_HEAVY_ATOM>  (2661) 
1 0 0 0 1 1 1 1 0 0 0 1 1 0 1 0 1 0 1 0 1 0

>  <DIFUSE_FUNC_ATOM>  (2661) 
atom 6   atom 7   

>  <FINAL_SINGLE_POINT_ENERGY>  (2661) 
0

>  <NONCOV_INTER_ENERGY_QM>  (2661) 
0

>  <FF_Energy>  (2661) 
-1.47

>  <QM_Energy>  (2661) 
-7.02

>  <source>  (2661) 
ACET_MBZ_03

>  <Index>  (2661) 
5167

$$$$
ACET-pdb5wp5-A-ASP-461:MBZ-pdb5wp5-A-PHE-457
     RDKit          3D

 22 21  0  0  0  0  0  0  0  0999 V2000
   -1.8022    4.5727    2.9272 C   0  0  0  0  0  0  0  0  0  0  0  0
   -1.1328    4.9750    2.3104 H   0  0  0  0  0  0  0  0  0  0  0  0
   -1.4930    3.6784    3.2339 H   0  0  0  0  0  0  0  0  0  0  0  0
   -1.8880    5.2188    3.8009 H   0  0  0  0  0  0  0  0  0  0  0  0
   -3.1116    4.4073    2.1830 C   0  0  0  0  0  0  0  0  0  0  0  0
   -4.1691    4.8769    2.6632 O   0  0  0  0  0  1  0  0  0  0  0  0
   -3.0700    3.7492    1.1270 O   0  0  0  0  0  0  0  0  0  0  0  0
   -0.0038    2.9261   -0.0438 C   0  0  0  0  0  0  0  0  0  0  0  0
    0.8218    3.2458    0.3826 H   0  0  0  0  0  0  0  0  0  0  0  0
   -0.8114    3.2403    0.4197 H   0  0  0  0  0  0  0  0  0  0  0  0
   -0.0284    3.3294   -1.0562 H   0  0  0  0  0  0  0  0  0  0  0  0
    0.0025    1.4103   -0.0051 C   0  0  0  0  0  0  0  0  0  0  0  0
   -1.1927    0.7004   -0.0036 C   0  0  0  0  0  0  0  0  0  0  0  0
   -2.0613    1.1812   -0.0065 H   0  0  0  0  0  0  0  0  0  0  0  0
   -1.1951   -0.7061    0.0000 C   0  0  0  0  0  0  0  0  0  0  0  0
   -2.0777   -1.1908   -0.0035 H   0  0  0  0  0  0  0  0  0  0  0  0
   -0.0010   -1.4054    0.0099 C   0  0  0  0  0  0  0  0  0  0  0  0
   -0.0004   -2.3998    0.0234 H   0  0  0  0  0  0  0  0  0  0  0  0
    1.1951   -0.6997    0.0000 C   0  0  0  0  0  0  0  0  0  0  0  0
    2.0818   -1.1912   -0.0052 H   0  0  0  0  0  0  0  0  0  0  0  0
    1.1912    0.7005   -0.0011 C   0  0  0  0  0  0  0  0  0  0  0  0
    2.0644    1.1894    0.0003 H   0  0  0  0  0  0  0  0  0  0  0  0
  1  5  1  0
  5  6  1  0
  5  7  2  0
  1  2  1  0
  1  3  1  0
  1  4  1  0
  8 12  1  0
 12 13  2  0
 13 15  1  0
 15 17  2  0
 17 19  1  0
 19 21  2  0
 21 12  1  0
  8  9  1  0
  8 10  1  0
  8 11  1  0
 13 14  1  0
 15 16  1  0
 17 18  1  0
 19 20  1  0
 21 22  1  0
M  CHG  1   6  -1
M  END
>  <PDB_ID>  (2662) 
pdb5wp5

>  <RESIDUE_NAME>  (2662) 
ASP   PHE

>  <FRAG_NAME>  (2662) 
ACET   MBZ

>  <FRAG_ATOM_NUM>  (2662) 
fragi: 7  fragj: 15

>  <atom.prop.CHAIN_ID>  (2662) 
A A A A A A A Z Z Z Z Z Z Z Z Z Z Z Z Z Z Z

>  <atom.prop.IS_HEAVY_ATOM>  (2662) 
1 0 0 0 1 1 1 1 0 0 0 1 1 0 1 0 1 0 1 0 1 0

>  <DIFUSE_FUNC_ATOM>  (2662) 
atom 6   atom 7   

>  <FINAL_SINGLE_POINT_ENERGY>  (2662) 
0

>  <NONCOV_INTER_ENERGY_QM>  (2662) 
0

>  <FF_Energy>  (2662) 
-1.85

>  <QM_Energy>  (2662) 
-6.93

>  <source>  (2662) 
ACET_MBZ_03

>  <Index>  (2662) 
5212

$$$$
ACET-pdb5wql-C-ASP-256:MBZ-pdb5wql-C-PHE-197
     RDKit          3D

 22 21  0  0  0  0  0  0  0  0999 V2000
    1.4357   -2.5401    2.3547 C   0  0  0  0  0  0  0  0  0  0  0  0
    1.6840   -3.4149    1.9551 H   0  0  0  0  0  0  0  0  0  0  0  0
    1.4253   -1.8310    1.6602 H   0  0  0  0  0  0  0  0  0  0  0  0
    0.4293   -2.6289    2.7638 H   0  0  0  0  0  0  0  0  0  0  0  0
    2.4641   -2.1762    3.4079 C   0  0  0  0  0  0  0  0  0  0  0  0
    2.3290   -1.0971    4.0239 O   0  0  0  0  0  1  0  0  0  0  0  0
    3.4051   -2.9679    3.6202 O   0  0  0  0  0  0  0  0  0  0  0  0
   -0.0009    2.8969    0.0001 C   0  0  0  0  0  0  0  0  0  0  0  0
    0.9282    3.2038    0.1430 H   0  0  0  0  0  0  0  0  0  0  0  0
   -0.5969    3.2030    0.7276 H   0  0  0  0  0  0  0  0  0  0  0  0
   -0.3584    3.3365   -0.9310 H   0  0  0  0  0  0  0  0  0  0  0  0
   -0.0002    1.3949    0.0002 C   0  0  0  0  0  0  0  0  0  0  0  0
   -1.1919    0.6884   -0.0005 C   0  0  0  0  0  0  0  0  0  0  0  0
   -2.0598    1.1802   -0.0024 H   0  0  0  0  0  0  0  0  0  0  0  0
   -1.1954   -0.6936   -0.0000 C   0  0  0  0  0  0  0  0  0  0  0  0
   -2.0734   -1.1897    0.0012 H   0  0  0  0  0  0  0  0  0  0  0  0
    0.0003   -1.3855    0.0002 C   0  0  0  0  0  0  0  0  0  0  0  0
   -0.0030   -2.3869    0.0002 H   0  0  0  0  0  0  0  0  0  0  0  0
    1.1954   -0.6934    0.0000 C   0  0  0  0  0  0  0  0  0  0  0  0
    2.0790   -1.1930    0.0015 H   0  0  0  0  0  0  0  0  0  0  0  0
    1.1917    0.6892    0.0000 C   0  0  0  0  0  0  0  0  0  0  0  0
    2.0610    1.1869   -0.0005 H   0  0  0  0  0  0  0  0  0  0  0  0
  1  5  1  0
  5  6  1  0
  5  7  2  0
  1  2  1  0
  1  3  1  0
  1  4  1  0
  8 12  1  0
 12 13  2  0
 13 15  1  0
 15 17  2  0
 17 19  1  0
 19 21  2  0
 21 12  1  0
  8  9  1  0
  8 10  1  0
  8 11  1  0
 13 14  1  0
 15 16  1  0
 17 18  1  0
 19 20  1  0
 21 22  1  0
M  CHG  1   6  -1
M  END
>  <PDB_ID>  (2663) 
pdb5wql

>  <RESIDUE_NAME>  (2663) 
ASP   PHE

>  <FRAG_NAME>  (2663) 
ACET   MBZ

>  <FRAG_ATOM_NUM>  (2663) 
fragi: 7  fragj: 15

>  <atom.prop.CHAIN_ID>  (2663) 
A A A A A A A Z Z Z Z Z Z Z Z Z Z Z Z Z Z Z

>  <atom.prop.IS_HEAVY_ATOM>  (2663) 
1 0 0 0 1 1 1 1 0 0 0 1 1 0 1 0 1 0 1 0 1 0

>  <DIFUSE_FUNC_ATOM>  (2663) 
atom 6   atom 7   

>  <FINAL_SINGLE_POINT_ENERGY>  (2663) 
0

>  <NONCOV_INTER_ENERGY_QM>  (2663) 
0

>  <FF_Energy>  (2663) 
23.58

>  <QM_Energy>  (2663) 
6.97

>  <source>  (2663) 
ACET_MBZ_03

>  <Index>  (2663) 
5260

$$$$
ACET-pdb5wql-D-ASP-582:MBZ-pdb5wql-D-PHE-585
     RDKit          3D

 22 21  0  0  0  0  0  0  0  0999 V2000
   -2.3878    3.9637   -2.5095 C   0  0  0  0  0  0  0  0  0  0  0  0
   -2.3233    3.5493   -3.4135 H   0  0  0  0  0  0  0  0  0  0  0  0
   -1.5787    3.7426   -1.9729 H   0  0  0  0  0  0  0  0  0  0  0  0
   -2.4144    5.0453   -2.6414 H   0  0  0  0  0  0  0  0  0  0  0  0
   -3.5931    3.4627   -1.8196 C   0  0  0  0  0  0  0  0  0  0  0  0
   -3.6396    3.4960   -0.5953 O   0  0  0  0  0  1  0  0  0  0  0  0
   -4.5331    3.0719   -2.4943 O   0  0  0  0  0  0  0  0  0  0  0  0
   -0.0053    2.9090   -0.0009 C   0  0  0  0  0  0  0  0  0  0  0  0
   -0.7062    3.2006   -0.6327 H   0  0  0  0  0  0  0  0  0  0  0  0
    0.8907    3.2097   -0.2904 H   0  0  0  0  0  0  0  0  0  0  0  0
   -0.2169    3.3530    0.9719 H   0  0  0  0  0  0  0  0  0  0  0  0
    0.0019    1.3903    0.0048 C   0  0  0  0  0  0  0  0  0  0  0  0
   -1.1738    0.6777   -0.0028 C   0  0  0  0  0  0  0  0  0  0  0  0
   -2.0506    1.1707   -0.0114 H   0  0  0  0  0  0  0  0  0  0  0  0
   -1.1775   -0.6901   -0.0000 C   0  0  0  0  0  0  0  0  0  0  0  0
   -2.0662   -1.1841    0.0052 H   0  0  0  0  0  0  0  0  0  0  0  0
   -0.0058   -1.3777   -0.0020 C   0  0  0  0  0  0  0  0  0  0  0  0
   -0.0062   -2.3816   -0.0051 H   0  0  0  0  0  0  0  0  0  0  0  0
    1.1775   -0.6891   -0.0000 C   0  0  0  0  0  0  0  0  0  0  0  0
    2.0662   -1.1886    0.0033 H   0  0  0  0  0  0  0  0  0  0  0  0
    1.1777    0.6889    0.0000 C   0  0  0  0  0  0  0  0  0  0  0  0
    2.0542    1.1819   -0.0048 H   0  0  0  0  0  0  0  0  0  0  0  0
  1  5  1  0
  5  6  1  0
  5  7  2  0
  1  2  1  0
  1  3  1  0
  1  4  1  0
  8 12  1  0
 12 13  2  0
 13 15  1  0
 15 17  2  0
 17 19  1  0
 19 21  2  0
 21 12  1  0
  8  9  1  0
  8 10  1  0
  8 11  1  0
 13 14  1  0
 15 16  1  0
 17 18  1  0
 19 20  1  0
 21 22  1  0
M  CHG  1   6  -1
M  END
>  <PDB_ID>  (2664) 
pdb5wql

>  <RESIDUE_NAME>  (2664) 
ASP   PHE

>  <FRAG_NAME>  (2664) 
ACET   MBZ

>  <FRAG_ATOM_NUM>  (2664) 
fragi: 7  fragj: 15

>  <atom.prop.CHAIN_ID>  (2664) 
A A A A A A A Z Z Z Z Z Z Z Z Z Z Z Z Z Z Z

>  <atom.prop.IS_HEAVY_ATOM>  (2664) 
1 0 0 0 1 1 1 1 0 0 0 1 1 0 1 0 1 0 1 0 1 0

>  <DIFUSE_FUNC_ATOM>  (2664) 
atom 6   atom 7   

>  <FINAL_SINGLE_POINT_ENERGY>  (2664) 
0

>  <NONCOV_INTER_ENERGY_QM>  (2664) 
0

>  <FF_Energy>  (2664) 
3.8

>  <QM_Energy>  (2664) 
-3.99

>  <source>  (2664) 
ACET_MBZ_03

>  <Index>  (2664) 
5269

$$$$
ACET-pdb5wql-C-ASP-257:MBZ-pdb5wql-C-PHE-197
     RDKit          3D

 22 21  0  0  0  0  0  0  0  0999 V2000
   -1.7349   -4.9448   -0.5208 C   0  0  0  0  0  0  0  0  0  0  0  0
   -0.7896   -5.0365   -0.2325 H   0  0  0  0  0  0  0  0  0  0  0  0
   -2.1303   -5.8338   -0.7148 H   0  0  0  0  0  0  0  0  0  0  0  0
   -2.2945   -4.5021    0.3033 H   0  0  0  0  0  0  0  0  0  0  0  0
   -1.7835   -4.1006   -1.7787 C   0  0  0  0  0  0  0  0  0  0  0  0
   -2.0840   -4.6553   -2.8550 O   0  0  0  0  0  1  0  0  0  0  0  0
   -1.5188   -2.8834   -1.6887 O   0  0  0  0  0  0  0  0  0  0  0  0
   -0.0009    2.8969    0.0001 C   0  0  0  0  0  0  0  0  0  0  0  0
    0.9282    3.2038    0.1430 H   0  0  0  0  0  0  0  0  0  0  0  0
   -0.5969    3.2030    0.7276 H   0  0  0  0  0  0  0  0  0  0  0  0
   -0.3584    3.3365   -0.9310 H   0  0  0  0  0  0  0  0  0  0  0  0
   -0.0002    1.3949    0.0002 C   0  0  0  0  0  0  0  0  0  0  0  0
   -1.1919    0.6884   -0.0005 C   0  0  0  0  0  0  0  0  0  0  0  0
   -2.0598    1.1802   -0.0024 H   0  0  0  0  0  0  0  0  0  0  0  0
   -1.1954   -0.6936   -0.0000 C   0  0  0  0  0  0  0  0  0  0  0  0
   -2.0734   -1.1897    0.0012 H   0  0  0  0  0  0  0  0  0  0  0  0
    0.0003   -1.3855    0.0002 C   0  0  0  0  0  0  0  0  0  0  0  0
   -0.0030   -2.3869    0.0002 H   0  0  0  0  0  0  0  0  0  0  0  0
    1.1954   -0.6934    0.0000 C   0  0  0  0  0  0  0  0  0  0  0  0
    2.0790   -1.1930    0.0015 H   0  0  0  0  0  0  0  0  0  0  0  0
    1.1917    0.6892    0.0000 C   0  0  0  0  0  0  0  0  0  0  0  0
    2.0610    1.1869   -0.0005 H   0  0  0  0  0  0  0  0  0  0  0  0
  1  5  1  0
  5  6  1  0
  5  7  2  0
  1  2  1  0
  1  3  1  0
  1  4  1  0
  8 12  1  0
 12 13  2  0
 13 15  1  0
 15 17  2  0
 17 19  1  0
 19 21  2  0
 21 12  1  0
  8  9  1  0
  8 10  1  0
  8 11  1  0
 13 14  1  0
 15 16  1  0
 17 18  1  0
 19 20  1  0
 21 22  1  0
M  CHG  1   6  -1
M  END
>  <PDB_ID>  (2665) 
pdb5wql

>  <RESIDUE_NAME>  (2665) 
ASP   PHE

>  <FRAG_NAME>  (2665) 
ACET   MBZ

>  <FRAG_ATOM_NUM>  (2665) 
fragi: 7  fragj: 15

>  <atom.prop.CHAIN_ID>  (2665) 
A A A A A A A Z Z Z Z Z Z Z Z Z Z Z Z Z Z Z

>  <atom.prop.IS_HEAVY_ATOM>  (2665) 
1 0 0 0 1 1 1 1 0 0 0 1 1 0 1 0 1 0 1 0 1 0

>  <DIFUSE_FUNC_ATOM>  (2665) 
atom 6   atom 7   

>  <FINAL_SINGLE_POINT_ENERGY>  (2665) 
0

>  <NONCOV_INTER_ENERGY_QM>  (2665) 
0

>  <FF_Energy>  (2665) 
4.53

>  <QM_Energy>  (2665) 
-1.53

>  <source>  (2665) 
ACET_MBZ_03

>  <Index>  (2665) 
5282

$$$$
ACET-pdb5wp5-B-ASP-461:MBZ-pdb5wp5-B-PHE-457
     RDKit          3D

 22 21  0  0  0  0  0  0  0  0999 V2000
   -1.8327    4.4341    3.0622 C   0  0  0  0  0  0  0  0  0  0  0  0
   -1.1370    4.8548    2.4907 H   0  0  0  0  0  0  0  0  0  0  0  0
   -1.5503    3.5243    3.3421 H   0  0  0  0  0  0  0  0  0  0  0  0
   -1.9393    5.0422    3.9605 H   0  0  0  0  0  0  0  0  0  0  0  0
   -3.1223    4.3237    2.2631 C   0  0  0  0  0  0  0  0  0  0  0  0
   -4.1908    4.7862    2.7307 O   0  0  0  0  0  1  0  0  0  0  0  0
   -3.0735    3.7344    1.1587 O   0  0  0  0  0  0  0  0  0  0  0  0
   -0.0118    2.9238   -0.0019 C   0  0  0  0  0  0  0  0  0  0  0  0
    0.7813    3.2319    0.4951 H   0  0  0  0  0  0  0  0  0  0  0  0
   -0.8494    3.2240    0.4207 H   0  0  0  0  0  0  0  0  0  0  0  0
    0.0310    3.3633   -0.9984 H   0  0  0  0  0  0  0  0  0  0  0  0
   -0.0045    1.4093   -0.0039 C   0  0  0  0  0  0  0  0  0  0  0  0
   -1.1925    0.6969   -0.0062 C   0  0  0  0  0  0  0  0  0  0  0  0
   -2.0647    1.1785   -0.0136 H   0  0  0  0  0  0  0  0  0  0  0  0
   -1.1942   -0.7016    0.0000 C   0  0  0  0  0  0  0  0  0  0  0  0
   -2.0723   -1.1930    0.0057 H   0  0  0  0  0  0  0  0  0  0  0  0
    0.0078   -1.4028    0.0007 C   0  0  0  0  0  0  0  0  0  0  0  0
   -0.0011   -2.3995    0.0010 H   0  0  0  0  0  0  0  0  0  0  0  0
    1.1942   -0.7053   -0.0000 C   0  0  0  0  0  0  0  0  0  0  0  0
    2.0850   -1.1879   -0.0057 H   0  0  0  0  0  0  0  0  0  0  0  0
    1.1891    0.7036    0.0095 C   0  0  0  0  0  0  0  0  0  0  0  0
    2.0605    1.1901    0.0253 H   0  0  0  0  0  0  0  0  0  0  0  0
  1  5  1  0
  5  6  1  0
  5  7  2  0
  1  2  1  0
  1  3  1  0
  1  4  1  0
  8 12  1  0
 12 13  2  0
 13 15  1  0
 15 17  2  0
 17 19  1  0
 19 21  2  0
 21 12  1  0
  8  9  1  0
  8 10  1  0
  8 11  1  0
 13 14  1  0
 15 16  1  0
 17 18  1  0
 19 20  1  0
 21 22  1  0
M  CHG  1   6  -1
M  END
>  <PDB_ID>  (2666) 
pdb5wp5

>  <RESIDUE_NAME>  (2666) 
ASP   PHE

>  <FRAG_NAME>  (2666) 
ACET   MBZ

>  <FRAG_ATOM_NUM>  (2666) 
fragi: 7  fragj: 15

>  <atom.prop.CHAIN_ID>  (2666) 
A A A A A A A Z Z Z Z Z Z Z Z Z Z Z Z Z Z Z

>  <atom.prop.IS_HEAVY_ATOM>  (2666) 
1 0 0 0 1 1 1 1 0 0 0 1 1 0 1 0 1 0 1 0 1 0

>  <DIFUSE_FUNC_ATOM>  (2666) 
atom 6   atom 7   

>  <FINAL_SINGLE_POINT_ENERGY>  (2666) 
0

>  <NONCOV_INTER_ENERGY_QM>  (2666) 
0

>  <FF_Energy>  (2666) 
-1.84

>  <QM_Energy>  (2666) 
-7.01

>  <source>  (2666) 
ACET_MBZ_03

>  <Index>  (2666) 
5303

$$$$
ACET-pdb5wsk-B-ASP-302:MBZ-pdb5wsk-B-PHE-311
     RDKit          3D

 22 21  0  0  0  0  0  0  0  0999 V2000
   -3.2822    5.2966   -1.1842 C   0  0  0  0  0  0  0  0  0  0  0  0
   -2.4546    5.5038   -0.7231 H   0  0  0  0  0  0  0  0  0  0  0  0
   -3.8446    4.7458   -0.6177 H   0  0  0  0  0  0  0  0  0  0  0  0
   -3.8060    6.2281   -1.3985 H   0  0  0  0  0  0  0  0  0  0  0  0
   -2.9312    4.4811   -2.4260 C   0  0  0  0  0  0  0  0  0  0  0  0
   -3.1172    4.9411   -3.5789 O   0  0  0  0  0  1  0  0  0  0  0  0
   -2.4210    3.3524   -2.2445 O   0  0  0  0  0  0  0  0  0  0  0  0
   -0.0063    2.8566    0.0372 C   0  0  0  0  0  0  0  0  0  0  0  0
   -0.5534    3.1787   -0.6956 H   0  0  0  0  0  0  0  0  0  0  0  0
    0.9062    3.1685   -0.0639 H   0  0  0  0  0  0  0  0  0  0  0  0
   -0.4102    3.2327    0.9772 H   0  0  0  0  0  0  0  0  0  0  0  0
    0.0043    1.3861   -0.0106 C   0  0  0  0  0  0  0  0  0  0  0  0
   -1.1933    0.6868   -0.0001 C   0  0  0  0  0  0  0  0  0  0  0  0
   -1.9984    1.1512    0.0034 H   0  0  0  0  0  0  0  0  0  0  0  0
   -1.1981   -0.6918    0.0000 C   0  0  0  0  0  0  0  0  0  0  0  0
   -2.0040   -1.1559   -0.0083 H   0  0  0  0  0  0  0  0  0  0  0  0
   -0.0066   -1.3773   -0.0014 C   0  0  0  0  0  0  0  0  0  0  0  0
   -0.0104   -2.3064   -0.0111 H   0  0  0  0  0  0  0  0  0  0  0  0
    1.1981   -0.6989    0.0000 C   0  0  0  0  0  0  0  0  0  0  0  0
    2.0009   -1.1678    0.0010 H   0  0  0  0  0  0  0  0  0  0  0  0
    1.1955    0.6952    0.0120 C   0  0  0  0  0  0  0  0  0  0  0  0
    2.0019    1.1603    0.0146 H   0  0  0  0  0  0  0  0  0  0  0  0
  1  5  1  0
  5  6  1  0
  5  7  2  0
  1  2  1  0
  1  3  1  0
  1  4  1  0
  8 12  1  0
 12 13  2  0
 13 15  1  0
 15 17  2  0
 17 19  1  0
 19 21  2  0
 21 12  1  0
  8  9  1  0
  8 10  1  0
  8 11  1  0
 13 14  1  0
 15 16  1  0
 17 18  1  0
 19 20  1  0
 21 22  1  0
M  CHG  1   6  -1
M  END
>  <PDB_ID>  (2667) 
pdb5wsk

>  <RESIDUE_NAME>  (2667) 
ASP   PHE

>  <FRAG_NAME>  (2667) 
ACET   MBZ

>  <FRAG_ATOM_NUM>  (2667) 
fragi: 7  fragj: 15

>  <atom.prop.CHAIN_ID>  (2667) 
A A A A A A A Z Z Z Z Z Z Z Z Z Z Z Z Z Z Z

>  <atom.prop.IS_HEAVY_ATOM>  (2667) 
1 0 0 0 1 1 1 1 0 0 0 1 1 0 1 0 1 0 1 0 1 0

>  <DIFUSE_FUNC_ATOM>  (2667) 
atom 6   atom 7   

>  <FINAL_SINGLE_POINT_ENERGY>  (2667) 
0

>  <NONCOV_INTER_ENERGY_QM>  (2667) 
0

>  <FF_Energy>  (2667) 
-0.67

>  <QM_Energy>  (2667) 
-5.73

>  <source>  (2667) 
ACET_MBZ_03

>  <Index>  (2667) 
5334

$$$$
ACET-pdb5wtr-B-GLU-151:MBZ-pdb5wtr-A-PHE-32
     RDKit          3D

 22 21  0  0  0  0  0  0  0  0999 V2000
   -4.3815    3.9160   -0.9762 C   0  0  0  0  0  0  0  0  0  0  0  0
   -4.6105    4.8457   -1.1912 H   0  0  0  0  0  0  0  0  0  0  0  0
   -5.1604    3.3935   -0.6864 H   0  0  0  0  0  0  0  0  0  0  0  0
   -3.9677    3.4498   -1.8703 H   0  0  0  0  0  0  0  0  0  0  0  0
   -3.3927    3.9447    0.1832 C   0  0  0  0  0  0  0  0  0  0  0  0
   -3.1432    2.8733    0.7789 O   0  0  0  0  0  1  0  0  0  0  0  0
   -2.8616    5.0372    0.4987 O   0  0  0  0  0  0  0  0  0  0  0  0
    0.0118    2.9095    0.0645 C   0  0  0  0  0  0  0  0  0  0  0  0
   -0.8792    3.2353   -0.2030 H   0  0  0  0  0  0  0  0  0  0  0  0
    0.7193    3.2388   -0.5376 H   0  0  0  0  0  0  0  0  0  0  0  0
    0.2203    3.2930    1.0632 H   0  0  0  0  0  0  0  0  0  0  0  0
    0.0013    1.4108    0.0001 C   0  0  0  0  0  0  0  0  0  0  0  0
   -1.2008    0.7004   -0.0015 C   0  0  0  0  0  0  0  0  0  0  0  0
   -2.0656    1.1897   -0.0048 H   0  0  0  0  0  0  0  0  0  0  0  0
   -1.2082   -0.6991   -0.0000 C   0  0  0  0  0  0  0  0  0  0  0  0
   -2.0824   -1.1898    0.0010 H   0  0  0  0  0  0  0  0  0  0  0  0
    0.0010   -1.4040    0.0016 C   0  0  0  0  0  0  0  0  0  0  0  0
   -0.0057   -2.3986    0.0033 H   0  0  0  0  0  0  0  0  0  0  0  0
    1.2082   -0.7034    0.0000 C   0  0  0  0  0  0  0  0  0  0  0  0
    2.0871   -1.1969    0.0006 H   0  0  0  0  0  0  0  0  0  0  0  0
    1.1985    0.6953   -0.0003 C   0  0  0  0  0  0  0  0  0  0  0  0
    2.0687    1.1907   -0.0011 H   0  0  0  0  0  0  0  0  0  0  0  0
  1  5  1  0
  5  6  1  0
  5  7  2  0
  1  2  1  0
  1  3  1  0
  1  4  1  0
  8 12  1  0
 12 13  2  0
 13 15  1  0
 15 17  2  0
 17 19  1  0
 19 21  2  0
 21 12  1  0
  8  9  1  0
  8 10  1  0
  8 11  1  0
 13 14  1  0
 15 16  1  0
 17 18  1  0
 19 20  1  0
 21 22  1  0
M  CHG  1   6  -1
M  END
>  <PDB_ID>  (2668) 
pdb5wtr

>  <RESIDUE_NAME>  (2668) 
GLU   PHE

>  <FRAG_NAME>  (2668) 
ACET   MBZ

>  <FRAG_ATOM_NUM>  (2668) 
fragi: 7  fragj: 15

>  <atom.prop.CHAIN_ID>  (2668) 
A A A A A A A Z Z Z Z Z Z Z Z Z Z Z Z Z Z Z

>  <atom.prop.IS_HEAVY_ATOM>  (2668) 
1 0 0 0 1 1 1 1 0 0 0 1 1 0 1 0 1 0 1 0 1 0

>  <DIFUSE_FUNC_ATOM>  (2668) 
atom 6   atom 7   

>  <FINAL_SINGLE_POINT_ENERGY>  (2668) 
0

>  <NONCOV_INTER_ENERGY_QM>  (2668) 
0

>  <FF_Energy>  (2668) 
1.25

>  <QM_Energy>  (2668) 
-8.25

>  <source>  (2668) 
ACET_MBZ_03

>  <Index>  (2668) 
5368

$$$$
ACET-pdb5wtr-C-GLU-151:MBZ-pdb5wtr-B-PHE-32
     RDKit          3D

 22 21  0  0  0  0  0  0  0  0999 V2000
   -4.2432    3.9264   -1.3656 C   0  0  0  0  0  0  0  0  0  0  0  0
   -4.4882    4.8300   -1.6494 H   0  0  0  0  0  0  0  0  0  0  0  0
   -5.0125    3.3867   -1.0951 H   0  0  0  0  0  0  0  0  0  0  0  0
   -3.7412    3.4271   -2.1944 H   0  0  0  0  0  0  0  0  0  0  0  0
   -3.3307    4.0598   -0.1520 C   0  0  0  0  0  0  0  0  0  0  0  0
   -3.0608    3.0264    0.4995 O   0  0  0  0  0  1  0  0  0  0  0  0
   -2.8741    5.1911    0.1423 O   0  0  0  0  0  0  0  0  0  0  0  0
    0.0085    2.9078    0.0750 C   0  0  0  0  0  0  0  0  0  0  0  0
   -0.8691    3.2362   -0.2313 H   0  0  0  0  0  0  0  0  0  0  0  0
    0.7429    3.2407   -0.4937 H   0  0  0  0  0  0  0  0  0  0  0  0
    0.1717    3.2834    1.0851 H   0  0  0  0  0  0  0  0  0  0  0  0
   -0.0002    1.4120    0.0003 C   0  0  0  0  0  0  0  0  0  0  0  0
   -1.2031    0.6964   -0.0014 C   0  0  0  0  0  0  0  0  0  0  0  0
   -2.0691    1.1864   -0.0048 H   0  0  0  0  0  0  0  0  0  0  0  0
   -1.2128   -0.7039   -0.0000 C   0  0  0  0  0  0  0  0  0  0  0  0
   -2.0839   -1.1957    0.0007 H   0  0  0  0  0  0  0  0  0  0  0  0
    0.0021   -1.4065    0.0029 C   0  0  0  0  0  0  0  0  0  0  0  0
   -0.0009   -2.3999    0.0063 H   0  0  0  0  0  0  0  0  0  0  0  0
    1.2128   -0.6999    0.0000 C   0  0  0  0  0  0  0  0  0  0  0  0
    2.0914   -1.1924    0.0007 H   0  0  0  0  0  0  0  0  0  0  0  0
    1.2012    0.7018   -0.0017 C   0  0  0  0  0  0  0  0  0  0  0  0
    2.0688    1.1973   -0.0053 H   0  0  0  0  0  0  0  0  0  0  0  0
  1  5  1  0
  5  6  1  0
  5  7  2  0
  1  2  1  0
  1  3  1  0
  1  4  1  0
  8 12  1  0
 12 13  2  0
 13 15  1  0
 15 17  2  0
 17 19  1  0
 19 21  2  0
 21 12  1  0
  8  9  1  0
  8 10  1  0
  8 11  1  0
 13 14  1  0
 15 16  1  0
 17 18  1  0
 19 20  1  0
 21 22  1  0
M  CHG  1   6  -1
M  END
>  <PDB_ID>  (2669) 
pdb5wtr

>  <RESIDUE_NAME>  (2669) 
GLU   PHE

>  <FRAG_NAME>  (2669) 
ACET   MBZ

>  <FRAG_ATOM_NUM>  (2669) 
fragi: 7  fragj: 15

>  <atom.prop.CHAIN_ID>  (2669) 
A A A A A A A Z Z Z Z Z Z Z Z Z Z Z Z Z Z Z

>  <atom.prop.IS_HEAVY_ATOM>  (2669) 
1 0 0 0 1 1 1 1 0 0 0 1 1 0 1 0 1 0 1 0 1 0

>  <DIFUSE_FUNC_ATOM>  (2669) 
atom 6   atom 7   

>  <FINAL_SINGLE_POINT_ENERGY>  (2669) 
0

>  <NONCOV_INTER_ENERGY_QM>  (2669) 
0

>  <FF_Energy>  (2669) 
1.97

>  <QM_Energy>  (2669) 
-8.19

>  <source>  (2669) 
ACET_MBZ_03

>  <Index>  (2669) 
5373

$$$$
ACET-pdb5wp5-A-GLU-480:MBZ-pdb5wp5-A-PHE-397
     RDKit          3D

 22 21  0  0  0  0  0  0  0  0999 V2000
    2.9101    1.7879   -3.7233 C   0  0  0  0  0  0  0  0  0  0  0  0
    3.8864    1.7494   -3.6467 H   0  0  0  0  0  0  0  0  0  0  0  0
    2.6091    2.0059   -4.6305 H   0  0  0  0  0  0  0  0  0  0  0  0
    2.5057    0.8129   -3.4517 H   0  0  0  0  0  0  0  0  0  0  0  0
    2.4208    2.8923   -2.7998 C   0  0  0  0  0  0  0  0  0  0  0  0
    1.4341    3.5786   -3.1486 O   0  0  0  0  0  1  0  0  0  0  0  0
    3.0310    3.0698   -1.7234 O   0  0  0  0  0  0  0  0  0  0  0  0
    0.0125    2.9070    0.0052 C   0  0  0  0  0  0  0  0  0  0  0  0
    0.0657    3.2134   -0.9333 H   0  0  0  0  0  0  0  0  0  0  0  0
    0.7989    3.2036    0.5256 H   0  0  0  0  0  0  0  0  0  0  0  0
   -0.8739    3.3555    0.4540 H   0  0  0  0  0  0  0  0  0  0  0  0
    0.0015    1.3977    0.0004 C   0  0  0  0  0  0  0  0  0  0  0  0
   -1.1948    0.6908    0.0034 C   0  0  0  0  0  0  0  0  0  0  0  0
   -2.0604    1.1828    0.0072 H   0  0  0  0  0  0  0  0  0  0  0  0
   -1.1964   -0.6943   -0.0000 C   0  0  0  0  0  0  0  0  0  0  0  0
   -2.0741   -1.1903    0.0041 H   0  0  0  0  0  0  0  0  0  0  0  0
    0.0003   -1.3850   -0.0064 C   0  0  0  0  0  0  0  0  0  0  0  0
   -0.0046   -2.3877   -0.0164 H   0  0  0  0  0  0  0  0  0  0  0  0
    1.1964   -0.6967   -0.0000 C   0  0  0  0  0  0  0  0  0  0  0  0
    2.0784   -1.1960    0.0045 H   0  0  0  0  0  0  0  0  0  0  0  0
    1.1930    0.6875    0.0027 C   0  0  0  0  0  0  0  0  0  0  0  0
    2.0639    1.1846    0.0057 H   0  0  0  0  0  0  0  0  0  0  0  0
  1  5  1  0
  5  6  1  0
  5  7  2  0
  1  2  1  0
  1  3  1  0
  1  4  1  0
  8 12  1  0
 12 13  2  0
 13 15  1  0
 15 17  2  0
 17 19  1  0
 19 21  2  0
 21 12  1  0
  8  9  1  0
  8 10  1  0
  8 11  1  0
 13 14  1  0
 15 16  1  0
 17 18  1  0
 19 20  1  0
 21 22  1  0
M  CHG  1   6  -1
M  END
>  <PDB_ID>  (2670) 
pdb5wp5

>  <RESIDUE_NAME>  (2670) 
GLU   PHE

>  <FRAG_NAME>  (2670) 
ACET   MBZ

>  <FRAG_ATOM_NUM>  (2670) 
fragi: 7  fragj: 15

>  <atom.prop.CHAIN_ID>  (2670) 
A A A A A A A Z Z Z Z Z Z Z Z Z Z Z Z Z Z Z

>  <atom.prop.IS_HEAVY_ATOM>  (2670) 
1 0 0 0 1 1 1 1 0 0 0 1 1 0 1 0 1 0 1 0 1 0

>  <DIFUSE_FUNC_ATOM>  (2670) 
atom 6   atom 7   

>  <FINAL_SINGLE_POINT_ENERGY>  (2670) 
0

>  <NONCOV_INTER_ENERGY_QM>  (2670) 
0

>  <FF_Energy>  (2670) 
-1.73

>  <QM_Energy>  (2670) 
-8.06

>  <source>  (2670) 
ACET_MBZ_03

>  <Index>  (2670) 
5385

$$$$
ACET-pdb5wuc-A-GLU-176:MBZ-pdb5wuc-A-PHE-9
     RDKit          3D

 22 21  0  0  0  0  0  0  0  0999 V2000
   -3.3053    4.7525   -3.8293 C   0  0  0  0  0  0  0  0  0  0  0  0
   -3.9494    4.7751   -3.0893 H   0  0  0  0  0  0  0  0  0  0  0  0
   -3.2195    3.8601   -4.2273 H   0  0  0  0  0  0  0  0  0  0  0  0
   -3.6458    5.4425   -4.6013 H   0  0  0  0  0  0  0  0  0  0  0  0
   -1.9495    5.1382   -3.2705 C   0  0  0  0  0  0  0  0  0  0  0  0
   -1.2909    6.0194   -3.8612 O   0  0  0  0  0  1  0  0  0  0  0  0
   -1.5378    4.5604   -2.2440 O   0  0  0  0  0  0  0  0  0  0  0  0
    0.0026    2.9014   -0.0038 C   0  0  0  0  0  0  0  0  0  0  0  0
   -0.7451    3.2051   -0.5754 H   0  0  0  0  0  0  0  0  0  0  0  0
    0.8736    3.2048   -0.3605 H   0  0  0  0  0  0  0  0  0  0  0  0
   -0.1277    3.3491    0.9814 H   0  0  0  0  0  0  0  0  0  0  0  0
    0.0013    1.3958    0.0013 C   0  0  0  0  0  0  0  0  0  0  0  0
   -1.1902    0.6877    0.0002 C   0  0  0  0  0  0  0  0  0  0  0  0
   -2.0592    1.1796   -0.0019 H   0  0  0  0  0  0  0  0  0  0  0  0
   -1.1930   -0.6940   -0.0000 C   0  0  0  0  0  0  0  0  0  0  0  0
   -2.0733   -1.1886    0.0016 H   0  0  0  0  0  0  0  0  0  0  0  0
   -0.0024   -1.3841   -0.0006 C   0  0  0  0  0  0  0  0  0  0  0  0
   -0.0041   -2.3865   -0.0014 H   0  0  0  0  0  0  0  0  0  0  0  0
    1.1930   -0.6925    0.0000 C   0  0  0  0  0  0  0  0  0  0  0  0
    2.0753   -1.1946    0.0030 H   0  0  0  0  0  0  0  0  0  0  0  0
    1.1913    0.6871   -0.0010 C   0  0  0  0  0  0  0  0  0  0  0  0
    2.0623    1.1855   -0.0043 H   0  0  0  0  0  0  0  0  0  0  0  0
  1  5  1  0
  5  6  1  0
  5  7  2  0
  1  2  1  0
  1  3  1  0
  1  4  1  0
  8 12  1  0
 12 13  2  0
 13 15  1  0
 15 17  2  0
 17 19  1  0
 19 21  2  0
 21 12  1  0
  8  9  1  0
  8 10  1  0
  8 11  1  0
 13 14  1  0
 15 16  1  0
 17 18  1  0
 19 20  1  0
 21 22  1  0
M  CHG  1   6  -1
M  END
>  <PDB_ID>  (2671) 
pdb5wuc

>  <RESIDUE_NAME>  (2671) 
GLU   PHE

>  <FRAG_NAME>  (2671) 
ACET   MBZ

>  <FRAG_ATOM_NUM>  (2671) 
fragi: 7  fragj: 15

>  <atom.prop.CHAIN_ID>  (2671) 
A A A A A A A Z Z Z Z Z Z Z Z Z Z Z Z Z Z Z

>  <atom.prop.IS_HEAVY_ATOM>  (2671) 
1 0 0 0 1 1 1 1 0 0 0 1 1 0 1 0 1 0 1 0 1 0

>  <DIFUSE_FUNC_ATOM>  (2671) 
atom 6   atom 7   

>  <FINAL_SINGLE_POINT_ENERGY>  (2671) 
0

>  <NONCOV_INTER_ENERGY_QM>  (2671) 
0

>  <FF_Energy>  (2671) 
0.18

>  <QM_Energy>  (2671) 
-5.16

>  <source>  (2671) 
ACET_MBZ_03

>  <Index>  (2671) 
5409

$$$$
ACET-pdb5wuf-A-ASP-50:MBZ-pdb5wuf-A-PHE-58
     RDKit          3D

 22 21  0  0  0  0  0  0  0  0999 V2000
   -5.9982    3.4662   -0.2274 C   0  0  0  0  0  0  0  0  0  0  0  0
   -5.9945    2.6875   -0.8448 H   0  0  0  0  0  0  0  0  0  0  0  0
   -5.9659    4.3167   -0.7391 H   0  0  0  0  0  0  0  0  0  0  0  0
   -6.9312    3.4462    0.3359 H   0  0  0  0  0  0  0  0  0  0  0  0
   -4.7733    3.3864    0.6655 C   0  0  0  0  0  0  0  0  0  0  0  0
   -3.8857    2.5516    0.3911 O   0  0  0  0  0  1  0  0  0  0  0  0
   -4.7053    4.1482    1.6536 O   0  0  0  0  0  0  0  0  0  0  0  0
    0.0029    2.9026    0.0072 C   0  0  0  0  0  0  0  0  0  0  0  0
    0.8855    3.2035    0.3409 H   0  0  0  0  0  0  0  0  0  0  0  0
   -0.7261    3.2048    0.6057 H   0  0  0  0  0  0  0  0  0  0  0  0
   -0.1574    3.3597   -0.9693 H   0  0  0  0  0  0  0  0  0  0  0  0
    0.0001    1.3976   -0.0047 C   0  0  0  0  0  0  0  0  0  0  0  0
   -1.1920    0.6901    0.0036 C   0  0  0  0  0  0  0  0  0  0  0  0
   -2.0601    1.1811    0.0114 H   0  0  0  0  0  0  0  0  0  0  0  0
   -1.1952   -0.6950   -0.0000 C   0  0  0  0  0  0  0  0  0  0  0  0
   -2.0743   -1.1897   -0.0008 H   0  0  0  0  0  0  0  0  0  0  0  0
   -0.0012   -1.3870   -0.0009 C   0  0  0  0  0  0  0  0  0  0  0  0
   -0.0038   -2.3881   -0.0032 H   0  0  0  0  0  0  0  0  0  0  0  0
    1.1952   -0.6942    0.0000 C   0  0  0  0  0  0  0  0  0  0  0  0
    2.0774   -1.1952    0.0004 H   0  0  0  0  0  0  0  0  0  0  0  0
    1.1930    0.6886    0.0021 C   0  0  0  0  0  0  0  0  0  0  0  0
    2.0626    1.1863    0.0081 H   0  0  0  0  0  0  0  0  0  0  0  0
  1  5  1  0
  5  6  1  0
  5  7  2  0
  1  2  1  0
  1  3  1  0
  1  4  1  0
  8 12  1  0
 12 13  2  0
 13 15  1  0
 15 17  2  0
 17 19  1  0
 19 21  2  0
 21 12  1  0
  8  9  1  0
  8 10  1  0
  8 11  1  0
 13 14  1  0
 15 16  1  0
 17 18  1  0
 19 20  1  0
 21 22  1  0
M  CHG  1   6  -1
M  END
>  <PDB_ID>  (2672) 
pdb5wuf

>  <RESIDUE_NAME>  (2672) 
ASP   PHE

>  <FRAG_NAME>  (2672) 
ACET   MBZ

>  <FRAG_ATOM_NUM>  (2672) 
fragi: 7  fragj: 15

>  <atom.prop.CHAIN_ID>  (2672) 
A A A A A A A Z Z Z Z Z Z Z Z Z Z Z Z Z Z Z

>  <atom.prop.IS_HEAVY_ATOM>  (2672) 
1 0 0 0 1 1 1 1 0 0 0 1 1 0 1 0 1 0 1 0 1 0

>  <DIFUSE_FUNC_ATOM>  (2672) 
atom 6   atom 7   

>  <FINAL_SINGLE_POINT_ENERGY>  (2672) 
0

>  <NONCOV_INTER_ENERGY_QM>  (2672) 
0

>  <FF_Energy>  (2672) 
-1.57

>  <QM_Energy>  (2672) 
-7.4

>  <source>  (2672) 
ACET_MBZ_03

>  <Index>  (2672) 
5420

$$$$
ACET-pdb5wp5-B-GLU-480:MBZ-pdb5wp5-B-PHE-397
     RDKit          3D

 22 21  0  0  0  0  0  0  0  0999 V2000
    2.8151    1.6539   -3.8461 C   0  0  0  0  0  0  0  0  0  0  0  0
    3.7934    1.5714   -3.8067 H   0  0  0  0  0  0  0  0  0  0  0  0
    2.4968    1.8935   -4.7451 H   0  0  0  0  0  0  0  0  0  0  0  0
    2.3754    0.6968   -3.5653 H   0  0  0  0  0  0  0  0  0  0  0  0
    2.4134    2.7720   -2.9076 C   0  0  0  0  0  0  0  0  0  0  0  0
    1.3492    3.3844   -3.1355 O   0  0  0  0  0  1  0  0  0  0  0  0
    3.1645    3.0347   -1.9421 O   0  0  0  0  0  0  0  0  0  0  0  0
    0.0324    2.9073   -0.0080 C   0  0  0  0  0  0  0  0  0  0  0  0
    0.0155    3.2080   -0.9520 H   0  0  0  0  0  0  0  0  0  0  0  0
    0.8658    3.2006    0.4416 H   0  0  0  0  0  0  0  0  0  0  0  0
   -0.8050    3.3800    0.5052 H   0  0  0  0  0  0  0  0  0  0  0  0
    0.0048    1.4016    0.0011 C   0  0  0  0  0  0  0  0  0  0  0  0
   -1.1970    0.6969    0.0001 C   0  0  0  0  0  0  0  0  0  0  0  0
   -2.0601    1.1900   -0.0022 H   0  0  0  0  0  0  0  0  0  0  0  0
   -1.2023   -0.6926   -0.0000 C   0  0  0  0  0  0  0  0  0  0  0  0
   -2.0813   -1.1851    0.0038 H   0  0  0  0  0  0  0  0  0  0  0  0
   -0.0043   -1.3943   -0.0033 C   0  0  0  0  0  0  0  0  0  0  0  0
   -0.0073   -2.3900   -0.0084 H   0  0  0  0  0  0  0  0  0  0  0  0
    1.2023   -0.6954    0.0000 C   0  0  0  0  0  0  0  0  0  0  0  0
    2.0802   -1.1999    0.0023 H   0  0  0  0  0  0  0  0  0  0  0  0
    1.1965    0.6837    0.0021 C   0  0  0  0  0  0  0  0  0  0  0  0
    2.0679    1.1850    0.0034 H   0  0  0  0  0  0  0  0  0  0  0  0
  1  5  1  0
  5  6  1  0
  5  7  2  0
  1  2  1  0
  1  3  1  0
  1  4  1  0
  8 12  1  0
 12 13  2  0
 13 15  1  0
 15 17  2  0
 17 19  1  0
 19 21  2  0
 21 12  1  0
  8  9  1  0
  8 10  1  0
  8 11  1  0
 13 14  1  0
 15 16  1  0
 17 18  1  0
 19 20  1  0
 21 22  1  0
M  CHG  1   6  -1
M  END
>  <PDB_ID>  (2673) 
pdb5wp5

>  <RESIDUE_NAME>  (2673) 
GLU   PHE

>  <FRAG_NAME>  (2673) 
ACET   MBZ

>  <FRAG_ATOM_NUM>  (2673) 
fragi: 7  fragj: 15

>  <atom.prop.CHAIN_ID>  (2673) 
A A A A A A A Z Z Z Z Z Z Z Z Z Z Z Z Z Z Z

>  <atom.prop.IS_HEAVY_ATOM>  (2673) 
1 0 0 0 1 1 1 1 0 0 0 1 1 0 1 0 1 0 1 0 1 0

>  <DIFUSE_FUNC_ATOM>  (2673) 
atom 6   atom 7   

>  <FINAL_SINGLE_POINT_ENERGY>  (2673) 
0

>  <NONCOV_INTER_ENERGY_QM>  (2673) 
0

>  <FF_Energy>  (2673) 
-1.57

>  <QM_Energy>  (2673) 
-7.66

>  <source>  (2673) 
ACET_MBZ_03

>  <Index>  (2673) 
5507

$$$$
ACET-pdb5wzj-A-GLU-600:MBZ-pdb5wzj-A-PHE-569
     RDKit          3D

 22 21  0  0  0  0  0  0  0  0999 V2000
    4.3030    4.3626    0.9199 C   0  0  0  0  0  0  0  0  0  0  0  0
    4.9942    4.9396    0.5249 H   0  0  0  0  0  0  0  0  0  0  0  0
    4.6254    3.8900    1.7203 H   0  0  0  0  0  0  0  0  0  0  0  0
    3.4563    4.9871    1.2051 H   0  0  0  0  0  0  0  0  0  0  0  0
    3.9436    3.3061   -0.1181 C   0  0  0  0  0  0  0  0  0  0  0  0
    4.4671    2.1718   -0.0267 O   0  0  0  0  0  1  0  0  0  0  0  0
    3.1453    3.6076   -1.0268 O   0  0  0  0  0  0  0  0  0  0  0  0
   -0.0139    2.9111   -0.0041 C   0  0  0  0  0  0  0  0  0  0  0  0
    0.8924    3.2254    0.2182 H   0  0  0  0  0  0  0  0  0  0  0  0
   -0.6816    3.2145    0.6530 H   0  0  0  0  0  0  0  0  0  0  0  0
   -0.2851    3.3256   -0.9750 H   0  0  0  0  0  0  0  0  0  0  0  0
   -0.0010    1.4058    0.0073 C   0  0  0  0  0  0  0  0  0  0  0  0
   -1.1965    0.6902   -0.0025 C   0  0  0  0  0  0  0  0  0  0  0  0
   -2.0650    1.1779   -0.0126 H   0  0  0  0  0  0  0  0  0  0  0  0
   -1.2004   -0.7041    0.0000 C   0  0  0  0  0  0  0  0  0  0  0  0
   -2.0780   -1.1958    0.0032 H   0  0  0  0  0  0  0  0  0  0  0  0
   -0.0006   -1.3983   -0.0000 C   0  0  0  0  0  0  0  0  0  0  0  0
   -0.0021   -2.3973   -0.0010 H   0  0  0  0  0  0  0  0  0  0  0  0
    1.2004   -0.7009   -0.0000 C   0  0  0  0  0  0  0  0  0  0  0  0
    2.0840   -1.1909    0.0050 H   0  0  0  0  0  0  0  0  0  0  0  0
    1.1981    0.7073   -0.0048 C   0  0  0  0  0  0  0  0  0  0  0  0
    2.0643    1.1948   -0.0172 H   0  0  0  0  0  0  0  0  0  0  0  0
  1  5  1  0
  5  6  1  0
  5  7  2  0
  1  2  1  0
  1  3  1  0
  1  4  1  0
  8 12  1  0
 12 13  2  0
 13 15  1  0
 15 17  2  0
 17 19  1  0
 19 21  2  0
 21 12  1  0
  8  9  1  0
  8 10  1  0
  8 11  1  0
 13 14  1  0
 15 16  1  0
 17 18  1  0
 19 20  1  0
 21 22  1  0
M  CHG  1   6  -1
M  END
>  <PDB_ID>  (2674) 
pdb5wzj

>  <RESIDUE_NAME>  (2674) 
GLU   PHE

>  <FRAG_NAME>  (2674) 
ACET   MBZ

>  <FRAG_ATOM_NUM>  (2674) 
fragi: 7  fragj: 15

>  <atom.prop.CHAIN_ID>  (2674) 
A A A A A A A Z Z Z Z Z Z Z Z Z Z Z Z Z Z Z

>  <atom.prop.IS_HEAVY_ATOM>  (2674) 
1 0 0 0 1 1 1 1 0 0 0 1 1 0 1 0 1 0 1 0 1 0

>  <DIFUSE_FUNC_ATOM>  (2674) 
atom 6   atom 7   

>  <FINAL_SINGLE_POINT_ENERGY>  (2674) 
0

>  <NONCOV_INTER_ENERGY_QM>  (2674) 
0

>  <FF_Energy>  (2674) 
-2.79

>  <QM_Energy>  (2674) 
-8.52

>  <source>  (2674) 
ACET_MBZ_03

>  <Index>  (2674) 
5565

$$$$
ACET-pdb5wzn-B-ASP-536:MBZ-pdb5wzn-B-PHE-621
     RDKit          3D

 22 21  0  0  0  0  0  0  0  0999 V2000
    5.6248    0.6180   -0.8767 C   0  0  0  0  0  0  0  0  0  0  0  0
    6.2444    0.3291   -1.5952 H   0  0  0  0  0  0  0  0  0  0  0  0
    5.2543   -0.1669   -0.3964 H   0  0  0  0  0  0  0  0  0  0  0  0
    6.1914    1.2151   -0.1623 H   0  0  0  0  0  0  0  0  0  0  0  0
    4.4624    1.3883   -1.5190 C   0  0  0  0  0  0  0  0  0  0  0  0
    3.8228    2.2461   -0.8633 O   0  0  0  0  0  1  0  0  0  0  0  0
    4.1692    1.1413   -2.7027 O   0  0  0  0  0  0  0  0  0  0  0  0
   -0.0014    2.9274    0.0533 C   0  0  0  0  0  0  0  0  0  0  0  0
   -0.8206    3.2458   -0.3855 H   0  0  0  0  0  0  0  0  0  0  0  0
    0.8129    3.2509   -0.3906 H   0  0  0  0  0  0  0  0  0  0  0  0
    0.0005    3.3139    1.0725 H   0  0  0  0  0  0  0  0  0  0  0  0
    0.0036    1.4142   -0.0018 C   0  0  0  0  0  0  0  0  0  0  0  0
   -1.2137    0.6897    0.0082 C   0  0  0  0  0  0  0  0  0  0  0  0
   -2.0725    1.1813    0.0199 H   0  0  0  0  0  0  0  0  0  0  0  0
   -1.2107   -0.7072    0.0000 C   0  0  0  0  0  0  0  0  0  0  0  0
   -2.0826   -1.2049   -0.0001 H   0  0  0  0  0  0  0  0  0  0  0  0
    0.0004   -1.4009   -0.0064 C   0  0  0  0  0  0  0  0  0  0  0  0
    0.0017   -2.3979   -0.0162 H   0  0  0  0  0  0  0  0  0  0  0  0
    1.2107   -0.6971   -0.0000 C   0  0  0  0  0  0  0  0  0  0  0  0
    2.0897   -1.1962    0.0065 H   0  0  0  0  0  0  0  0  0  0  0  0
    1.2096    0.7014   -0.0000 C   0  0  0  0  0  0  0  0  0  0  0  0
    2.0739    1.1958    0.0003 H   0  0  0  0  0  0  0  0  0  0  0  0
  1  5  1  0
  5  6  1  0
  5  7  2  0
  1  2  1  0
  1  3  1  0
  1  4  1  0
  8 12  1  0
 12 13  2  0
 13 15  1  0
 15 17  2  0
 17 19  1  0
 19 21  2  0
 21 12  1  0
  8  9  1  0
  8 10  1  0
  8 11  1  0
 13 14  1  0
 15 16  1  0
 17 18  1  0
 19 20  1  0
 21 22  1  0
M  CHG  1   6  -1
M  END
>  <PDB_ID>  (2675) 
pdb5wzn

>  <RESIDUE_NAME>  (2675) 
ASP   PHE

>  <FRAG_NAME>  (2675) 
ACET   MBZ

>  <FRAG_ATOM_NUM>  (2675) 
fragi: 7  fragj: 15

>  <atom.prop.CHAIN_ID>  (2675) 
A A A A A A A Z Z Z Z Z Z Z Z Z Z Z Z Z Z Z

>  <atom.prop.IS_HEAVY_ATOM>  (2675) 
1 0 0 0 1 1 1 1 0 0 0 1 1 0 1 0 1 0 1 0 1 0

>  <DIFUSE_FUNC_ATOM>  (2675) 
atom 6   atom 7   

>  <FINAL_SINGLE_POINT_ENERGY>  (2675) 
0

>  <NONCOV_INTER_ENERGY_QM>  (2675) 
0

>  <FF_Energy>  (2675) 
-0.27

>  <QM_Energy>  (2675) 
-6.82

>  <source>  (2675) 
ACET_MBZ_03

>  <Index>  (2675) 
5579

$$$$
ACET-pdb5x2m-B-GLU-476:MBZ-pdb5x2m-B-PHE-207
     RDKit          3D

 22 21  0  0  0  0  0  0  0  0999 V2000
   -4.3657   -2.1378   -0.3983 C   0  0  0  0  0  0  0  0  0  0  0  0
   -5.1160   -2.4448    0.1572 H   0  0  0  0  0  0  0  0  0  0  0  0
   -3.5189   -2.1098    0.0998 H   0  0  0  0  0  0  0  0  0  0  0  0
   -4.2524   -2.8260   -1.2361 H   0  0  0  0  0  0  0  0  0  0  0  0
   -4.6778   -0.7237   -0.8470 C   0  0  0  0  0  0  0  0  0  0  0  0
   -4.2205   -0.3316   -1.9461 O   0  0  0  0  0  1  0  0  0  0  0  0
   -5.3700   -0.0028   -0.0930 O   0  0  0  0  0  0  0  0  0  0  0  0
   -0.0039    2.8962   -0.0068 C   0  0  0  0  0  0  0  0  0  0  0  0
    0.9257    3.2064   -0.1270 H   0  0  0  0  0  0  0  0  0  0  0  0
   -0.3804    3.2052    0.8530 H   0  0  0  0  0  0  0  0  0  0  0  0
   -0.6049    3.3275   -0.8074 H   0  0  0  0  0  0  0  0  0  0  0  0
    0.0002    1.3977   -0.0037 C   0  0  0  0  0  0  0  0  0  0  0  0
   -1.1903    0.6910    0.0030 C   0  0  0  0  0  0  0  0  0  0  0  0
   -2.0601    1.1800    0.0090 H   0  0  0  0  0  0  0  0  0  0  0  0
   -1.1953   -0.6975   -0.0000 C   0  0  0  0  0  0  0  0  0  0  0  0
   -2.0757   -1.1888   -0.0064 H   0  0  0  0  0  0  0  0  0  0  0  0
   -0.0038   -1.3880    0.0076 C   0  0  0  0  0  0  0  0  0  0  0  0
   -0.0041   -2.3893    0.0182 H   0  0  0  0  0  0  0  0  0  0  0  0
    1.1953   -0.6936    0.0000 C   0  0  0  0  0  0  0  0  0  0  0  0
    2.0765   -1.1955    0.0014 H   0  0  0  0  0  0  0  0  0  0  0  0
    1.1938    0.6905   -0.0070 C   0  0  0  0  0  0  0  0  0  0  0  0
    2.0625    1.1877   -0.0157 H   0  0  0  0  0  0  0  0  0  0  0  0
  1  5  1  0
  5  6  1  0
  5  7  2  0
  1  2  1  0
  1  3  1  0
  1  4  1  0
  8 12  1  0
 12 13  2  0
 13 15  1  0
 15 17  2  0
 17 19  1  0
 19 21  2  0
 21 12  1  0
  8  9  1  0
  8 10  1  0
  8 11  1  0
 13 14  1  0
 15 16  1  0
 17 18  1  0
 19 20  1  0
 21 22  1  0
M  CHG  1   6  -1
M  END
>  <PDB_ID>  (2676) 
pdb5x2m

>  <RESIDUE_NAME>  (2676) 
GLU   PHE

>  <FRAG_NAME>  (2676) 
ACET   MBZ

>  <FRAG_ATOM_NUM>  (2676) 
fragi: 7  fragj: 15

>  <atom.prop.CHAIN_ID>  (2676) 
A A A A A A A Z Z Z Z Z Z Z Z Z Z Z Z Z Z Z

>  <atom.prop.IS_HEAVY_ATOM>  (2676) 
1 0 0 0 1 1 1 1 0 0 0 1 1 0 1 0 1 0 1 0 1 0

>  <DIFUSE_FUNC_ATOM>  (2676) 
atom 6   atom 7   

>  <FINAL_SINGLE_POINT_ENERGY>  (2676) 
0

>  <NONCOV_INTER_ENERGY_QM>  (2676) 
0

>  <FF_Energy>  (2676) 
4.96

>  <QM_Energy>  (2676) 
-2.56

>  <source>  (2676) 
ACET_MBZ_03

>  <Index>  (2676) 
5625

$$$$
ACET-pdb5x68-A-GLU-142:MBZ-pdb5x68-A-PHE-295
     RDKit          3D

 22 21  0  0  0  0  0  0  0  0999 V2000
    3.8454   -3.1488   -0.0764 C   0  0  0  0  0  0  0  0  0  0  0  0
    3.2964   -2.3450   -0.2135 H   0  0  0  0  0  0  0  0  0  0  0  0
    3.4122   -3.9592   -0.4258 H   0  0  0  0  0  0  0  0  0  0  0  0
    4.7904   -3.0109   -0.6019 H   0  0  0  0  0  0  0  0  0  0  0  0
    4.0246   -3.3327    1.4181 C   0  0  0  0  0  0  0  0  0  0  0  0
    5.0805   -2.9299    1.9486 O   0  0  0  0  0  1  0  0  0  0  0  0
    3.1085   -3.8807    2.0641 O   0  0  0  0  0  0  0  0  0  0  0  0
   -0.0028    2.8948   -0.0004 C   0  0  0  0  0  0  0  0  0  0  0  0
   -0.6244    3.2004   -0.7050 H   0  0  0  0  0  0  0  0  0  0  0  0
    0.9203    3.2033   -0.1744 H   0  0  0  0  0  0  0  0  0  0  0  0
   -0.3281    3.3305    0.9443 H   0  0  0  0  0  0  0  0  0  0  0  0
   -0.0003    1.3943   -0.0000 C   0  0  0  0  0  0  0  0  0  0  0  0
   -1.1926    0.6875   -0.0001 C   0  0  0  0  0  0  0  0  0  0  0  0
   -2.0610    1.1788   -0.0018 H   0  0  0  0  0  0  0  0  0  0  0  0
   -1.1950   -0.6957   -0.0000 C   0  0  0  0  0  0  0  0  0  0  0  0
   -2.0733   -1.1919    0.0014 H   0  0  0  0  0  0  0  0  0  0  0  0
    0.0011   -1.3863    0.0004 C   0  0  0  0  0  0  0  0  0  0  0  0
   -0.0005   -2.3878    0.0005 H   0  0  0  0  0  0  0  0  0  0  0  0
    1.1950   -0.6908   -0.0000 C   0  0  0  0  0  0  0  0  0  0  0  0
    2.0792   -1.1910    0.0015 H   0  0  0  0  0  0  0  0  0  0  0  0
    1.1918    0.6910   -0.0002 C   0  0  0  0  0  0  0  0  0  0  0  0
    2.0610    1.1894   -0.0015 H   0  0  0  0  0  0  0  0  0  0  0  0
  1  5  1  0
  5  6  1  0
  5  7  2  0
  1  2  1  0
  1  3  1  0
  1  4  1  0
  8 12  1  0
 12 13  2  0
 13 15  1  0
 15 17  2  0
 17 19  1  0
 19 21  2  0
 21 12  1  0
  8  9  1  0
  8 10  1  0
  8 11  1  0
 13 14  1  0
 15 16  1  0
 17 18  1  0
 19 20  1  0
 21 22  1  0
M  CHG  1   6  -1
M  END
>  <PDB_ID>  (2677) 
pdb5x68

>  <RESIDUE_NAME>  (2677) 
GLU   PHE

>  <FRAG_NAME>  (2677) 
ACET   MBZ

>  <FRAG_ATOM_NUM>  (2677) 
fragi: 7  fragj: 15

>  <atom.prop.CHAIN_ID>  (2677) 
A A A A A A A Z Z Z Z Z Z Z Z Z Z Z Z Z Z Z

>  <atom.prop.IS_HEAVY_ATOM>  (2677) 
1 0 0 0 1 1 1 1 0 0 0 1 1 0 1 0 1 0 1 0 1 0

>  <DIFUSE_FUNC_ATOM>  (2677) 
atom 6   atom 7   

>  <FINAL_SINGLE_POINT_ENERGY>  (2677) 
0

>  <NONCOV_INTER_ENERGY_QM>  (2677) 
0

>  <FF_Energy>  (2677) 
5.72

>  <QM_Energy>  (2677) 
-0.5

>  <source>  (2677) 
ACET_MBZ_03

>  <Index>  (2677) 
5683

$$$$
ACET-pdb5x5t-A-GLU-106:MBZ-pdb5x5t-A-PHE-156
     RDKit          3D

 22 21  0  0  0  0  0  0  0  0999 V2000
   -4.9737    3.2177    0.5224 C   0  0  0  0  0  0  0  0  0  0  0  0
   -5.5617    3.9864    0.3535 H   0  0  0  0  0  0  0  0  0  0  0  0
   -4.6116    3.2178    1.4355 H   0  0  0  0  0  0  0  0  0  0  0  0
   -5.5513    2.3044    0.3796 H   0  0  0  0  0  0  0  0  0  0  0  0
   -3.7875    3.3327   -0.4358 C   0  0  0  0  0  0  0  0  0  0  0  0
   -3.7553    2.5484   -1.3953 O   0  0  0  0  0  1  0  0  0  0  0  0
   -2.8763    4.1848   -0.2356 O   0  0  0  0  0  0  0  0  0  0  0  0
   -0.0009    2.8933    0.0342 C   0  0  0  0  0  0  0  0  0  0  0  0
    0.8189    3.2005    0.4978 H   0  0  0  0  0  0  0  0  0  0  0  0
   -0.8140    3.1914    0.5164 H   0  0  0  0  0  0  0  0  0  0  0  0
   -0.0144    3.3472   -0.9567 H   0  0  0  0  0  0  0  0  0  0  0  0
    0.0066    1.4000    0.0169 C   0  0  0  0  0  0  0  0  0  0  0  0
   -1.1913    0.6765   -0.0069 C   0  0  0  0  0  0  0  0  0  0  0  0
   -2.0593    1.1678   -0.0301 H   0  0  0  0  0  0  0  0  0  0  0  0
   -1.1951   -0.7120   -0.0000 C   0  0  0  0  0  0  0  0  0  0  0  0
   -2.0761   -1.2011    0.0148 H   0  0  0  0  0  0  0  0  0  0  0  0
   -0.0081   -1.3907   -0.0114 C   0  0  0  0  0  0  0  0  0  0  0  0
    0.0095   -2.3901   -0.0282 H   0  0  0  0  0  0  0  0  0  0  0  0
    1.1951   -0.6806    0.0000 C   0  0  0  0  0  0  0  0  0  0  0  0
    2.0772   -1.1816    0.0089 H   0  0  0  0  0  0  0  0  0  0  0  0
    1.1928    0.7068    0.0013 C   0  0  0  0  0  0  0  0  0  0  0  0
    2.0637    1.2002   -0.0100 H   0  0  0  0  0  0  0  0  0  0  0  0
  1  5  1  0
  5  6  1  0
  5  7  2  0
  1  2  1  0
  1  3  1  0
  1  4  1  0
  8 12  1  0
 12 13  2  0
 13 15  1  0
 15 17  2  0
 17 19  1  0
 19 21  2  0
 21 12  1  0
  8  9  1  0
  8 10  1  0
  8 11  1  0
 13 14  1  0
 15 16  1  0
 17 18  1  0
 19 20  1  0
 21 22  1  0
M  CHG  1   6  -1
M  END
>  <PDB_ID>  (2678) 
pdb5x5t

>  <RESIDUE_NAME>  (2678) 
GLU   PHE

>  <FRAG_NAME>  (2678) 
ACET   MBZ

>  <FRAG_ATOM_NUM>  (2678) 
fragi: 7  fragj: 15

>  <atom.prop.CHAIN_ID>  (2678) 
A A A A A A A Z Z Z Z Z Z Z Z Z Z Z Z Z Z Z

>  <atom.prop.IS_HEAVY_ATOM>  (2678) 
1 0 0 0 1 1 1 1 0 0 0 1 1 0 1 0 1 0 1 0 1 0

>  <DIFUSE_FUNC_ATOM>  (2678) 
atom 6   atom 7   

>  <FINAL_SINGLE_POINT_ENERGY>  (2678) 
0

>  <NONCOV_INTER_ENERGY_QM>  (2678) 
0

>  <FF_Energy>  (2678) 
-1.79

>  <QM_Energy>  (2678) 
-7.61

>  <source>  (2678) 
ACET_MBZ_03

>  <Index>  (2678) 
5689

$$$$
ACET-pdb5x5t-B-GLU-106:MBZ-pdb5x5t-B-PHE-156
     RDKit          3D

 22 21  0  0  0  0  0  0  0  0999 V2000
    4.6755    3.4810   -0.3979 C   0  0  0  0  0  0  0  0  0  0  0  0
    5.2208    4.2944   -0.2761 H   0  0  0  0  0  0  0  0  0  0  0  0
    4.3180    3.4174   -1.3156 H   0  0  0  0  0  0  0  0  0  0  0  0
    5.3084    2.6129   -0.2137 H   0  0  0  0  0  0  0  0  0  0  0  0
    3.4592    3.6083    0.5503 C   0  0  0  0  0  0  0  0  0  0  0  0
    3.2356    2.7396    1.4114 O   0  0  0  0  0  1  0  0  0  0  0  0
    2.6915    4.5875    0.4371 O   0  0  0  0  0  0  0  0  0  0  0  0
   -0.0197    2.9042    0.0457 C   0  0  0  0  0  0  0  0  0  0  0  0
   -0.7782    3.2137   -0.5051 H   0  0  0  0  0  0  0  0  0  0  0  0
    0.8437    3.2259   -0.3096 H   0  0  0  0  0  0  0  0  0  0  0  0
   -0.1439    3.3062    1.0512 H   0  0  0  0  0  0  0  0  0  0  0  0
   -0.0039    1.4004    0.0056 C   0  0  0  0  0  0  0  0  0  0  0  0
   -1.1926    0.6885    0.0017 C   0  0  0  0  0  0  0  0  0  0  0  0
   -2.0634    1.1769   -0.0019 H   0  0  0  0  0  0  0  0  0  0  0  0
   -1.1933   -0.6966    0.0000 C   0  0  0  0  0  0  0  0  0  0  0  0
   -2.0719   -1.1919    0.0185 H   0  0  0  0  0  0  0  0  0  0  0  0
    0.0000   -1.3821   -0.0255 C   0  0  0  0  0  0  0  0  0  0  0  0
   -0.0047   -2.3872   -0.0632 H   0  0  0  0  0  0  0  0  0  0  0  0
    1.1933   -0.6980   -0.0000 C   0  0  0  0  0  0  0  0  0  0  0  0
    2.0766   -1.1988    0.0068 H   0  0  0  0  0  0  0  0  0  0  0  0
    1.1965    0.6879    0.0181 C   0  0  0  0  0  0  0  0  0  0  0  0
    2.0617    1.1845    0.0395 H   0  0  0  0  0  0  0  0  0  0  0  0
  1  5  1  0
  5  6  1  0
  5  7  2  0
  1  2  1  0
  1  3  1  0
  1  4  1  0
  8 12  1  0
 12 13  2  0
 13 15  1  0
 15 17  2  0
 17 19  1  0
 19 21  2  0
 21 12  1  0
  8  9  1  0
  8 10  1  0
  8 11  1  0
 13 14  1  0
 15 16  1  0
 17 18  1  0
 19 20  1  0
 21 22  1  0
M  CHG  1   6  -1
M  END
>  <PDB_ID>  (2679) 
pdb5x5t

>  <RESIDUE_NAME>  (2679) 
GLU   PHE

>  <FRAG_NAME>  (2679) 
ACET   MBZ

>  <FRAG_ATOM_NUM>  (2679) 
fragi: 7  fragj: 15

>  <atom.prop.CHAIN_ID>  (2679) 
A A A A A A A Z Z Z Z Z Z Z Z Z Z Z Z Z Z Z

>  <atom.prop.IS_HEAVY_ATOM>  (2679) 
1 0 0 0 1 1 1 1 0 0 0 1 1 0 1 0 1 0 1 0 1 0

>  <DIFUSE_FUNC_ATOM>  (2679) 
atom 6   atom 7   

>  <FINAL_SINGLE_POINT_ENERGY>  (2679) 
0

>  <NONCOV_INTER_ENERGY_QM>  (2679) 
0

>  <FF_Energy>  (2679) 
-1.02

>  <QM_Energy>  (2679) 
-7.76

>  <source>  (2679) 
ACET_MBZ_03

>  <Index>  (2679) 
5691

$$$$
ACET-pdb5x55-A-ASP-349:MBZ-pdb5x55-A-PHE-231
     RDKit          3D

 22 21  0  0  0  0  0  0  0  0999 V2000
   -0.6835    0.5011    3.4167 C   0  0  0  0  0  0  0  0  0  0  0  0
   -0.9832    0.0658    2.5720 H   0  0  0  0  0  0  0  0  0  0  0  0
   -1.2675    0.2169    4.1723 H   0  0  0  0  0  0  0  0  0  0  0  0
    0.3339    0.1721    3.6282 H   0  0  0  0  0  0  0  0  0  0  0  0
   -0.8003    2.0016    3.2532 C   0  0  0  0  0  0  0  0  0  0  0  0
    0.2256    2.7071    3.2270 O   0  0  0  0  0  1  0  0  0  0  0  0
   -1.9425    2.4745    3.1104 O   0  0  0  0  0  0  0  0  0  0  0  0
   -0.0093    2.9099   -0.0015 C   0  0  0  0  0  0  0  0  0  0  0  0
    0.8799    3.2227    0.2823 H   0  0  0  0  0  0  0  0  0  0  0  0
   -0.7199    3.2141    0.6080 H   0  0  0  0  0  0  0  0  0  0  0  0
   -0.2132    3.3236   -0.9892 H   0  0  0  0  0  0  0  0  0  0  0  0
    0.0005    1.4062    0.0086 C   0  0  0  0  0  0  0  0  0  0  0  0
   -1.1925    0.6955   -0.0033 C   0  0  0  0  0  0  0  0  0  0  0  0
   -2.0632    1.1775   -0.0159 H   0  0  0  0  0  0  0  0  0  0  0  0
   -1.1997   -0.7110   -0.0000 C   0  0  0  0  0  0  0  0  0  0  0  0
   -2.0782   -1.1957    0.0037 H   0  0  0  0  0  0  0  0  0  0  0  0
    0.0003   -1.4058   -0.0003 C   0  0  0  0  0  0  0  0  0  0  0  0
    0.0069   -2.3996   -0.0010 H   0  0  0  0  0  0  0  0  0  0  0  0
    1.1997   -0.6928   -0.0000 C   0  0  0  0  0  0  0  0  0  0  0  0
    2.0860   -1.1835    0.0053 H   0  0  0  0  0  0  0  0  0  0  0  0
    1.1917    0.7079   -0.0050 C   0  0  0  0  0  0  0  0  0  0  0  0
    2.0625    1.1987   -0.0194 H   0  0  0  0  0  0  0  0  0  0  0  0
  1  5  1  0
  5  6  1  0
  5  7  2  0
  1  2  1  0
  1  3  1  0
  1  4  1  0
  8 12  1  0
 12 13  2  0
 13 15  1  0
 15 17  2  0
 17 19  1  0
 19 21  2  0
 21 12  1  0
  8  9  1  0
  8 10  1  0
  8 11  1  0
 13 14  1  0
 15 16  1  0
 17 18  1  0
 19 20  1  0
 21 22  1  0
M  CHG  1   6  -1
M  END
>  <PDB_ID>  (2680) 
pdb5x55

>  <RESIDUE_NAME>  (2680) 
ASP   PHE

>  <FRAG_NAME>  (2680) 
ACET   MBZ

>  <FRAG_ATOM_NUM>  (2680) 
fragi: 7  fragj: 15

>  <atom.prop.CHAIN_ID>  (2680) 
A A A A A A A Z Z Z Z Z Z Z Z Z Z Z Z Z Z Z

>  <atom.prop.IS_HEAVY_ATOM>  (2680) 
1 0 0 0 1 1 1 1 0 0 0 1 1 0 1 0 1 0 1 0 1 0

>  <DIFUSE_FUNC_ATOM>  (2680) 
atom 6   atom 7   

>  <FINAL_SINGLE_POINT_ENERGY>  (2680) 
0

>  <NONCOV_INTER_ENERGY_QM>  (2680) 
0

>  <FF_Energy>  (2680) 
0.8

>  <QM_Energy>  (2680) 
-6.21

>  <source>  (2680) 
ACET_MBZ_03

>  <Index>  (2680) 
5720

$$$$
ACET-pdb5x6x-D-GLU-333:MBZ-pdb5x6x-D-PHE-336
     RDKit          3D

 22 21  0  0  0  0  0  0  0  0999 V2000
    5.9090   -0.5194   -2.0764 C   0  0  0  0  0  0  0  0  0  0  0  0
    6.5342   -0.2440   -1.3662 H   0  0  0  0  0  0  0  0  0  0  0  0
    5.4380    0.2520   -2.4693 H   0  0  0  0  0  0  0  0  0  0  0  0
    6.4923   -0.9921   -2.8666 H   0  0  0  0  0  0  0  0  0  0  0  0
    4.8848   -1.4320   -1.4704 C   0  0  0  0  0  0  0  0  0  0  0  0
    3.7581   -0.9581   -1.2115 O   0  0  0  0  0  1  0  0  0  0  0  0
    5.2084   -2.6217   -1.2746 O   0  0  0  0  0  0  0  0  0  0  0  0
   -0.0102    2.8937    0.0015 C   0  0  0  0  0  0  0  0  0  0  0  0
    0.8820    3.2054    0.2905 H   0  0  0  0  0  0  0  0  0  0  0  0
   -0.7167    3.1987    0.6226 H   0  0  0  0  0  0  0  0  0  0  0  0
   -0.2152    3.3304   -0.9759 H   0  0  0  0  0  0  0  0  0  0  0  0
   -0.0036    1.3957    0.0013 C   0  0  0  0  0  0  0  0  0  0  0  0
   -1.1985    0.6865    0.0040 C   0  0  0  0  0  0  0  0  0  0  0  0
   -2.0652    1.1777    0.0077 H   0  0  0  0  0  0  0  0  0  0  0  0
   -1.1995   -0.6976    0.0000 C   0  0  0  0  0  0  0  0  0  0  0  0
   -2.0715   -1.1980    0.0000 H   0  0  0  0  0  0  0  0  0  0  0  0
    0.0078   -1.3876   -0.0023 C   0  0  0  0  0  0  0  0  0  0  0  0
    0.0044   -2.3884   -0.0060 H   0  0  0  0  0  0  0  0  0  0  0  0
    1.1995   -0.6900    0.0000 C   0  0  0  0  0  0  0  0  0  0  0  0
    2.0851   -1.1879    0.0058 H   0  0  0  0  0  0  0  0  0  0  0  0
    1.1942    0.6929   -0.0030 C   0  0  0  0  0  0  0  0  0  0  0  0
    2.0603    1.1937   -0.0098 H   0  0  0  0  0  0  0  0  0  0  0  0
  1  5  1  0
  5  6  1  0
  5  7  2  0
  1  2  1  0
  1  3  1  0
  1  4  1  0
  8 12  1  0
 12 13  2  0
 13 15  1  0
 15 17  2  0
 17 19  1  0
 19 21  2  0
 21 12  1  0
  8  9  1  0
  8 10  1  0
  8 11  1  0
 13 14  1  0
 15 16  1  0
 17 18  1  0
 19 20  1  0
 21 22  1  0
M  CHG  1   6  -1
M  END
>  <PDB_ID>  (2681) 
pdb5x6x

>  <RESIDUE_NAME>  (2681) 
GLU   PHE

>  <FRAG_NAME>  (2681) 
ACET   MBZ

>  <FRAG_ATOM_NUM>  (2681) 
fragi: 7  fragj: 15

>  <atom.prop.CHAIN_ID>  (2681) 
A A A A A A A Z Z Z Z Z Z Z Z Z Z Z Z Z Z Z

>  <atom.prop.IS_HEAVY_ATOM>  (2681) 
1 0 0 0 1 1 1 1 0 0 0 1 1 0 1 0 1 0 1 0 1 0

>  <DIFUSE_FUNC_ATOM>  (2681) 
atom 6   atom 7   

>  <FINAL_SINGLE_POINT_ENERGY>  (2681) 
0

>  <NONCOV_INTER_ENERGY_QM>  (2681) 
0

>  <FF_Energy>  (2681) 
3.14

>  <QM_Energy>  (2681) 
-5.15

>  <source>  (2681) 
ACET_MBZ_03

>  <Index>  (2681) 
5722

$$$$
ACET-pdb5x8z-B-GLU-66:MBZ-pdb5x8z-B-PHE-26
     RDKit          3D

 22 21  0  0  0  0  0  0  0  0999 V2000
   -0.4982    0.6258    3.5025 C   0  0  0  0  0  0  0  0  0  0  0  0
    0.1979    1.2875    3.3649 H   0  0  0  0  0  0  0  0  0  0  0  0
   -0.3843   -0.1911    2.9915 H   0  0  0  0  0  0  0  0  0  0  0  0
   -0.5158    0.3663    4.5611 H   0  0  0  0  0  0  0  0  0  0  0  0
   -1.8342    1.2600    3.0691 C   0  0  0  0  0  0  0  0  0  0  0  0
   -2.7770    0.4998    3.0081 O   0  0  0  0  0  1  0  0  0  0  0  0
   -1.9011    2.4839    2.8588 O   0  0  0  0  0  0  0  0  0  0  0  0
    0.0402    2.9006    0.0161 C   0  0  0  0  0  0  0  0  0  0  0  0
    0.5896    3.2175   -0.7423 H   0  0  0  0  0  0  0  0  0  0  0  0
    0.4276    3.1791    0.8822 H   0  0  0  0  0  0  0  0  0  0  0  0
   -0.9203    3.4088   -0.0683 H   0  0  0  0  0  0  0  0  0  0  0  0
   -0.0279    1.4007   -0.0256 C   0  0  0  0  0  0  0  0  0  0  0  0
   -1.2093    0.6281   -0.0045 C   0  0  0  0  0  0  0  0  0  0  0  0
   -2.0891    1.1102    0.0066 H   0  0  0  0  0  0  0  0  0  0  0  0
   -1.1744   -0.7336   -0.0000 C   0  0  0  0  0  0  0  0  0  0  0  0
   -2.0099   -1.2757   -0.0433 H   0  0  0  0  0  0  0  0  0  0  0  0
    0.0705   -1.3570    0.0690 C   0  0  0  0  0  0  0  0  0  0  0  0
    0.0896   -2.3626    0.1715 H   0  0  0  0  0  0  0  0  0  0  0  0
    1.1744   -0.6357    0.0000 C   0  0  0  0  0  0  0  0  0  0  0  0
    2.1062   -1.1242   -0.0243 H   0  0  0  0  0  0  0  0  0  0  0  0
    1.1668    0.6975   -0.0388 C   0  0  0  0  0  0  0  0  0  0  0  0
    2.0294    1.2223   -0.0790 H   0  0  0  0  0  0  0  0  0  0  0  0
  1  5  1  0
  5  6  1  0
  5  7  2  0
  1  2  1  0
  1  3  1  0
  1  4  1  0
  8 12  1  0
 12 13  2  0
 13 15  1  0
 15 17  2  0
 17 19  1  0
 19 21  2  0
 21 12  1  0
  8  9  1  0
  8 10  1  0
  8 11  1  0
 13 14  1  0
 15 16  1  0
 17 18  1  0
 19 20  1  0
 21 22  1  0
M  CHG  1   6  -1
M  END
>  <PDB_ID>  (2682) 
pdb5x8z

>  <RESIDUE_NAME>  (2682) 
GLU   PHE

>  <FRAG_NAME>  (2682) 
ACET   MBZ

>  <FRAG_ATOM_NUM>  (2682) 
fragi: 7  fragj: 15

>  <atom.prop.CHAIN_ID>  (2682) 
A A A A A A A Z Z Z Z Z Z Z Z Z Z Z Z Z Z Z

>  <atom.prop.IS_HEAVY_ATOM>  (2682) 
1 0 0 0 1 1 1 1 0 0 0 1 1 0 1 0 1 0 1 0 1 0

>  <DIFUSE_FUNC_ATOM>  (2682) 
atom 6   atom 7   

>  <FINAL_SINGLE_POINT_ENERGY>  (2682) 
0

>  <NONCOV_INTER_ENERGY_QM>  (2682) 
0

>  <FF_Energy>  (2682) 
-0.16

>  <QM_Energy>  (2682) 
-5.71

>  <source>  (2682) 
ACET_MBZ_03

>  <Index>  (2682) 
5775

$$$$
ACET-pdb5x7u-A-ASP-421:MBZ-pdb5x7u-A-PHE-424
     RDKit          3D

 22 21  0  0  0  0  0  0  0  0999 V2000
   -5.1213    4.6049   -0.0964 C   0  0  0  0  0  0  0  0  0  0  0  0
   -5.9261    4.0917    0.1827 H   0  0  0  0  0  0  0  0  0  0  0  0
   -5.2065    4.8906   -1.0445 H   0  0  0  0  0  0  0  0  0  0  0  0
   -5.0729    5.5043    0.5174 H   0  0  0  0  0  0  0  0  0  0  0  0
   -3.9147    3.7630    0.0642 C   0  0  0  0  0  0  0  0  0  0  0  0
   -2.9368    4.1087   -0.6190 O   0  0  0  0  0  1  0  0  0  0  0  0
   -3.9176    2.8084    0.8938 O   0  0  0  0  0  0  0  0  0  0  0  0
    0.0001    2.9065    0.0291 C   0  0  0  0  0  0  0  0  0  0  0  0
   -0.8397    3.2235   -0.3793 H   0  0  0  0  0  0  0  0  0  0  0  0
    0.7905    3.2233   -0.4680 H   0  0  0  0  0  0  0  0  0  0  0  0
    0.0552    3.3167    1.0375 H   0  0  0  0  0  0  0  0  0  0  0  0
   -0.0018    1.4069   -0.0010 C   0  0  0  0  0  0  0  0  0  0  0  0
   -1.1988    0.7012    0.0010 C   0  0  0  0  0  0  0  0  0  0  0  0
   -2.0652    1.1872    0.0020 H   0  0  0  0  0  0  0  0  0  0  0  0
   -1.2023   -0.6963    0.0000 C   0  0  0  0  0  0  0  0  0  0  0  0
   -2.0797   -1.1879    0.0034 H   0  0  0  0  0  0  0  0  0  0  0  0
    0.0013   -1.3982   -0.0035 C   0  0  0  0  0  0  0  0  0  0  0  0
   -0.0091   -2.3968   -0.0093 H   0  0  0  0  0  0  0  0  0  0  0  0
    1.2023   -0.7075   -0.0000 C   0  0  0  0  0  0  0  0  0  0  0  0
    2.0834   -1.2000    0.0020 H   0  0  0  0  0  0  0  0  0  0  0  0
    1.1992    0.6940    0.0034 C   0  0  0  0  0  0  0  0  0  0  0  0
    2.0665    1.1858    0.0083 H   0  0  0  0  0  0  0  0  0  0  0  0
  1  5  1  0
  5  6  1  0
  5  7  2  0
  1  2  1  0
  1  3  1  0
  1  4  1  0
  8 12  1  0
 12 13  2  0
 13 15  1  0
 15 17  2  0
 17 19  1  0
 19 21  2  0
 21 12  1  0
  8  9  1  0
  8 10  1  0
  8 11  1  0
 13 14  1  0
 15 16  1  0
 17 18  1  0
 19 20  1  0
 21 22  1  0
M  CHG  1   6  -1
M  END
>  <PDB_ID>  (2683) 
pdb5x7u

>  <RESIDUE_NAME>  (2683) 
ASP   PHE

>  <FRAG_NAME>  (2683) 
ACET   MBZ

>  <FRAG_ATOM_NUM>  (2683) 
fragi: 7  fragj: 15

>  <atom.prop.CHAIN_ID>  (2683) 
A A A A A A A Z Z Z Z Z Z Z Z Z Z Z Z Z Z Z

>  <atom.prop.IS_HEAVY_ATOM>  (2683) 
1 0 0 0 1 1 1 1 0 0 0 1 1 0 1 0 1 0 1 0 1 0

>  <DIFUSE_FUNC_ATOM>  (2683) 
atom 6   atom 7   

>  <FINAL_SINGLE_POINT_ENERGY>  (2683) 
0

>  <NONCOV_INTER_ENERGY_QM>  (2683) 
0

>  <FF_Energy>  (2683) 
-1.89

>  <QM_Energy>  (2683) 
-9.24

>  <source>  (2683) 
ACET_MBZ_03

>  <Index>  (2683) 
5834

$$$$
ACET-pdb5xbi-A-GLU-180:MBZ-pdb5xbi-A-PHE-138
     RDKit          3D

 22 21  0  0  0  0  0  0  0  0999 V2000
   -4.7038    4.0450    1.3805 C   0  0  0  0  0  0  0  0  0  0  0  0
   -4.6112    3.6698    0.4797 H   0  0  0  0  0  0  0  0  0  0  0  0
   -4.6280    5.0220    1.3946 H   0  0  0  0  0  0  0  0  0  0  0  0
   -5.6839    3.7681    1.7690 H   0  0  0  0  0  0  0  0  0  0  0  0
   -3.5717    3.4870    2.2277 C   0  0  0  0  0  0  0  0  0  0  0  0
   -2.3954    3.7419    1.8988 O   0  0  0  0  0  1  0  0  0  0  0  0
   -3.8608    2.7899    3.2249 O   0  0  0  0  0  0  0  0  0  0  0  0
   -0.0035    2.8968   -0.0066 C   0  0  0  0  0  0  0  0  0  0  0  0
    0.8986    3.2088    0.2426 H   0  0  0  0  0  0  0  0  0  0  0  0
   -0.6878    3.2071    0.6327 H   0  0  0  0  0  0  0  0  0  0  0  0
   -0.2440    3.3190   -0.9823 H   0  0  0  0  0  0  0  0  0  0  0  0
    0.0017    1.3946    0.0052 C   0  0  0  0  0  0  0  0  0  0  0  0
   -1.1905    0.6876   -0.0007 C   0  0  0  0  0  0  0  0  0  0  0  0
   -2.0584    1.1827   -0.0067 H   0  0  0  0  0  0  0  0  0  0  0  0
   -1.1960   -0.6911   -0.0000 C   0  0  0  0  0  0  0  0  0  0  0  0
   -2.0761   -1.1867    0.0033 H   0  0  0  0  0  0  0  0  0  0  0  0
   -0.0039   -1.3865   -0.0024 C   0  0  0  0  0  0  0  0  0  0  0  0
   -0.0075   -2.3869   -0.0063 H   0  0  0  0  0  0  0  0  0  0  0  0
    1.1960   -0.6947    0.0000 C   0  0  0  0  0  0  0  0  0  0  0  0
    2.0770   -1.1955    0.0050 H   0  0  0  0  0  0  0  0  0  0  0  0
    1.1927    0.6902   -0.0022 C   0  0  0  0  0  0  0  0  0  0  0  0
    2.0628    1.1872   -0.0104 H   0  0  0  0  0  0  0  0  0  0  0  0
  1  5  1  0
  5  6  1  0
  5  7  2  0
  1  2  1  0
  1  3  1  0
  1  4  1  0
  8 12  1  0
 12 13  2  0
 13 15  1  0
 15 17  2  0
 17 19  1  0
 19 21  2  0
 21 12  1  0
  8  9  1  0
  8 10  1  0
  8 11  1  0
 13 14  1  0
 15 16  1  0
 17 18  1  0
 19 20  1  0
 21 22  1  0
M  CHG  1   6  -1
M  END
>  <PDB_ID>  (2684) 
pdb5xbi

>  <RESIDUE_NAME>  (2684) 
GLU   PHE

>  <FRAG_NAME>  (2684) 
ACET   MBZ

>  <FRAG_ATOM_NUM>  (2684) 
fragi: 7  fragj: 15

>  <atom.prop.CHAIN_ID>  (2684) 
A A A A A A A Z Z Z Z Z Z Z Z Z Z Z Z Z Z Z

>  <atom.prop.IS_HEAVY_ATOM>  (2684) 
1 0 0 0 1 1 1 1 0 0 0 1 1 0 1 0 1 0 1 0 1 0

>  <DIFUSE_FUNC_ATOM>  (2684) 
atom 6   atom 7   

>  <FINAL_SINGLE_POINT_ENERGY>  (2684) 
0

>  <NONCOV_INTER_ENERGY_QM>  (2684) 
0

>  <FF_Energy>  (2684) 
0.74

>  <QM_Energy>  (2684) 
-6.09

>  <source>  (2684) 
ACET_MBZ_03

>  <Index>  (2684) 
5851

$$$$
ACET-pdb5xft-A-ASP-155:MBZ-pdb5xft-A-PHE-146
     RDKit          3D

 22 21  0  0  0  0  0  0  0  0999 V2000
   -4.6813    3.9489   -1.2933 C   0  0  0  0  0  0  0  0  0  0  0  0
   -4.6128    4.8359   -1.7400 H   0  0  0  0  0  0  0  0  0  0  0  0
   -5.6107    3.7979   -0.9721 H   0  0  0  0  0  0  0  0  0  0  0  0
   -4.4533    3.1817   -2.0332 H   0  0  0  0  0  0  0  0  0  0  0  0
   -3.7439    3.9252   -0.1096 C   0  0  0  0  0  0  0  0  0  0  0  0
   -3.4059    2.8227    0.3662 O   0  0  0  0  0  1  0  0  0  0  0  0
   -3.3398    5.0222    0.3347 O   0  0  0  0  0  0  0  0  0  0  0  0
   -0.0028    2.8947   -0.0021 C   0  0  0  0  0  0  0  0  0  0  0  0
   -0.8771    3.2003   -0.3488 H   0  0  0  0  0  0  0  0  0  0  0  0
    0.7399    3.2028   -0.5782 H   0  0  0  0  0  0  0  0  0  0  0  0
    0.1366    3.3362    0.9847 H   0  0  0  0  0  0  0  0  0  0  0  0
   -0.0006    1.3949   -0.0007 C   0  0  0  0  0  0  0  0  0  0  0  0
   -1.1932    0.6888   -0.0012 C   0  0  0  0  0  0  0  0  0  0  0  0
   -2.0604    1.1831   -0.0038 H   0  0  0  0  0  0  0  0  0  0  0  0
   -1.1983   -0.6898   -0.0000 C   0  0  0  0  0  0  0  0  0  0  0  0
   -2.0764   -1.1871    0.0023 H   0  0  0  0  0  0  0  0  0  0  0  0
   -0.0018   -1.3860   -0.0001 C   0  0  0  0  0  0  0  0  0  0  0  0
   -0.0081   -2.3870   -0.0010 H   0  0  0  0  0  0  0  0  0  0  0  0
    1.1983   -0.6960    0.0000 C   0  0  0  0  0  0  0  0  0  0  0  0
    2.0786   -1.1978   -0.0002 H   0  0  0  0  0  0  0  0  0  0  0  0
    1.1956    0.6882    0.0020 C   0  0  0  0  0  0  0  0  0  0  0  0
    2.0630    1.1871    0.0048 H   0  0  0  0  0  0  0  0  0  0  0  0
  1  5  1  0
  5  6  1  0
  5  7  2  0
  1  2  1  0
  1  3  1  0
  1  4  1  0
  8 12  1  0
 12 13  2  0
 13 15  1  0
 15 17  2  0
 17 19  1  0
 19 21  2  0
 21 12  1  0
  8  9  1  0
  8 10  1  0
  8 11  1  0
 13 14  1  0
 15 16  1  0
 17 18  1  0
 19 20  1  0
 21 22  1  0
M  CHG  1   6  -1
M  END
>  <PDB_ID>  (2685) 
pdb5xft

>  <RESIDUE_NAME>  (2685) 
ASP   PHE

>  <FRAG_NAME>  (2685) 
ACET   MBZ

>  <FRAG_ATOM_NUM>  (2685) 
fragi: 7  fragj: 15

>  <atom.prop.CHAIN_ID>  (2685) 
A A A A A A A Z Z Z Z Z Z Z Z Z Z Z Z Z Z Z

>  <atom.prop.IS_HEAVY_ATOM>  (2685) 
1 0 0 0 1 1 1 1 0 0 0 1 1 0 1 0 1 0 1 0 1 0

>  <DIFUSE_FUNC_ATOM>  (2685) 
atom 6   atom 7   

>  <FINAL_SINGLE_POINT_ENERGY>  (2685) 
0

>  <NONCOV_INTER_ENERGY_QM>  (2685) 
0

>  <FF_Energy>  (2685) 
0.01

>  <QM_Energy>  (2685) 
-8.48

>  <source>  (2685) 
ACET_MBZ_03

>  <Index>  (2685) 
5940

$$$$
ACET-pdb5vit-I-ASP-217:MBZ-pdb5vit-I-PHE-65
     RDKit          3D

 22 21  0  0  0  0  0  0  0  0999 V2000
   -1.9488   -0.2957   -4.2356 C   0  0  0  0  0  0  0  0  0  0  0  0
   -2.6429   -0.4461   -4.9308 H   0  0  0  0  0  0  0  0  0  0  0  0
   -1.7650   -1.1368   -3.7412 H   0  0  0  0  0  0  0  0  0  0  0  0
   -1.0300    0.0046   -4.7393 H   0  0  0  0  0  0  0  0  0  0  0  0
   -2.4501    0.7468   -3.2603 C   0  0  0  0  0  0  0  0  0  0  0  0
   -1.7682    1.7929   -3.1002 O   0  0  0  0  0  1  0  0  0  0  0  0
   -3.5193    0.5081   -2.6473 O   0  0  0  0  0  0  0  0  0  0  0  0
   -0.0120    2.9012    0.0096 C   0  0  0  0  0  0  0  0  0  0  0  0
   -0.2674    3.2112   -0.8895 H   0  0  0  0  0  0  0  0  0  0  0  0
    0.8872    3.2127    0.2652 H   0  0  0  0  0  0  0  0  0  0  0  0
   -0.7269    3.3088    0.7243 H   0  0  0  0  0  0  0  0  0  0  0  0
    0.0033    1.3996   -0.0038 C   0  0  0  0  0  0  0  0  0  0  0  0
   -1.1939    0.6865    0.0002 C   0  0  0  0  0  0  0  0  0  0  0  0
   -2.0613    1.1759    0.0018 H   0  0  0  0  0  0  0  0  0  0  0  0
   -1.1985   -0.7060   -0.0000 C   0  0  0  0  0  0  0  0  0  0  0  0
   -2.0762   -1.1961    0.0006 H   0  0  0  0  0  0  0  0  0  0  0  0
   -0.0039   -1.3897    0.0010 C   0  0  0  0  0  0  0  0  0  0  0  0
    0.0033   -2.3914    0.0018 H   0  0  0  0  0  0  0  0  0  0  0  0
    1.1985   -0.6886    0.0000 C   0  0  0  0  0  0  0  0  0  0  0  0
    2.0795   -1.1887   -0.0011 H   0  0  0  0  0  0  0  0  0  0  0  0
    1.1945    0.6982    0.0026 C   0  0  0  0  0  0  0  0  0  0  0  0
    2.0640    1.1942    0.0080 H   0  0  0  0  0  0  0  0  0  0  0  0
  1  5  1  0
  5  6  1  0
  5  7  2  0
  1  2  1  0
  1  3  1  0
  1  4  1  0
  8 12  1  0
 12 13  2  0
 13 15  1  0
 15 17  2  0
 17 19  1  0
 19 21  2  0
 21 12  1  0
  8  9  1  0
  8 10  1  0
  8 11  1  0
 13 14  1  0
 15 16  1  0
 17 18  1  0
 19 20  1  0
 21 22  1  0
M  CHG  1   6  -1
M  END
>  <PDB_ID>  (2686) 
pdb5vit

>  <RESIDUE_NAME>  (2686) 
ASP   PHE

>  <FRAG_NAME>  (2686) 
ACET   MBZ

>  <FRAG_ATOM_NUM>  (2686) 
fragi: 7  fragj: 15

>  <atom.prop.CHAIN_ID>  (2686) 
A A A A A A A Z Z Z Z Z Z Z Z Z Z Z Z Z Z Z

>  <atom.prop.IS_HEAVY_ATOM>  (2686) 
1 0 0 0 1 1 1 1 0 0 0 1 1 0 1 0 1 0 1 0 1 0

>  <DIFUSE_FUNC_ATOM>  (2686) 
atom 6   atom 7   

>  <FINAL_SINGLE_POINT_ENERGY>  (2686) 
0

>  <NONCOV_INTER_ENERGY_QM>  (2686) 
0

>  <FF_Energy>  (2686) 
-0.05

>  <QM_Energy>  (2686) 
-5.49

>  <source>  (2686) 
ACET_MBZ_03

>  <Index>  (2686) 
6114

$$$$
ACET-pdb5xm6-C-GLU-287:MBZ-pdb5xm6-C-PHE-314
     RDKit          3D

 22 21  0  0  0  0  0  0  0  0999 V2000
   -4.2101   -3.4544    0.3291 C   0  0  0  0  0  0  0  0  0  0  0  0
   -4.9355   -4.0374    0.6414 H   0  0  0  0  0  0  0  0  0  0  0  0
   -3.3585   -3.9329    0.2335 H   0  0  0  0  0  0  0  0  0  0  0  0
   -4.4898   -3.0579   -0.6470 H   0  0  0  0  0  0  0  0  0  0  0  0
   -4.0168   -2.3658    1.3515 C   0  0  0  0  0  0  0  0  0  0  0  0
   -4.0605   -1.1813    0.9550 O   0  0  0  0  0  1  0  0  0  0  0  0
   -3.8273   -2.6918    2.5435 O   0  0  0  0  0  0  0  0  0  0  0  0
   -0.0001    2.9005   -0.0191 C   0  0  0  0  0  0  0  0  0  0  0  0
   -0.5600    3.1948   -0.7798 H   0  0  0  0  0  0  0  0  0  0  0  0
    0.9360    3.2037   -0.1253 H   0  0  0  0  0  0  0  0  0  0  0  0
   -0.3988    3.3603    0.8852 H   0  0  0  0  0  0  0  0  0  0  0  0
   -0.0007    1.3942    0.0020 C   0  0  0  0  0  0  0  0  0  0  0  0
   -1.1940    0.6877   -0.0064 C   0  0  0  0  0  0  0  0  0  0  0  0
   -2.0613    1.1813   -0.0181 H   0  0  0  0  0  0  0  0  0  0  0  0
   -1.1973   -0.6921   -0.0000 C   0  0  0  0  0  0  0  0  0  0  0  0
   -2.0745   -1.1901    0.0028 H   0  0  0  0  0  0  0  0  0  0  0  0
    0.0001   -1.3855    0.0039 C   0  0  0  0  0  0  0  0  0  0  0  0
   -0.0042   -2.3868    0.0093 H   0  0  0  0  0  0  0  0  0  0  0  0
    1.1973   -0.6932    0.0000 C   0  0  0  0  0  0  0  0  0  0  0  0
    2.0788   -1.1946   -0.0013 H   0  0  0  0  0  0  0  0  0  0  0  0
    1.1945    0.6889    0.0005 C   0  0  0  0  0  0  0  0  0  0  0  0
    2.0615    1.1880   -0.0007 H   0  0  0  0  0  0  0  0  0  0  0  0
  1  5  1  0
  5  6  1  0
  5  7  2  0
  1  2  1  0
  1  3  1  0
  1  4  1  0
  8 12  1  0
 12 13  2  0
 13 15  1  0
 15 17  2  0
 17 19  1  0
 19 21  2  0
 21 12  1  0
  8  9  1  0
  8 10  1  0
  8 11  1  0
 13 14  1  0
 15 16  1  0
 17 18  1  0
 19 20  1  0
 21 22  1  0
M  CHG  1   6  -1
M  END
>  <PDB_ID>  (2687) 
pdb5xm6

>  <RESIDUE_NAME>  (2687) 
GLU   PHE

>  <FRAG_NAME>  (2687) 
ACET   MBZ

>  <FRAG_ATOM_NUM>  (2687) 
fragi: 7  fragj: 15

>  <atom.prop.CHAIN_ID>  (2687) 
A A A A A A A Z Z Z Z Z Z Z Z Z Z Z Z Z Z Z

>  <atom.prop.IS_HEAVY_ATOM>  (2687) 
1 0 0 0 1 1 1 1 0 0 0 1 1 0 1 0 1 0 1 0 1 0

>  <DIFUSE_FUNC_ATOM>  (2687) 
atom 6   atom 7   

>  <FINAL_SINGLE_POINT_ENERGY>  (2687) 
0

>  <NONCOV_INTER_ENERGY_QM>  (2687) 
0

>  <FF_Energy>  (2687) 
0.25

>  <QM_Energy>  (2687) 
-4.89

>  <source>  (2687) 
ACET_MBZ_03

>  <Index>  (2687) 
6187

$$$$
ACET-pdb5xmd-A-GLU-288:MBZ-pdb5xmd-A-PHE-315
     RDKit          3D

 22 21  0  0  0  0  0  0  0  0999 V2000
   -5.0010   -2.2942   -1.2134 C   0  0  0  0  0  0  0  0  0  0  0  0
   -5.8716   -1.9332   -1.4989 H   0  0  0  0  0  0  0  0  0  0  0  0
   -5.0917   -3.1671   -0.7681 H   0  0  0  0  0  0  0  0  0  0  0  0
   -4.3786   -2.4243   -2.0987 H   0  0  0  0  0  0  0  0  0  0  0  0
   -4.4141   -1.3230   -0.1985 C   0  0  0  0  0  0  0  0  0  0  0  0
   -4.0481   -1.7896    0.9099 O   0  0  0  0  0  1  0  0  0  0  0  0
   -4.3336   -0.1054   -0.5055 O   0  0  0  0  0  0  0  0  0  0  0  0
   -0.0084    2.9159   -0.0089 C   0  0  0  0  0  0  0  0  0  0  0  0
   -0.4592    3.2110   -0.8374 H   0  0  0  0  0  0  0  0  0  0  0  0
    0.9299    3.2228    0.0214 H   0  0  0  0  0  0  0  0  0  0  0  0
   -0.5346    3.3589    0.8366 H   0  0  0  0  0  0  0  0  0  0  0  0
   -0.0021    1.4072    0.0023 C   0  0  0  0  0  0  0  0  0  0  0  0
   -1.1947    0.6957   -0.0055 C   0  0  0  0  0  0  0  0  0  0  0  0
   -2.0642    1.1814   -0.0161 H   0  0  0  0  0  0  0  0  0  0  0  0
   -1.1978   -0.6990   -0.0000 C   0  0  0  0  0  0  0  0  0  0  0  0
   -2.0762   -1.1904    0.0047 H   0  0  0  0  0  0  0  0  0  0  0  0
    0.0001   -1.3963    0.0004 C   0  0  0  0  0  0  0  0  0  0  0  0
   -0.0085   -2.3969    0.0009 H   0  0  0  0  0  0  0  0  0  0  0  0
    1.1978   -0.7070   -0.0000 C   0  0  0  0  0  0  0  0  0  0  0  0
    2.0813   -1.1975   -0.0004 H   0  0  0  0  0  0  0  0  0  0  0  0
    1.1968    0.6994    0.0028 C   0  0  0  0  0  0  0  0  0  0  0  0
    2.0650    1.1869    0.0042 H   0  0  0  0  0  0  0  0  0  0  0  0
  1  5  1  0
  5  6  1  0
  5  7  2  0
  1  2  1  0
  1  3  1  0
  1  4  1  0
  8 12  1  0
 12 13  2  0
 13 15  1  0
 15 17  2  0
 17 19  1  0
 19 21  2  0
 21 12  1  0
  8  9  1  0
  8 10  1  0
  8 11  1  0
 13 14  1  0
 15 16  1  0
 17 18  1  0
 19 20  1  0
 21 22  1  0
M  CHG  1   6  -1
M  END
>  <PDB_ID>  (2688) 
pdb5xmd

>  <RESIDUE_NAME>  (2688) 
GLU   PHE

>  <FRAG_NAME>  (2688) 
ACET   MBZ

>  <FRAG_ATOM_NUM>  (2688) 
fragi: 7  fragj: 15

>  <atom.prop.CHAIN_ID>  (2688) 
A A A A A A A Z Z Z Z Z Z Z Z Z Z Z Z Z Z Z

>  <atom.prop.IS_HEAVY_ATOM>  (2688) 
1 0 0 0 1 1 1 1 0 0 0 1 1 0 1 0 1 0 1 0 1 0

>  <DIFUSE_FUNC_ATOM>  (2688) 
atom 6   atom 7   

>  <FINAL_SINGLE_POINT_ENERGY>  (2688) 
0

>  <NONCOV_INTER_ENERGY_QM>  (2688) 
0

>  <FF_Energy>  (2688) 
1.17

>  <QM_Energy>  (2688) 
-7.03

>  <source>  (2688) 
ACET_MBZ_03

>  <Index>  (2688) 
6193

$$$$
ACET-pdb5xum-A-ASP-84:MBZ-pdb5xum-A-PHE-146
     RDKit          3D

 22 21  0  0  0  0  0  0  0  0999 V2000
    4.3926    3.9011    1.8650 C   0  0  0  0  0  0  0  0  0  0  0  0
    3.9841    4.1407    2.7380 H   0  0  0  0  0  0  0  0  0  0  0  0
    5.1573    4.4991    1.6598 H   0  0  0  0  0  0  0  0  0  0  0  0
    4.7711    2.8816    1.9387 H   0  0  0  0  0  0  0  0  0  0  0  0
    3.3424    4.0614    0.7751 C   0  0  0  0  0  0  0  0  0  0  0  0
    3.3318    3.2536   -0.1786 O   0  0  0  0  0  1  0  0  0  0  0  0
    2.5317    5.0091    0.8648 O   0  0  0  0  0  0  0  0  0  0  0  0
   -0.0031    2.8991   -0.0076 C   0  0  0  0  0  0  0  0  0  0  0  0
    0.8420    3.2089    0.4001 H   0  0  0  0  0  0  0  0  0  0  0  0
   -0.7872    3.2068    0.5078 H   0  0  0  0  0  0  0  0  0  0  0  0
   -0.0700    3.3301   -1.0065 H   0  0  0  0  0  0  0  0  0  0  0  0
   -0.0011    1.3983   -0.0009 C   0  0  0  0  0  0  0  0  0  0  0  0
   -1.1975    0.6896   -0.0030 C   0  0  0  0  0  0  0  0  0  0  0  0
   -2.0633    1.1807   -0.0077 H   0  0  0  0  0  0  0  0  0  0  0  0
   -1.2000   -0.6967   -0.0000 C   0  0  0  0  0  0  0  0  0  0  0  0
   -2.0761   -1.1934    0.0011 H   0  0  0  0  0  0  0  0  0  0  0  0
    0.0014   -1.3885    0.0032 C   0  0  0  0  0  0  0  0  0  0  0  0
   -0.0012   -2.3890    0.0076 H   0  0  0  0  0  0  0  0  0  0  0  0
    1.2000   -0.6931   -0.0000 C   0  0  0  0  0  0  0  0  0  0  0  0
    2.0816   -1.1941   -0.0014 H   0  0  0  0  0  0  0  0  0  0  0  0
    1.1972    0.6904    0.0006 C   0  0  0  0  0  0  0  0  0  0  0  0
    2.0632    1.1903    0.0011 H   0  0  0  0  0  0  0  0  0  0  0  0
  1  5  1  0
  5  6  1  0
  5  7  2  0
  1  2  1  0
  1  3  1  0
  1  4  1  0
  8 12  1  0
 12 13  2  0
 13 15  1  0
 15 17  2  0
 17 19  1  0
 19 21  2  0
 21 12  1  0
  8  9  1  0
  8 10  1  0
  8 11  1  0
 13 14  1  0
 15 16  1  0
 17 18  1  0
 19 20  1  0
 21 22  1  0
M  CHG  1   6  -1
M  END
>  <PDB_ID>  (2689) 
pdb5xum

>  <RESIDUE_NAME>  (2689) 
ASP   PHE

>  <FRAG_NAME>  (2689) 
ACET   MBZ

>  <FRAG_ATOM_NUM>  (2689) 
fragi: 7  fragj: 15

>  <atom.prop.CHAIN_ID>  (2689) 
A A A A A A A Z Z Z Z Z Z Z Z Z Z Z Z Z Z Z

>  <atom.prop.IS_HEAVY_ATOM>  (2689) 
1 0 0 0 1 1 1 1 0 0 0 1 1 0 1 0 1 0 1 0 1 0

>  <DIFUSE_FUNC_ATOM>  (2689) 
atom 6   atom 7   

>  <FINAL_SINGLE_POINT_ENERGY>  (2689) 
0

>  <NONCOV_INTER_ENERGY_QM>  (2689) 
0

>  <FF_Energy>  (2689) 
-1.87

>  <QM_Energy>  (2689) 
-8.95

>  <source>  (2689) 
ACET_MBZ_03

>  <Index>  (2689) 
6381

$$$$
ACET-pdb5xux-A-ASP-33:MBZ-pdb5xux-A-PHE-177
     RDKit          3D

 22 21  0  0  0  0  0  0  0  0999 V2000
   -0.7114    0.5410   -4.0133 C   0  0  0  0  0  0  0  0  0  0  0  0
   -1.1148   -0.0040   -3.2926 H   0  0  0  0  0  0  0  0  0  0  0  0
    0.1753    0.1885   -4.2738 H   0  0  0  0  0  0  0  0  0  0  0  0
   -1.3665    0.4949   -4.8832 H   0  0  0  0  0  0  0  0  0  0  0  0
   -0.5265    1.9769   -3.4878 C   0  0  0  0  0  0  0  0  0  0  0  0
   -1.5116    2.5686   -3.0027 O   0  0  0  0  0  1  0  0  0  0  0  0
    0.5940    2.5222   -3.5686 O   0  0  0  0  0  0  0  0  0  0  0  0
   -0.0043    2.8990    0.0212 C   0  0  0  0  0  0  0  0  0  0  0  0
   -0.7654    3.2164   -0.5159 H   0  0  0  0  0  0  0  0  0  0  0  0
    0.8566    3.2190   -0.3325 H   0  0  0  0  0  0  0  0  0  0  0  0
   -0.1191    3.2969    1.0295 H   0  0  0  0  0  0  0  0  0  0  0  0
    0.0017    1.4030   -0.0112 C   0  0  0  0  0  0  0  0  0  0  0  0
   -1.1948    0.6902    0.0039 C   0  0  0  0  0  0  0  0  0  0  0  0
   -2.0623    1.1774    0.0162 H   0  0  0  0  0  0  0  0  0  0  0  0
   -1.1974   -0.7041    0.0000 C   0  0  0  0  0  0  0  0  0  0  0  0
   -2.0773   -1.1947   -0.0039 H   0  0  0  0  0  0  0  0  0  0  0  0
   -0.0033   -1.3932    0.0033 C   0  0  0  0  0  0  0  0  0  0  0  0
    0.0006   -2.3936    0.0074 H   0  0  0  0  0  0  0  0  0  0  0  0
    1.1974   -0.6937    0.0000 C   0  0  0  0  0  0  0  0  0  0  0  0
    2.0792   -1.1923   -0.0037 H   0  0  0  0  0  0  0  0  0  0  0  0
    1.1964    0.6977    0.0040 C   0  0  0  0  0  0  0  0  0  0  0  0
    2.0647    1.1913    0.0173 H   0  0  0  0  0  0  0  0  0  0  0  0
  1  5  1  0
  5  6  1  0
  5  7  2  0
  1  2  1  0
  1  3  1  0
  1  4  1  0
  8 12  1  0
 12 13  2  0
 13 15  1  0
 15 17  2  0
 17 19  1  0
 19 21  2  0
 21 12  1  0
  8  9  1  0
  8 10  1  0
  8 11  1  0
 13 14  1  0
 15 16  1  0
 17 18  1  0
 19 20  1  0
 21 22  1  0
M  CHG  1   6  -1
M  END
>  <PDB_ID>  (2690) 
pdb5xux

>  <RESIDUE_NAME>  (2690) 
ASP   PHE

>  <FRAG_NAME>  (2690) 
ACET   MBZ

>  <FRAG_ATOM_NUM>  (2690) 
fragi: 7  fragj: 15

>  <atom.prop.CHAIN_ID>  (2690) 
A A A A A A A Z Z Z Z Z Z Z Z Z Z Z Z Z Z Z

>  <atom.prop.IS_HEAVY_ATOM>  (2690) 
1 0 0 0 1 1 1 1 0 0 0 1 1 0 1 0 1 0 1 0 1 0

>  <DIFUSE_FUNC_ATOM>  (2690) 
atom 6   atom 7   

>  <FINAL_SINGLE_POINT_ENERGY>  (2690) 
0

>  <NONCOV_INTER_ENERGY_QM>  (2690) 
0

>  <FF_Energy>  (2690) 
0.24

>  <QM_Energy>  (2690) 
-5.97

>  <source>  (2690) 
ACET_MBZ_03

>  <Index>  (2690) 
6391

$$$$
ACET-pdb5xux-B-ASP-33:MBZ-pdb5xux-B-PHE-177
     RDKit          3D

 22 21  0  0  0  0  0  0  0  0999 V2000
   -0.8082    0.3524   -4.0522 C   0  0  0  0  0  0  0  0  0  0  0  0
   -1.0212   -0.2611   -3.3040 H   0  0  0  0  0  0  0  0  0  0  0  0
    0.0666    0.1273   -4.4569 H   0  0  0  0  0  0  0  0  0  0  0  0
   -1.5806    0.2505   -4.8145 H   0  0  0  0  0  0  0  0  0  0  0  0
   -0.7252    1.7800   -3.4931 C   0  0  0  0  0  0  0  0  0  0  0  0
   -1.7516    2.2928   -2.9844 O   0  0  0  0  0  1  0  0  0  0  0  0
    0.3630    2.3863   -3.5675 O   0  0  0  0  0  0  0  0  0  0  0  0
    0.0025    2.8995    0.0325 C   0  0  0  0  0  0  0  0  0  0  0  0
   -0.7686    3.2215   -0.4887 H   0  0  0  0  0  0  0  0  0  0  0  0
    0.8577    3.2168   -0.3396 H   0  0  0  0  0  0  0  0  0  0  0  0
   -0.0887    3.2956    1.0439 H   0  0  0  0  0  0  0  0  0  0  0  0
    0.0019    1.4008   -0.0090 C   0  0  0  0  0  0  0  0  0  0  0  0
   -1.1940    0.6926    0.0034 C   0  0  0  0  0  0  0  0  0  0  0  0
   -2.0609    1.1833    0.0136 H   0  0  0  0  0  0  0  0  0  0  0  0
   -1.1974   -0.6957   -0.0000 C   0  0  0  0  0  0  0  0  0  0  0  0
   -2.0768   -1.1894   -0.0039 H   0  0  0  0  0  0  0  0  0  0  0  0
   -0.0013   -1.3912    0.0035 C   0  0  0  0  0  0  0  0  0  0  0  0
   -0.0052   -2.3907    0.0079 H   0  0  0  0  0  0  0  0  0  0  0  0
    1.1974   -0.6976    0.0000 C   0  0  0  0  0  0  0  0  0  0  0  0
    2.0788   -1.1956   -0.0028 H   0  0  0  0  0  0  0  0  0  0  0  0
    1.1935    0.6911    0.0022 C   0  0  0  0  0  0  0  0  0  0  0  0
    2.0642    1.1866    0.0116 H   0  0  0  0  0  0  0  0  0  0  0  0
  1  5  1  0
  5  6  1  0
  5  7  2  0
  1  2  1  0
  1  3  1  0
  1  4  1  0
  8 12  1  0
 12 13  2  0
 13 15  1  0
 15 17  2  0
 17 19  1  0
 19 21  2  0
 21 12  1  0
  8  9  1  0
  8 10  1  0
  8 11  1  0
 13 14  1  0
 15 16  1  0
 17 18  1  0
 19 20  1  0
 21 22  1  0
M  CHG  1   6  -1
M  END
>  <PDB_ID>  (2691) 
pdb5xux

>  <RESIDUE_NAME>  (2691) 
ASP   PHE

>  <FRAG_NAME>  (2691) 
ACET   MBZ

>  <FRAG_ATOM_NUM>  (2691) 
fragi: 7  fragj: 15

>  <atom.prop.CHAIN_ID>  (2691) 
A A A A A A A Z Z Z Z Z Z Z Z Z Z Z Z Z Z Z

>  <atom.prop.IS_HEAVY_ATOM>  (2691) 
1 0 0 0 1 1 1 1 0 0 0 1 1 0 1 0 1 0 1 0 1 0

>  <DIFUSE_FUNC_ATOM>  (2691) 
atom 6   atom 7   

>  <FINAL_SINGLE_POINT_ENERGY>  (2691) 
0

>  <NONCOV_INTER_ENERGY_QM>  (2691) 
0

>  <FF_Energy>  (2691) 
0.37

>  <QM_Energy>  (2691) 
-5.74

>  <source>  (2691) 
ACET_MBZ_03

>  <Index>  (2691) 
6394

$$$$
ACET-pdb5xux-C-ASP-33:MBZ-pdb5xux-C-PHE-177
     RDKit          3D

 22 21  0  0  0  0  0  0  0  0999 V2000
   -0.8454    0.1373   -3.9883 C   0  0  0  0  0  0  0  0  0  0  0  0
   -1.1262   -0.3993   -3.2034 H   0  0  0  0  0  0  0  0  0  0  0  0
    0.0066   -0.2049   -4.3621 H   0  0  0  0  0  0  0  0  0  0  0  0
   -1.6151    0.0500   -4.7550 H   0  0  0  0  0  0  0  0  0  0  0  0
   -0.6314    1.5797   -3.5370 C   0  0  0  0  0  0  0  0  0  0  0  0
   -1.6229    2.2223   -3.1151 O   0  0  0  0  0  1  0  0  0  0  0  0
    0.5214    2.0733   -3.6187 O   0  0  0  0  0  0  0  0  0  0  0  0
    0.0064    2.9059    0.0179 C   0  0  0  0  0  0  0  0  0  0  0  0
   -0.7800    3.2192   -0.4881 H   0  0  0  0  0  0  0  0  0  0  0  0
    0.8505    3.2110   -0.3916 H   0  0  0  0  0  0  0  0  0  0  0  0
   -0.0516    3.3169    1.0258 H   0  0  0  0  0  0  0  0  0  0  0  0
    0.0005    1.4020   -0.0048 C   0  0  0  0  0  0  0  0  0  0  0  0
   -1.1944    0.6986   -0.0016 C   0  0  0  0  0  0  0  0  0  0  0  0
   -2.0606    1.1890   -0.0016 H   0  0  0  0  0  0  0  0  0  0  0  0
   -1.1985   -0.6888    0.0000 C   0  0  0  0  0  0  0  0  0  0  0  0
   -2.0799   -1.1819   -0.0007 H   0  0  0  0  0  0  0  0  0  0  0  0
   -0.0033   -1.3910    0.0042 C   0  0  0  0  0  0  0  0  0  0  0  0
   -0.0137   -2.3905    0.0103 H   0  0  0  0  0  0  0  0  0  0  0  0
    1.1985   -0.7042    0.0000 C   0  0  0  0  0  0  0  0  0  0  0  0
    2.0778   -1.2054   -0.0032 H   0  0  0  0  0  0  0  0  0  0  0  0
    1.1972    0.6834    0.0022 C   0  0  0  0  0  0  0  0  0  0  0  0
    2.0667    1.1804    0.0081 H   0  0  0  0  0  0  0  0  0  0  0  0
  1  5  1  0
  5  6  1  0
  5  7  2  0
  1  2  1  0
  1  3  1  0
  1  4  1  0
  8 12  1  0
 12 13  2  0
 13 15  1  0
 15 17  2  0
 17 19  1  0
 19 21  2  0
 21 12  1  0
  8  9  1  0
  8 10  1  0
  8 11  1  0
 13 14  1  0
 15 16  1  0
 17 18  1  0
 19 20  1  0
 21 22  1  0
M  CHG  1   6  -1
M  END
>  <PDB_ID>  (2692) 
pdb5xux

>  <RESIDUE_NAME>  (2692) 
ASP   PHE

>  <FRAG_NAME>  (2692) 
ACET   MBZ

>  <FRAG_ATOM_NUM>  (2692) 
fragi: 7  fragj: 15

>  <atom.prop.CHAIN_ID>  (2692) 
A A A A A A A Z Z Z Z Z Z Z Z Z Z Z Z Z Z Z

>  <atom.prop.IS_HEAVY_ATOM>  (2692) 
1 0 0 0 1 1 1 1 0 0 0 1 1 0 1 0 1 0 1 0 1 0

>  <DIFUSE_FUNC_ATOM>  (2692) 
atom 6   atom 7   

>  <FINAL_SINGLE_POINT_ENERGY>  (2692) 
0

>  <NONCOV_INTER_ENERGY_QM>  (2692) 
0

>  <FF_Energy>  (2692) 
0.52

>  <QM_Energy>  (2692) 
-5.23

>  <source>  (2692) 
ACET_MBZ_03

>  <Index>  (2692) 
6396

$$$$
ACET-pdb5xux-D-ASP-33:MBZ-pdb5xux-D-PHE-177
     RDKit          3D

 22 21  0  0  0  0  0  0  0  0999 V2000
   -0.7016    0.2782   -4.0030 C   0  0  0  0  0  0  0  0  0  0  0  0
   -1.0480   -0.2440   -3.2344 H   0  0  0  0  0  0  0  0  0  0  0  0
    0.1538   -0.1006   -4.3292 H   0  0  0  0  0  0  0  0  0  0  0  0
   -1.4315    0.2241   -4.8107 H   0  0  0  0  0  0  0  0  0  0  0  0
   -0.4453    1.7154   -3.5332 C   0  0  0  0  0  0  0  0  0  0  0  0
   -1.3975    2.3697   -3.0410 O   0  0  0  0  0  1  0  0  0  0  0  0
    0.7120    2.1915   -3.6616 O   0  0  0  0  0  0  0  0  0  0  0  0
    0.0103    2.9123    0.0197 C   0  0  0  0  0  0  0  0  0  0  0  0
   -0.7589    3.2269   -0.5122 H   0  0  0  0  0  0  0  0  0  0  0  0
    0.8672    3.2144   -0.3661 H   0  0  0  0  0  0  0  0  0  0  0  0
   -0.0762    3.3322    1.0218 H   0  0  0  0  0  0  0  0  0  0  0  0
   -0.0001    1.4065    0.0017 C   0  0  0  0  0  0  0  0  0  0  0  0
   -1.1972    0.7029   -0.0024 C   0  0  0  0  0  0  0  0  0  0  0  0
   -2.0629    1.1921   -0.0086 H   0  0  0  0  0  0  0  0  0  0  0  0
   -1.2005   -0.6884   -0.0000 C   0  0  0  0  0  0  0  0  0  0  0  0
   -2.0806   -1.1815    0.0035 H   0  0  0  0  0  0  0  0  0  0  0  0
   -0.0027   -1.3952   -0.0004 C   0  0  0  0  0  0  0  0  0  0  0  0
   -0.0163   -2.3934   -0.0010 H   0  0  0  0  0  0  0  0  0  0  0  0
    1.2005   -0.7079   -0.0000 C   0  0  0  0  0  0  0  0  0  0  0  0
    2.0790   -1.2084    0.0014 H   0  0  0  0  0  0  0  0  0  0  0  0
    1.2000    0.6821    0.0011 C   0  0  0  0  0  0  0  0  0  0  0  0
    2.0687    1.1784    0.0004 H   0  0  0  0  0  0  0  0  0  0  0  0
  1  5  1  0
  5  6  1  0
  5  7  2  0
  1  2  1  0
  1  3  1  0
  1  4  1  0
  8 12  1  0
 12 13  2  0
 13 15  1  0
 15 17  2  0
 17 19  1  0
 19 21  2  0
 21 12  1  0
  8  9  1  0
  8 10  1  0
  8 11  1  0
 13 14  1  0
 15 16  1  0
 17 18  1  0
 19 20  1  0
 21 22  1  0
M  CHG  1   6  -1
M  END
>  <PDB_ID>  (2693) 
pdb5xux

>  <RESIDUE_NAME>  (2693) 
ASP   PHE

>  <FRAG_NAME>  (2693) 
ACET   MBZ

>  <FRAG_ATOM_NUM>  (2693) 
fragi: 7  fragj: 15

>  <atom.prop.CHAIN_ID>  (2693) 
A A A A A A A Z Z Z Z Z Z Z Z Z Z Z Z Z Z Z

>  <atom.prop.IS_HEAVY_ATOM>  (2693) 
1 0 0 0 1 1 1 1 0 0 0 1 1 0 1 0 1 0 1 0 1 0

>  <DIFUSE_FUNC_ATOM>  (2693) 
atom 6   atom 7   

>  <FINAL_SINGLE_POINT_ENERGY>  (2693) 
0

>  <NONCOV_INTER_ENERGY_QM>  (2693) 
0

>  <FF_Energy>  (2693) 
0.47

>  <QM_Energy>  (2693) 
-5.53

>  <source>  (2693) 
ACET_MBZ_03

>  <Index>  (2693) 
6398

$$$$
ACET-pdb5xux-F-ASP-33:MBZ-pdb5xux-F-PHE-177
     RDKit          3D

 22 21  0  0  0  0  0  0  0  0999 V2000
   -0.6680    0.4919   -4.0125 C   0  0  0  0  0  0  0  0  0  0  0  0
   -1.1074   -0.0240   -3.2892 H   0  0  0  0  0  0  0  0  0  0  0  0
    0.2179    0.1096   -4.2322 H   0  0  0  0  0  0  0  0  0  0  0  0
   -1.2952    0.4338   -4.9020 H   0  0  0  0  0  0  0  0  0  0  0  0
   -0.4626    1.9367   -3.5193 C   0  0  0  0  0  0  0  0  0  0  0  0
   -1.4478    2.5659   -3.0698 O   0  0  0  0  0  1  0  0  0  0  0  0
    0.6733    2.4552   -3.5800 O   0  0  0  0  0  0  0  0  0  0  0  0
   -0.0062    2.8934    0.0198 C   0  0  0  0  0  0  0  0  0  0  0  0
   -0.7397    3.2104   -0.5572 H   0  0  0  0  0  0  0  0  0  0  0  0
    0.8722    3.2130   -0.2928 H   0  0  0  0  0  0  0  0  0  0  0  0
   -0.1712    3.2934    1.0203 H   0  0  0  0  0  0  0  0  0  0  0  0
    0.0019    1.3981   -0.0119 C   0  0  0  0  0  0  0  0  0  0  0  0
   -1.1947    0.6887    0.0037 C   0  0  0  0  0  0  0  0  0  0  0  0
   -2.0614    1.1798    0.0168 H   0  0  0  0  0  0  0  0  0  0  0  0
   -1.1986   -0.6998   -0.0000 C   0  0  0  0  0  0  0  0  0  0  0  0
   -2.0765   -1.1925   -0.0073 H   0  0  0  0  0  0  0  0  0  0  0  0
   -0.0023   -1.3903    0.0080 C   0  0  0  0  0  0  0  0  0  0  0  0
   -0.0008   -2.3899    0.0186 H   0  0  0  0  0  0  0  0  0  0  0  0
    1.1986   -0.6921    0.0000 C   0  0  0  0  0  0  0  0  0  0  0  0
    2.0799   -1.1917   -0.0048 H   0  0  0  0  0  0  0  0  0  0  0  0
    1.1952    0.6955    0.0002 C   0  0  0  0  0  0  0  0  0  0  0  0
    2.0632    1.1915    0.0082 H   0  0  0  0  0  0  0  0  0  0  0  0
  1  5  1  0
  5  6  1  0
  5  7  2  0
  1  2  1  0
  1  3  1  0
  1  4  1  0
  8 12  1  0
 12 13  2  0
 13 15  1  0
 15 17  2  0
 17 19  1  0
 19 21  2  0
 21 12  1  0
  8  9  1  0
  8 10  1  0
  8 11  1  0
 13 14  1  0
 15 16  1  0
 17 18  1  0
 19 20  1  0
 21 22  1  0
M  CHG  1   6  -1
M  END
>  <PDB_ID>  (2694) 
pdb5xux

>  <RESIDUE_NAME>  (2694) 
ASP   PHE

>  <FRAG_NAME>  (2694) 
ACET   MBZ

>  <FRAG_ATOM_NUM>  (2694) 
fragi: 7  fragj: 15

>  <atom.prop.CHAIN_ID>  (2694) 
A A A A A A A Z Z Z Z Z Z Z Z Z Z Z Z Z Z Z

>  <atom.prop.IS_HEAVY_ATOM>  (2694) 
1 0 0 0 1 1 1 1 0 0 0 1 1 0 1 0 1 0 1 0 1 0

>  <DIFUSE_FUNC_ATOM>  (2694) 
atom 6   atom 7   

>  <FINAL_SINGLE_POINT_ENERGY>  (2694) 
0

>  <NONCOV_INTER_ENERGY_QM>  (2694) 
0

>  <FF_Energy>  (2694) 
0.2

>  <QM_Energy>  (2694) 
-5.88

>  <source>  (2694) 
ACET_MBZ_03

>  <Index>  (2694) 
6403

$$$$
ACET-pdb5xxl-B-ASP-110:MBZ-pdb5xxl-B-PHE-154
     RDKit          3D

 22 21  0  0  0  0  0  0  0  0999 V2000
    4.7941    3.7048   -0.9093 C   0  0  0  0  0  0  0  0  0  0  0  0
    5.6896    3.3119   -1.0810 H   0  0  0  0  0  0  0  0  0  0  0  0
    4.8551    4.6921   -0.8315 H   0  0  0  0  0  0  0  0  0  0  0  0
    4.1579    3.4738   -1.7638 H   0  0  0  0  0  0  0  0  0  0  0  0
    4.2498    3.1425    0.3782 C   0  0  0  0  0  0  0  0  0  0  0  0
    3.1713    3.5865    0.7931 O   0  0  0  0  0  1  0  0  0  0  0  0
    4.9008    2.2673    0.9836 O   0  0  0  0  0  0  0  0  0  0  0  0
    0.0256    2.9206    0.0236 C   0  0  0  0  0  0  0  0  0  0  0  0
    0.9557    3.2069   -0.1592 H   0  0  0  0  0  0  0  0  0  0  0  0
   -0.2666    3.2092    0.9241 H   0  0  0  0  0  0  0  0  0  0  0  0
   -0.6263    3.3917   -0.7120 H   0  0  0  0  0  0  0  0  0  0  0  0
    0.0031    1.4012    0.0018 C   0  0  0  0  0  0  0  0  0  0  0  0
   -1.1944    0.6993   -0.0018 C   0  0  0  0  0  0  0  0  0  0  0  0
   -2.0596    1.1887   -0.0073 H   0  0  0  0  0  0  0  0  0  0  0  0
   -1.1975   -0.6910    0.0000 C   0  0  0  0  0  0  0  0  0  0  0  0
   -2.0792   -1.1823    0.0063 H   0  0  0  0  0  0  0  0  0  0  0  0
   -0.0041   -1.3896   -0.0049 C   0  0  0  0  0  0  0  0  0  0  0  0
   -0.0127   -2.3907   -0.0121 H   0  0  0  0  0  0  0  0  0  0  0  0
    1.1975   -0.7033    0.0000 C   0  0  0  0  0  0  0  0  0  0  0  0
    2.0767   -1.2040    0.0018 H   0  0  0  0  0  0  0  0  0  0  0  0
    1.1955    0.6834    0.0050 C   0  0  0  0  0  0  0  0  0  0  0  0
    2.0671    1.1793    0.0102 H   0  0  0  0  0  0  0  0  0  0  0  0
  1  5  1  0
  5  6  1  0
  5  7  2  0
  1  2  1  0
  1  3  1  0
  1  4  1  0
  8 12  1  0
 12 13  2  0
 13 15  1  0
 15 17  2  0
 17 19  1  0
 19 21  2  0
 21 12  1  0
  8  9  1  0
  8 10  1  0
  8 11  1  0
 13 14  1  0
 15 16  1  0
 17 18  1  0
 19 20  1  0
 21 22  1  0
M  CHG  1   6  -1
M  END
>  <PDB_ID>  (2695) 
pdb5xxl

>  <RESIDUE_NAME>  (2695) 
ASP   PHE

>  <FRAG_NAME>  (2695) 
ACET   MBZ

>  <FRAG_ATOM_NUM>  (2695) 
fragi: 7  fragj: 15

>  <atom.prop.CHAIN_ID>  (2695) 
A A A A A A A Z Z Z Z Z Z Z Z Z Z Z Z Z Z Z

>  <atom.prop.IS_HEAVY_ATOM>  (2695) 
1 0 0 0 1 1 1 1 0 0 0 1 1 0 1 0 1 0 1 0 1 0

>  <DIFUSE_FUNC_ATOM>  (2695) 
atom 6   atom 7   

>  <FINAL_SINGLE_POINT_ENERGY>  (2695) 
0

>  <NONCOV_INTER_ENERGY_QM>  (2695) 
0

>  <FF_Energy>  (2695) 
-2.25

>  <QM_Energy>  (2695) 
-7.59

>  <source>  (2695) 
ACET_MBZ_03

>  <Index>  (2695) 
6534

$$$$
ACET-pdb5y15-B-GLU-76:MBZ-pdb5y15-B-PHE-71
     RDKit          3D

 22 21  0  0  0  0  0  0  0  0999 V2000
    4.3686    4.3323   -2.7637 C   0  0  0  0  0  0  0  0  0  0  0  0
    4.3698    4.4432   -3.7399 H   0  0  0  0  0  0  0  0  0  0  0  0
    5.2083    3.9465   -2.4299 H   0  0  0  0  0  0  0  0  0  0  0  0
    4.2360    5.3134   -2.3075 H   0  0  0  0  0  0  0  0  0  0  0  0
    3.2566    3.3990   -2.4058 C   0  0  0  0  0  0  0  0  0  0  0  0
    2.4297    3.7998   -1.5678 O   0  0  0  0  0  1  0  0  0  0  0  0
    3.2103    2.2728   -2.9428 O   0  0  0  0  0  0  0  0  0  0  0  0
    0.0148    2.8931    0.0014 C   0  0  0  0  0  0  0  0  0  0  0  0
    0.9590    3.1909    0.0320 H   0  0  0  0  0  0  0  0  0  0  0  0
   -0.4827    3.2065    0.7984 H   0  0  0  0  0  0  0  0  0  0  0  0
   -0.4472    3.3433   -0.8772 H   0  0  0  0  0  0  0  0  0  0  0  0
   -0.0007    1.3922    0.0034 C   0  0  0  0  0  0  0  0  0  0  0  0
   -1.1963    0.6903    0.0003 C   0  0  0  0  0  0  0  0  0  0  0  0
   -2.0617    1.1848   -0.0032 H   0  0  0  0  0  0  0  0  0  0  0  0
   -1.2018   -0.6916   -0.0000 C   0  0  0  0  0  0  0  0  0  0  0  0
   -2.0756   -1.1899    0.0023 H   0  0  0  0  0  0  0  0  0  0  0  0
    0.0025   -1.3862   -0.0021 C   0  0  0  0  0  0  0  0  0  0  0  0
   -0.0016   -2.3854   -0.0058 H   0  0  0  0  0  0  0  0  0  0  0  0
    1.2018   -0.6905   -0.0000 C   0  0  0  0  0  0  0  0  0  0  0  0
    2.0823   -1.1930    0.0042 H   0  0  0  0  0  0  0  0  0  0  0  0
    1.1945    0.6857   -0.0016 C   0  0  0  0  0  0  0  0  0  0  0  0
    2.0617    1.1900   -0.0074 H   0  0  0  0  0  0  0  0  0  0  0  0
  1  5  1  0
  5  6  1  0
  5  7  2  0
  1  2  1  0
  1  3  1  0
  1  4  1  0
  8 12  1  0
 12 13  2  0
 13 15  1  0
 15 17  2  0
 17 19  1  0
 19 21  2  0
 21 12  1  0
  8  9  1  0
  8 10  1  0
  8 11  1  0
 13 14  1  0
 15 16  1  0
 17 18  1  0
 19 20  1  0
 21 22  1  0
M  CHG  1   6  -1
M  END
>  <PDB_ID>  (2696) 
pdb5y15

>  <RESIDUE_NAME>  (2696) 
GLU   PHE

>  <FRAG_NAME>  (2696) 
ACET   MBZ

>  <FRAG_ATOM_NUM>  (2696) 
fragi: 7  fragj: 15

>  <atom.prop.CHAIN_ID>  (2696) 
A A A A A A A Z Z Z Z Z Z Z Z Z Z Z Z Z Z Z

>  <atom.prop.IS_HEAVY_ATOM>  (2696) 
1 0 0 0 1 1 1 1 0 0 0 1 1 0 1 0 1 0 1 0 1 0

>  <DIFUSE_FUNC_ATOM>  (2696) 
atom 6   atom 7   

>  <FINAL_SINGLE_POINT_ENERGY>  (2696) 
0

>  <NONCOV_INTER_ENERGY_QM>  (2696) 
0

>  <FF_Energy>  (2696) 
0.55

>  <QM_Energy>  (2696) 
-5.8

>  <source>  (2696) 
ACET_MBZ_03

>  <Index>  (2696) 
6642

$$$$
ACET-pdb5y1d-A-ASP-211:MBZ-pdb5y1d-A-PHE-290
     RDKit          3D

 22 21  0  0  0  0  0  0  0  0999 V2000
    4.7406    3.4001    1.9588 C   0  0  0  0  0  0  0  0  0  0  0  0
    4.0065    3.5753    2.6095 H   0  0  0  0  0  0  0  0  0  0  0  0
    5.3867    4.1586    1.9607 H   0  0  0  0  0  0  0  0  0  0  0  0
    5.2725    2.5075    2.2880 H   0  0  0  0  0  0  0  0  0  0  0  0
    4.1499    3.2629    0.5797 C   0  0  0  0  0  0  0  0  0  0  0  0
    3.1660    3.9720    0.2754 O   0  0  0  0  0  1  0  0  0  0  0  0
    4.6606    2.4456   -0.2194 O   0  0  0  0  0  0  0  0  0  0  0  0
   -0.0102    2.8754    0.0103 C   0  0  0  0  0  0  0  0  0  0  0  0
    0.7781    3.1919    0.5172 H   0  0  0  0  0  0  0  0  0  0  0  0
   -0.8534    3.1782    0.4299 H   0  0  0  0  0  0  0  0  0  0  0  0
    0.0395    3.3096   -0.9882 H   0  0  0  0  0  0  0  0  0  0  0  0
    0.0028    1.3873    0.0069 C   0  0  0  0  0  0  0  0  0  0  0  0
   -1.1758    0.6813    0.0130 C   0  0  0  0  0  0  0  0  0  0  0  0
   -2.0515    1.1699    0.0258 H   0  0  0  0  0  0  0  0  0  0  0  0
   -1.1851   -0.7028   -0.0000 C   0  0  0  0  0  0  0  0  0  0  0  0
   -2.0664   -1.1924    0.0095 H   0  0  0  0  0  0  0  0  0  0  0  0
    0.0015   -1.3890   -0.0235 C   0  0  0  0  0  0  0  0  0  0  0  0
    0.0100   -2.3855   -0.0577 H   0  0  0  0  0  0  0  0  0  0  0  0
    1.1851   -0.6799    0.0000 C   0  0  0  0  0  0  0  0  0  0  0  0
    2.0767   -1.1711    0.0166 H   0  0  0  0  0  0  0  0  0  0  0  0
    1.1715    0.7030    0.0037 C   0  0  0  0  0  0  0  0  0  0  0  0
    2.0510    1.1964    0.0033 H   0  0  0  0  0  0  0  0  0  0  0  0
  1  5  1  0
  5  6  1  0
  5  7  2  0
  1  2  1  0
  1  3  1  0
  1  4  1  0
  8 12  1  0
 12 13  2  0
 13 15  1  0
 15 17  2  0
 17 19  1  0
 19 21  2  0
 21 12  1  0
  8  9  1  0
  8 10  1  0
  8 11  1  0
 13 14  1  0
 15 16  1  0
 17 18  1  0
 19 20  1  0
 21 22  1  0
M  CHG  1   6  -1
M  END
>  <PDB_ID>  (2697) 
pdb5y1d

>  <RESIDUE_NAME>  (2697) 
ASP   PHE

>  <FRAG_NAME>  (2697) 
ACET   MBZ

>  <FRAG_ATOM_NUM>  (2697) 
fragi: 7  fragj: 15

>  <atom.prop.CHAIN_ID>  (2697) 
A A A A A A A Z Z Z Z Z Z Z Z Z Z Z Z Z Z Z

>  <atom.prop.IS_HEAVY_ATOM>  (2697) 
1 0 0 0 1 1 1 1 0 0 0 1 1 0 1 0 1 0 1 0 1 0

>  <DIFUSE_FUNC_ATOM>  (2697) 
atom 6   atom 7   

>  <FINAL_SINGLE_POINT_ENERGY>  (2697) 
0

>  <NONCOV_INTER_ENERGY_QM>  (2697) 
0

>  <FF_Energy>  (2697) 
-2.8

>  <QM_Energy>  (2697) 
-7.93

>  <source>  (2697) 
ACET_MBZ_03

>  <Index>  (2697) 
6689

$$$$
ACET-pdb5y26-B-ASP-75:MBZ-pdb5y26-B-PHE-78
     RDKit          3D

 22 21  0  0  0  0  0  0  0  0999 V2000
    4.5579    1.4792   -0.1719 C   0  0  0  0  0  0  0  0  0  0  0  0
    5.0980    1.1297    0.5871 H   0  0  0  0  0  0  0  0  0  0  0  0
    3.6330    1.6836    0.1265 H   0  0  0  0  0  0  0  0  0  0  0  0
    5.0160    2.4084   -0.5109 H   0  0  0  0  0  0  0  0  0  0  0  0
    4.4947    0.4110   -1.2565 C   0  0  0  0  0  0  0  0  0  0  0  0
    4.5698    0.7411   -2.4600 O   0  0  0  0  0  1  0  0  0  0  0  0
    4.3617   -0.7788   -0.8947 O   0  0  0  0  0  0  0  0  0  0  0  0
   -0.0094    2.8990   -0.0238 C   0  0  0  0  0  0  0  0  0  0  0  0
    0.8912    3.2145    0.2218 H   0  0  0  0  0  0  0  0  0  0  0  0
   -0.6945    3.2139    0.6102 H   0  0  0  0  0  0  0  0  0  0  0  0
   -0.2496    3.3095   -1.0046 H   0  0  0  0  0  0  0  0  0  0  0  0
   -0.0026    1.3946    0.0031 C   0  0  0  0  0  0  0  0  0  0  0  0
   -1.1924    0.6863   -0.0029 C   0  0  0  0  0  0  0  0  0  0  0  0
   -2.0624    1.1763   -0.0106 H   0  0  0  0  0  0  0  0  0  0  0  0
   -1.1978   -0.6996    0.0000 C   0  0  0  0  0  0  0  0  0  0  0  0
   -2.0725   -1.1950    0.0010 H   0  0  0  0  0  0  0  0  0  0  0  0
    0.0025   -1.3848    0.0033 C   0  0  0  0  0  0  0  0  0  0  0  0
    0.0029   -2.3876    0.0076 H   0  0  0  0  0  0  0  0  0  0  0  0
    1.1978   -0.6889   -0.0000 C   0  0  0  0  0  0  0  0  0  0  0  0
    2.0807   -1.1887    0.0018 H   0  0  0  0  0  0  0  0  0  0  0  0
    1.1925    0.6923   -0.0035 C   0  0  0  0  0  0  0  0  0  0  0  0
    2.0594    1.1932   -0.0113 H   0  0  0  0  0  0  0  0  0  0  0  0
  1  5  1  0
  5  6  1  0
  5  7  2  0
  1  2  1  0
  1  3  1  0
  1  4  1  0
  8 12  1  0
 12 13  2  0
 13 15  1  0
 15 17  2  0
 17 19  1  0
 19 21  2  0
 21 12  1  0
  8  9  1  0
  8 10  1  0
  8 11  1  0
 13 14  1  0
 15 16  1  0
 17 18  1  0
 19 20  1  0
 21 22  1  0
M  CHG  1   6  -1
M  END
>  <PDB_ID>  (2698) 
pdb5y26

>  <RESIDUE_NAME>  (2698) 
ASP   PHE

>  <FRAG_NAME>  (2698) 
ACET   MBZ

>  <FRAG_ATOM_NUM>  (2698) 
fragi: 7  fragj: 15

>  <atom.prop.CHAIN_ID>  (2698) 
A A A A A A A Z Z Z Z Z Z Z Z Z Z Z Z Z Z Z

>  <atom.prop.IS_HEAVY_ATOM>  (2698) 
1 0 0 0 1 1 1 1 0 0 0 1 1 0 1 0 1 0 1 0 1 0

>  <DIFUSE_FUNC_ATOM>  (2698) 
atom 6   atom 7   

>  <FINAL_SINGLE_POINT_ENERGY>  (2698) 
0

>  <NONCOV_INTER_ENERGY_QM>  (2698) 
0

>  <FF_Energy>  (2698) 
7.94

>  <QM_Energy>  (2698) 
-3.09

>  <source>  (2698) 
ACET_MBZ_03

>  <Index>  (2698) 
6695

$$$$
ACET-pdb5ya8-C-GLU-331:MBZ-pdb5ya8-C-PHE-33
     RDKit          3D

 22 21  0  0  0  0  0  0  0  0999 V2000
    0.6494    0.9438    3.6244 C   0  0  0  0  0  0  0  0  0  0  0  0
    0.1411    0.5265    2.8932 H   0  0  0  0  0  0  0  0  0  0  0  0
    0.2982    0.6950    4.5093 H   0  0  0  0  0  0  0  0  0  0  0  0
    1.6764    0.5840    3.5610 H   0  0  0  0  0  0  0  0  0  0  0  0
    0.5324    2.4413    3.4803 C   0  0  0  0  0  0  0  0  0  0  0  0
    1.5312    3.1208    3.2299 O   0  0  0  0  0  1  0  0  0  0  0  0
   -0.5672    2.9582    3.6327 O   0  0  0  0  0  0  0  0  0  0  0  0
    0.0139    2.8928    0.0250 C   0  0  0  0  0  0  0  0  0  0  0  0
    0.9199    3.1905    0.2937 H   0  0  0  0  0  0  0  0  0  0  0  0
   -0.6679    3.1985    0.6747 H   0  0  0  0  0  0  0  0  0  0  0  0
   -0.2156    3.3452   -0.9397 H   0  0  0  0  0  0  0  0  0  0  0  0
    0.0009    1.4036    0.0039 C   0  0  0  0  0  0  0  0  0  0  0  0
   -1.2122    0.6987    0.0091 C   0  0  0  0  0  0  0  0  0  0  0  0
   -2.0693    1.1977    0.0178 H   0  0  0  0  0  0  0  0  0  0  0  0
   -1.2182   -0.6874   -0.0000 C   0  0  0  0  0  0  0  0  0  0  0  0
   -2.0891   -1.1873    0.0004 H   0  0  0  0  0  0  0  0  0  0  0  0
   -0.0039   -1.3941   -0.0077 C   0  0  0  0  0  0  0  0  0  0  0  0
   -0.0173   -2.3923   -0.0197 H   0  0  0  0  0  0  0  0  0  0  0  0
    1.2182   -0.7078    0.0000 C   0  0  0  0  0  0  0  0  0  0  0  0
    2.0865   -1.2117    0.0106 H   0  0  0  0  0  0  0  0  0  0  0  0
    1.2152    0.6870   -0.0054 C   0  0  0  0  0  0  0  0  0  0  0  0
    2.0754    1.1879   -0.0165 H   0  0  0  0  0  0  0  0  0  0  0  0
  1  5  1  0
  5  6  1  0
  5  7  2  0
  1  2  1  0
  1  3  1  0
  1  4  1  0
  8 12  1  0
 12 13  2  0
 13 15  1  0
 15 17  2  0
 17 19  1  0
 19 21  2  0
 21 12  1  0
  8  9  1  0
  8 10  1  0
  8 11  1  0
 13 14  1  0
 15 16  1  0
 17 18  1  0
 19 20  1  0
 21 22  1  0
M  CHG  1   6  -1
M  END
>  <PDB_ID>  (2699) 
pdb5ya8

>  <RESIDUE_NAME>  (2699) 
GLU   PHE

>  <FRAG_NAME>  (2699) 
ACET   MBZ

>  <FRAG_ATOM_NUM>  (2699) 
fragi: 7  fragj: 15

>  <atom.prop.CHAIN_ID>  (2699) 
A A A A A A A Z Z Z Z Z Z Z Z Z Z Z Z Z Z Z

>  <atom.prop.IS_HEAVY_ATOM>  (2699) 
1 0 0 0 1 1 1 1 0 0 0 1 1 0 1 0 1 0 1 0 1 0

>  <DIFUSE_FUNC_ATOM>  (2699) 
atom 6   atom 7   

>  <FINAL_SINGLE_POINT_ENERGY>  (2699) 
0

>  <NONCOV_INTER_ENERGY_QM>  (2699) 
0

>  <FF_Energy>  (2699) 
-0.93

>  <QM_Energy>  (2699) 
-6.03

>  <source>  (2699) 
ACET_MBZ_03

>  <Index>  (2699) 
6846

$$$$
ACET-pdb5ydg-B-GLU-150:MBZ-pdb5ydg-A-PHE-79
     RDKit          3D

 22 21  0  0  0  0  0  0  0  0999 V2000
    2.6982   -5.7664    0.3837 C   0  0  0  0  0  0  0  0  0  0  0  0
    3.6554   -5.8063    0.6043 H   0  0  0  0  0  0  0  0  0  0  0  0
    2.4033   -6.5433   -0.1411 H   0  0  0  0  0  0  0  0  0  0  0  0
    2.1332   -5.7472    1.3157 H   0  0  0  0  0  0  0  0  0  0  0  0
    2.4697   -4.5328   -0.4526 C   0  0  0  0  0  0  0  0  0  0  0  0
    2.1253   -3.4937    0.1346 O   0  0  0  0  0  1  0  0  0  0  0  0
    2.6180   -4.6033   -1.6903 O   0  0  0  0  0  0  0  0  0  0  0  0
    0.0018    2.8857   -0.0034 C   0  0  0  0  0  0  0  0  0  0  0  0
    0.7306    3.1926   -0.5985 H   0  0  0  0  0  0  0  0  0  0  0  0
    0.1433    3.1984    0.9255 H   0  0  0  0  0  0  0  0  0  0  0  0
   -0.9275    3.3276   -0.3631 H   0  0  0  0  0  0  0  0  0  0  0  0
    0.0004    1.3903    0.0017 C   0  0  0  0  0  0  0  0  0  0  0  0
   -1.1916    0.6836   -0.0030 C   0  0  0  0  0  0  0  0  0  0  0  0
   -2.0592    1.1780   -0.0095 H   0  0  0  0  0  0  0  0  0  0  0  0
   -1.1954   -0.6946    0.0000 C   0  0  0  0  0  0  0  0  0  0  0  0
   -2.0738   -1.1921    0.0022 H   0  0  0  0  0  0  0  0  0  0  0  0
   -0.0016   -1.3812    0.0013 C   0  0  0  0  0  0  0  0  0  0  0  0
   -0.0005   -2.3835    0.0027 H   0  0  0  0  0  0  0  0  0  0  0  0
    1.1954   -0.6861   -0.0000 C   0  0  0  0  0  0  0  0  0  0  0  0
    2.0768   -1.1918    0.0005 H   0  0  0  0  0  0  0  0  0  0  0  0
    1.1927    0.6880    0.0000 C   0  0  0  0  0  0  0  0  0  0  0  0
    2.0599    1.1900   -0.0022 H   0  0  0  0  0  0  0  0  0  0  0  0
  1  5  1  0
  5  6  1  0
  5  7  2  0
  1  2  1  0
  1  3  1  0
  1  4  1  0
  8 12  1  0
 12 13  2  0
 13 15  1  0
 15 17  2  0
 17 19  1  0
 19 21  2  0
 21 12  1  0
  8  9  1  0
  8 10  1  0
  8 11  1  0
 13 14  1  0
 15 16  1  0
 17 18  1  0
 19 20  1  0
 21 22  1  0
M  CHG  1   6  -1
M  END
>  <PDB_ID>  (2700) 
pdb5ydg

>  <RESIDUE_NAME>  (2700) 
GLU   PHE

>  <FRAG_NAME>  (2700) 
ACET   MBZ

>  <FRAG_ATOM_NUM>  (2700) 
fragi: 7  fragj: 15

>  <atom.prop.CHAIN_ID>  (2700) 
A A A A A A A Z Z Z Z Z Z Z Z Z Z Z Z Z Z Z

>  <atom.prop.IS_HEAVY_ATOM>  (2700) 
1 0 0 0 1 1 1 1 0 0 0 1 1 0 1 0 1 0 1 0 1 0

>  <DIFUSE_FUNC_ATOM>  (2700) 
atom 6   atom 7   

>  <FINAL_SINGLE_POINT_ENERGY>  (2700) 
0

>  <NONCOV_INTER_ENERGY_QM>  (2700) 
0

>  <FF_Energy>  (2700) 
-0.5

>  <QM_Energy>  (2700) 
-6.05

>  <source>  (2700) 
ACET_MBZ_03

>  <Index>  (2700) 
6951

$$$$
ACET-pdb5ygd-A-ASP-324:MBZ-pdb5ygd-A-PHE-321
     RDKit          3D

 22 21  0  0  0  0  0  0  0  0999 V2000
    5.3382    1.8218    1.5945 C   0  0  0  0  0  0  0  0  0  0  0  0
    6.2880    2.1163    1.5415 H   0  0  0  0  0  0  0  0  0  0  0  0
    5.2809    0.8321    1.5014 H   0  0  0  0  0  0  0  0  0  0  0  0
    4.9644    2.0848    2.5840 H   0  0  0  0  0  0  0  0  0  0  0  0
    4.5611    2.4670    0.4574 C   0  0  0  0  0  0  0  0  0  0  0  0
    3.5335    3.1469    0.6987 O   0  0  0  0  0  1  0  0  0  0  0  0
    4.9971    2.2794   -0.7051 O   0  0  0  0  0  0  0  0  0  0  0  0
   -0.0026    2.9037   -0.0146 C   0  0  0  0  0  0  0  0  0  0  0  0
   -0.3983    3.1943   -0.8756 H   0  0  0  0  0  0  0  0  0  0  0  0
    0.9351    3.2137    0.0667 H   0  0  0  0  0  0  0  0  0  0  0  0
   -0.5759    3.3681    0.7878 H   0  0  0  0  0  0  0  0  0  0  0  0
    0.0007    1.4001    0.0120 C   0  0  0  0  0  0  0  0  0  0  0  0
   -1.1893    0.6884   -0.0030 C   0  0  0  0  0  0  0  0  0  0  0  0
   -2.0588    1.1880   -0.0170 H   0  0  0  0  0  0  0  0  0  0  0  0
   -1.1983   -0.6825    0.0000 C   0  0  0  0  0  0  0  0  0  0  0  0
   -2.0829   -1.1781    0.0079 H   0  0  0  0  0  0  0  0  0  0  0  0
   -0.0114   -1.3913   -0.0058 C   0  0  0  0  0  0  0  0  0  0  0  0
   -0.0224   -2.3894   -0.0149 H   0  0  0  0  0  0  0  0  0  0  0  0
    1.1983   -0.7052   -0.0000 C   0  0  0  0  0  0  0  0  0  0  0  0
    2.0739   -1.2063    0.0076 H   0  0  0  0  0  0  0  0  0  0  0  0
    1.2000    0.6905   -0.0031 C   0  0  0  0  0  0  0  0  0  0  0  0
    2.0670    1.1824   -0.0170 H   0  0  0  0  0  0  0  0  0  0  0  0
  1  5  1  0
  5  6  1  0
  5  7  2  0
  1  2  1  0
  1  3  1  0
  1  4  1  0
  8 12  1  0
 12 13  2  0
 13 15  1  0
 15 17  2  0
 17 19  1  0
 19 21  2  0
 21 12  1  0
  8  9  1  0
  8 10  1  0
  8 11  1  0
 13 14  1  0
 15 16  1  0
 17 18  1  0
 19 20  1  0
 21 22  1  0
M  CHG  1   6  -1
M  END
>  <PDB_ID>  (2701) 
pdb5ygd

>  <RESIDUE_NAME>  (2701) 
ASP   PHE

>  <FRAG_NAME>  (2701) 
ACET   MBZ

>  <FRAG_ATOM_NUM>  (2701) 
fragi: 7  fragj: 15

>  <atom.prop.CHAIN_ID>  (2701) 
A A A A A A A Z Z Z Z Z Z Z Z Z Z Z Z Z Z Z

>  <atom.prop.IS_HEAVY_ATOM>  (2701) 
1 0 0 0 1 1 1 1 0 0 0 1 1 0 1 0 1 0 1 0 1 0

>  <DIFUSE_FUNC_ATOM>  (2701) 
atom 6   atom 7   

>  <FINAL_SINGLE_POINT_ENERGY>  (2701) 
0

>  <NONCOV_INTER_ENERGY_QM>  (2701) 
0

>  <FF_Energy>  (2701) 
-2.58

>  <QM_Energy>  (2701) 
-7.83

>  <source>  (2701) 
ACET_MBZ_03

>  <Index>  (2701) 
6997

$$$$
ACET-pdb5yh7-A-ASP-13:MBZ-pdb5yh7-A-PHE-47
     RDKit          3D

 22 21  0  0  0  0  0  0  0  0999 V2000
    5.5564    3.4948    0.3181 C   0  0  0  0  0  0  0  0  0  0  0  0
    5.5355    4.4491    0.5765 H   0  0  0  0  0  0  0  0  0  0  0  0
    6.4711    3.2083    0.0766 H   0  0  0  0  0  0  0  0  0  0  0  0
    5.2192    2.8990    1.1663 H   0  0  0  0  0  0  0  0  0  0  0  0
    4.6537    3.3193   -0.9361 C   0  0  0  0  0  0  0  0  0  0  0  0
    3.4151    3.0984   -0.7335 O   0  0  0  0  0  1  0  0  0  0  0  0
    5.1665    3.2900   -2.1049 O   0  0  0  0  0  0  0  0  0  0  0  0
   -0.0434    2.8652    0.0208 C   0  0  0  0  0  0  0  0  0  0  0  0
    0.8203    3.1911    0.3888 H   0  0  0  0  0  0  0  0  0  0  0  0
   -0.8004    3.1694    0.5892 H   0  0  0  0  0  0  0  0  0  0  0  0
   -0.1707    3.3301   -0.9567 H   0  0  0  0  0  0  0  0  0  0  0  0
   -0.0280    1.4041   -0.0121 C   0  0  0  0  0  0  0  0  0  0  0  0
   -1.1932    0.6963   -0.0279 C   0  0  0  0  0  0  0  0  0  0  0  0
   -2.0756    1.1643   -0.0614 H   0  0  0  0  0  0  0  0  0  0  0  0
   -1.1860   -0.7031   -0.0000 C   0  0  0  0  0  0  0  0  0  0  0  0
   -2.0547   -1.2052   -0.0003 H   0  0  0  0  0  0  0  0  0  0  0  0
    0.0356   -1.4051    0.0304 C   0  0  0  0  0  0  0  0  0  0  0  0
    0.0245   -2.3936    0.0718 H   0  0  0  0  0  0  0  0  0  0  0  0
    1.1860   -0.6880    0.0000 C   0  0  0  0  0  0  0  0  0  0  0  0
    2.0975   -1.1723   -0.0301 H   0  0  0  0  0  0  0  0  0  0  0  0
    1.1856    0.6958    0.0096 C   0  0  0  0  0  0  0  0  0  0  0  0
    2.0436    1.2003    0.0309 H   0  0  0  0  0  0  0  0  0  0  0  0
  1  5  1  0
  5  6  1  0
  5  7  2  0
  1  2  1  0
  1  3  1  0
  1  4  1  0
  8 12  1  0
 12 13  2  0
 13 15  1  0
 15 17  2  0
 17 19  1  0
 19 21  2  0
 21 12  1  0
  8  9  1  0
  8 10  1  0
  8 11  1  0
 13 14  1  0
 15 16  1  0
 17 18  1  0
 19 20  1  0
 21 22  1  0
M  CHG  1   6  -1
M  END
>  <PDB_ID>  (2702) 
pdb5yh7

>  <RESIDUE_NAME>  (2702) 
ASP   PHE

>  <FRAG_NAME>  (2702) 
ACET   MBZ

>  <FRAG_ATOM_NUM>  (2702) 
fragi: 7  fragj: 15

>  <atom.prop.CHAIN_ID>  (2702) 
A A A A A A A Z Z Z Z Z Z Z Z Z Z Z Z Z Z Z

>  <atom.prop.IS_HEAVY_ATOM>  (2702) 
1 0 0 0 1 1 1 1 0 0 0 1 1 0 1 0 1 0 1 0 1 0

>  <DIFUSE_FUNC_ATOM>  (2702) 
atom 6   atom 7   

>  <FINAL_SINGLE_POINT_ENERGY>  (2702) 
0

>  <NONCOV_INTER_ENERGY_QM>  (2702) 
0

>  <FF_Energy>  (2702) 
-1.77

>  <QM_Energy>  (2702) 
-7.03

>  <source>  (2702) 
ACET_MBZ_03

>  <Index>  (2702) 
7026

$$$$
ACET-pdb5yhu-A-GLU-516:MBZ-pdb5yhu-A-PHE-385
     RDKit          3D

 22 21  0  0  0  0  0  0  0  0999 V2000
    4.5037    0.9613    2.1571 C   0  0  0  0  0  0  0  0  0  0  0  0
    4.0993    0.6277    2.9808 H   0  0  0  0  0  0  0  0  0  0  0  0
    4.0699    1.7623    1.8078 H   0  0  0  0  0  0  0  0  0  0  0  0
    5.5475    1.1990    2.3623 H   0  0  0  0  0  0  0  0  0  0  0  0
    4.3680   -0.1353    1.0987 C   0  0  0  0  0  0  0  0  0  0  0  0
    4.1715   -1.3158    1.4685 O   0  0  0  0  0  1  0  0  0  0  0  0
    4.4481    0.1787   -0.1117 O   0  0  0  0  0  0  0  0  0  0  0  0
   -0.0134    2.8875   -0.0515 C   0  0  0  0  0  0  0  0  0  0  0  0
    0.8158    3.2207    0.3680 H   0  0  0  0  0  0  0  0  0  0  0  0
   -0.8158    3.2099    0.4236 H   0  0  0  0  0  0  0  0  0  0  0  0
   -0.0511    3.2773   -1.0687 H   0  0  0  0  0  0  0  0  0  0  0  0
   -0.0015    1.4007   -0.0001 C   0  0  0  0  0  0  0  0  0  0  0  0
   -1.2006    0.6881   -0.0161 C   0  0  0  0  0  0  0  0  0  0  0  0
   -2.0681    1.1770   -0.0410 H   0  0  0  0  0  0  0  0  0  0  0  0
   -1.2116   -0.7132   -0.0000 C   0  0  0  0  0  0  0  0  0  0  0  0
   -2.0805   -1.2036    0.0022 H   0  0  0  0  0  0  0  0  0  0  0  0
    0.0027   -1.4005    0.0152 C   0  0  0  0  0  0  0  0  0  0  0  0
    0.0104   -2.3977    0.0361 H   0  0  0  0  0  0  0  0  0  0  0  0
    1.2116   -0.6900   -0.0000 C   0  0  0  0  0  0  0  0  0  0  0  0
    2.0918   -1.1799   -0.0106 H   0  0  0  0  0  0  0  0  0  0  0  0
    1.1993    0.7149    0.0011 C   0  0  0  0  0  0  0  0  0  0  0  0
    2.0628    1.2089    0.0019 H   0  0  0  0  0  0  0  0  0  0  0  0
  1  5  1  0
  5  6  1  0
  5  7  2  0
  1  2  1  0
  1  3  1  0
  1  4  1  0
  8 12  1  0
 12 13  2  0
 13 15  1  0
 15 17  2  0
 17 19  1  0
 19 21  2  0
 21 12  1  0
  8  9  1  0
  8 10  1  0
  8 11  1  0
 13 14  1  0
 15 16  1  0
 17 18  1  0
 19 20  1  0
 21 22  1  0
M  CHG  1   6  -1
M  END
>  <PDB_ID>  (2703) 
pdb5yhu

>  <RESIDUE_NAME>  (2703) 
GLU   PHE

>  <FRAG_NAME>  (2703) 
ACET   MBZ

>  <FRAG_ATOM_NUM>  (2703) 
fragi: 7  fragj: 15

>  <atom.prop.CHAIN_ID>  (2703) 
A A A A A A A Z Z Z Z Z Z Z Z Z Z Z Z Z Z Z

>  <atom.prop.IS_HEAVY_ATOM>  (2703) 
1 0 0 0 1 1 1 1 0 0 0 1 1 0 1 0 1 0 1 0 1 0

>  <DIFUSE_FUNC_ATOM>  (2703) 
atom 6   atom 7   

>  <FINAL_SINGLE_POINT_ENERGY>  (2703) 
0

>  <NONCOV_INTER_ENERGY_QM>  (2703) 
0

>  <FF_Energy>  (2703) 
-2.73

>  <QM_Energy>  (2703) 
-7.87

>  <source>  (2703) 
ACET_MBZ_03

>  <Index>  (2703) 
7095

$$$$
ACET-pdb5yi6-C-GLU-73:MBZ-pdb5yi6-C-PHE-16
     RDKit          3D

 22 21  0  0  0  0  0  0  0  0999 V2000
   -4.1183    5.1519   -0.7060 C   0  0  0  0  0  0  0  0  0  0  0  0
   -4.1744    4.5584   -1.4812 H   0  0  0  0  0  0  0  0  0  0  0  0
   -3.3021    5.6921   -0.6942 H   0  0  0  0  0  0  0  0  0  0  0  0
   -4.9868    5.8106   -0.6953 H   0  0  0  0  0  0  0  0  0  0  0  0
   -4.0849    4.2653    0.5348 C   0  0  0  0  0  0  0  0  0  0  0  0
   -4.9300    4.4647    1.4094 O   0  0  0  0  0  1  0  0  0  0  0  0
   -3.1983    3.4245    0.6109 O   0  0  0  0  0  0  0  0  0  0  0  0
    0.0087    2.8972   -0.0209 C   0  0  0  0  0  0  0  0  0  0  0  0
    0.9416    3.2121    0.0429 H   0  0  0  0  0  0  0  0  0  0  0  0
   -0.5406    3.2287    0.7283 H   0  0  0  0  0  0  0  0  0  0  0  0
   -0.4108    3.3134   -0.9368 H   0  0  0  0  0  0  0  0  0  0  0  0
    0.0053    1.4069    0.0066 C   0  0  0  0  0  0  0  0  0  0  0  0
   -1.1986    0.7087   -0.0154 C   0  0  0  0  0  0  0  0  0  0  0  0
   -2.0613    1.1958   -0.0435 H   0  0  0  0  0  0  0  0  0  0  0  0
   -1.2086   -0.6975    0.0000 C   0  0  0  0  0  0  0  0  0  0  0  0
   -2.0872   -1.1824    0.0140 H   0  0  0  0  0  0  0  0  0  0  0  0
   -0.0053   -1.4078   -0.0017 C   0  0  0  0  0  0  0  0  0  0  0  0
   -0.0104   -2.3992   -0.0043 H   0  0  0  0  0  0  0  0  0  0  0  0
    1.2086   -0.7044   -0.0000 C   0  0  0  0  0  0  0  0  0  0  0  0
    2.0846   -1.2005   -0.0050 H   0  0  0  0  0  0  0  0  0  0  0  0
    1.1985    0.6941    0.0105 C   0  0  0  0  0  0  0  0  0  0  0  0
    2.0709    1.1881    0.0200 H   0  0  0  0  0  0  0  0  0  0  0  0
  1  5  1  0
  5  6  1  0
  5  7  2  0
  1  2  1  0
  1  3  1  0
  1  4  1  0
  8 12  1  0
 12 13  2  0
 13 15  1  0
 15 17  2  0
 17 19  1  0
 19 21  2  0
 21 12  1  0
  8  9  1  0
  8 10  1  0
  8 11  1  0
 13 14  1  0
 15 16  1  0
 17 18  1  0
 19 20  1  0
 21 22  1  0
M  CHG  1   6  -1
M  END
>  <PDB_ID>  (2704) 
pdb5yi6

>  <RESIDUE_NAME>  (2704) 
GLU   PHE

>  <FRAG_NAME>  (2704) 
ACET   MBZ

>  <FRAG_ATOM_NUM>  (2704) 
fragi: 7  fragj: 15

>  <atom.prop.CHAIN_ID>  (2704) 
A A A A A A A Z Z Z Z Z Z Z Z Z Z Z Z Z Z Z

>  <atom.prop.IS_HEAVY_ATOM>  (2704) 
1 0 0 0 1 1 1 1 0 0 0 1 1 0 1 0 1 0 1 0 1 0

>  <DIFUSE_FUNC_ATOM>  (2704) 
atom 6   atom 7   

>  <FINAL_SINGLE_POINT_ENERGY>  (2704) 
0

>  <NONCOV_INTER_ENERGY_QM>  (2704) 
0

>  <FF_Energy>  (2704) 
-1.9

>  <QM_Energy>  (2704) 
-7.23

>  <source>  (2704) 
ACET_MBZ_03

>  <Index>  (2704) 
7153

$$$$
ACET-pdb5yje-C-GLU-952:MBZ-pdb5yje-C-PHE-1000
     RDKit          3D

 22 21  0  0  0  0  0  0  0  0999 V2000
   -3.9597   -2.2326    1.3907 C   0  0  0  0  0  0  0  0  0  0  0  0
   -4.0347   -2.1070    2.3631 H   0  0  0  0  0  0  0  0  0  0  0  0
   -3.4320   -1.5222    0.9627 H   0  0  0  0  0  0  0  0  0  0  0  0
   -3.4606   -3.1845    1.2092 H   0  0  0  0  0  0  0  0  0  0  0  0
   -5.3615   -2.1763    0.8098 C   0  0  0  0  0  0  0  0  0  0  0  0
   -5.9523   -1.0666    0.7894 O   0  0  0  0  0  1  0  0  0  0  0  0
   -5.8734   -3.2408    0.3830 O   0  0  0  0  0  0  0  0  0  0  0  0
   -0.0156    2.8931   -0.0099 C   0  0  0  0  0  0  0  0  0  0  0  0
    0.9000    3.2099   -0.1974 H   0  0  0  0  0  0  0  0  0  0  0  0
   -0.3345    3.2036    0.8708 H   0  0  0  0  0  0  0  0  0  0  0  0
   -0.6750    3.3126   -0.7699 H   0  0  0  0  0  0  0  0  0  0  0  0
    0.0011    1.3930    0.0010 C   0  0  0  0  0  0  0  0  0  0  0  0
   -1.1877    0.6790   -0.0030 C   0  0  0  0  0  0  0  0  0  0  0  0
   -2.0586    1.1736   -0.0092 H   0  0  0  0  0  0  0  0  0  0  0  0
   -1.1916   -0.6969   -0.0000 C   0  0  0  0  0  0  0  0  0  0  0  0
   -2.0732   -1.1923    0.0018 H   0  0  0  0  0  0  0  0  0  0  0  0
   -0.0055   -1.3834    0.0025 C   0  0  0  0  0  0  0  0  0  0  0  0
   -0.0011   -2.3851    0.0056 H   0  0  0  0  0  0  0  0  0  0  0  0
    1.1916   -0.6873    0.0000 C   0  0  0  0  0  0  0  0  0  0  0  0
    2.0743   -1.1895    0.0001 H   0  0  0  0  0  0  0  0  0  0  0  0
    1.1921    0.6956   -0.0005 C   0  0  0  0  0  0  0  0  0  0  0  0
    2.0603    1.1917   -0.0027 H   0  0  0  0  0  0  0  0  0  0  0  0
  1  5  1  0
  5  6  1  0
  5  7  2  0
  1  2  1  0
  1  3  1  0
  1  4  1  0
  8 12  1  0
 12 13  2  0
 13 15  1  0
 15 17  2  0
 17 19  1  0
 19 21  2  0
 21 12  1  0
  8  9  1  0
  8 10  1  0
  8 11  1  0
 13 14  1  0
 15 16  1  0
 17 18  1  0
 19 20  1  0
 21 22  1  0
M  CHG  1   6  -1
M  END
>  <PDB_ID>  (2705) 
pdb5yje

>  <RESIDUE_NAME>  (2705) 
GLU   PHE

>  <FRAG_NAME>  (2705) 
ACET   MBZ

>  <FRAG_ATOM_NUM>  (2705) 
fragi: 7  fragj: 15

>  <atom.prop.CHAIN_ID>  (2705) 
A A A A A A A Z Z Z Z Z Z Z Z Z Z Z Z Z Z Z

>  <atom.prop.IS_HEAVY_ATOM>  (2705) 
1 0 0 0 1 1 1 1 0 0 0 1 1 0 1 0 1 0 1 0 1 0

>  <DIFUSE_FUNC_ATOM>  (2705) 
atom 6   atom 7   

>  <FINAL_SINGLE_POINT_ENERGY>  (2705) 
0

>  <NONCOV_INTER_ENERGY_QM>  (2705) 
0

>  <FF_Energy>  (2705) 
5.96

>  <QM_Energy>  (2705) 
-0.09

>  <source>  (2705) 
ACET_MBZ_03

>  <Index>  (2705) 
7186

$$$$
ACET-pdb5ypt-A-GLU-76:MBZ-pdb5ypt-A-PHE-41
     RDKit          3D

 22 21  0  0  0  0  0  0  0  0999 V2000
   -3.7679   -2.5513   -0.7453 C   0  0  0  0  0  0  0  0  0  0  0  0
   -3.5512   -2.0949    0.1024 H   0  0  0  0  0  0  0  0  0  0  0  0
   -2.9666   -2.6717   -1.3088 H   0  0  0  0  0  0  0  0  0  0  0  0
   -4.1820   -3.5328   -0.5147 H   0  0  0  0  0  0  0  0  0  0  0  0
   -4.7269   -1.6546   -1.5094 C   0  0  0  0  0  0  0  0  0  0  0  0
   -5.8184   -2.1295   -1.8898 O   0  0  0  0  0  1  0  0  0  0  0  0
   -4.3798   -0.4730   -1.7383 O   0  0  0  0  0  0  0  0  0  0  0  0
    0.0011    2.8801    0.0649 C   0  0  0  0  0  0  0  0  0  0  0  0
   -0.7146    3.2213   -0.5174 H   0  0  0  0  0  0  0  0  0  0  0  0
    0.8881    3.2070   -0.2083 H   0  0  0  0  0  0  0  0  0  0  0  0
   -0.1895    3.2509    1.0719 H   0  0  0  0  0  0  0  0  0  0  0  0
    0.0011    1.3923   -0.0039 C   0  0  0  0  0  0  0  0  0  0  0  0
   -1.1890    0.6999    0.0039 C   0  0  0  0  0  0  0  0  0  0  0  0
   -2.0546    1.1936    0.0112 H   0  0  0  0  0  0  0  0  0  0  0  0
   -1.1904   -0.6767   -0.0000 C   0  0  0  0  0  0  0  0  0  0  0  0
   -2.0752   -1.1732    0.0020 H   0  0  0  0  0  0  0  0  0  0  0  0
   -0.0031   -1.3833   -0.0047 C   0  0  0  0  0  0  0  0  0  0  0  0
   -0.0230   -2.3855   -0.0118 H   0  0  0  0  0  0  0  0  0  0  0  0
    1.1904   -0.7078    0.0000 C   0  0  0  0  0  0  0  0  0  0  0  0
    2.0711   -1.2087    0.0016 H   0  0  0  0  0  0  0  0  0  0  0  0
    1.1909    0.6756    0.0047 C   0  0  0  0  0  0  0  0  0  0  0  0
    2.0636    1.1713    0.0136 H   0  0  0  0  0  0  0  0  0  0  0  0
  1  5  1  0
  5  6  1  0
  5  7  2  0
  1  2  1  0
  1  3  1  0
  1  4  1  0
  8 12  1  0
 12 13  2  0
 13 15  1  0
 15 17  2  0
 17 19  1  0
 19 21  2  0
 21 12  1  0
  8  9  1  0
  8 10  1  0
  8 11  1  0
 13 14  1  0
 15 16  1  0
 17 18  1  0
 19 20  1  0
 21 22  1  0
M  CHG  1   6  -1
M  END
>  <PDB_ID>  (2706) 
pdb5ypt

>  <RESIDUE_NAME>  (2706) 
GLU   PHE

>  <FRAG_NAME>  (2706) 
ACET   MBZ

>  <FRAG_ATOM_NUM>  (2706) 
fragi: 7  fragj: 15

>  <atom.prop.CHAIN_ID>  (2706) 
A A A A A A A Z Z Z Z Z Z Z Z Z Z Z Z Z Z Z

>  <atom.prop.IS_HEAVY_ATOM>  (2706) 
1 0 0 0 1 1 1 1 0 0 0 1 1 0 1 0 1 0 1 0 1 0

>  <DIFUSE_FUNC_ATOM>  (2706) 
atom 6   atom 7   

>  <FINAL_SINGLE_POINT_ENERGY>  (2706) 
0

>  <NONCOV_INTER_ENERGY_QM>  (2706) 
0

>  <FF_Energy>  (2706) 
7.08

>  <QM_Energy>  (2706) 
-1.28

>  <source>  (2706) 
ACET_MBZ_03

>  <Index>  (2706) 
7376

$$$$
ACET-pdb5ypt-F-GLU-76:MBZ-pdb5ypt-F-PHE-41
     RDKit          3D

 22 21  0  0  0  0  0  0  0  0999 V2000
   -4.2066   -2.5073    0.5052 C   0  0  0  0  0  0  0  0  0  0  0  0
   -4.5619   -2.5938    1.4187 H   0  0  0  0  0  0  0  0  0  0  0  0
   -3.2450   -2.2965    0.5002 H   0  0  0  0  0  0  0  0  0  0  0  0
   -4.3527   -3.4571   -0.0090 H   0  0  0  0  0  0  0  0  0  0  0  0
   -4.9325   -1.3362   -0.1581 C   0  0  0  0  0  0  0  0  0  0  0  0
   -4.7236   -1.1088   -1.3704 O   0  0  0  0  0  1  0  0  0  0  0  0
   -5.7146   -0.6432    0.5388 O   0  0  0  0  0  0  0  0  0  0  0  0
   -0.0032    2.9023    0.0274 C   0  0  0  0  0  0  0  0  0  0  0  0
   -0.7219    3.2213   -0.5664 H   0  0  0  0  0  0  0  0  0  0  0  0
    0.8829    3.2182   -0.2664 H   0  0  0  0  0  0  0  0  0  0  0  0
   -0.1880    3.3087    1.0219 H   0  0  0  0  0  0  0  0  0  0  0  0
   -0.0001    1.3995   -0.0057 C   0  0  0  0  0  0  0  0  0  0  0  0
   -1.1901    0.6908    0.0076 C   0  0  0  0  0  0  0  0  0  0  0  0
   -2.0596    1.1800    0.0220 H   0  0  0  0  0  0  0  0  0  0  0  0
   -1.1920   -0.6949   -0.0000 C   0  0  0  0  0  0  0  0  0  0  0  0
   -2.0732   -1.1889   -0.0020 H   0  0  0  0  0  0  0  0  0  0  0  0
   -0.0002   -1.3879   -0.0025 C   0  0  0  0  0  0  0  0  0  0  0  0
   -0.0050   -2.3899   -0.0069 H   0  0  0  0  0  0  0  0  0  0  0  0
    1.1920   -0.6975   -0.0000 C   0  0  0  0  0  0  0  0  0  0  0  0
    2.0769   -1.1943    0.0030 H   0  0  0  0  0  0  0  0  0  0  0  0
    1.1904    0.6901    0.0006 C   0  0  0  0  0  0  0  0  0  0  0  0
    2.0618    1.1844    0.0049 H   0  0  0  0  0  0  0  0  0  0  0  0
  1  5  1  0
  5  6  1  0
  5  7  2  0
  1  2  1  0
  1  3  1  0
  1  4  1  0
  8 12  1  0
 12 13  2  0
 13 15  1  0
 15 17  2  0
 17 19  1  0
 19 21  2  0
 21 12  1  0
  8  9  1  0
  8 10  1  0
  8 11  1  0
 13 14  1  0
 15 16  1  0
 17 18  1  0
 19 20  1  0
 21 22  1  0
M  CHG  1   6  -1
M  END
>  <PDB_ID>  (2707) 
pdb5ypt

>  <RESIDUE_NAME>  (2707) 
GLU   PHE

>  <FRAG_NAME>  (2707) 
ACET   MBZ

>  <FRAG_ATOM_NUM>  (2707) 
fragi: 7  fragj: 15

>  <atom.prop.CHAIN_ID>  (2707) 
A A A A A A A Z Z Z Z Z Z Z Z Z Z Z Z Z Z Z

>  <atom.prop.IS_HEAVY_ATOM>  (2707) 
1 0 0 0 1 1 1 1 0 0 0 1 1 0 1 0 1 0 1 0 1 0

>  <DIFUSE_FUNC_ATOM>  (2707) 
atom 6   atom 7   

>  <FINAL_SINGLE_POINT_ENERGY>  (2707) 
0

>  <NONCOV_INTER_ENERGY_QM>  (2707) 
0

>  <FF_Energy>  (2707) 
5.72

>  <QM_Energy>  (2707) 
-1.92

>  <source>  (2707) 
ACET_MBZ_03

>  <Index>  (2707) 
7398

$$$$
ACET-pdb5yr3-A-ASP-103:MBZ-pdb5yr3-A-PHE-130
     RDKit          3D

 22 21  0  0  0  0  0  0  0  0999 V2000
    4.7766    0.8489    2.4615 C   0  0  0  0  0  0  0  0  0  0  0  0
    5.7600    0.7340    2.5161 H   0  0  0  0  0  0  0  0  0  0  0  0
    4.3361   -0.0039    2.2156 H   0  0  0  0  0  0  0  0  0  0  0  0
    4.4186    1.1369    3.4500 H   0  0  0  0  0  0  0  0  0  0  0  0
    4.4619    1.8888    1.3992 C   0  0  0  0  0  0  0  0  0  0  0  0
    3.3449    2.4451    1.4087 O   0  0  0  0  0  1  0  0  0  0  0  0
    5.3369    2.1457    0.5492 O   0  0  0  0  0  0  0  0  0  0  0  0
    0.0020    2.9064    0.0182 C   0  0  0  0  0  0  0  0  0  0  0  0
   -0.9007    3.2137   -0.2332 H   0  0  0  0  0  0  0  0  0  0  0  0
    0.6862    3.2169   -0.6212 H   0  0  0  0  0  0  0  0  0  0  0  0
    0.2403    3.3258    0.9957 H   0  0  0  0  0  0  0  0  0  0  0  0
    0.0002    1.3958   -0.0024 C   0  0  0  0  0  0  0  0  0  0  0  0
   -1.1908    0.6846    0.0040 C   0  0  0  0  0  0  0  0  0  0  0  0
   -2.0603    1.1779    0.0100 H   0  0  0  0  0  0  0  0  0  0  0  0
   -1.1951   -0.6959    0.0000 C   0  0  0  0  0  0  0  0  0  0  0  0
   -2.0728   -1.1928    0.0007 H   0  0  0  0  0  0  0  0  0  0  0  0
    0.0006   -1.3849   -0.0031 C   0  0  0  0  0  0  0  0  0  0  0  0
   -0.0010   -2.3870   -0.0080 H   0  0  0  0  0  0  0  0  0  0  0  0
    1.1951   -0.6916   -0.0000 C   0  0  0  0  0  0  0  0  0  0  0  0
    2.0790   -1.1899    0.0031 H   0  0  0  0  0  0  0  0  0  0  0  0
    1.1900    0.6920    0.0015 C   0  0  0  0  0  0  0  0  0  0  0  0
    2.0599    1.1893    0.0047 H   0  0  0  0  0  0  0  0  0  0  0  0
  1  5  1  0
  5  6  1  0
  5  7  2  0
  1  2  1  0
  1  3  1  0
  1  4  1  0
  8 12  1  0
 12 13  2  0
 13 15  1  0
 15 17  2  0
 17 19  1  0
 19 21  2  0
 21 12  1  0
  8  9  1  0
  8 10  1  0
  8 11  1  0
 13 14  1  0
 15 16  1  0
 17 18  1  0
 19 20  1  0
 21 22  1  0
M  CHG  1   6  -1
M  END
>  <PDB_ID>  (2708) 
pdb5yr3

>  <RESIDUE_NAME>  (2708) 
ASP   PHE

>  <FRAG_NAME>  (2708) 
ACET   MBZ

>  <FRAG_ATOM_NUM>  (2708) 
fragi: 7  fragj: 15

>  <atom.prop.CHAIN_ID>  (2708) 
A A A A A A A Z Z Z Z Z Z Z Z Z Z Z Z Z Z Z

>  <atom.prop.IS_HEAVY_ATOM>  (2708) 
1 0 0 0 1 1 1 1 0 0 0 1 1 0 1 0 1 0 1 0 1 0

>  <DIFUSE_FUNC_ATOM>  (2708) 
atom 6   atom 7   

>  <FINAL_SINGLE_POINT_ENERGY>  (2708) 
0

>  <NONCOV_INTER_ENERGY_QM>  (2708) 
0

>  <FF_Energy>  (2708) 
-0.98

>  <QM_Energy>  (2708) 
-6.55

>  <source>  (2708) 
ACET_MBZ_03

>  <Index>  (2708) 
7451

$$$$
ACET-pdb5yqw-A-ASP-365:MBZ-pdb5yqw-A-PHE-222
     RDKit          3D

 22 21  0  0  0  0  0  0  0  0999 V2000
   -0.0229    0.5044   -3.5516 C   0  0  0  0  0  0  0  0  0  0  0  0
   -0.8137    0.1026   -3.9978 H   0  0  0  0  0  0  0  0  0  0  0  0
    0.0475    0.1902   -2.6134 H   0  0  0  0  0  0  0  0  0  0  0  0
    0.8697    0.1799   -4.0863 H   0  0  0  0  0  0  0  0  0  0  0  0
   -0.2053    2.0371   -3.5362 C   0  0  0  0  0  0  0  0  0  0  0  0
    0.6707    2.8343   -3.8138 O   0  0  0  0  0  1  0  0  0  0  0  0
   -1.3972    2.4094   -3.2669 O   0  0  0  0  0  0  0  0  0  0  0  0
    0.0128    2.9293    0.0334 C   0  0  0  0  0  0  0  0  0  0  0  0
   -0.6053    3.2818   -0.6366 H   0  0  0  0  0  0  0  0  0  0  0  0
    0.9308    3.2427   -0.0856 H   0  0  0  0  0  0  0  0  0  0  0  0
   -0.3236    3.3068    0.9990 H   0  0  0  0  0  0  0  0  0  0  0  0
   -0.0056    1.4341   -0.0223 C   0  0  0  0  0  0  0  0  0  0  0  0
   -1.2125    0.7107    0.0269 C   0  0  0  0  0  0  0  0  0  0  0  0
   -2.0768    1.1938    0.0803 H   0  0  0  0  0  0  0  0  0  0  0  0
   -1.2211   -0.7063   -0.0000 C   0  0  0  0  0  0  0  0  0  0  0  0
   -2.0985   -1.1885   -0.0203 H   0  0  0  0  0  0  0  0  0  0  0  0
   -0.0105   -1.4277    0.0031 C   0  0  0  0  0  0  0  0  0  0  0  0
   -0.0266   -2.4200    0.0069 H   0  0  0  0  0  0  0  0  0  0  0  0
    1.2211   -0.7379    0.0000 C   0  0  0  0  0  0  0  0  0  0  0  0
    2.0924   -1.2154    0.0046 H   0  0  0  0  0  0  0  0  0  0  0  0
    1.2286    0.7270   -0.0076 C   0  0  0  0  0  0  0  0  0  0  0  0
    2.0819    1.1955   -0.0035 H   0  0  0  0  0  0  0  0  0  0  0  0
  1  5  1  0
  5  6  1  0
  5  7  2  0
  1  2  1  0
  1  3  1  0
  1  4  1  0
  8 12  1  0
 12 13  2  0
 13 15  1  0
 15 17  2  0
 17 19  1  0
 19 21  2  0
 21 12  1  0
  8  9  1  0
  8 10  1  0
  8 11  1  0
 13 14  1  0
 15 16  1  0
 17 18  1  0
 19 20  1  0
 21 22  1  0
M  CHG  1   6  -1
M  END
>  <PDB_ID>  (2709) 
pdb5yqw

>  <RESIDUE_NAME>  (2709) 
ASP   PHE

>  <FRAG_NAME>  (2709) 
ACET   MBZ

>  <FRAG_ATOM_NUM>  (2709) 
fragi: 7  fragj: 15

>  <atom.prop.CHAIN_ID>  (2709) 
A A A A A A A Z Z Z Z Z Z Z Z Z Z Z Z Z Z Z

>  <atom.prop.IS_HEAVY_ATOM>  (2709) 
1 0 0 0 1 1 1 1 0 0 0 1 1 0 1 0 1 0 1 0 1 0

>  <DIFUSE_FUNC_ATOM>  (2709) 
atom 6   atom 7   

>  <FINAL_SINGLE_POINT_ENERGY>  (2709) 
0

>  <NONCOV_INTER_ENERGY_QM>  (2709) 
0

>  <FF_Energy>  (2709) 
-0.01

>  <QM_Energy>  (2709) 
-5.27

>  <source>  (2709) 
ACET_MBZ_03

>  <Index>  (2709) 
7495

$$$$
ACET-pdb5yvp-B-ASP-47:MBZ-pdb5yvp-B-PHE-88
     RDKit          3D

 22 21  0  0  0  0  0  0  0  0999 V2000
   -3.8864   -1.5651   -2.9150 C   0  0  0  0  0  0  0  0  0  0  0  0
   -4.3386   -2.3584   -2.5330 H   0  0  0  0  0  0  0  0  0  0  0  0
   -2.9026   -1.6681   -2.8840 H   0  0  0  0  0  0  0  0  0  0  0  0
   -4.1816   -1.4832   -3.9611 H   0  0  0  0  0  0  0  0  0  0  0  0
   -4.2826   -0.3459   -2.1339 C   0  0  0  0  0  0  0  0  0  0  0  0
   -5.4821   -0.0272   -2.0765 O   0  0  0  0  0  1  0  0  0  0  0  0
   -3.4040    0.3483   -1.6484 O   0  0  0  0  0  0  0  0  0  0  0  0
   -0.0009    2.9107   -0.0248 C   0  0  0  0  0  0  0  0  0  0  0  0
   -0.6017    3.2066   -0.7570 H   0  0  0  0  0  0  0  0  0  0  0  0
    0.9274    3.2216   -0.1832 H   0  0  0  0  0  0  0  0  0  0  0  0
   -0.3495    3.3860    0.8922 H   0  0  0  0  0  0  0  0  0  0  0  0
    0.0044    1.4085    0.0004 C   0  0  0  0  0  0  0  0  0  0  0  0
   -1.1884    0.6848   -0.0011 C   0  0  0  0  0  0  0  0  0  0  0  0
   -2.0591    1.1760   -0.0043 H   0  0  0  0  0  0  0  0  0  0  0  0
   -1.1914   -0.7011    0.0000 C   0  0  0  0  0  0  0  0  0  0  0  0
   -2.0745   -1.1927    0.0016 H   0  0  0  0  0  0  0  0  0  0  0  0
   -0.0036   -1.3938    0.0001 C   0  0  0  0  0  0  0  0  0  0  0  0
   -0.0054   -2.3949    0.0002 H   0  0  0  0  0  0  0  0  0  0  0  0
    1.1914   -0.7004    0.0000 C   0  0  0  0  0  0  0  0  0  0  0  0
    2.0766   -1.1908    0.0009 H   0  0  0  0  0  0  0  0  0  0  0  0
    1.1876    0.7020    0.0006 C   0  0  0  0  0  0  0  0  0  0  0  0
    2.0638    1.1873    0.0004 H   0  0  0  0  0  0  0  0  0  0  0  0
  1  5  1  0
  5  6  1  0
  5  7  2  0
  1  2  1  0
  1  3  1  0
  1  4  1  0
  8 12  1  0
 12 13  2  0
 13 15  1  0
 15 17  2  0
 17 19  1  0
 19 21  2  0
 21 12  1  0
  8  9  1  0
  8 10  1  0
  8 11  1  0
 13 14  1  0
 15 16  1  0
 17 18  1  0
 19 20  1  0
 21 22  1  0
M  CHG  1   6  -1
M  END
>  <PDB_ID>  (2710) 
pdb5yvp

>  <RESIDUE_NAME>  (2710) 
ASP   PHE

>  <FRAG_NAME>  (2710) 
ACET   MBZ

>  <FRAG_ATOM_NUM>  (2710) 
fragi: 7  fragj: 15

>  <atom.prop.CHAIN_ID>  (2710) 
A A A A A A A Z Z Z Z Z Z Z Z Z Z Z Z Z Z Z

>  <atom.prop.IS_HEAVY_ATOM>  (2710) 
1 0 0 0 1 1 1 1 0 0 0 1 1 0 1 0 1 0 1 0 1 0

>  <DIFUSE_FUNC_ATOM>  (2710) 
atom 6   atom 7   

>  <FINAL_SINGLE_POINT_ENERGY>  (2710) 
0

>  <NONCOV_INTER_ENERGY_QM>  (2710) 
0

>  <FF_Energy>  (2710) 
2.04

>  <QM_Energy>  (2710) 
-3.87

>  <source>  (2710) 
ACET_MBZ_03

>  <Index>  (2710) 
7524

$$$$
ACET-pdb5yvu-B-ASP-496:MBZ-pdb5yvu-B-PHE-523
     RDKit          3D

 22 21  0  0  0  0  0  0  0  0999 V2000
    3.2301    5.0191   -0.6789 C   0  0  0  0  0  0  0  0  0  0  0  0
    2.8371    4.6798    0.1673 H   0  0  0  0  0  0  0  0  0  0  0  0
    2.5540    5.5279   -1.1986 H   0  0  0  0  0  0  0  0  0  0  0  0
    4.0413    5.7008   -0.4232 H   0  0  0  0  0  0  0  0  0  0  0  0
    3.7002    3.8417   -1.5067 C   0  0  0  0  0  0  0  0  0  0  0  0
    4.7938    3.9341   -2.1023 O   0  0  0  0  0  1  0  0  0  0  0  0
    2.9733    2.8281   -1.5730 O   0  0  0  0  0  0  0  0  0  0  0  0
   -0.0020    2.8966    0.0030 C   0  0  0  0  0  0  0  0  0  0  0  0
    0.9383    3.2040   -0.0048 H   0  0  0  0  0  0  0  0  0  0  0  0
   -0.4719    3.1999    0.8190 H   0  0  0  0  0  0  0  0  0  0  0  0
   -0.5051    3.3410   -0.8557 H   0  0  0  0  0  0  0  0  0  0  0  0
   -0.0010    1.3946   -0.0029 C   0  0  0  0  0  0  0  0  0  0  0  0
   -1.1911    0.6878    0.0025 C   0  0  0  0  0  0  0  0  0  0  0  0
   -2.0599    1.1796    0.0068 H   0  0  0  0  0  0  0  0  0  0  0  0
   -1.1949   -0.6940    0.0000 C   0  0  0  0  0  0  0  0  0  0  0  0
   -2.0725   -1.1902   -0.0001 H   0  0  0  0  0  0  0  0  0  0  0  0
    0.0008   -1.3848   -0.0002 C   0  0  0  0  0  0  0  0  0  0  0  0
   -0.0025   -2.3865   -0.0006 H   0  0  0  0  0  0  0  0  0  0  0  0
    1.1949   -0.6926   -0.0000 C   0  0  0  0  0  0  0  0  0  0  0  0
    2.0784   -1.1923    0.0006 H   0  0  0  0  0  0  0  0  0  0  0  0
    1.1913    0.6890    0.0006 C   0  0  0  0  0  0  0  0  0  0  0  0
    2.0608    1.1883    0.0027 H   0  0  0  0  0  0  0  0  0  0  0  0
  1  5  1  0
  5  6  1  0
  5  7  2  0
  1  2  1  0
  1  3  1  0
  1  4  1  0
  8 12  1  0
 12 13  2  0
 13 15  1  0
 15 17  2  0
 17 19  1  0
 19 21  2  0
 21 12  1  0
  8  9  1  0
  8 10  1  0
  8 11  1  0
 13 14  1  0
 15 16  1  0
 17 18  1  0
 19 20  1  0
 21 22  1  0
M  CHG  1   6  -1
M  END
>  <PDB_ID>  (2711) 
pdb5yvu

>  <RESIDUE_NAME>  (2711) 
ASP   PHE

>  <FRAG_NAME>  (2711) 
ACET   MBZ

>  <FRAG_ATOM_NUM>  (2711) 
fragi: 7  fragj: 15

>  <atom.prop.CHAIN_ID>  (2711) 
A A A A A A A Z Z Z Z Z Z Z Z Z Z Z Z Z Z Z

>  <atom.prop.IS_HEAVY_ATOM>  (2711) 
1 0 0 0 1 1 1 1 0 0 0 1 1 0 1 0 1 0 1 0 1 0

>  <DIFUSE_FUNC_ATOM>  (2711) 
atom 6   atom 7   

>  <FINAL_SINGLE_POINT_ENERGY>  (2711) 
0

>  <NONCOV_INTER_ENERGY_QM>  (2711) 
0

>  <FF_Energy>  (2711) 
-1.22

>  <QM_Energy>  (2711) 
-6.5

>  <source>  (2711) 
ACET_MBZ_03

>  <Index>  (2711) 
7533

$$$$
ACET-pdb5yw2-C-ASP-32:MBZ-pdb5yw2-C-PHE-5
     RDKit          3D

 22 21  0  0  0  0  0  0  0  0999 V2000
    0.8611   -5.4632    2.0549 C   0  0  0  0  0  0  0  0  0  0  0  0
    0.5064   -5.2738    2.9653 H   0  0  0  0  0  0  0  0  0  0  0  0
    1.6984   -4.9507    1.8976 H   0  0  0  0  0  0  0  0  0  0  0  0
    1.0865   -6.5273    1.9844 H   0  0  0  0  0  0  0  0  0  0  0  0
   -0.1891   -4.9851    1.0280 C   0  0  0  0  0  0  0  0  0  0  0  0
    0.1810   -4.5842   -0.1044 O   0  0  0  0  0  1  0  0  0  0  0  0
   -1.3867   -4.9203    1.3973 O   0  0  0  0  0  0  0  0  0  0  0  0
    0.0017    2.9056   -0.0139 C   0  0  0  0  0  0  0  0  0  0  0  0
   -0.7650    3.2073   -0.5682 H   0  0  0  0  0  0  0  0  0  0  0  0
    0.8600    3.2117   -0.4078 H   0  0  0  0  0  0  0  0  0  0  0  0
   -0.0961    3.3758    0.9647 H   0  0  0  0  0  0  0  0  0  0  0  0
    0.0039    1.4087    0.0053 C   0  0  0  0  0  0  0  0  0  0  0  0
   -1.2038    0.6892    0.0165 C   0  0  0  0  0  0  0  0  0  0  0  0
   -2.0655    1.1830    0.0353 H   0  0  0  0  0  0  0  0  0  0  0  0
   -1.2047   -0.6993   -0.0000 C   0  0  0  0  0  0  0  0  0  0  0  0
   -2.0809   -1.1954   -0.0038 H   0  0  0  0  0  0  0  0  0  0  0  0
   -0.0048   -1.3902   -0.0090 C   0  0  0  0  0  0  0  0  0  0  0  0
   -0.0082   -2.3938   -0.0227 H   0  0  0  0  0  0  0  0  0  0  0  0
    1.2047   -0.7027   -0.0000 C   0  0  0  0  0  0  0  0  0  0  0  0
    2.0807   -1.2023    0.0172 H   0  0  0  0  0  0  0  0  0  0  0  0
    1.2047    0.6942   -0.0128 C   0  0  0  0  0  0  0  0  0  0  0  0
    2.0722    1.1875   -0.0359 H   0  0  0  0  0  0  0  0  0  0  0  0
  1  5  1  0
  5  6  1  0
  5  7  2  0
  1  2  1  0
  1  3  1  0
  1  4  1  0
  8 12  1  0
 12 13  2  0
 13 15  1  0
 15 17  2  0
 17 19  1  0
 19 21  2  0
 21 12  1  0
  8  9  1  0
  8 10  1  0
  8 11  1  0
 13 14  1  0
 15 16  1  0
 17 18  1  0
 19 20  1  0
 21 22  1  0
M  CHG  1   6  -1
M  END
>  <PDB_ID>  (2712) 
pdb5yw2

>  <RESIDUE_NAME>  (2712) 
ASP   PHE

>  <FRAG_NAME>  (2712) 
ACET   MBZ

>  <FRAG_ATOM_NUM>  (2712) 
fragi: 7  fragj: 15

>  <atom.prop.CHAIN_ID>  (2712) 
A A A A A A A Z Z Z Z Z Z Z Z Z Z Z Z Z Z Z

>  <atom.prop.IS_HEAVY_ATOM>  (2712) 
1 0 0 0 1 1 1 1 0 0 0 1 1 0 1 0 1 0 1 0 1 0

>  <DIFUSE_FUNC_ATOM>  (2712) 
atom 6   atom 7   

>  <FINAL_SINGLE_POINT_ENERGY>  (2712) 
0

>  <NONCOV_INTER_ENERGY_QM>  (2712) 
0

>  <FF_Energy>  (2712) 
-1.2

>  <QM_Energy>  (2712) 
-6.27

>  <source>  (2712) 
ACET_MBZ_03

>  <Index>  (2712) 
7541

$$$$
ACET-pdb5yyb-A-ASP-22:MBZ-pdb5yyb-A-PHE-157
     RDKit          3D

 22 21  0  0  0  0  0  0  0  0999 V2000
    4.4443   -0.2227    2.0576 C   0  0  0  0  0  0  0  0  0  0  0  0
    3.9100    0.6048    2.1621 H   0  0  0  0  0  0  0  0  0  0  0  0
    5.3685   -0.0927    2.3881 H   0  0  0  0  0  0  0  0  0  0  0  0
    3.9757   -1.0115    2.6461 H   0  0  0  0  0  0  0  0  0  0  0  0
    4.5106   -0.5677    0.5633 C   0  0  0  0  0  0  0  0  0  0  0  0
    4.3411   -1.7521    0.1924 O   0  0  0  0  0  1  0  0  0  0  0  0
    4.7453    0.3499   -0.2504 O   0  0  0  0  0  0  0  0  0  0  0  0
    0.0054    2.9198   -0.0357 C   0  0  0  0  0  0  0  0  0  0  0  0
   -0.6995    3.2037   -0.6735 H   0  0  0  0  0  0  0  0  0  0  0  0
    0.9009    3.2059   -0.3510 H   0  0  0  0  0  0  0  0  0  0  0  0
   -0.1872    3.4132    0.9170 H   0  0  0  0  0  0  0  0  0  0  0  0
   -0.0010    1.3996    0.0087 C   0  0  0  0  0  0  0  0  0  0  0  0
   -1.1902    0.6938   -0.0036 C   0  0  0  0  0  0  0  0  0  0  0  0
   -2.0601    1.1859   -0.0170 H   0  0  0  0  0  0  0  0  0  0  0  0
   -1.1973   -0.6893   -0.0000 C   0  0  0  0  0  0  0  0  0  0  0  0
   -2.0763   -1.1833    0.0036 H   0  0  0  0  0  0  0  0  0  0  0  0
   -0.0021   -1.3878    0.0009 C   0  0  0  0  0  0  0  0  0  0  0  0
   -0.0116   -2.3885    0.0017 H   0  0  0  0  0  0  0  0  0  0  0  0
    1.1973   -0.7006   -0.0000 C   0  0  0  0  0  0  0  0  0  0  0  0
    2.0769   -1.2009    0.0052 H   0  0  0  0  0  0  0  0  0  0  0  0
    1.1933    0.6844   -0.0060 C   0  0  0  0  0  0  0  0  0  0  0  0
    2.0632    1.1829   -0.0219 H   0  0  0  0  0  0  0  0  0  0  0  0
  1  5  1  0
  5  6  1  0
  5  7  2  0
  1  2  1  0
  1  3  1  0
  1  4  1  0
  8 12  1  0
 12 13  2  0
 13 15  1  0
 15 17  2  0
 17 19  1  0
 19 21  2  0
 21 12  1  0
  8  9  1  0
  8 10  1  0
  8 11  1  0
 13 14  1  0
 15 16  1  0
 17 18  1  0
 19 20  1  0
 21 22  1  0
M  CHG  1   6  -1
M  END
>  <PDB_ID>  (2713) 
pdb5yyb

>  <RESIDUE_NAME>  (2713) 
ASP   PHE

>  <FRAG_NAME>  (2713) 
ACET   MBZ

>  <FRAG_ATOM_NUM>  (2713) 
fragi: 7  fragj: 15

>  <atom.prop.CHAIN_ID>  (2713) 
A A A A A A A Z Z Z Z Z Z Z Z Z Z Z Z Z Z Z

>  <atom.prop.IS_HEAVY_ATOM>  (2713) 
1 0 0 0 1 1 1 1 0 0 0 1 1 0 1 0 1 0 1 0 1 0

>  <DIFUSE_FUNC_ATOM>  (2713) 
atom 6   atom 7   

>  <FINAL_SINGLE_POINT_ENERGY>  (2713) 
0

>  <NONCOV_INTER_ENERGY_QM>  (2713) 
0

>  <FF_Energy>  (2713) 
-2.38

>  <QM_Energy>  (2713) 
-7.52

>  <source>  (2713) 
ACET_MBZ_03

>  <Index>  (2713) 
7572

$$$$
ACET-pdb5z06-A-ASP-193:MBZ-pdb5z06-A-PHE-65
     RDKit          3D

 22 21  0  0  0  0  0  0  0  0999 V2000
    4.4775    3.2480   -2.8513 C   0  0  0  0  0  0  0  0  0  0  0  0
    3.6083    3.1140   -3.3113 H   0  0  0  0  0  0  0  0  0  0  0  0
    5.0979    2.4997   -3.0477 H   0  0  0  0  0  0  0  0  0  0  0  0
    4.9237    4.1723   -3.2185 H   0  0  0  0  0  0  0  0  0  0  0  0
    4.2461    3.3175   -1.3827 C   0  0  0  0  0  0  0  0  0  0  0  0
    5.1991    3.6893   -0.6673 O   0  0  0  0  0  1  0  0  0  0  0  0
    3.1161    3.0692   -0.9477 O   0  0  0  0  0  0  0  0  0  0  0  0
   -0.0361    2.8615    0.0887 C   0  0  0  0  0  0  0  0  0  0  0  0
   -0.7762    3.2000   -0.4614 H   0  0  0  0  0  0  0  0  0  0  0  0
    0.8350    3.2181   -0.1938 H   0  0  0  0  0  0  0  0  0  0  0  0
   -0.2098    3.1861    1.1145 H   0  0  0  0  0  0  0  0  0  0  0  0
   -0.0025    1.3878   -0.0145 C   0  0  0  0  0  0  0  0  0  0  0  0
   -1.2021    0.6796    0.0098 C   0  0  0  0  0  0  0  0  0  0  0  0
   -2.0652    1.1767    0.0335 H   0  0  0  0  0  0  0  0  0  0  0  0
   -1.2050   -0.6964   -0.0000 C   0  0  0  0  0  0  0  0  0  0  0  0
   -2.0749   -1.1997    0.0022 H   0  0  0  0  0  0  0  0  0  0  0  0
    0.0007   -1.3782   -0.0118 C   0  0  0  0  0  0  0  0  0  0  0  0
    0.0025   -2.3822   -0.0296 H   0  0  0  0  0  0  0  0  0  0  0  0
    1.2050   -0.6846    0.0000 C   0  0  0  0  0  0  0  0  0  0  0  0
    2.0829   -1.1921   -0.0025 H   0  0  0  0  0  0  0  0  0  0  0  0
    1.2039    0.6918    0.0165 C   0  0  0  0  0  0  0  0  0  0  0  0
    2.0616    1.1970    0.0492 H   0  0  0  0  0  0  0  0  0  0  0  0
  1  5  1  0
  5  6  1  0
  5  7  2  0
  1  2  1  0
  1  3  1  0
  1  4  1  0
  8 12  1  0
 12 13  2  0
 13 15  1  0
 15 17  2  0
 17 19  1  0
 19 21  2  0
 21 12  1  0
  8  9  1  0
  8 10  1  0
  8 11  1  0
 13 14  1  0
 15 16  1  0
 17 18  1  0
 19 20  1  0
 21 22  1  0
M  CHG  1   6  -1
M  END
>  <PDB_ID>  (2714) 
pdb5z06

>  <RESIDUE_NAME>  (2714) 
ASP   PHE

>  <FRAG_NAME>  (2714) 
ACET   MBZ

>  <FRAG_ATOM_NUM>  (2714) 
fragi: 7  fragj: 15

>  <atom.prop.CHAIN_ID>  (2714) 
A A A A A A A Z Z Z Z Z Z Z Z Z Z Z Z Z Z Z

>  <atom.prop.IS_HEAVY_ATOM>  (2714) 
1 0 0 0 1 1 1 1 0 0 0 1 1 0 1 0 1 0 1 0 1 0

>  <DIFUSE_FUNC_ATOM>  (2714) 
atom 6   atom 7   

>  <FINAL_SINGLE_POINT_ENERGY>  (2714) 
0

>  <NONCOV_INTER_ENERGY_QM>  (2714) 
0

>  <FF_Energy>  (2714) 
-1.18

>  <QM_Energy>  (2714) 
-8.06

>  <source>  (2714) 
ACET_MBZ_03

>  <Index>  (2714) 
7675

$$$$
ACET-pdb5z1z-D-ASP-265:MBZ-pdb5z1z-C-PHE-132
     RDKit          3D

 22 21  0  0  0  0  0  0  0  0999 V2000
    0.9661    0.3093    3.3568 C   0  0  0  0  0  0  0  0  0  0  0  0
    1.5381   -0.5077    3.3098 H   0  0  0  0  0  0  0  0  0  0  0  0
    0.3039    0.3003    2.6106 H   0  0  0  0  0  0  0  0  0  0  0  0
    0.4177    0.2855    4.2984 H   0  0  0  0  0  0  0  0  0  0  0  0
    1.8551    1.5301    3.1995 C   0  0  0  0  0  0  0  0  0  0  0  0
    1.3433    2.6400    3.4512 O   0  0  0  0  0  1  0  0  0  0  0  0
    3.0470    1.3853    2.7484 O   0  0  0  0  0  0  0  0  0  0  0  0
   -0.0125    2.8884   -0.0450 C   0  0  0  0  0  0  0  0  0  0  0  0
    0.8177    3.2252    0.3571 H   0  0  0  0  0  0  0  0  0  0  0  0
   -0.8136    3.2170    0.4189 H   0  0  0  0  0  0  0  0  0  0  0  0
   -0.0528    3.2693   -1.0654 H   0  0  0  0  0  0  0  0  0  0  0  0
   -0.0034    1.3960    0.0108 C   0  0  0  0  0  0  0  0  0  0  0  0
   -1.1818    0.6737   -0.0153 C   0  0  0  0  0  0  0  0  0  0  0  0
   -2.0583    1.1618   -0.0474 H   0  0  0  0  0  0  0  0  0  0  0  0
   -1.1800   -0.7026   -0.0000 C   0  0  0  0  0  0  0  0  0  0  0  0
   -2.0639   -1.1983    0.0157 H   0  0  0  0  0  0  0  0  0  0  0  0
    0.0000   -1.3816   -0.0046 C   0  0  0  0  0  0  0  0  0  0  0  0
    0.0059   -2.3861   -0.0116 H   0  0  0  0  0  0  0  0  0  0  0  0
    1.1800   -0.6854    0.0000 C   0  0  0  0  0  0  0  0  0  0  0  0
    2.0731   -1.1824   -0.0023 H   0  0  0  0  0  0  0  0  0  0  0  0
    1.1853    0.6999    0.0091 C   0  0  0  0  0  0  0  0  0  0  0  0
    2.0548    1.1909    0.0140 H   0  0  0  0  0  0  0  0  0  0  0  0
  1  5  1  0
  5  6  1  0
  5  7  2  0
  1  2  1  0
  1  3  1  0
  1  4  1  0
  8 12  1  0
 12 13  2  0
 13 15  1  0
 15 17  2  0
 17 19  1  0
 19 21  2  0
 21 12  1  0
  8  9  1  0
  8 10  1  0
  8 11  1  0
 13 14  1  0
 15 16  1  0
 17 18  1  0
 19 20  1  0
 21 22  1  0
M  CHG  1   6  -1
M  END
>  <PDB_ID>  (2715) 
pdb5z1z

>  <RESIDUE_NAME>  (2715) 
ASP   PHE

>  <FRAG_NAME>  (2715) 
ACET   MBZ

>  <FRAG_ATOM_NUM>  (2715) 
fragi: 7  fragj: 15

>  <atom.prop.CHAIN_ID>  (2715) 
A A A A A A A Z Z Z Z Z Z Z Z Z Z Z Z Z Z Z

>  <atom.prop.IS_HEAVY_ATOM>  (2715) 
1 0 0 0 1 1 1 1 0 0 0 1 1 0 1 0 1 0 1 0 1 0

>  <DIFUSE_FUNC_ATOM>  (2715) 
atom 6   atom 7   

>  <FINAL_SINGLE_POINT_ENERGY>  (2715) 
0

>  <NONCOV_INTER_ENERGY_QM>  (2715) 
0

>  <FF_Energy>  (2715) 
-0.41

>  <QM_Energy>  (2715) 
-5.63

>  <source>  (2715) 
ACET_MBZ_03

>  <Index>  (2715) 
7694

$$$$
ACET-pdb5z2x-B-GLU-214:MBZ-pdb5z2x-B-PHE-86
     RDKit          3D

 22 21  0  0  0  0  0  0  0  0999 V2000
    1.3909    1.5293   -4.4450 C   0  0  0  0  0  0  0  0  0  0  0  0
    1.6240    1.9292   -5.3137 H   0  0  0  0  0  0  0  0  0  0  0  0
    0.4396    1.2820   -4.3962 H   0  0  0  0  0  0  0  0  0  0  0  0
    1.9941    0.6330   -4.3003 H   0  0  0  0  0  0  0  0  0  0  0  0
    1.6392    2.5815   -3.3820 C   0  0  0  0  0  0  0  0  0  0  0  0
    2.5148    2.3856   -2.5059 O   0  0  0  0  0  1  0  0  0  0  0  0
    0.9310    3.5968   -3.4131 O   0  0  0  0  0  0  0  0  0  0  0  0
   -0.0008    2.9196    0.0131 C   0  0  0  0  0  0  0  0  0  0  0  0
    0.7818    3.2267   -0.5031 H   0  0  0  0  0  0  0  0  0  0  0  0
    0.0479    3.2087    0.9554 H   0  0  0  0  0  0  0  0  0  0  0  0
   -0.8916    3.3650   -0.4298 H   0  0  0  0  0  0  0  0  0  0  0  0
   -0.0014    1.4045   -0.0056 C   0  0  0  0  0  0  0  0  0  0  0  0
   -1.1924    0.6909    0.0080 C   0  0  0  0  0  0  0  0  0  0  0  0
   -2.0633    1.1734    0.0223 H   0  0  0  0  0  0  0  0  0  0  0  0
   -1.1941   -0.7079    0.0000 C   0  0  0  0  0  0  0  0  0  0  0  0
   -2.0710   -1.1975   -0.0030 H   0  0  0  0  0  0  0  0  0  0  0  0
    0.0037   -1.3936   -0.0020 C   0  0  0  0  0  0  0  0  0  0  0  0
    0.0073   -2.3943   -0.0051 H   0  0  0  0  0  0  0  0  0  0  0  0
    1.1941   -0.6922    0.0000 C   0  0  0  0  0  0  0  0  0  0  0  0
    2.0822   -1.1858    0.0029 H   0  0  0  0  0  0  0  0  0  0  0  0
    1.1901    0.6983   -0.0005 C   0  0  0  0  0  0  0  0  0  0  0  0
    2.0603    1.1923    0.0020 H   0  0  0  0  0  0  0  0  0  0  0  0
  1  5  1  0
  5  6  1  0
  5  7  2  0
  1  2  1  0
  1  3  1  0
  1  4  1  0
  8 12  1  0
 12 13  2  0
 13 15  1  0
 15 17  2  0
 17 19  1  0
 19 21  2  0
 21 12  1  0
  8  9  1  0
  8 10  1  0
  8 11  1  0
 13 14  1  0
 15 16  1  0
 17 18  1  0
 19 20  1  0
 21 22  1  0
M  CHG  1   6  -1
M  END
>  <PDB_ID>  (2716) 
pdb5z2x

>  <RESIDUE_NAME>  (2716) 
GLU   PHE

>  <FRAG_NAME>  (2716) 
ACET   MBZ

>  <FRAG_ATOM_NUM>  (2716) 
fragi: 7  fragj: 15

>  <atom.prop.CHAIN_ID>  (2716) 
A A A A A A A Z Z Z Z Z Z Z Z Z Z Z Z Z Z Z

>  <atom.prop.IS_HEAVY_ATOM>  (2716) 
1 0 0 0 1 1 1 1 0 0 0 1 1 0 1 0 1 0 1 0 1 0

>  <DIFUSE_FUNC_ATOM>  (2716) 
atom 6   atom 7   

>  <FINAL_SINGLE_POINT_ENERGY>  (2716) 
0

>  <NONCOV_INTER_ENERGY_QM>  (2716) 
0

>  <FF_Energy>  (2716) 
-0.89

>  <QM_Energy>  (2716) 
-6.59

>  <source>  (2716) 
ACET_MBZ_03

>  <Index>  (2716) 
7780

$$$$
ACET-pdb5z34-A-ASP-234:MBZ-pdb5z34-A-PHE-248
     RDKit          3D

 22 21  0  0  0  0  0  0  0  0999 V2000
    3.3207    5.5152   -0.8142 C   0  0  0  0  0  0  0  0  0  0  0  0
    2.3656    5.6904   -1.0368 H   0  0  0  0  0  0  0  0  0  0  0  0
    3.8840    5.6078   -1.6302 H   0  0  0  0  0  0  0  0  0  0  0  0
    3.6430    6.2667   -0.0935 H   0  0  0  0  0  0  0  0  0  0  0  0
    3.4405    4.0735   -0.3059 C   0  0  0  0  0  0  0  0  0  0  0  0
    3.8128    3.8323    0.8622 O   0  0  0  0  0  1  0  0  0  0  0  0
    3.1521    3.1602   -1.1077 O   0  0  0  0  0  0  0  0  0  0  0  0
   -0.0036    2.8845   -0.0009 C   0  0  0  0  0  0  0  0  0  0  0  0
    0.9264    3.1960    0.1250 H   0  0  0  0  0  0  0  0  0  0  0  0
   -0.5891    3.1929    0.7332 H   0  0  0  0  0  0  0  0  0  0  0  0
   -0.3778    3.3143   -0.9300 H   0  0  0  0  0  0  0  0  0  0  0  0
    0.0001    1.3918    0.0020 C   0  0  0  0  0  0  0  0  0  0  0  0
   -1.1923    0.6870   -0.0011 C   0  0  0  0  0  0  0  0  0  0  0  0
   -2.0603    1.1799   -0.0056 H   0  0  0  0  0  0  0  0  0  0  0  0
   -1.1962   -0.6942   -0.0000 C   0  0  0  0  0  0  0  0  0  0  0  0
   -2.0740   -1.1913    0.0020 H   0  0  0  0  0  0  0  0  0  0  0  0
   -0.0005   -1.3844    0.0004 C   0  0  0  0  0  0  0  0  0  0  0  0
   -0.0020   -2.3862    0.0005 H   0  0  0  0  0  0  0  0  0  0  0  0
    1.1962   -0.6906    0.0000 C   0  0  0  0  0  0  0  0  0  0  0  0
    2.0785   -1.1922    0.0025 H   0  0  0  0  0  0  0  0  0  0  0  0
    1.1926    0.6904   -0.0012 C   0  0  0  0  0  0  0  0  0  0  0  0
    2.0608    1.1892   -0.0051 H   0  0  0  0  0  0  0  0  0  0  0  0
  1  5  1  0
  5  6  1  0
  5  7  2  0
  1  2  1  0
  1  3  1  0
  1  4  1  0
  8 12  1  0
 12 13  2  0
 13 15  1  0
 15 17  2  0
 17 19  1  0
 19 21  2  0
 21 12  1  0
  8  9  1  0
  8 10  1  0
  8 11  1  0
 13 14  1  0
 15 16  1  0
 17 18  1  0
 19 20  1  0
 21 22  1  0
M  CHG  1   6  -1
M  END
>  <PDB_ID>  (2717) 
pdb5z34

>  <RESIDUE_NAME>  (2717) 
ASP   PHE

>  <FRAG_NAME>  (2717) 
ACET   MBZ

>  <FRAG_ATOM_NUM>  (2717) 
fragi: 7  fragj: 15

>  <atom.prop.CHAIN_ID>  (2717) 
A A A A A A A Z Z Z Z Z Z Z Z Z Z Z Z Z Z Z

>  <atom.prop.IS_HEAVY_ATOM>  (2717) 
1 0 0 0 1 1 1 1 0 0 0 1 1 0 1 0 1 0 1 0 1 0

>  <DIFUSE_FUNC_ATOM>  (2717) 
atom 6   atom 7   

>  <FINAL_SINGLE_POINT_ENERGY>  (2717) 
0

>  <NONCOV_INTER_ENERGY_QM>  (2717) 
0

>  <FF_Energy>  (2717) 
-2.03

>  <QM_Energy>  (2717) 
-8.27

>  <source>  (2717) 
ACET_MBZ_03

>  <Index>  (2717) 
7844

$$$$
ACET-pdb5z06-B-ASP-193:MBZ-pdb5z06-B-PHE-65
     RDKit          3D

 22 21  0  0  0  0  0  0  0  0999 V2000
    4.5441    3.2134   -2.7643 C   0  0  0  0  0  0  0  0  0  0  0  0
    3.6794    3.1411   -3.2426 H   0  0  0  0  0  0  0  0  0  0  0  0
    5.1242    2.4352   -2.9623 H   0  0  0  0  0  0  0  0  0  0  0  0
    5.0511    4.1155   -3.1068 H   0  0  0  0  0  0  0  0  0  0  0  0
    4.2811    3.2634   -1.2860 C   0  0  0  0  0  0  0  0  0  0  0  0
    5.1948    3.6799   -0.5427 O   0  0  0  0  0  1  0  0  0  0  0  0
    3.1618    2.9287   -0.8785 O   0  0  0  0  0  0  0  0  0  0  0  0
   -0.0303    2.8753    0.0544 C   0  0  0  0  0  0  0  0  0  0  0  0
   -0.7660    3.1991   -0.5126 H   0  0  0  0  0  0  0  0  0  0  0  0
    0.8436    3.2185   -0.2376 H   0  0  0  0  0  0  0  0  0  0  0  0
   -0.2075    3.2309    1.0694 H   0  0  0  0  0  0  0  0  0  0  0  0
   -0.0005    1.3917   -0.0155 C   0  0  0  0  0  0  0  0  0  0  0  0
   -1.2005    0.6840    0.0107 C   0  0  0  0  0  0  0  0  0  0  0  0
   -2.0637    1.1812    0.0361 H   0  0  0  0  0  0  0  0  0  0  0  0
   -1.2072   -0.6954   -0.0000 C   0  0  0  0  0  0  0  0  0  0  0  0
   -2.0802   -1.1944   -0.0042 H   0  0  0  0  0  0  0  0  0  0  0  0
   -0.0040   -1.3833   -0.0024 C   0  0  0  0  0  0  0  0  0  0  0  0
   -0.0022   -2.3856   -0.0067 H   0  0  0  0  0  0  0  0  0  0  0  0
    1.2072   -0.6896    0.0000 C   0  0  0  0  0  0  0  0  0  0  0  0
    2.0824   -1.1959   -0.0021 H   0  0  0  0  0  0  0  0  0  0  0  0
    1.2050    0.6927    0.0072 C   0  0  0  0  0  0  0  0  0  0  0  0
    2.0648    1.1952    0.0280 H   0  0  0  0  0  0  0  0  0  0  0  0
  1  5  1  0
  5  6  1  0
  5  7  2  0
  1  2  1  0
  1  3  1  0
  1  4  1  0
  8 12  1  0
 12 13  2  0
 13 15  1  0
 15 17  2  0
 17 19  1  0
 19 21  2  0
 21 12  1  0
  8  9  1  0
  8 10  1  0
  8 11  1  0
 13 14  1  0
 15 16  1  0
 17 18  1  0
 19 20  1  0
 21 22  1  0
M  CHG  1   6  -1
M  END
>  <PDB_ID>  (2718) 
pdb5z06

>  <RESIDUE_NAME>  (2718) 
ASP   PHE

>  <FRAG_NAME>  (2718) 
ACET   MBZ

>  <FRAG_ATOM_NUM>  (2718) 
fragi: 7  fragj: 15

>  <atom.prop.CHAIN_ID>  (2718) 
A A A A A A A Z Z Z Z Z Z Z Z Z Z Z Z Z Z Z

>  <atom.prop.IS_HEAVY_ATOM>  (2718) 
1 0 0 0 1 1 1 1 0 0 0 1 1 0 1 0 1 0 1 0 1 0

>  <DIFUSE_FUNC_ATOM>  (2718) 
atom 6   atom 7   

>  <FINAL_SINGLE_POINT_ENERGY>  (2718) 
0

>  <NONCOV_INTER_ENERGY_QM>  (2718) 
0

>  <FF_Energy>  (2718) 
-0.37

>  <QM_Energy>  (2718) 
-8.16

>  <source>  (2718) 
ACET_MBZ_03

>  <Index>  (2718) 
7966

$$$$
ACET-pdb5zai-B-ASP-240:MBZ-pdb5zai-B-PHE-256
     RDKit          3D

 22 21  0  0  0  0  0  0  0  0999 V2000
   -3.9234    2.1358    1.9302 C   0  0  0  0  0  0  0  0  0  0  0  0
   -4.3079    2.3157    2.8335 H   0  0  0  0  0  0  0  0  0  0  0  0
   -3.2015    1.4508    2.0017 H   0  0  0  0  0  0  0  0  0  0  0  0
   -4.7156    1.7243    1.3047 H   0  0  0  0  0  0  0  0  0  0  0  0
   -3.3190    3.4249    1.3952 C   0  0  0  0  0  0  0  0  0  0  0  0
   -3.4543    3.6585    0.1768 O   0  0  0  0  0  1  0  0  0  0  0  0
   -2.6933    4.1869    2.1905 O   0  0  0  0  0  0  0  0  0  0  0  0
   -0.0068    2.9107   -0.0235 C   0  0  0  0  0  0  0  0  0  0  0  0
    0.9281    3.2182    0.0434 H   0  0  0  0  0  0  0  0  0  0  0  0
   -0.5518    3.2259    0.7357 H   0  0  0  0  0  0  0  0  0  0  0  0
   -0.4317    3.3302   -0.9353 H   0  0  0  0  0  0  0  0  0  0  0  0
   -0.0033    1.4010    0.0001 C   0  0  0  0  0  0  0  0  0  0  0  0
   -1.1859    0.6901   -0.0151 C   0  0  0  0  0  0  0  0  0  0  0  0
   -2.0592    1.1750   -0.0384 H   0  0  0  0  0  0  0  0  0  0  0  0
   -1.1827   -0.6928    0.0000 C   0  0  0  0  0  0  0  0  0  0  0  0
   -2.0666   -1.1878    0.0125 H   0  0  0  0  0  0  0  0  0  0  0  0
    0.0036   -1.3839   -0.0007 C   0  0  0  0  0  0  0  0  0  0  0  0
   -0.0053   -2.3878   -0.0022 H   0  0  0  0  0  0  0  0  0  0  0  0
    1.1827   -0.6985   -0.0000 C   0  0  0  0  0  0  0  0  0  0  0  0
    2.0735   -1.1957   -0.0094 H   0  0  0  0  0  0  0  0  0  0  0  0
    1.1856    0.6840    0.0157 C   0  0  0  0  0  0  0  0  0  0  0  0
    2.0574    1.1781    0.0379 H   0  0  0  0  0  0  0  0  0  0  0  0
  1  5  1  0
  5  6  1  0
  5  7  2  0
  1  2  1  0
  1  3  1  0
  1  4  1  0
  8 12  1  0
 12 13  2  0
 13 15  1  0
 15 17  2  0
 17 19  1  0
 19 21  2  0
 21 12  1  0
  8  9  1  0
  8 10  1  0
  8 11  1  0
 13 14  1  0
 15 16  1  0
 17 18  1  0
 19 20  1  0
 21 22  1  0
M  CHG  1   6  -1
M  END
>  <PDB_ID>  (2719) 
pdb5zai

>  <RESIDUE_NAME>  (2719) 
ASP   PHE

>  <FRAG_NAME>  (2719) 
ACET   MBZ

>  <FRAG_ATOM_NUM>  (2719) 
fragi: 7  fragj: 15

>  <atom.prop.CHAIN_ID>  (2719) 
A A A A A A A Z Z Z Z Z Z Z Z Z Z Z Z Z Z Z

>  <atom.prop.IS_HEAVY_ATOM>  (2719) 
1 0 0 0 1 1 1 1 0 0 0 1 1 0 1 0 1 0 1 0 1 0

>  <DIFUSE_FUNC_ATOM>  (2719) 
atom 6   atom 7   

>  <FINAL_SINGLE_POINT_ENERGY>  (2719) 
0

>  <NONCOV_INTER_ENERGY_QM>  (2719) 
0

>  <FF_Energy>  (2719) 
-2.43

>  <QM_Energy>  (2719) 
-7.76

>  <source>  (2719) 
ACET_MBZ_03

>  <Index>  (2719) 
7990

$$$$
ACET-pdb5zb2-B-GLU-17:MBZ-pdb5zb2-B-PHE-5
     RDKit          3D

 22 21  0  0  0  0  0  0  0  0999 V2000
    2.9754    3.2891    4.0628 C   0  0  0  0  0  0  0  0  0  0  0  0
    2.8726    4.2518    4.2296 H   0  0  0  0  0  0  0  0  0  0  0  0
    3.6221    2.8716    4.6727 H   0  0  0  0  0  0  0  0  0  0  0  0
    2.0069    2.8108    4.2086 H   0  0  0  0  0  0  0  0  0  0  0  0
    3.5036    3.1219    2.6499 C   0  0  0  0  0  0  0  0  0  0  0  0
    2.7199    3.3012    1.6938 O   0  0  0  0  0  1  0  0  0  0  0  0
    4.7015    2.8062    2.4949 O   0  0  0  0  0  0  0  0  0  0  0  0
    0.0158    2.9065    0.0047 C   0  0  0  0  0  0  0  0  0  0  0  0
    0.8143    3.2063   -0.4974 H   0  0  0  0  0  0  0  0  0  0  0  0
    0.0520    3.2067    0.9463 H   0  0  0  0  0  0  0  0  0  0  0  0
   -0.8579    3.3675   -0.4560 H   0  0  0  0  0  0  0  0  0  0  0  0
    0.0003    1.3980   -0.0026 C   0  0  0  0  0  0  0  0  0  0  0  0
   -1.1919    0.6885    0.0017 C   0  0  0  0  0  0  0  0  0  0  0  0
   -2.0602    1.1803    0.0048 H   0  0  0  0  0  0  0  0  0  0  0  0
   -1.1943   -0.6945    0.0000 C   0  0  0  0  0  0  0  0  0  0  0  0
   -2.0727   -1.1903    0.0008 H   0  0  0  0  0  0  0  0  0  0  0  0
    0.0003   -1.3859   -0.0005 C   0  0  0  0  0  0  0  0  0  0  0  0
   -0.0038   -2.3879   -0.0019 H   0  0  0  0  0  0  0  0  0  0  0  0
    1.1943   -0.6943   -0.0000 C   0  0  0  0  0  0  0  0  0  0  0  0
    2.0776   -1.1940    0.0003 H   0  0  0  0  0  0  0  0  0  0  0  0
    1.1913    0.6883    0.0014 C   0  0  0  0  0  0  0  0  0  0  0  0
    2.0617    1.1859    0.0048 H   0  0  0  0  0  0  0  0  0  0  0  0
  1  5  1  0
  5  6  1  0
  5  7  2  0
  1  2  1  0
  1  3  1  0
  1  4  1  0
  8 12  1  0
 12 13  2  0
 13 15  1  0
 15 17  2  0
 17 19  1  0
 19 21  2  0
 21 12  1  0
  8  9  1  0
  8 10  1  0
  8 11  1  0
 13 14  1  0
 15 16  1  0
 17 18  1  0
 19 20  1  0
 21 22  1  0
M  CHG  1   6  -1
M  END
>  <PDB_ID>  (2720) 
pdb5zb2

>  <RESIDUE_NAME>  (2720) 
GLU   PHE

>  <FRAG_NAME>  (2720) 
ACET   MBZ

>  <FRAG_ATOM_NUM>  (2720) 
fragi: 7  fragj: 15

>  <atom.prop.CHAIN_ID>  (2720) 
A A A A A A A Z Z Z Z Z Z Z Z Z Z Z Z Z Z Z

>  <atom.prop.IS_HEAVY_ATOM>  (2720) 
1 0 0 0 1 1 1 1 0 0 0 1 1 0 1 0 1 0 1 0 1 0

>  <DIFUSE_FUNC_ATOM>  (2720) 
atom 6   atom 7   

>  <FINAL_SINGLE_POINT_ENERGY>  (2720) 
0

>  <NONCOV_INTER_ENERGY_QM>  (2720) 
0

>  <FF_Energy>  (2720) 
-1.32

>  <QM_Energy>  (2720) 
-6.64

>  <source>  (2720) 
ACET_MBZ_03

>  <Index>  (2720) 
7996

$$$$
ACET-pdb5zai-A-GLU-35:MBZ-pdb5zai-A-PHE-3
     RDKit          3D

 22 21  0  0  0  0  0  0  0  0999 V2000
   -4.0521    2.3901    1.6051 C   0  0  0  0  0  0  0  0  0  0  0  0
   -4.1278    1.7207    0.8843 H   0  0  0  0  0  0  0  0  0  0  0  0
   -4.9392    2.6623    1.9424 H   0  0  0  0  0  0  0  0  0  0  0  0
   -3.4896    1.9484    2.4276 H   0  0  0  0  0  0  0  0  0  0  0  0
   -3.3968    3.6289    1.0059 C   0  0  0  0  0  0  0  0  0  0  0  0
   -2.7510    4.4063    1.7745 O   0  0  0  0  0  1  0  0  0  0  0  0
   -3.4999    3.7996   -0.2411 O   0  0  0  0  0  0  0  0  0  0  0  0
   -0.0081    2.8975    0.0260 C   0  0  0  0  0  0  0  0  0  0  0  0
    0.8535    3.2027    0.4110 H   0  0  0  0  0  0  0  0  0  0  0  0
   -0.7702    3.1935    0.5863 H   0  0  0  0  0  0  0  0  0  0  0  0
   -0.1168    3.3627   -0.9538 H   0  0  0  0  0  0  0  0  0  0  0  0
   -0.0017    1.3940    0.0067 C   0  0  0  0  0  0  0  0  0  0  0  0
   -1.1895    0.6853    0.0065 C   0  0  0  0  0  0  0  0  0  0  0  0
   -2.0600    1.1746    0.0095 H   0  0  0  0  0  0  0  0  0  0  0  0
   -1.1900   -0.6973    0.0000 C   0  0  0  0  0  0  0  0  0  0  0  0
   -2.0698   -1.1931    0.0008 H   0  0  0  0  0  0  0  0  0  0  0  0
    0.0012   -1.3833   -0.0059 C   0  0  0  0  0  0  0  0  0  0  0  0
   -0.0000   -2.3865   -0.0146 H   0  0  0  0  0  0  0  0  0  0  0  0
    1.1900   -0.6906    0.0000 C   0  0  0  0  0  0  0  0  0  0  0  0
    2.0772   -1.1895    0.0112 H   0  0  0  0  0  0  0  0  0  0  0  0
    1.1899    0.6919   -0.0074 C   0  0  0  0  0  0  0  0  0  0  0  0
    2.0588    1.1884   -0.0239 H   0  0  0  0  0  0  0  0  0  0  0  0
  1  5  1  0
  5  6  1  0
  5  7  2  0
  1  2  1  0
  1  3  1  0
  1  4  1  0
  8 12  1  0
 12 13  2  0
 13 15  1  0
 15 17  2  0
 17 19  1  0
 19 21  2  0
 21 12  1  0
  8  9  1  0
  8 10  1  0
  8 11  1  0
 13 14  1  0
 15 16  1  0
 17 18  1  0
 19 20  1  0
 21 22  1  0
M  CHG  1   6  -1
M  END
>  <PDB_ID>  (2721) 
pdb5zai

>  <RESIDUE_NAME>  (2721) 
GLU   PHE

>  <FRAG_NAME>  (2721) 
ACET   MBZ

>  <FRAG_ATOM_NUM>  (2721) 
fragi: 7  fragj: 15

>  <atom.prop.CHAIN_ID>  (2721) 
A A A A A A A Z Z Z Z Z Z Z Z Z Z Z Z Z Z Z

>  <atom.prop.IS_HEAVY_ATOM>  (2721) 
1 0 0 0 1 1 1 1 0 0 0 1 1 0 1 0 1 0 1 0 1 0

>  <DIFUSE_FUNC_ATOM>  (2721) 
atom 6   atom 7   

>  <FINAL_SINGLE_POINT_ENERGY>  (2721) 
0

>  <NONCOV_INTER_ENERGY_QM>  (2721) 
0

>  <FF_Energy>  (2721) 
-2.15

>  <QM_Energy>  (2721) 
-7.33

>  <source>  (2721) 
ACET_MBZ_03

>  <Index>  (2721) 
8001

$$$$
ACET-pdb5zai-C-GLU-35:MBZ-pdb5zai-C-PHE-3
     RDKit          3D

 22 21  0  0  0  0  0  0  0  0999 V2000
   -3.8607    2.4228    2.0316 C   0  0  0  0  0  0  0  0  0  0  0  0
   -4.0071    1.7128    1.3550 H   0  0  0  0  0  0  0  0  0  0  0  0
   -4.7255    2.7405    2.3996 H   0  0  0  0  0  0  0  0  0  0  0  0
   -3.2803    1.9954    2.8493 H   0  0  0  0  0  0  0  0  0  0  0  0
   -3.2103    3.6007    1.3198 C   0  0  0  0  0  0  0  0  0  0  0  0
   -2.5121    4.4094    1.9891 O   0  0  0  0  0  1  0  0  0  0  0  0
   -3.3714    3.6885    0.0801 O   0  0  0  0  0  0  0  0  0  0  0  0
    0.0110    2.9196    0.0206 C   0  0  0  0  0  0  0  0  0  0  0  0
    0.9255    3.2146    0.2823 H   0  0  0  0  0  0  0  0  0  0  0  0
   -0.6517    3.2169    0.7025 H   0  0  0  0  0  0  0  0  0  0  0  0
   -0.2382    3.4143   -0.9182 H   0  0  0  0  0  0  0  0  0  0  0  0
    0.0024    1.4084   -0.0023 C   0  0  0  0  0  0  0  0  0  0  0  0
   -1.1909    0.6952    0.0067 C   0  0  0  0  0  0  0  0  0  0  0  0
   -2.0594    1.1805    0.0167 H   0  0  0  0  0  0  0  0  0  0  0  0
   -1.1876   -0.6963   -0.0000 C   0  0  0  0  0  0  0  0  0  0  0  0
   -2.0736   -1.1865    0.0064 H   0  0  0  0  0  0  0  0  0  0  0  0
   -0.0031   -1.3921   -0.0131 C   0  0  0  0  0  0  0  0  0  0  0  0
   -0.0095   -2.3925   -0.0325 H   0  0  0  0  0  0  0  0  0  0  0  0
    1.1876   -0.7027   -0.0000 C   0  0  0  0  0  0  0  0  0  0  0  0
    2.0733   -1.2004    0.0050 H   0  0  0  0  0  0  0  0  0  0  0  0
    1.1916    0.6876    0.0087 C   0  0  0  0  0  0  0  0  0  0  0  0
    2.0649    1.1778    0.0230 H   0  0  0  0  0  0  0  0  0  0  0  0
  1  5  1  0
  5  6  1  0
  5  7  2  0
  1  2  1  0
  1  3  1  0
  1  4  1  0
  8 12  1  0
 12 13  2  0
 13 15  1  0
 15 17  2  0
 17 19  1  0
 19 21  2  0
 21 12  1  0
  8  9  1  0
  8 10  1  0
  8 11  1  0
 13 14  1  0
 15 16  1  0
 17 18  1  0
 19 20  1  0
 21 22  1  0
M  CHG  1   6  -1
M  END
>  <PDB_ID>  (2722) 
pdb5zai

>  <RESIDUE_NAME>  (2722) 
GLU   PHE

>  <FRAG_NAME>  (2722) 
ACET   MBZ

>  <FRAG_ATOM_NUM>  (2722) 
fragi: 7  fragj: 15

>  <atom.prop.CHAIN_ID>  (2722) 
A A A A A A A Z Z Z Z Z Z Z Z Z Z Z Z Z Z Z

>  <atom.prop.IS_HEAVY_ATOM>  (2722) 
1 0 0 0 1 1 1 1 0 0 0 1 1 0 1 0 1 0 1 0 1 0

>  <DIFUSE_FUNC_ATOM>  (2722) 
atom 6   atom 7   

>  <FINAL_SINGLE_POINT_ENERGY>  (2722) 
0

>  <NONCOV_INTER_ENERGY_QM>  (2722) 
0

>  <FF_Energy>  (2722) 
-2.21

>  <QM_Energy>  (2722) 
-7.97

>  <source>  (2722) 
ACET_MBZ_03

>  <Index>  (2722) 
8003

$$$$
ACET-pdb5zai-D-GLU-35:MBZ-pdb5zai-D-PHE-3
     RDKit          3D

 22 21  0  0  0  0  0  0  0  0999 V2000
   -3.9659    2.0811    1.8999 C   0  0  0  0  0  0  0  0  0  0  0  0
   -4.0739    1.4442    1.1467 H   0  0  0  0  0  0  0  0  0  0  0  0
   -4.8452    2.2925    2.3089 H   0  0  0  0  0  0  0  0  0  0  0  0
   -3.3503    1.5984    2.6589 H   0  0  0  0  0  0  0  0  0  0  0  0
   -3.4032    3.3706    1.3336 C   0  0  0  0  0  0  0  0  0  0  0  0
   -2.6254    4.0581    2.0362 O   0  0  0  0  0  1  0  0  0  0  0  0
   -3.7173    3.6682    0.1853 O   0  0  0  0  0  0  0  0  0  0  0  0
   -0.0044    2.8968    0.0104 C   0  0  0  0  0  0  0  0  0  0  0  0
    0.8987    3.2008    0.2958 H   0  0  0  0  0  0  0  0  0  0  0  0
   -0.6916    3.1955    0.6654 H   0  0  0  0  0  0  0  0  0  0  0  0
   -0.2284    3.3683   -0.9465 H   0  0  0  0  0  0  0  0  0  0  0  0
   -0.0021    1.3935   -0.0000 C   0  0  0  0  0  0  0  0  0  0  0  0
   -1.1855    0.6825   -0.0069 C   0  0  0  0  0  0  0  0  0  0  0  0
   -2.0581    1.1694   -0.0189 H   0  0  0  0  0  0  0  0  0  0  0  0
   -1.1834   -0.6989    0.0000 C   0  0  0  0  0  0  0  0  0  0  0  0
   -2.0658   -1.1941    0.0042 H   0  0  0  0  0  0  0  0  0  0  0  0
    0.0021   -1.3806    0.0024 C   0  0  0  0  0  0  0  0  0  0  0  0
    0.0035   -2.3860    0.0057 H   0  0  0  0  0  0  0  0  0  0  0  0
    1.1834   -0.6886    0.0000 C   0  0  0  0  0  0  0  0  0  0  0  0
    2.0740   -1.1866   -0.0032 H   0  0  0  0  0  0  0  0  0  0  0  0
    1.1854    0.6921    0.0045 C   0  0  0  0  0  0  0  0  0  0  0  0
    2.0563    1.1865    0.0102 H   0  0  0  0  0  0  0  0  0  0  0  0
  1  5  1  0
  5  6  1  0
  5  7  2  0
  1  2  1  0
  1  3  1  0
  1  4  1  0
  8 12  1  0
 12 13  2  0
 13 15  1  0
 15 17  2  0
 17 19  1  0
 19 21  2  0
 21 12  1  0
  8  9  1  0
  8 10  1  0
  8 11  1  0
 13 14  1  0
 15 16  1  0
 17 18  1  0
 19 20  1  0
 21 22  1  0
M  CHG  1   6  -1
M  END
>  <PDB_ID>  (2723) 
pdb5zai

>  <RESIDUE_NAME>  (2723) 
GLU   PHE

>  <FRAG_NAME>  (2723) 
ACET   MBZ

>  <FRAG_ATOM_NUM>  (2723) 
fragi: 7  fragj: 15

>  <atom.prop.CHAIN_ID>  (2723) 
A A A A A A A Z Z Z Z Z Z Z Z Z Z Z Z Z Z Z

>  <atom.prop.IS_HEAVY_ATOM>  (2723) 
1 0 0 0 1 1 1 1 0 0 0 1 1 0 1 0 1 0 1 0 1 0

>  <DIFUSE_FUNC_ATOM>  (2723) 
atom 6   atom 7   

>  <FINAL_SINGLE_POINT_ENERGY>  (2723) 
0

>  <NONCOV_INTER_ENERGY_QM>  (2723) 
0

>  <FF_Energy>  (2723) 
-2.2

>  <QM_Energy>  (2723) 
-7.52

>  <source>  (2723) 
ACET_MBZ_03

>  <Index>  (2723) 
8004

$$$$
ACET-pdb5zke-A-ASP-21:MBZ-pdb5zke-A-PHE-167
     RDKit          3D

 22 21  0  0  0  0  0  0  0  0999 V2000
    4.9661    4.2921    0.3795 C   0  0  0  0  0  0  0  0  0  0  0  0
    4.7926    4.9875    1.0330 H   0  0  0  0  0  0  0  0  0  0  0  0
    5.7169    4.5448   -0.1798 H   0  0  0  0  0  0  0  0  0  0  0  0
    5.2115    3.3686    0.9038 H   0  0  0  0  0  0  0  0  0  0  0  0
    3.7430    4.1726   -0.5092 C   0  0  0  0  0  0  0  0  0  0  0  0
    3.3220    3.0294   -0.8377 O   0  0  0  0  0  1  0  0  0  0  0  0
    3.2183    5.2356   -0.9033 O   0  0  0  0  0  0  0  0  0  0  0  0
   -0.0124    2.8609   -0.0415 C   0  0  0  0  0  0  0  0  0  0  0  0
    0.8501    3.1740    0.2723 H   0  0  0  0  0  0  0  0  0  0  0  0
   -0.7140    3.1717    0.5522 H   0  0  0  0  0  0  0  0  0  0  0  0
   -0.1917    3.2593   -1.0400 H   0  0  0  0  0  0  0  0  0  0  0  0
   -0.0030    1.3791   -0.0004 C   0  0  0  0  0  0  0  0  0  0  0  0
   -1.1878    0.6794   -0.0032 C   0  0  0  0  0  0  0  0  0  0  0  0
   -1.9954    1.1401   -0.0122 H   0  0  0  0  0  0  0  0  0  0  0  0
   -1.1894   -0.6867    0.0000 C   0  0  0  0  0  0  0  0  0  0  0  0
   -1.9946   -1.1527    0.0054 H   0  0  0  0  0  0  0  0  0  0  0  0
    0.0069   -1.3711    0.0040 C   0  0  0  0  0  0  0  0  0  0  0  0
    0.0095   -2.3012    0.0155 H   0  0  0  0  0  0  0  0  0  0  0  0
    1.1894   -0.6874    0.0000 C   0  0  0  0  0  0  0  0  0  0  0  0
    1.9959   -1.1506    0.0078 H   0  0  0  0  0  0  0  0  0  0  0  0
    1.1839    0.6866   -0.0005 C   0  0  0  0  0  0  0  0  0  0  0  0
    1.9896    1.1515   -0.0093 H   0  0  0  0  0  0  0  0  0  0  0  0
  1  5  1  0
  5  6  1  0
  5  7  2  0
  1  2  1  0
  1  3  1  0
  1  4  1  0
  8 12  1  0
 12 13  2  0
 13 15  1  0
 15 17  2  0
 17 19  1  0
 19 21  2  0
 21 12  1  0
  8  9  1  0
  8 10  1  0
  8 11  1  0
 13 14  1  0
 15 16  1  0
 17 18  1  0
 19 20  1  0
 21 22  1  0
M  CHG  1   6  -1
M  END
>  <PDB_ID>  (2724) 
pdb5zke

>  <RESIDUE_NAME>  (2724) 
ASP   PHE

>  <FRAG_NAME>  (2724) 
ACET   MBZ

>  <FRAG_ATOM_NUM>  (2724) 
fragi: 7  fragj: 15

>  <atom.prop.CHAIN_ID>  (2724) 
A A A A A A A Z Z Z Z Z Z Z Z Z Z Z Z Z Z Z

>  <atom.prop.IS_HEAVY_ATOM>  (2724) 
1 0 0 0 1 1 1 1 0 0 0 1 1 0 1 0 1 0 1 0 1 0

>  <DIFUSE_FUNC_ATOM>  (2724) 
atom 6   atom 7   

>  <FINAL_SINGLE_POINT_ENERGY>  (2724) 
0

>  <NONCOV_INTER_ENERGY_QM>  (2724) 
0

>  <FF_Energy>  (2724) 
-1.97

>  <QM_Energy>  (2724) 
-7.49

>  <source>  (2724) 
ACET_MBZ_03

>  <Index>  (2724) 
8297

$$$$
ACET-pdb5zke-B-ASP-21:MBZ-pdb5zke-B-PHE-167
     RDKit          3D

 22 21  0  0  0  0  0  0  0  0999 V2000
    4.9848    3.9791    0.3182 C   0  0  0  0  0  0  0  0  0  0  0  0
    4.9269    4.6747    0.9929 H   0  0  0  0  0  0  0  0  0  0  0  0
    5.7496    4.1385   -0.2548 H   0  0  0  0  0  0  0  0  0  0  0  0
    5.1110    3.0170    0.8147 H   0  0  0  0  0  0  0  0  0  0  0  0
    3.7369    4.0599   -0.5389 C   0  0  0  0  0  0  0  0  0  0  0  0
    3.1981    3.0060   -0.9444 O   0  0  0  0  0  1  0  0  0  0  0  0
    3.3046    5.2084   -0.8589 O   0  0  0  0  0  0  0  0  0  0  0  0
   -0.0023    2.8878    0.0032 C   0  0  0  0  0  0  0  0  0  0  0  0
    0.8832    3.1852    0.2653 H   0  0  0  0  0  0  0  0  0  0  0  0
   -0.6570    3.1926    0.6515 H   0  0  0  0  0  0  0  0  0  0  0  0
   -0.2441    3.3152   -0.9699 H   0  0  0  0  0  0  0  0  0  0  0  0
   -0.0050    1.3924    0.0173 C   0  0  0  0  0  0  0  0  0  0  0  0
   -1.1904    0.6852   -0.0004 C   0  0  0  0  0  0  0  0  0  0  0  0
   -2.0011    1.1418    0.0058 H   0  0  0  0  0  0  0  0  0  0  0  0
   -1.1838   -0.6885    0.0000 C   0  0  0  0  0  0  0  0  0  0  0  0
   -1.9881   -1.1551   -0.0048 H   0  0  0  0  0  0  0  0  0  0  0  0
    0.0048   -1.3747   -0.0126 C   0  0  0  0  0  0  0  0  0  0  0  0
    0.0012   -2.3047   -0.0101 H   0  0  0  0  0  0  0  0  0  0  0  0
    1.1838   -0.7039   -0.0000 C   0  0  0  0  0  0  0  0  0  0  0  0
    1.9865   -1.1738   -0.0078 H   0  0  0  0  0  0  0  0  0  0  0  0
    1.1906    0.6895   -0.0043 C   0  0  0  0  0  0  0  0  0  0  0  0
    1.9990    1.1491    0.0020 H   0  0  0  0  0  0  0  0  0  0  0  0
  1  5  1  0
  5  6  1  0
  5  7  2  0
  1  2  1  0
  1  3  1  0
  1  4  1  0
  8 12  1  0
 12 13  2  0
 13 15  1  0
 15 17  2  0
 17 19  1  0
 19 21  2  0
 21 12  1  0
  8  9  1  0
  8 10  1  0
  8 11  1  0
 13 14  1  0
 15 16  1  0
 17 18  1  0
 19 20  1  0
 21 22  1  0
M  CHG  1   6  -1
M  END
>  <PDB_ID>  (2725) 
pdb5zke

>  <RESIDUE_NAME>  (2725) 
ASP   PHE

>  <FRAG_NAME>  (2725) 
ACET   MBZ

>  <FRAG_ATOM_NUM>  (2725) 
fragi: 7  fragj: 15

>  <atom.prop.CHAIN_ID>  (2725) 
A A A A A A A Z Z Z Z Z Z Z Z Z Z Z Z Z Z Z

>  <atom.prop.IS_HEAVY_ATOM>  (2725) 
1 0 0 0 1 1 1 1 0 0 0 1 1 0 1 0 1 0 1 0 1 0

>  <DIFUSE_FUNC_ATOM>  (2725) 
atom 6   atom 7   

>  <FINAL_SINGLE_POINT_ENERGY>  (2725) 
0

>  <NONCOV_INTER_ENERGY_QM>  (2725) 
0

>  <FF_Energy>  (2725) 
-1.58

>  <QM_Energy>  (2725) 
-7.37

>  <source>  (2725) 
ACET_MBZ_03

>  <Index>  (2725) 
8298

$$$$
ACET-pdb5zu5-A-GLU-294:MBZ-pdb5zu5-A-PHE-461
     RDKit          3D

 22 21  0  0  0  0  0  0  0  0999 V2000
    4.2348    4.6949   -1.3305 C   0  0  0  0  0  0  0  0  0  0  0  0
    4.8484    4.9499   -2.0517 H   0  0  0  0  0  0  0  0  0  0  0  0
    4.6181    4.8407   -0.4394 H   0  0  0  0  0  0  0  0  0  0  0  0
    3.3244    5.2873   -1.4214 H   0  0  0  0  0  0  0  0  0  0  0  0
    3.9563    3.2164   -1.4703 C   0  0  0  0  0  0  0  0  0  0  0  0
    2.8515    2.8405   -1.8939 O   0  0  0  0  0  1  0  0  0  0  0  0
    4.9189    2.4901   -1.2008 O   0  0  0  0  0  0  0  0  0  0  0  0
    0.0102    2.8994    0.0704 C   0  0  0  0  0  0  0  0  0  0  0  0
    0.9459    3.2162    0.0274 H   0  0  0  0  0  0  0  0  0  0  0  0
   -0.4303    3.1917    0.9065 H   0  0  0  0  0  0  0  0  0  0  0  0
   -0.5231    3.3787   -0.7506 H   0  0  0  0  0  0  0  0  0  0  0  0
    0.0042    1.4098    0.0178 C   0  0  0  0  0  0  0  0  0  0  0  0
   -1.2152    0.7119    0.0048 C   0  0  0  0  0  0  0  0  0  0  0  0
   -2.0700    1.1991   -0.0020 H   0  0  0  0  0  0  0  0  0  0  0  0
   -1.2231   -0.7052   -0.0000 C   0  0  0  0  0  0  0  0  0  0  0  0
   -2.0949   -1.1888    0.0121 H   0  0  0  0  0  0  0  0  0  0  0  0
   -0.0105   -1.3996   -0.0194 C   0  0  0  0  0  0  0  0  0  0  0  0
   -0.0108   -2.3999   -0.0475 H   0  0  0  0  0  0  0  0  0  0  0  0
    1.2231   -0.7070    0.0000 C   0  0  0  0  0  0  0  0  0  0  0  0
    2.0860   -1.2145    0.0175 H   0  0  0  0  0  0  0  0  0  0  0  0
    1.2214    0.6900   -0.0031 C   0  0  0  0  0  0  0  0  0  0  0  0
    2.0802    1.1895   -0.0212 H   0  0  0  0  0  0  0  0  0  0  0  0
  1  5  1  0
  5  6  1  0
  5  7  2  0
  1  2  1  0
  1  3  1  0
  1  4  1  0
  8 12  1  0
 12 13  2  0
 13 15  1  0
 15 17  2  0
 17 19  1  0
 19 21  2  0
 21 12  1  0
  8  9  1  0
  8 10  1  0
  8 11  1  0
 13 14  1  0
 15 16  1  0
 17 18  1  0
 19 20  1  0
 21 22  1  0
M  CHG  1   6  -1
M  END
>  <PDB_ID>  (2726) 
pdb5zu5

>  <RESIDUE_NAME>  (2726) 
GLU   PHE

>  <FRAG_NAME>  (2726) 
ACET   MBZ

>  <FRAG_ATOM_NUM>  (2726) 
fragi: 7  fragj: 15

>  <atom.prop.CHAIN_ID>  (2726) 
A A A A A A A Z Z Z Z Z Z Z Z Z Z Z Z Z Z Z

>  <atom.prop.IS_HEAVY_ATOM>  (2726) 
1 0 0 0 1 1 1 1 0 0 0 1 1 0 1 0 1 0 1 0 1 0

>  <DIFUSE_FUNC_ATOM>  (2726) 
atom 6   atom 7   

>  <FINAL_SINGLE_POINT_ENERGY>  (2726) 
0

>  <NONCOV_INTER_ENERGY_QM>  (2726) 
0

>  <FF_Energy>  (2726) 
-1.53

>  <QM_Energy>  (2726) 
-6.57

>  <source>  (2726) 
ACET_MBZ_03

>  <Index>  (2726) 
8464

$$$$
ACET-pdb5zv9-B-GLU-429:MBZ-pdb5zv9-B-PHE-426
     RDKit          3D

 22 21  0  0  0  0  0  0  0  0999 V2000
    3.4947    3.0411   -2.1352 C   0  0  0  0  0  0  0  0  0  0  0  0
    4.2024    2.9997   -2.8178 H   0  0  0  0  0  0  0  0  0  0  0  0
    3.6919    2.4623   -1.3641 H   0  0  0  0  0  0  0  0  0  0  0  0
    3.4267    4.0696   -1.7806 H   0  0  0  0  0  0  0  0  0  0  0  0
    2.2132    2.5448   -2.7678 C   0  0  0  0  0  0  0  0  0  0  0  0
    1.3344    3.3754   -3.0891 O   0  0  0  0  0  1  0  0  0  0  0  0
    2.0836    1.3172   -2.9426 O   0  0  0  0  0  0  0  0  0  0  0  0
   -0.0023    2.9077    0.0005 C   0  0  0  0  0  0  0  0  0  0  0  0
   -0.8153    3.2100   -0.4748 H   0  0  0  0  0  0  0  0  0  0  0  0
    0.8171    3.2125   -0.4610 H   0  0  0  0  0  0  0  0  0  0  0  0
   -0.0111    3.3518    0.9959 H   0  0  0  0  0  0  0  0  0  0  0  0
    0.0004    1.4017    0.0032 C   0  0  0  0  0  0  0  0  0  0  0  0
   -1.1990    0.6942   -0.0013 C   0  0  0  0  0  0  0  0  0  0  0  0
   -2.0634    1.1844   -0.0069 H   0  0  0  0  0  0  0  0  0  0  0  0
   -1.2017   -0.6959    0.0000 C   0  0  0  0  0  0  0  0  0  0  0  0
   -2.0781   -1.1909    0.0036 H   0  0  0  0  0  0  0  0  0  0  0  0
   -0.0004   -1.3911   -0.0023 C   0  0  0  0  0  0  0  0  0  0  0  0
   -0.0049   -2.3917   -0.0063 H   0  0  0  0  0  0  0  0  0  0  0  0
    1.2017   -0.6979    0.0000 C   0  0  0  0  0  0  0  0  0  0  0  0
    2.0813   -1.1989    0.0025 H   0  0  0  0  0  0  0  0  0  0  0  0
    1.1990    0.6891    0.0004 C   0  0  0  0  0  0  0  0  0  0  0  0
    2.0663    1.1876   -0.0026 H   0  0  0  0  0  0  0  0  0  0  0  0
  1  5  1  0
  5  6  1  0
  5  7  2  0
  1  2  1  0
  1  3  1  0
  1  4  1  0
  8 12  1  0
 12 13  2  0
 13 15  1  0
 15 17  2  0
 17 19  1  0
 19 21  2  0
 21 12  1  0
  8  9  1  0
  8 10  1  0
  8 11  1  0
 13 14  1  0
 15 16  1  0
 17 18  1  0
 19 20  1  0
 21 22  1  0
M  CHG  1   6  -1
M  END
>  <PDB_ID>  (2727) 
pdb5zv9

>  <RESIDUE_NAME>  (2727) 
GLU   PHE

>  <FRAG_NAME>  (2727) 
ACET   MBZ

>  <FRAG_ATOM_NUM>  (2727) 
fragi: 7  fragj: 15

>  <atom.prop.CHAIN_ID>  (2727) 
A A A A A A A Z Z Z Z Z Z Z Z Z Z Z Z Z Z Z

>  <atom.prop.IS_HEAVY_ATOM>  (2727) 
1 0 0 0 1 1 1 1 0 0 0 1 1 0 1 0 1 0 1 0 1 0

>  <DIFUSE_FUNC_ATOM>  (2727) 
atom 6   atom 7   

>  <FINAL_SINGLE_POINT_ENERGY>  (2727) 
0

>  <NONCOV_INTER_ENERGY_QM>  (2727) 
0

>  <FF_Energy>  (2727) 
1.55

>  <QM_Energy>  (2727) 
-3.48

>  <source>  (2727) 
ACET_MBZ_03

>  <Index>  (2727) 
8504

$$$$
ACET-pdb5zvv-B-ASP-352:MBZ-pdb5zvv-B-PHE-355
     RDKit          3D

 22 21  0  0  0  0  0  0  0  0999 V2000
    4.9208    4.8035   -0.3016 C   0  0  0  0  0  0  0  0  0  0  0  0
    5.4951    4.6706    0.4984 H   0  0  0  0  0  0  0  0  0  0  0  0
    4.3982    5.6436   -0.2184 H   0  0  0  0  0  0  0  0  0  0  0  0
    5.5686    4.8912   -1.1738 H   0  0  0  0  0  0  0  0  0  0  0  0
    3.9542    3.6371   -0.4039 C   0  0  0  0  0  0  0  0  0  0  0  0
    3.6734    3.1778   -1.5337 O   0  0  0  0  0  1  0  0  0  0  0  0
    3.4719    3.1783    0.6531 O   0  0  0  0  0  0  0  0  0  0  0  0
   -0.0041    2.8945   -0.0189 C   0  0  0  0  0  0  0  0  0  0  0  0
    0.8869    3.2091    0.2644 H   0  0  0  0  0  0  0  0  0  0  0  0
   -0.7138    3.2093    0.5896 H   0  0  0  0  0  0  0  0  0  0  0  0
   -0.2047    3.3064   -1.0080 H   0  0  0  0  0  0  0  0  0  0  0  0
    0.0001    1.3948    0.0047 C   0  0  0  0  0  0  0  0  0  0  0  0
   -1.1924    0.6868   -0.0033 C   0  0  0  0  0  0  0  0  0  0  0  0
   -2.0605    1.1794   -0.0128 H   0  0  0  0  0  0  0  0  0  0  0  0
   -1.1957   -0.6958   -0.0000 C   0  0  0  0  0  0  0  0  0  0  0  0
   -2.0733   -1.1920    0.0013 H   0  0  0  0  0  0  0  0  0  0  0  0
    0.0000   -1.3859    0.0028 C   0  0  0  0  0  0  0  0  0  0  0  0
   -0.0020   -2.3875    0.0064 H   0  0  0  0  0  0  0  0  0  0  0  0
    1.1957   -0.6913    0.0000 C   0  0  0  0  0  0  0  0  0  0  0  0
    2.0785   -1.1914    0.0026 H   0  0  0  0  0  0  0  0  0  0  0  0
    1.1923    0.6914   -0.0042 C   0  0  0  0  0  0  0  0  0  0  0  0
    2.0616    1.1896   -0.0145 H   0  0  0  0  0  0  0  0  0  0  0  0
  1  5  1  0
  5  6  1  0
  5  7  2  0
  1  2  1  0
  1  3  1  0
  1  4  1  0
  8 12  1  0
 12 13  2  0
 13 15  1  0
 15 17  2  0
 17 19  1  0
 19 21  2  0
 21 12  1  0
  8  9  1  0
  8 10  1  0
  8 11  1  0
 13 14  1  0
 15 16  1  0
 17 18  1  0
 19 20  1  0
 21 22  1  0
M  CHG  1   6  -1
M  END
>  <PDB_ID>  (2728) 
pdb5zvv

>  <RESIDUE_NAME>  (2728) 
ASP   PHE

>  <FRAG_NAME>  (2728) 
ACET   MBZ

>  <FRAG_ATOM_NUM>  (2728) 
fragi: 7  fragj: 15

>  <atom.prop.CHAIN_ID>  (2728) 
A A A A A A A Z Z Z Z Z Z Z Z Z Z Z Z Z Z Z

>  <atom.prop.IS_HEAVY_ATOM>  (2728) 
1 0 0 0 1 1 1 1 0 0 0 1 1 0 1 0 1 0 1 0 1 0

>  <DIFUSE_FUNC_ATOM>  (2728) 
atom 6   atom 7   

>  <FINAL_SINGLE_POINT_ENERGY>  (2728) 
0

>  <NONCOV_INTER_ENERGY_QM>  (2728) 
0

>  <FF_Energy>  (2728) 
-2.58

>  <QM_Energy>  (2728) 
-9.03

>  <source>  (2728) 
ACET_MBZ_03

>  <Index>  (2728) 
8520

$$$$
ACET-pdb5zxn-A-GLU-222:MBZ-pdb5zxn-A-PHE-229
     RDKit          3D

 22 21  0  0  0  0  0  0  0  0999 V2000
   -2.7827    2.2984   -4.9893 C   0  0  0  0  0  0  0  0  0  0  0  0
   -2.0623    1.6541   -5.1289 H   0  0  0  0  0  0  0  0  0  0  0  0
   -2.8859    2.9290   -5.7288 H   0  0  0  0  0  0  0  0  0  0  0  0
   -3.7153    1.7444   -4.8823 H   0  0  0  0  0  0  0  0  0  0  0  0
   -2.4530    3.1013   -3.7376 C   0  0  0  0  0  0  0  0  0  0  0  0
   -1.4825    2.7271   -3.0389 O   0  0  0  0  0  1  0  0  0  0  0  0
   -3.1456    4.1137   -3.4705 O   0  0  0  0  0  0  0  0  0  0  0  0
   -0.0178    2.9092    0.0276 C   0  0  0  0  0  0  0  0  0  0  0  0
   -0.5545    3.2197   -0.7357 H   0  0  0  0  0  0  0  0  0  0  0  0
    0.9139    3.2202   -0.0203 H   0  0  0  0  0  0  0  0  0  0  0  0
   -0.4625    3.3061    0.9402 H   0  0  0  0  0  0  0  0  0  0  0  0
   -0.0017    1.3967   -0.0023 C   0  0  0  0  0  0  0  0  0  0  0  0
   -1.1883    0.6941    0.0007 C   0  0  0  0  0  0  0  0  0  0  0  0
   -2.0586    1.1798    0.0016 H   0  0  0  0  0  0  0  0  0  0  0  0
   -1.1886   -0.6934    0.0000 C   0  0  0  0  0  0  0  0  0  0  0  0
   -2.0705   -1.1873    0.0033 H   0  0  0  0  0  0  0  0  0  0  0  0
    0.0023   -1.3855   -0.0033 C   0  0  0  0  0  0  0  0  0  0  0  0
   -0.0084   -2.3911   -0.0085 H   0  0  0  0  0  0  0  0  0  0  0  0
    1.1886   -0.7047   -0.0000 C   0  0  0  0  0  0  0  0  0  0  0  0
    2.0762   -1.1951    0.0004 H   0  0  0  0  0  0  0  0  0  0  0  0
    1.1877    0.6928    0.0049 C   0  0  0  0  0  0  0  0  0  0  0  0
    2.0596    1.1821    0.0129 H   0  0  0  0  0  0  0  0  0  0  0  0
  1  5  1  0
  5  6  1  0
  5  7  2  0
  1  2  1  0
  1  3  1  0
  1  4  1  0
  8 12  1  0
 12 13  2  0
 13 15  1  0
 15 17  2  0
 17 19  1  0
 19 21  2  0
 21 12  1  0
  8  9  1  0
  8 10  1  0
  8 11  1  0
 13 14  1  0
 15 16  1  0
 17 18  1  0
 19 20  1  0
 21 22  1  0
M  CHG  1   6  -1
M  END
>  <PDB_ID>  (2729) 
pdb5zxn

>  <RESIDUE_NAME>  (2729) 
GLU   PHE

>  <FRAG_NAME>  (2729) 
ACET   MBZ

>  <FRAG_ATOM_NUM>  (2729) 
fragi: 7  fragj: 15

>  <atom.prop.CHAIN_ID>  (2729) 
A A A A A A A Z Z Z Z Z Z Z Z Z Z Z Z Z Z Z

>  <atom.prop.IS_HEAVY_ATOM>  (2729) 
1 0 0 0 1 1 1 1 0 0 0 1 1 0 1 0 1 0 1 0 1 0

>  <DIFUSE_FUNC_ATOM>  (2729) 
atom 6   atom 7   

>  <FINAL_SINGLE_POINT_ENERGY>  (2729) 
0

>  <NONCOV_INTER_ENERGY_QM>  (2729) 
0

>  <FF_Energy>  (2729) 
0.52

>  <QM_Energy>  (2729) 
-4.98

>  <source>  (2729) 
ACET_MBZ_03

>  <Index>  (2729) 
8563

$$$$
ACET-pdb5zxu-A-GLU-92:MBZ-pdb5zxu-A-PHE-88
     RDKit          3D

 22 21  0  0  0  0  0  0  0  0999 V2000
   -2.5537    3.7983    3.0442 C   0  0  0  0  0  0  0  0  0  0  0  0
   -1.7030    4.2482    3.3224 H   0  0  0  0  0  0  0  0  0  0  0  0
   -2.8972    3.2454    3.8056 H   0  0  0  0  0  0  0  0  0  0  0  0
   -3.2883    4.5781    2.8436 H   0  0  0  0  0  0  0  0  0  0  0  0
   -2.2328    2.8717    1.9156 C   0  0  0  0  0  0  0  0  0  0  0  0
   -2.7446    2.9483    0.8061 O   0  0  0  0  0  1  0  0  0  0  0  0
   -1.3956    2.0039    2.2345 O   0  0  0  0  0  0  0  0  0  0  0  0
   -0.0021    2.9052    0.0107 C   0  0  0  0  0  0  0  0  0  0  0  0
    0.9345    3.2126    0.0138 H   0  0  0  0  0  0  0  0  0  0  0  0
   -0.4872    3.1995    0.8170 H   0  0  0  0  0  0  0  0  0  0  0  0
   -0.4972    3.3367   -0.8592 H   0  0  0  0  0  0  0  0  0  0  0  0
    0.0076    1.3940    0.0039 C   0  0  0  0  0  0  0  0  0  0  0  0
   -1.1736    0.6936    0.0012 C   0  0  0  0  0  0  0  0  0  0  0  0
   -2.0455    1.1891   -0.0012 H   0  0  0  0  0  0  0  0  0  0  0  0
   -1.1811   -0.6777    0.0000 C   0  0  0  0  0  0  0  0  0  0  0  0
   -2.0804   -1.1625    0.0091 H   0  0  0  0  0  0  0  0  0  0  0  0
   -0.0259   -1.3729   -0.0107 C   0  0  0  0  0  0  0  0  0  0  0  0
   -0.0387   -2.3843   -0.0273 H   0  0  0  0  0  0  0  0  0  0  0  0
    1.1811   -0.7141   -0.0000 C   0  0  0  0  0  0  0  0  0  0  0  0
    2.0527   -1.2203    0.0055 H   0  0  0  0  0  0  0  0  0  0  0  0
    1.1919    0.6771    0.0056 C   0  0  0  0  0  0  0  0  0  0  0  0
    2.0667    1.1625    0.0104 H   0  0  0  0  0  0  0  0  0  0  0  0
  1  5  1  0
  5  6  1  0
  5  7  2  0
  1  2  1  0
  1  3  1  0
  1  4  1  0
  8 12  1  0
 12 13  2  0
 13 15  1  0
 15 17  2  0
 17 19  1  0
 19 21  2  0
 21 12  1  0
  8  9  1  0
  8 10  1  0
  8 11  1  0
 13 14  1  0
 15 16  1  0
 17 18  1  0
 19 20  1  0
 21 22  1  0
M  CHG  1   6  -1
M  END
>  <PDB_ID>  (2730) 
pdb5zxu

>  <RESIDUE_NAME>  (2730) 
GLU   PHE

>  <FRAG_NAME>  (2730) 
ACET   MBZ

>  <FRAG_ATOM_NUM>  (2730) 
fragi: 7  fragj: 15

>  <atom.prop.CHAIN_ID>  (2730) 
A A A A A A A Z Z Z Z Z Z Z Z Z Z Z Z Z Z Z

>  <atom.prop.IS_HEAVY_ATOM>  (2730) 
1 0 0 0 1 1 1 1 0 0 0 1 1 0 1 0 1 0 1 0 1 0

>  <DIFUSE_FUNC_ATOM>  (2730) 
atom 6   atom 7   

>  <FINAL_SINGLE_POINT_ENERGY>  (2730) 
0

>  <NONCOV_INTER_ENERGY_QM>  (2730) 
0

>  <FF_Energy>  (2730) 
39.2

>  <QM_Energy>  (2730) 
3.35

>  <source>  (2730) 
ACET_MBZ_03

>  <Index>  (2730) 
8569

$$$$
ACET-pdb5zxu-A-GLU-222:MBZ-pdb5zxu-A-PHE-229
     RDKit          3D

 22 21  0  0  0  0  0  0  0  0999 V2000
   -2.4986    2.2402   -5.0865 C   0  0  0  0  0  0  0  0  0  0  0  0
   -1.7930    1.5600   -5.1412 H   0  0  0  0  0  0  0  0  0  0  0  0
   -2.5075    2.8351   -5.8678 H   0  0  0  0  0  0  0  0  0  0  0  0
   -3.4611    1.7318   -5.0299 H   0  0  0  0  0  0  0  0  0  0  0  0
   -2.2189    3.0947   -3.8635 C   0  0  0  0  0  0  0  0  0  0  0  0
   -1.4244    2.6657   -3.0015 O   0  0  0  0  0  1  0  0  0  0  0  0
   -2.8008    4.1938   -3.7610 O   0  0  0  0  0  0  0  0  0  0  0  0
   -0.0054    2.8969    0.0063 C   0  0  0  0  0  0  0  0  0  0  0  0
   -0.5097    3.2061   -0.7837 H   0  0  0  0  0  0  0  0  0  0  0  0
    0.9318    3.2064   -0.0176 H   0  0  0  0  0  0  0  0  0  0  0  0
   -0.4760    3.3233    0.8922 H   0  0  0  0  0  0  0  0  0  0  0  0
    0.0000    1.3957   -0.0026 C   0  0  0  0  0  0  0  0  0  0  0  0
   -1.1917    0.6883    0.0009 C   0  0  0  0  0  0  0  0  0  0  0  0
   -2.0601    1.1805    0.0026 H   0  0  0  0  0  0  0  0  0  0  0  0
   -1.1953   -0.6941    0.0000 C   0  0  0  0  0  0  0  0  0  0  0  0
   -2.0734   -1.1902    0.0011 H   0  0  0  0  0  0  0  0  0  0  0  0
   -0.0003   -1.3859   -0.0008 C   0  0  0  0  0  0  0  0  0  0  0  0
   -0.0043   -2.3871   -0.0025 H   0  0  0  0  0  0  0  0  0  0  0  0
    1.1953   -0.6939   -0.0000 C   0  0  0  0  0  0  0  0  0  0  0  0
    2.0783   -1.1938    0.0001 H   0  0  0  0  0  0  0  0  0  0  0  0
    1.1920    0.6900    0.0025 C   0  0  0  0  0  0  0  0  0  0  0  0
    2.0613    1.1873    0.0079 H   0  0  0  0  0  0  0  0  0  0  0  0
  1  5  1  0
  5  6  1  0
  5  7  2  0
  1  2  1  0
  1  3  1  0
  1  4  1  0
  8 12  1  0
 12 13  2  0
 13 15  1  0
 15 17  2  0
 17 19  1  0
 19 21  2  0
 21 12  1  0
  8  9  1  0
  8 10  1  0
  8 11  1  0
 13 14  1  0
 15 16  1  0
 17 18  1  0
 19 20  1  0
 21 22  1  0
M  CHG  1   6  -1
M  END
>  <PDB_ID>  (2731) 
pdb5zxu

>  <RESIDUE_NAME>  (2731) 
GLU   PHE

>  <FRAG_NAME>  (2731) 
ACET   MBZ

>  <FRAG_ATOM_NUM>  (2731) 
fragi: 7  fragj: 15

>  <atom.prop.CHAIN_ID>  (2731) 
A A A A A A A Z Z Z Z Z Z Z Z Z Z Z Z Z Z Z

>  <atom.prop.IS_HEAVY_ATOM>  (2731) 
1 0 0 0 1 1 1 1 0 0 0 1 1 0 1 0 1 0 1 0 1 0

>  <DIFUSE_FUNC_ATOM>  (2731) 
atom 6   atom 7   

>  <FINAL_SINGLE_POINT_ENERGY>  (2731) 
0

>  <NONCOV_INTER_ENERGY_QM>  (2731) 
0

>  <FF_Energy>  (2731) 
0.79

>  <QM_Energy>  (2731) 
-5.07

>  <source>  (2731) 
ACET_MBZ_03

>  <Index>  (2731) 
8570

$$$$
ACET-pdb5zsg-A-GLU-583:MBZ-pdb5zsg-B-PHE-466
     RDKit          3D

 22 21  0  0  0  0  0  0  0  0999 V2000
    4.4091    1.9829    2.1548 C   0  0  0  0  0  0  0  0  0  0  0  0
    5.2666    2.2231    2.5613 H   0  0  0  0  0  0  0  0  0  0  0  0
    4.3094    1.0190    2.0132 H   0  0  0  0  0  0  0  0  0  0  0  0
    3.6069    2.3238    2.8092 H   0  0  0  0  0  0  0  0  0  0  0  0
    4.3609    2.6504    0.7716 C   0  0  0  0  0  0  0  0  0  0  0  0
    5.3428    2.5082    0.0180 O   0  0  0  0  0  1  0  0  0  0  0  0
    3.3415    3.3140    0.4349 O   0  0  0  0  0  0  0  0  0  0  0  0
    0.0024    2.8978   -0.0683 C   0  0  0  0  0  0  0  0  0  0  0  0
    0.7441    3.2405    0.4755 H   0  0  0  0  0  0  0  0  0  0  0  0
   -0.8712    3.2263    0.2346 H   0  0  0  0  0  0  0  0  0  0  0  0
    0.1514    3.2506   -1.0888 H   0  0  0  0  0  0  0  0  0  0  0  0
    0.0028    1.4027    0.0162 C   0  0  0  0  0  0  0  0  0  0  0  0
   -1.1974    0.6914   -0.0097 C   0  0  0  0  0  0  0  0  0  0  0  0
   -2.0631    1.1782   -0.0365 H   0  0  0  0  0  0  0  0  0  0  0  0
   -1.2022   -0.7092   -0.0000 C   0  0  0  0  0  0  0  0  0  0  0  0
   -2.0796   -1.1971    0.0030 H   0  0  0  0  0  0  0  0  0  0  0  0
   -0.0038   -1.3961    0.0068 C   0  0  0  0  0  0  0  0  0  0  0  0
    0.0071   -2.3934    0.0160 H   0  0  0  0  0  0  0  0  0  0  0  0
    1.2022   -0.6855    0.0000 C   0  0  0  0  0  0  0  0  0  0  0  0
    2.0828   -1.1892    0.0065 H   0  0  0  0  0  0  0  0  0  0  0  0
    1.1984    0.6967   -0.0133 C   0  0  0  0  0  0  0  0  0  0  0  0
    2.0645    1.1965   -0.0455 H   0  0  0  0  0  0  0  0  0  0  0  0
  1  5  1  0
  5  6  1  0
  5  7  2  0
  1  2  1  0
  1  3  1  0
  1  4  1  0
  8 12  1  0
 12 13  2  0
 13 15  1  0
 15 17  2  0
 17 19  1  0
 19 21  2  0
 21 12  1  0
  8  9  1  0
  8 10  1  0
  8 11  1  0
 13 14  1  0
 15 16  1  0
 17 18  1  0
 19 20  1  0
 21 22  1  0
M  CHG  1   6  -1
M  END
>  <PDB_ID>  (2732) 
pdb5zsg

>  <RESIDUE_NAME>  (2732) 
GLU   PHE

>  <FRAG_NAME>  (2732) 
ACET   MBZ

>  <FRAG_ATOM_NUM>  (2732) 
fragi: 7  fragj: 15

>  <atom.prop.CHAIN_ID>  (2732) 
A A A A A A A Z Z Z Z Z Z Z Z Z Z Z Z Z Z Z

>  <atom.prop.IS_HEAVY_ATOM>  (2732) 
1 0 0 0 1 1 1 1 0 0 0 1 1 0 1 0 1 0 1 0 1 0

>  <DIFUSE_FUNC_ATOM>  (2732) 
atom 6   atom 7   

>  <FINAL_SINGLE_POINT_ENERGY>  (2732) 
0

>  <NONCOV_INTER_ENERGY_QM>  (2732) 
0

>  <FF_Energy>  (2732) 
-2.49

>  <QM_Energy>  (2732) 
-7.91

>  <source>  (2732) 
ACET_MBZ_03

>  <Index>  (2732) 
8578

$$$$
ACEH-pdb13pk-A-GLH-132:MBZ-pdb13pk-A-PHE-109
     RDKit          3D

 22 21  0  0  0  0  0  0  0  0999 V2000
    0.2572   -4.6066    2.5899 C   0  0  0  0  0  0  0  0  0  0  0  0
    1.1378   -4.8000    2.9868 H   0  0  0  0  0  0  0  0  0  0  0  0
   -0.3243   -5.4023    2.5782 H   0  0  0  0  0  0  0  0  0  0  0  0
   -0.2274   -3.8271    3.1778 H   0  0  0  0  0  0  0  0  0  0  0  0
    0.4855   -4.1919    1.1611 C   0  0  0  0  0  0  0  0  0  0  0  0
   -0.4650   -4.1945    0.3662 O   0  0  0  0  0  0  0  0  0  0  0  0
    1.6276   -3.8523    0.8227 O   0  0  0  0  0  0  0  0  0  0  0  0
    0.0049    2.9199    0.0455 C   0  0  0  0  0  0  0  0  0  0  0  0
   -0.5373    3.2441   -0.7129 H   0  0  0  0  0  0  0  0  0  0  0  0
    0.9428    3.2202   -0.0252 H   0  0  0  0  0  0  0  0  0  0  0  0
   -0.4138    3.3389    0.9606 H   0  0  0  0  0  0  0  0  0  0  0  0
    0.0019    1.4008    0.0005 C   0  0  0  0  0  0  0  0  0  0  0  0
   -1.1971    0.6895   -0.0010 C   0  0  0  0  0  0  0  0  0  0  0  0
   -2.0633    1.1783   -0.0041 H   0  0  0  0  0  0  0  0  0  0  0  0
   -1.2006   -0.7054    0.0000 C   0  0  0  0  0  0  0  0  0  0  0  0
   -2.0765   -1.1971   -0.0004 H   0  0  0  0  0  0  0  0  0  0  0  0
    0.0001   -1.3916    0.0031 C   0  0  0  0  0  0  0  0  0  0  0  0
    0.0062   -2.3911    0.0070 H   0  0  0  0  0  0  0  0  0  0  0  0
    1.2006   -0.6866    0.0000 C   0  0  0  0  0  0  0  0  0  0  0  0
    2.0823   -1.1894    0.0010 H   0  0  0  0  0  0  0  0  0  0  0  0
    1.1951    0.6934   -0.0026 C   0  0  0  0  0  0  0  0  0  0  0  0
    2.0642    1.1940   -0.0072 H   0  0  0  0  0  0  0  0  0  0  0  0
  1  5  1  0
  5  6  2  0
  5  7  1  0
  1  2  1  0
  1  3  1  0
  1  4  1  0
  8 12  1  0
 12 13  2  0
 13 15  1  0
 15 17  2  0
 17 19  1  0
 19 21  2  0
 21 12  1  0
  8  9  1  0
  8 10  1  0
  8 11  1  0
 13 14  1  0
 15 16  1  0
 17 18  1  0
 19 20  1  0
 21 22  1  0
M  CHG  1   7  -1
V    7 [O&-]
M  END
>  <PDB_ID>  (2733) 
pdb13pk

>  <RESIDUE_NAME>  (2733) 
GLU   PHE

>  <FRAG_NAME>  (2733) 
ACET   MBZ

>  <FRAG_ATOM_NUM>  (2733) 
fragi: 7 fragj: 15

>  <atom.prop.CHAIN_ID>  (2733) 
A A A A A A A Z Z Z Z Z Z Z Z Z Z Z Z Z Z Z

>  <atom.prop.IS_HEAVY_ATOM>  (2733) 
1 0 0 0 1 1 1 1 0 0 0 1 1 0 1 0 1 0 1 0 1 0

>  <DIFUSE_FUNC_ATOM>  (2733) 
n/a

>  <FINAL_SINGLE_POINT_ENERGY>  (2733) 
0

>  <NONCOV_INTER_ENERGY_QM>  (2733) 
0

>  <FF_Energy>  (2733) 
20.94

>  <QM_Energy>  (2733) 
-5.34

>  <source>  (2733) 
ACET_MBZ_03

>  <Index>  (2733) 
8665

$$$$
ACEH-pdb2a8y-B-GLH-201:MBZ-pdb2a8y-B-PHE-123
     RDKit          3D

 22 21  0  0  0  0  0  0  0  0999 V2000
    5.1102    0.1185    1.0436 C   0  0  0  0  0  0  0  0  0  0  0  0
    4.6465   -0.1065    1.8823 H   0  0  0  0  0  0  0  0  0  0  0  0
    6.0514    0.3625    1.1955 H   0  0  0  0  0  0  0  0  0  0  0  0
    5.0895   -0.7633    0.4032 H   0  0  0  0  0  0  0  0  0  0  0  0
    4.4181    1.2925    0.4280 C   0  0  0  0  0  0  0  0  0  0  0  0
    4.0982    1.1798   -0.7745 O   0  0  0  0  0  0  0  0  0  0  0  0
    4.2147    2.3256    1.1419 O   0  0  0  0  0  0  0  0  0  0  0  0
   -0.0295    2.9298   -0.0165 C   0  0  0  0  0  0  0  0  0  0  0  0
    0.7991    3.2509    0.4010 H   0  0  0  0  0  0  0  0  0  0  0  0
   -0.8320    3.2301    0.4620 H   0  0  0  0  0  0  0  0  0  0  0  0
   -0.0727    3.3487   -1.0220 H   0  0  0  0  0  0  0  0  0  0  0  0
   -0.0097    1.4095    0.0007 C   0  0  0  0  0  0  0  0  0  0  0  0
   -1.2009    0.6960   -0.0024 C   0  0  0  0  0  0  0  0  0  0  0  0
   -2.0701    1.1776   -0.0077 H   0  0  0  0  0  0  0  0  0  0  0  0
   -1.1946   -0.6980    0.0000 C   0  0  0  0  0  0  0  0  0  0  0  0
   -2.0683   -1.1973    0.0018 H   0  0  0  0  0  0  0  0  0  0  0  0
    0.0133   -1.3929    0.0019 C   0  0  0  0  0  0  0  0  0  0  0  0
   -0.0100   -2.4002    0.0043 H   0  0  0  0  0  0  0  0  0  0  0  0
    1.1946   -0.7221   -0.0000 C   0  0  0  0  0  0  0  0  0  0  0  0
    2.0863   -1.1964    0.0002 H   0  0  0  0  0  0  0  0  0  0  0  0
    1.1973    0.7076   -0.0001 C   0  0  0  0  0  0  0  0  0  0  0  0
    2.0618    1.1852   -0.0018 H   0  0  0  0  0  0  0  0  0  0  0  0
  1  5  1  0
  5  6  2  0
  5  7  1  0
  1  2  1  0
  1  3  1  0
  1  4  1  0
  8 12  1  0
 12 13  2  0
 13 15  1  0
 15 17  2  0
 17 19  1  0
 19 21  2  0
 21 12  1  0
  8  9  1  0
  8 10  1  0
  8 11  1  0
 13 14  1  0
 15 16  1  0
 17 18  1  0
 19 20  1  0
 21 22  1  0
M  CHG  1   7  -1
V    7 [O&-]
M  END
>  <PDB_ID>  (2734) 
pdb2a8y

>  <RESIDUE_NAME>  (2734) 
GLU   PHE

>  <FRAG_NAME>  (2734) 
ACET   MBZ

>  <FRAG_ATOM_NUM>  (2734) 
fragi: 7 fragj: 15

>  <atom.prop.CHAIN_ID>  (2734) 
A A A A A A A Z Z Z Z Z Z Z Z Z Z Z Z Z Z Z

>  <atom.prop.IS_HEAVY_ATOM>  (2734) 
1 0 0 0 1 1 1 1 0 0 0 1 1 0 1 0 1 0 1 0 1 0

>  <DIFUSE_FUNC_ATOM>  (2734) 
n/a

>  <FINAL_SINGLE_POINT_ENERGY>  (2734) 
0

>  <NONCOV_INTER_ENERGY_QM>  (2734) 
0

>  <FF_Energy>  (2734) 
1.71

>  <QM_Energy>  (2734) 
-7.05

>  <source>  (2734) 
ACET_MBZ_03

>  <Index>  (2734) 
8716

$$$$
ACEH-pdb2a8y-F-GLH-201:MBZ-pdb2a8y-F-PHE-123
     RDKit          3D

 22 21  0  0  0  0  0  0  0  0999 V2000
    5.0270    0.0930    0.9770 C   0  0  0  0  0  0  0  0  0  0  0  0
    4.5208   -0.1605    1.7762 H   0  0  0  0  0  0  0  0  0  0  0  0
    5.9491    0.3570    1.1786 H   0  0  0  0  0  0  0  0  0  0  0  0
    5.0633   -0.7729    0.3161 H   0  0  0  0  0  0  0  0  0  0  0  0
    4.3348    1.2671    0.3351 C   0  0  0  0  0  0  0  0  0  0  0  0
    4.0729    2.2341    1.0860 O   0  0  0  0  0  0  0  0  0  0  0  0
    4.0453    1.1972   -0.8780 O   0  0  0  0  0  0  0  0  0  0  0  0
   -0.0262    2.9191    0.0383 C   0  0  0  0  0  0  0  0  0  0  0  0
    0.8094    3.2194    0.4579 H   0  0  0  0  0  0  0  0  0  0  0  0
   -0.8218    3.1997    0.5416 H   0  0  0  0  0  0  0  0  0  0  0  0
   -0.0823    3.3622   -0.9559 H   0  0  0  0  0  0  0  0  0  0  0  0
   -0.0097    1.4008    0.0038 C   0  0  0  0  0  0  0  0  0  0  0  0
   -1.1869    0.6810   -0.0004 C   0  0  0  0  0  0  0  0  0  0  0  0
   -2.0659    1.1663   -0.0047 H   0  0  0  0  0  0  0  0  0  0  0  0
   -1.1919   -0.7054    0.0000 C   0  0  0  0  0  0  0  0  0  0  0  0
   -2.0712   -1.1961    0.0005 H   0  0  0  0  0  0  0  0  0  0  0  0
   -0.0026   -1.3823    0.0017 C   0  0  0  0  0  0  0  0  0  0  0  0
   -0.0042   -2.3932    0.0032 H   0  0  0  0  0  0  0  0  0  0  0  0
    1.1919   -0.7028   -0.0000 C   0  0  0  0  0  0  0  0  0  0  0  0
    2.0760   -1.1937    0.0037 H   0  0  0  0  0  0  0  0  0  0  0  0
    1.1993    0.7087   -0.0051 C   0  0  0  0  0  0  0  0  0  0  0  0
    2.0588    1.1937   -0.0151 H   0  0  0  0  0  0  0  0  0  0  0  0
  1  5  1  0
  5  6  2  0
  5  7  1  0
  1  2  1  0
  1  3  1  0
  1  4  1  0
  8 12  1  0
 12 13  2  0
 13 15  1  0
 15 17  2  0
 17 19  1  0
 19 21  2  0
 21 12  1  0
  8  9  1  0
  8 10  1  0
  8 11  1  0
 13 14  1  0
 15 16  1  0
 17 18  1  0
 19 20  1  0
 21 22  1  0
M  CHG  1   7  -1
V    7 [O&-]
M  END
>  <PDB_ID>  (2735) 
pdb2a8y

>  <RESIDUE_NAME>  (2735) 
GLU   PHE

>  <FRAG_NAME>  (2735) 
ACET   MBZ

>  <FRAG_ATOM_NUM>  (2735) 
fragi: 7 fragj: 15

>  <atom.prop.CHAIN_ID>  (2735) 
A A A A A A A Z Z Z Z Z Z Z Z Z Z Z Z Z Z Z

>  <atom.prop.IS_HEAVY_ATOM>  (2735) 
1 0 0 0 1 1 1 1 0 0 0 1 1 0 1 0 1 0 1 0 1 0

>  <DIFUSE_FUNC_ATOM>  (2735) 
n/a

>  <FINAL_SINGLE_POINT_ENERGY>  (2735) 
0

>  <NONCOV_INTER_ENERGY_QM>  (2735) 
0

>  <FF_Energy>  (2735) 
3.76

>  <QM_Energy>  (2735) 
-6.94

>  <source>  (2735) 
ACET_MBZ_03

>  <Index>  (2735) 
8731

$$$$
ACEH-pdb2a8y-G-GLH-201:MBZ-pdb2a8y-G-PHE-123
     RDKit          3D

 22 21  0  0  0  0  0  0  0  0999 V2000
    5.2661    0.1748    1.0015 C   0  0  0  0  0  0  0  0  0  0  0  0
    4.8650   -0.0268    1.8736 H   0  0  0  0  0  0  0  0  0  0  0  0
    6.2237    0.3778    1.0642 H   0  0  0  0  0  0  0  0  0  0  0  0
    5.1387   -0.6934    0.3549 H   0  0  0  0  0  0  0  0  0  0  0  0
    4.5741    1.3891    0.4461 C   0  0  0  0  0  0  0  0  0  0  0  0
    4.4402    2.3745    1.2257 O   0  0  0  0  0  0  0  0  0  0  0  0
    4.1465    1.3197   -0.7264 O   0  0  0  0  0  0  0  0  0  0  0  0
   -0.0379    2.9139    0.0693 C   0  0  0  0  0  0  0  0  0  0  0  0
    0.7931    3.2145    0.5013 H   0  0  0  0  0  0  0  0  0  0  0  0
   -0.8384    3.1845    0.5722 H   0  0  0  0  0  0  0  0  0  0  0  0
   -0.0891    3.3827   -0.9134 H   0  0  0  0  0  0  0  0  0  0  0  0
   -0.0126    1.4039    0.0037 C   0  0  0  0  0  0  0  0  0  0  0  0
   -1.1882    0.6858   -0.0003 C   0  0  0  0  0  0  0  0  0  0  0  0
   -2.0675    1.1692   -0.0051 H   0  0  0  0  0  0  0  0  0  0  0  0
   -1.1931   -0.7035    0.0000 C   0  0  0  0  0  0  0  0  0  0  0  0
   -2.0688   -1.1961   -0.0002 H   0  0  0  0  0  0  0  0  0  0  0  0
    0.0055   -1.3869    0.0026 C   0  0  0  0  0  0  0  0  0  0  0  0
   -0.0025   -2.3956    0.0062 H   0  0  0  0  0  0  0  0  0  0  0  0
    1.1931   -0.7067    0.0000 C   0  0  0  0  0  0  0  0  0  0  0  0
    2.0818   -1.1911    0.0035 H   0  0  0  0  0  0  0  0  0  0  0  0
    1.1953    0.7074   -0.0060 C   0  0  0  0  0  0  0  0  0  0  0  0
    2.0565    1.1932   -0.0181 H   0  0  0  0  0  0  0  0  0  0  0  0
  1  5  1  0
  5  6  2  0
  5  7  1  0
  1  2  1  0
  1  3  1  0
  1  4  1  0
  8 12  1  0
 12 13  2  0
 13 15  1  0
 15 17  2  0
 17 19  1  0
 19 21  2  0
 21 12  1  0
  8  9  1  0
  8 10  1  0
  8 11  1  0
 13 14  1  0
 15 16  1  0
 17 18  1  0
 19 20  1  0
 21 22  1  0
M  CHG  1   7  -1
V    7 [O&-]
M  END
>  <PDB_ID>  (2736) 
pdb2a8y

>  <RESIDUE_NAME>  (2736) 
GLU   PHE

>  <FRAG_NAME>  (2736) 
ACET   MBZ

>  <FRAG_ATOM_NUM>  (2736) 
fragi: 7 fragj: 15

>  <atom.prop.CHAIN_ID>  (2736) 
A A A A A A A Z Z Z Z Z Z Z Z Z Z Z Z Z Z Z

>  <atom.prop.IS_HEAVY_ATOM>  (2736) 
1 0 0 0 1 1 1 1 0 0 0 1 1 0 1 0 1 0 1 0 1 0

>  <DIFUSE_FUNC_ATOM>  (2736) 
n/a

>  <FINAL_SINGLE_POINT_ENERGY>  (2736) 
0

>  <NONCOV_INTER_ENERGY_QM>  (2736) 
0

>  <FF_Energy>  (2736) 
-0.23

>  <QM_Energy>  (2736) 
-7.15

>  <source>  (2736) 
ACET_MBZ_03

>  <Index>  (2736) 
8735

$$$$
ACEH-pdb2a8y-K-GLH-201:MBZ-pdb2a8y-K-PHE-122
     RDKit          3D

 22 21  0  0  0  0  0  0  0  0999 V2000
    5.0279    3.6464   -1.5849 C   0  0  0  0  0  0  0  0  0  0  0  0
    5.5833    4.3038   -1.1167 H   0  0  0  0  0  0  0  0  0  0  0  0
    5.4355    3.3273   -2.4171 H   0  0  0  0  0  0  0  0  0  0  0  0
    4.9047    2.7875   -0.9251 H   0  0  0  0  0  0  0  0  0  0  0  0
    3.7159    4.2881   -1.9170 C   0  0  0  0  0  0  0  0  0  0  0  0
    2.6778    3.6650   -1.6426 O   0  0  0  0  0  0  0  0  0  0  0  0
    3.7406    5.4328   -2.4468 O   0  0  0  0  0  0  0  0  0  0  0  0
   -0.0143    2.8745    0.0379 C   0  0  0  0  0  0  0  0  0  0  0  0
    0.9218    3.1974   -0.0335 H   0  0  0  0  0  0  0  0  0  0  0  0
   -0.4239    3.1732    0.8915 H   0  0  0  0  0  0  0  0  0  0  0  0
   -0.5757    3.3491   -0.7669 H   0  0  0  0  0  0  0  0  0  0  0  0
   -0.0134    1.3936    0.0017 C   0  0  0  0  0  0  0  0  0  0  0  0
   -1.2163    0.6810    0.0002 C   0  0  0  0  0  0  0  0  0  0  0  0
   -2.0786    1.1741   -0.0015 H   0  0  0  0  0  0  0  0  0  0  0  0
   -1.2125   -0.7006   -0.0000 C   0  0  0  0  0  0  0  0  0  0  0  0
   -2.0651   -1.2174    0.0032 H   0  0  0  0  0  0  0  0  0  0  0  0
    0.0302   -1.3935   -0.0024 C   0  0  0  0  0  0  0  0  0  0  0  0
    0.0225   -2.3885   -0.0060 H   0  0  0  0  0  0  0  0  0  0  0  0
    1.2125   -0.6825    0.0000 C   0  0  0  0  0  0  0  0  0  0  0  0
    2.1052   -1.1727    0.0033 H   0  0  0  0  0  0  0  0  0  0  0  0
    1.1994    0.7020    0.0005 C   0  0  0  0  0  0  0  0  0  0  0  0
    2.0551    1.2109   -0.0008 H   0  0  0  0  0  0  0  0  0  0  0  0
  1  5  1  0
  5  6  2  0
  5  7  1  0
  1  2  1  0
  1  3  1  0
  1  4  1  0
  8 12  1  0
 12 13  2  0
 13 15  1  0
 15 17  2  0
 17 19  1  0
 19 21  2  0
 21 12  1  0
  8  9  1  0
  8 10  1  0
  8 11  1  0
 13 14  1  0
 15 16  1  0
 17 18  1  0
 19 20  1  0
 21 22  1  0
M  CHG  1   7  -1
V    7 [O&-]
M  END
>  <PDB_ID>  (2737) 
pdb2a8y

>  <RESIDUE_NAME>  (2737) 
GLU   PHE

>  <FRAG_NAME>  (2737) 
ACET   MBZ

>  <FRAG_ATOM_NUM>  (2737) 
fragi: 7 fragj: 15

>  <atom.prop.CHAIN_ID>  (2737) 
A A A A A A A Z Z Z Z Z Z Z Z Z Z Z Z Z Z Z

>  <atom.prop.IS_HEAVY_ATOM>  (2737) 
1 0 0 0 1 1 1 1 0 0 0 1 1 0 1 0 1 0 1 0 1 0

>  <DIFUSE_FUNC_ATOM>  (2737) 
n/a

>  <FINAL_SINGLE_POINT_ENERGY>  (2737) 
0

>  <NONCOV_INTER_ENERGY_QM>  (2737) 
0

>  <FF_Energy>  (2737) 
-1.06

>  <QM_Energy>  (2737) 
-6.17

>  <source>  (2737) 
ACET_MBZ_03

>  <Index>  (2737) 
8747

$$$$
ACEH-pdb2a8y-K-GLH-201:MBZ-pdb2a8y-K-PHE-123
     RDKit          3D

 22 21  0  0  0  0  0  0  0  0999 V2000
    4.8447    0.0061    0.9727 C   0  0  0  0  0  0  0  0  0  0  0  0
    4.2955   -0.3029    1.7230 H   0  0  0  0  0  0  0  0  0  0  0  0
    5.7236    0.3357    1.2545 H   0  0  0  0  0  0  0  0  0  0  0  0
    5.0060   -0.8433    0.3089 H   0  0  0  0  0  0  0  0  0  0  0  0
    4.1196    1.1220    0.2855 C   0  0  0  0  0  0  0  0  0  0  0  0
    4.0185    1.0753   -0.9509 O   0  0  0  0  0  0  0  0  0  0  0  0
    3.6415    2.0414    1.0050 O   0  0  0  0  0  0  0  0  0  0  0  0
   -0.0285    2.9106   -0.0533 C   0  0  0  0  0  0  0  0  0  0  0  0
    0.8014    3.2480    0.3602 H   0  0  0  0  0  0  0  0  0  0  0  0
   -0.8307    3.2238    0.4283 H   0  0  0  0  0  0  0  0  0  0  0  0
   -0.0768    3.3100   -1.0663 H   0  0  0  0  0  0  0  0  0  0  0  0
   -0.0045    1.4097   -0.0009 C   0  0  0  0  0  0  0  0  0  0  0  0
   -1.1957    0.6918   -0.0001 C   0  0  0  0  0  0  0  0  0  0  0  0
   -2.0676    1.1705   -0.0008 H   0  0  0  0  0  0  0  0  0  0  0  0
   -1.1932   -0.7126   -0.0000 C   0  0  0  0  0  0  0  0  0  0  0  0
   -2.0690   -1.2023    0.0028 H   0  0  0  0  0  0  0  0  0  0  0  0
    0.0073   -1.3911   -0.0016 C   0  0  0  0  0  0  0  0  0  0  0  0
    0.0034   -2.4001   -0.0049 H   0  0  0  0  0  0  0  0  0  0  0  0
    1.1932   -0.7064   -0.0000 C   0  0  0  0  0  0  0  0  0  0  0  0
    2.0831   -1.1886    0.0009 H   0  0  0  0  0  0  0  0  0  0  0  0
    1.1930    0.7086    0.0026 C   0  0  0  0  0  0  0  0  0  0  0  0
    2.0612    1.1913    0.0065 H   0  0  0  0  0  0  0  0  0  0  0  0
  1  5  1  0
  5  6  2  0
  5  7  1  0
  1  2  1  0
  1  3  1  0
  1  4  1  0
  8 12  1  0
 12 13  2  0
 13 15  1  0
 15 17  2  0
 17 19  1  0
 19 21  2  0
 21 12  1  0
  8  9  1  0
  8 10  1  0
  8 11  1  0
 13 14  1  0
 15 16  1  0
 17 18  1  0
 19 20  1  0
 21 22  1  0
M  CHG  1   7  -1
V    7 [O&-]
M  END
>  <PDB_ID>  (2738) 
pdb2a8y

>  <RESIDUE_NAME>  (2738) 
GLU   PHE

>  <FRAG_NAME>  (2738) 
ACET   MBZ

>  <FRAG_ATOM_NUM>  (2738) 
fragi: 7 fragj: 15

>  <atom.prop.CHAIN_ID>  (2738) 
A A A A A A A Z Z Z Z Z Z Z Z Z Z Z Z Z Z Z

>  <atom.prop.IS_HEAVY_ATOM>  (2738) 
1 0 0 0 1 1 1 1 0 0 0 1 1 0 1 0 1 0 1 0 1 0

>  <DIFUSE_FUNC_ATOM>  (2738) 
n/a

>  <FINAL_SINGLE_POINT_ENERGY>  (2738) 
0

>  <NONCOV_INTER_ENERGY_QM>  (2738) 
0

>  <FF_Energy>  (2738) 
20.06

>  <QM_Energy>  (2738) 
-4.96

>  <source>  (2738) 
ACET_MBZ_03

>  <Index>  (2738) 
8749

$$$$
ACEH-pdb2a8y-L-GLH-201:MBZ-pdb2a8y-L-PHE-123
     RDKit          3D

 22 21  0  0  0  0  0  0  0  0999 V2000
    5.1557    0.0312    0.8487 C   0  0  0  0  0  0  0  0  0  0  0  0
    4.7323   -0.1883    1.7099 H   0  0  0  0  0  0  0  0  0  0  0  0
    6.1077    0.2620    0.9547 H   0  0  0  0  0  0  0  0  0  0  0  0
    5.0833   -0.8409    0.1987 H   0  0  0  0  0  0  0  0  0  0  0  0
    4.4491    1.2589    0.2919 C   0  0  0  0  0  0  0  0  0  0  0  0
    4.2868    2.2699    1.0338 O   0  0  0  0  0  0  0  0  0  0  0  0
    4.0505    1.1898   -0.8845 O   0  0  0  0  0  0  0  0  0  0  0  0
   -0.0118    2.9209    0.0299 C   0  0  0  0  0  0  0  0  0  0  0  0
    0.8305    3.2283    0.4343 H   0  0  0  0  0  0  0  0  0  0  0  0
   -0.7988    3.2143    0.5435 H   0  0  0  0  0  0  0  0  0  0  0  0
   -0.0822    3.3687   -0.9613 H   0  0  0  0  0  0  0  0  0  0  0  0
   -0.0002    1.4113    0.0041 C   0  0  0  0  0  0  0  0  0  0  0  0
   -1.1945    0.7027   -0.0045 C   0  0  0  0  0  0  0  0  0  0  0  0
   -2.0644    1.1793   -0.0154 H   0  0  0  0  0  0  0  0  0  0  0  0
   -1.1971   -0.7109    0.0000 C   0  0  0  0  0  0  0  0  0  0  0  0
   -2.0778   -1.1921    0.0061 H   0  0  0  0  0  0  0  0  0  0  0  0
   -0.0023   -1.3989   -0.0022 C   0  0  0  0  0  0  0  0  0  0  0  0
   -0.0067   -2.4041   -0.0055 H   0  0  0  0  0  0  0  0  0  0  0  0
    1.1971   -0.7145   -0.0000 C   0  0  0  0  0  0  0  0  0  0  0  0
    2.0804   -1.1964    0.0014 H   0  0  0  0  0  0  0  0  0  0  0  0
    1.1970    0.7102    0.0026 C   0  0  0  0  0  0  0  0  0  0  0  0
    2.0665    1.1880    0.0023 H   0  0  0  0  0  0  0  0  0  0  0  0
  1  5  1  0
  5  6  2  0
  5  7  1  0
  1  2  1  0
  1  3  1  0
  1  4  1  0
  8 12  1  0
 12 13  2  0
 13 15  1  0
 15 17  2  0
 17 19  1  0
 19 21  2  0
 21 12  1  0
  8  9  1  0
  8 10  1  0
  8 11  1  0
 13 14  1  0
 15 16  1  0
 17 18  1  0
 19 20  1  0
 21 22  1  0
M  CHG  1   7  -1
V    7 [O&-]
M  END
>  <PDB_ID>  (2739) 
pdb2a8y

>  <RESIDUE_NAME>  (2739) 
GLU   PHE

>  <FRAG_NAME>  (2739) 
ACET   MBZ

>  <FRAG_ATOM_NUM>  (2739) 
fragi: 7 fragj: 15

>  <atom.prop.CHAIN_ID>  (2739) 
A A A A A A A Z Z Z Z Z Z Z Z Z Z Z Z Z Z Z

>  <atom.prop.IS_HEAVY_ATOM>  (2739) 
1 0 0 0 1 1 1 1 0 0 0 1 1 0 1 0 1 0 1 0 1 0

>  <DIFUSE_FUNC_ATOM>  (2739) 
n/a

>  <FINAL_SINGLE_POINT_ENERGY>  (2739) 
0

>  <NONCOV_INTER_ENERGY_QM>  (2739) 
0

>  <FF_Energy>  (2739) 
1.77

>  <QM_Energy>  (2739) 
-7.01

>  <source>  (2739) 
ACET_MBZ_03

>  <Index>  (2739) 
8752

$$$$
ACEH-pdb5a2g-A-ASH-376:MBZ-pdb5a2g-A-PHE-379
     RDKit          3D

 22 21  0  0  0  0  0  0  0  0999 V2000
   -5.2924    4.2436   -1.3368 C   0  0  0  0  0  0  0  0  0  0  0  0
   -5.5885    3.3853   -1.7363 H   0  0  0  0  0  0  0  0  0  0  0  0
   -5.0563    4.8978   -2.0429 H   0  0  0  0  0  0  0  0  0  0  0  0
   -6.1231    4.6521   -0.7613 H   0  0  0  0  0  0  0  0  0  0  0  0
   -4.0783    3.9903   -0.4766 C   0  0  0  0  0  0  0  0  0  0  0  0
   -3.0974    4.7697   -0.5656 O   0  0  0  0  0  0  0  0  0  0  0  0
   -4.1196    3.0243    0.3155 O   0  0  0  0  0  0  0  0  0  0  0  0
    0.0007    2.9030   -0.0039 C   0  0  0  0  0  0  0  0  0  0  0  0
   -0.7656    3.2088   -0.5485 H   0  0  0  0  0  0  0  0  0  0  0  0
    0.8597    3.2063   -0.3883 H   0  0  0  0  0  0  0  0  0  0  0  0
   -0.0964    3.3488    0.9860 H   0  0  0  0  0  0  0  0  0  0  0  0
   -0.0012    1.3986    0.0010 C   0  0  0  0  0  0  0  0  0  0  0  0
   -1.1929    0.6926   -0.0036 C   0  0  0  0  0  0  0  0  0  0  0  0
   -2.0609    1.1818   -0.0112 H   0  0  0  0  0  0  0  0  0  0  0  0
   -1.1949   -0.6946   -0.0000 C   0  0  0  0  0  0  0  0  0  0  0  0
   -2.0731   -1.1890    0.0013 H   0  0  0  0  0  0  0  0  0  0  0  0
    0.0014   -1.3872    0.0033 C   0  0  0  0  0  0  0  0  0  0  0  0
   -0.0051   -2.3893    0.0074 H   0  0  0  0  0  0  0  0  0  0  0  0
    1.1949   -0.6973    0.0000 C   0  0  0  0  0  0  0  0  0  0  0  0
    2.0786   -1.1961   -0.0003 H   0  0  0  0  0  0  0  0  0  0  0  0
    1.1928    0.6878   -0.0007 C   0  0  0  0  0  0  0  0  0  0  0  0
    2.0625    1.1852   -0.0033 H   0  0  0  0  0  0  0  0  0  0  0  0
  1  5  1  0
  5  6  2  0
  5  7  1  0
  1  2  1  0
  1  3  1  0
  1  4  1  0
  8 12  1  0
 12 13  2  0
 13 15  1  0
 15 17  2  0
 17 19  1  0
 19 21  2  0
 21 12  1  0
  8  9  1  0
  8 10  1  0
  8 11  1  0
 13 14  1  0
 15 16  1  0
 17 18  1  0
 19 20  1  0
 21 22  1  0
M  CHG  1   7  -1
V    7 [O&-]
M  END
>  <PDB_ID>  (2740) 
pdb5a2g

>  <RESIDUE_NAME>  (2740) 
ASP   PHE

>  <FRAG_NAME>  (2740) 
ACET   MBZ

>  <FRAG_ATOM_NUM>  (2740) 
fragi: 7 fragj: 15

>  <atom.prop.CHAIN_ID>  (2740) 
A A A A A A A Z Z Z Z Z Z Z Z Z Z Z Z Z Z Z

>  <atom.prop.IS_HEAVY_ATOM>  (2740) 
1 0 0 0 1 1 1 1 0 0 0 1 1 0 1 0 1 0 1 0 1 0

>  <DIFUSE_FUNC_ATOM>  (2740) 
n/a

>  <FINAL_SINGLE_POINT_ENERGY>  (2740) 
0

>  <NONCOV_INTER_ENERGY_QM>  (2740) 
0

>  <FF_Energy>  (2740) 
-2.65

>  <QM_Energy>  (2740) 
-7.66

>  <source>  (2740) 
ACET_MBZ_03

>  <Index>  (2740) 
8932

$$$$
ACEH-pdb6aef-A-GLH-293:MBZ-pdb6aef-A-PHE-302
     RDKit          3D

 22 21  0  0  0  0  0  0  0  0999 V2000
   -4.8308    2.1743   -2.0127 C   0  0  0  0  0  0  0  0  0  0  0  0
   -4.8532    3.1443   -1.9939 H   0  0  0  0  0  0  0  0  0  0  0  0
   -5.7145    1.8252   -2.2078 H   0  0  0  0  0  0  0  0  0  0  0  0
   -4.1397    1.8495   -2.7904 H   0  0  0  0  0  0  0  0  0  0  0  0
   -4.4292    1.6893   -0.6429 C   0  0  0  0  0  0  0  0  0  0  0  0
   -4.6323    2.4242    0.3466 O   0  0  0  0  0  0  0  0  0  0  0  0
   -3.9184    0.5523   -0.5602 O   0  0  0  0  0  0  0  0  0  0  0  0
   -0.0083    2.8937   -0.0116 C   0  0  0  0  0  0  0  0  0  0  0  0
   -0.6242    3.1801   -0.7046 H   0  0  0  0  0  0  0  0  0  0  0  0
    0.8894    3.1922   -0.2267 H   0  0  0  0  0  0  0  0  0  0  0  0
   -0.3106    3.3444    0.9338 H   0  0  0  0  0  0  0  0  0  0  0  0
   -0.0012    1.3947    0.0032 C   0  0  0  0  0  0  0  0  0  0  0  0
   -1.1875    0.6907   -0.0032 C   0  0  0  0  0  0  0  0  0  0  0  0
   -1.9941    1.1525   -0.0045 H   0  0  0  0  0  0  0  0  0  0  0  0
   -1.1947   -0.6945    0.0000 C   0  0  0  0  0  0  0  0  0  0  0  0
   -2.0018   -1.1571   -0.0010 H   0  0  0  0  0  0  0  0  0  0  0  0
   -0.0026   -1.3871   -0.0007 C   0  0  0  0  0  0  0  0  0  0  0  0
   -0.0030   -2.3172    0.0029 H   0  0  0  0  0  0  0  0  0  0  0  0
    1.1947   -0.6937   -0.0000 C   0  0  0  0  0  0  0  0  0  0  0  0
    2.0007   -1.1575    0.0031 H   0  0  0  0  0  0  0  0  0  0  0  0
    1.1913    0.6898    0.0007 C   0  0  0  0  0  0  0  0  0  0  0  0
    1.9989    1.1518   -0.0010 H   0  0  0  0  0  0  0  0  0  0  0  0
  1  5  1  0
  5  6  2  0
  5  7  1  0
  1  2  1  0
  1  3  1  0
  1  4  1  0
  8 12  1  0
 12 13  2  0
 13 15  1  0
 15 17  2  0
 17 19  1  0
 19 21  2  0
 21 12  1  0
  8  9  1  0
  8 10  1  0
  8 11  1  0
 13 14  1  0
 15 16  1  0
 17 18  1  0
 19 20  1  0
 21 22  1  0
M  CHG  1   7  -1
V    7 [O&-]
M  END
>  <PDB_ID>  (2741) 
pdb6aef

>  <RESIDUE_NAME>  (2741) 
GLU   PHE

>  <FRAG_NAME>  (2741) 
ACET   MBZ

>  <FRAG_ATOM_NUM>  (2741) 
fragi: 7 fragj: 15

>  <atom.prop.CHAIN_ID>  (2741) 
A A A A A A A Z Z Z Z Z Z Z Z Z Z Z Z Z Z Z

>  <atom.prop.IS_HEAVY_ATOM>  (2741) 
1 0 0 0 1 1 1 1 0 0 0 1 1 0 1 0 1 0 1 0 1 0

>  <DIFUSE_FUNC_ATOM>  (2741) 
n/a

>  <FINAL_SINGLE_POINT_ENERGY>  (2741) 
0

>  <NONCOV_INTER_ENERGY_QM>  (2741) 
0

>  <FF_Energy>  (2741) 
3.92

>  <QM_Energy>  (2741) 
-5.83

>  <source>  (2741) 
ACET_MBZ_03

>  <Index>  (2741) 
8983

$$$$
ACEH-pdb5aa5-G-ASH-571:MBZ-pdb5aa5-G-PHE-127
     RDKit          3D

 22 21  0  0  0  0  0  0  0  0999 V2000
    1.0441   -1.8788   -3.5796 C   0  0  0  0  0  0  0  0  0  0  0  0
    1.9491   -2.0063   -3.1861 H   0  0  0  0  0  0  0  0  0  0  0  0
    1.0716   -2.0188   -4.5632 H   0  0  0  0  0  0  0  0  0  0  0  0
    0.3819   -2.6308   -3.1504 H   0  0  0  0  0  0  0  0  0  0  0  0
    0.5851   -0.4640   -3.3001 C   0  0  0  0  0  0  0  0  0  0  0  0
   -0.6269   -0.2682   -3.0665 O   0  0  0  0  0  0  0  0  0  0  0  0
    1.4425    0.4519   -3.3179 O   0  0  0  0  0  0  0  0  0  0  0  0
   -0.0020    2.8858    0.0028 C   0  0  0  0  0  0  0  0  0  0  0  0
   -0.7305    3.1964   -0.5899 H   0  0  0  0  0  0  0  0  0  0  0  0
    0.8798    3.1986   -0.3180 H   0  0  0  0  0  0  0  0  0  0  0  0
   -0.1690    3.3182    0.9893 H   0  0  0  0  0  0  0  0  0  0  0  0
    0.0004    1.3941   -0.0019 C   0  0  0  0  0  0  0  0  0  0  0  0
   -1.1909    0.6895    0.0004 C   0  0  0  0  0  0  0  0  0  0  0  0
   -2.0587    1.1835    0.0009 H   0  0  0  0  0  0  0  0  0  0  0  0
   -1.1973   -0.6902   -0.0000 C   0  0  0  0  0  0  0  0  0  0  0  0
   -2.0758   -1.1860    0.0015 H   0  0  0  0  0  0  0  0  0  0  0  0
   -0.0024   -1.3865   -0.0011 C   0  0  0  0  0  0  0  0  0  0  0  0
   -0.0090   -2.3872   -0.0033 H   0  0  0  0  0  0  0  0  0  0  0  0
    1.1973   -0.6974    0.0000 C   0  0  0  0  0  0  0  0  0  0  0  0
    2.0772   -1.1960    0.0008 H   0  0  0  0  0  0  0  0  0  0  0  0
    1.1929    0.6905    0.0026 C   0  0  0  0  0  0  0  0  0  0  0  0
    2.0621    1.1865    0.0065 H   0  0  0  0  0  0  0  0  0  0  0  0
  1  5  1  0
  5  6  2  0
  5  7  1  0
  1  2  1  0
  1  3  1  0
  1  4  1  0
  8 12  1  0
 12 13  2  0
 13 15  1  0
 15 17  2  0
 17 19  1  0
 19 21  2  0
 21 12  1  0
  8  9  1  0
  8 10  1  0
  8 11  1  0
 13 14  1  0
 15 16  1  0
 17 18  1  0
 19 20  1  0
 21 22  1  0
M  CHG  1   7  -1
V    7 [O&-]
M  END
>  <PDB_ID>  (2742) 
pdb5aa5

>  <RESIDUE_NAME>  (2742) 
ASP   PHE

>  <FRAG_NAME>  (2742) 
ACET   MBZ

>  <FRAG_ATOM_NUM>  (2742) 
fragi: 7 fragj: 15

>  <atom.prop.CHAIN_ID>  (2742) 
A A A A A A A Z Z Z Z Z Z Z Z Z Z Z Z Z Z Z

>  <atom.prop.IS_HEAVY_ATOM>  (2742) 
1 0 0 0 1 1 1 1 0 0 0 1 1 0 1 0 1 0 1 0 1 0

>  <DIFUSE_FUNC_ATOM>  (2742) 
n/a

>  <FINAL_SINGLE_POINT_ENERGY>  (2742) 
0

>  <NONCOV_INTER_ENERGY_QM>  (2742) 
0

>  <FF_Energy>  (2742) 
4.98

>  <QM_Energy>  (2742) 
-0.27

>  <source>  (2742) 
ACET_MBZ_03

>  <Index>  (2742) 
9004

$$$$
ACEH-pdb3afv-A-GLH-358:MBZ-pdb3afv-A-PHE-367
     RDKit          3D

 22 21  0  0  0  0  0  0  0  0999 V2000
   -3.0583    5.4617   -1.9342 C   0  0  0  0  0  0  0  0  0  0  0  0
   -2.2368    5.9933   -1.7926 H   0  0  0  0  0  0  0  0  0  0  0  0
   -3.8089    6.0336   -2.2300 H   0  0  0  0  0  0  0  0  0  0  0  0
   -2.8558    4.7398   -2.7253 H   0  0  0  0  0  0  0  0  0  0  0  0
   -3.4414    4.8413   -0.6161 C   0  0  0  0  0  0  0  0  0  0  0  0
   -3.0457    3.6871   -0.3215 O   0  0  0  0  0  0  0  0  0  0  0  0
   -4.1439    5.5409    0.1622 O   0  0  0  0  0  0  0  0  0  0  0  0
   -0.0163    2.9079    0.0474 C   0  0  0  0  0  0  0  0  0  0  0  0
   -0.6378    3.2305   -0.6433 H   0  0  0  0  0  0  0  0  0  0  0  0
    0.9024    3.2293   -0.1005 H   0  0  0  0  0  0  0  0  0  0  0  0
   -0.3533    3.3022    1.0060 H   0  0  0  0  0  0  0  0  0  0  0  0
   -0.0022    1.4028    0.0017 C   0  0  0  0  0  0  0  0  0  0  0  0
   -1.2024    0.6983   -0.0114 C   0  0  0  0  0  0  0  0  0  0  0  0
   -2.0666    1.1831   -0.0305 H   0  0  0  0  0  0  0  0  0  0  0  0
   -1.2006   -0.7003    0.0000 C   0  0  0  0  0  0  0  0  0  0  0  0
   -2.0779   -1.1936    0.0087 H   0  0  0  0  0  0  0  0  0  0  0  0
    0.0014   -1.3956    0.0014 C   0  0  0  0  0  0  0  0  0  0  0  0
    0.0002   -2.3924    0.0027 H   0  0  0  0  0  0  0  0  0  0  0  0
    1.2006   -0.6941   -0.0000 C   0  0  0  0  0  0  0  0  0  0  0  0
    2.0836   -1.1983   -0.0058 H   0  0  0  0  0  0  0  0  0  0  0  0
    1.2031    0.6888    0.0084 C   0  0  0  0  0  0  0  0  0  0  0  0
    2.0661    1.1892    0.0188 H   0  0  0  0  0  0  0  0  0  0  0  0
  1  5  1  0
  5  6  2  0
  5  7  1  0
  1  2  1  0
  1  3  1  0
  1  4  1  0
  8 12  1  0
 12 13  2  0
 13 15  1  0
 15 17  2  0
 17 19  1  0
 19 21  2  0
 21 12  1  0
  8  9  1  0
  8 10  1  0
  8 11  1  0
 13 14  1  0
 15 16  1  0
 17 18  1  0
 19 20  1  0
 21 22  1  0
M  CHG  1   7  -1
V    7 [O&-]
M  END
>  <PDB_ID>  (2743) 
pdb3afv

>  <RESIDUE_NAME>  (2743) 
GLU   PHE

>  <FRAG_NAME>  (2743) 
ACET   MBZ

>  <FRAG_ATOM_NUM>  (2743) 
fragi: 7 fragj: 15

>  <atom.prop.CHAIN_ID>  (2743) 
A A A A A A A Z Z Z Z Z Z Z Z Z Z Z Z Z Z Z

>  <atom.prop.IS_HEAVY_ATOM>  (2743) 
1 0 0 0 1 1 1 1 0 0 0 1 1 0 1 0 1 0 1 0 1 0

>  <DIFUSE_FUNC_ATOM>  (2743) 
n/a

>  <FINAL_SINGLE_POINT_ENERGY>  (2743) 
0

>  <NONCOV_INTER_ENERGY_QM>  (2743) 
0

>  <FF_Energy>  (2743) 
-1.77

>  <QM_Energy>  (2743) 
-7.2

>  <source>  (2743) 
ACET_MBZ_03

>  <Index>  (2743) 
9017

$$$$
ACEH-pdb6akd-A-ASH-221:MBZ-pdb6akd-A-PHE-211
     RDKit          3D

 22 21  0  0  0  0  0  0  0  0999 V2000
    5.6316    3.6083    0.8615 C   0  0  0  0  0  0  0  0  0  0  0  0
    5.0999    4.2588    1.4046 H   0  0  0  0  0  0  0  0  0  0  0  0
    6.1128    4.0978    0.1341 H   0  0  0  0  0  0  0  0  0  0  0  0
    6.3649    3.1268    1.5083 H   0  0  0  0  0  0  0  0  0  0  0  0
    4.6349    2.6383    0.1896 C   0  0  0  0  0  0  0  0  0  0  0  0
    4.8793    1.3989    0.1635 O   0  0  0  0  0  0  0  0  0  0  0  0
    3.6038    3.1630   -0.3896 O   0  0  0  0  0  0  0  0  0  0  0  0
   -0.0532    2.8570   -0.0162 C   0  0  0  0  0  0  0  0  0  0  0  0
    0.8552    3.2046    0.1428 H   0  0  0  0  0  0  0  0  0  0  0  0
   -0.6899    3.1690    0.6690 H   0  0  0  0  0  0  0  0  0  0  0  0
   -0.3905    3.2381   -0.9801 H   0  0  0  0  0  0  0  0  0  0  0  0
   -0.0065    1.3795    0.0187 C   0  0  0  0  0  0  0  0  0  0  0  0
   -1.1807    0.6591   -0.0104 C   0  0  0  0  0  0  0  0  0  0  0  0
   -2.0569    1.1548   -0.0410 H   0  0  0  0  0  0  0  0  0  0  0  0
   -1.1777   -0.6961    0.0000 C   0  0  0  0  0  0  0  0  0  0  0  0
   -2.0531   -1.2062    0.0005 H   0  0  0  0  0  0  0  0  0  0  0  0
    0.0124   -1.3677    0.0110 C   0  0  0  0  0  0  0  0  0  0  0  0
    0.0070   -2.3803    0.0266 H   0  0  0  0  0  0  0  0  0  0  0  0
    1.1777   -0.6889    0.0000 C   0  0  0  0  0  0  0  0  0  0  0  0
    2.0767   -1.1681    0.0069 H   0  0  0  0  0  0  0  0  0  0  0  0
    1.1747    0.7141   -0.0193 C   0  0  0  0  0  0  0  0  0  0  0  0
    2.0431    1.1968   -0.0617 H   0  0  0  0  0  0  0  0  0  0  0  0
  1  5  1  0
  5  6  2  0
  5  7  1  0
  1  2  1  0
  1  3  1  0
  1  4  1  0
  8 12  1  0
 12 13  2  0
 13 15  1  0
 15 17  2  0
 17 19  1  0
 19 21  2  0
 21 12  1  0
  8  9  1  0
  8 10  1  0
  8 11  1  0
 13 14  1  0
 15 16  1  0
 17 18  1  0
 19 20  1  0
 21 22  1  0
M  CHG  1   7  -1
V    7 [O&-]
M  END
>  <PDB_ID>  (2744) 
pdb6akd

>  <RESIDUE_NAME>  (2744) 
ASP   PHE

>  <FRAG_NAME>  (2744) 
ACET   MBZ

>  <FRAG_ATOM_NUM>  (2744) 
fragi: 7 fragj: 15

>  <atom.prop.CHAIN_ID>  (2744) 
A A A A A A A Z Z Z Z Z Z Z Z Z Z Z Z Z Z Z

>  <atom.prop.IS_HEAVY_ATOM>  (2744) 
1 0 0 0 1 1 1 1 0 0 0 1 1 0 1 0 1 0 1 0 1 0

>  <DIFUSE_FUNC_ATOM>  (2744) 
n/a

>  <FINAL_SINGLE_POINT_ENERGY>  (2744) 
0

>  <NONCOV_INTER_ENERGY_QM>  (2744) 
0

>  <FF_Energy>  (2744) 
-3.08

>  <QM_Energy>  (2744) 
-8.97

>  <source>  (2744) 
ACET_MBZ_03

>  <Index>  (2744) 
9078

$$$$
ACEH-pdb6an9-A-GLH-267:MBZ-pdb6an9-A-PHE-5
     RDKit          3D

 22 21  0  0  0  0  0  0  0  0999 V2000
   -3.3741   -0.7802    3.2903 C   0  0  0  0  0  0  0  0  0  0  0  0
   -3.9144   -0.5446    4.0602 H   0  0  0  0  0  0  0  0  0  0  0  0
   -2.4325   -0.7417    3.5192 H   0  0  0  0  0  0  0  0  0  0  0  0
   -3.6231   -1.7942    2.9773 H   0  0  0  0  0  0  0  0  0  0  0  0
   -3.6327    0.2311    2.2122 C   0  0  0  0  0  0  0  0  0  0  0  0
   -4.0680   -0.1940    1.1105 O   0  0  0  0  0  0  0  0  0  0  0  0
   -3.4187    1.4485    2.4762 O   0  0  0  0  0  0  0  0  0  0  0  0
    0.0004    2.8965   -0.0053 C   0  0  0  0  0  0  0  0  0  0  0  0
    0.8931    3.1986    0.2236 H   0  0  0  0  0  0  0  0  0  0  0  0
   -0.6327    3.1976    0.6644 H   0  0  0  0  0  0  0  0  0  0  0  0
   -0.2782    3.3197   -0.9704 H   0  0  0  0  0  0  0  0  0  0  0  0
    0.0051    1.4050    0.0077 C   0  0  0  0  0  0  0  0  0  0  0  0
   -1.1888    0.6835    0.0004 C   0  0  0  0  0  0  0  0  0  0  0  0
   -1.9977    1.1418    0.0022 H   0  0  0  0  0  0  0  0  0  0  0  0
   -1.1925   -0.7264    0.0000 C   0  0  0  0  0  0  0  0  0  0  0  0
   -1.9962   -1.1952    0.0012 H   0  0  0  0  0  0  0  0  0  0  0  0
    0.0012   -1.3982   -0.0027 C   0  0  0  0  0  0  0  0  0  0  0  0
    0.0163   -2.3273   -0.0010 H   0  0  0  0  0  0  0  0  0  0  0  0
    1.1925   -0.6757   -0.0000 C   0  0  0  0  0  0  0  0  0  0  0  0
    2.0044   -1.1283   -0.0040 H   0  0  0  0  0  0  0  0  0  0  0  0
    1.1825    0.7118   -0.0054 C   0  0  0  0  0  0  0  0  0  0  0  0
    1.9894    1.1756   -0.0034 H   0  0  0  0  0  0  0  0  0  0  0  0
  1  5  1  0
  5  6  2  0
  5  7  1  0
  1  2  1  0
  1  3  1  0
  1  4  1  0
  8 12  1  0
 12 13  2  0
 13 15  1  0
 15 17  2  0
 17 19  1  0
 19 21  2  0
 21 12  1  0
  8  9  1  0
  8 10  1  0
  8 11  1  0
 13 14  1  0
 15 16  1  0
 17 18  1  0
 19 20  1  0
 21 22  1  0
M  CHG  1   7  -1
V    7 [O&-]
M  END
>  <PDB_ID>  (2745) 
pdb6an9

>  <RESIDUE_NAME>  (2745) 
GLU   PHE

>  <FRAG_NAME>  (2745) 
ACET   MBZ

>  <FRAG_ATOM_NUM>  (2745) 
fragi: 7 fragj: 15

>  <atom.prop.CHAIN_ID>  (2745) 
A A A A A A A Z Z Z Z Z Z Z Z Z Z Z Z Z Z Z

>  <atom.prop.IS_HEAVY_ATOM>  (2745) 
1 0 0 0 1 1 1 1 0 0 0 1 1 0 1 0 1 0 1 0 1 0

>  <DIFUSE_FUNC_ATOM>  (2745) 
n/a

>  <FINAL_SINGLE_POINT_ENERGY>  (2745) 
0

>  <NONCOV_INTER_ENERGY_QM>  (2745) 
0

>  <FF_Energy>  (2745) 
-1.69

>  <QM_Energy>  (2745) 
-7.26

>  <source>  (2745) 
ACET_MBZ_03

>  <Index>  (2745) 
9102

$$$$
ACEH-pdb5an1-D-ASH-155:MBZ-pdb5an1-D-PHE-146
     RDKit          3D

 22 21  0  0  0  0  0  0  0  0999 V2000
    5.8391    3.0070    0.0683 C   0  0  0  0  0  0  0  0  0  0  0  0
    6.5418    3.6979    0.1573 H   0  0  0  0  0  0  0  0  0  0  0  0
    6.1535    2.2467   -0.4805 H   0  0  0  0  0  0  0  0  0  0  0  0
    5.6060    2.6319    1.0648 H   0  0  0  0  0  0  0  0  0  0  0  0
    4.6267    3.6237   -0.5967 C   0  0  0  0  0  0  0  0  0  0  0  0
    3.6171    2.9116   -0.7540 O   0  0  0  0  0  0  0  0  0  0  0  0
    4.6619    4.8179   -0.9265 O   0  0  0  0  0  0  0  0  0  0  0  0
   -0.0071    2.8823   -0.0173 C   0  0  0  0  0  0  0  0  0  0  0  0
    0.8670    3.2140    0.2916 H   0  0  0  0  0  0  0  0  0  0  0  0
   -0.7459    3.2083    0.5456 H   0  0  0  0  0  0  0  0  0  0  0  0
   -0.1669    3.2725   -1.0224 H   0  0  0  0  0  0  0  0  0  0  0  0
    0.0048    1.3982    0.0217 C   0  0  0  0  0  0  0  0  0  0  0  0
   -1.1984    0.6886   -0.0051 C   0  0  0  0  0  0  0  0  0  0  0  0
   -2.0607    1.1833   -0.0291 H   0  0  0  0  0  0  0  0  0  0  0  0
   -1.1995   -0.6943   -0.0000 C   0  0  0  0  0  0  0  0  0  0  0  0
   -2.0795   -1.1910    0.0069 H   0  0  0  0  0  0  0  0  0  0  0  0
   -0.0056   -1.3900   -0.0028 C   0  0  0  0  0  0  0  0  0  0  0  0
   -0.0097   -2.3908   -0.0077 H   0  0  0  0  0  0  0  0  0  0  0  0
    1.1995   -0.6994    0.0000 C   0  0  0  0  0  0  0  0  0  0  0  0
    2.0786   -1.1975    0.0131 H   0  0  0  0  0  0  0  0  0  0  0  0
    1.1992    0.6970   -0.0138 C   0  0  0  0  0  0  0  0  0  0  0  0
    2.0667    1.1875   -0.0499 H   0  0  0  0  0  0  0  0  0  0  0  0
  1  5  1  0
  5  6  2  0
  5  7  1  0
  1  2  1  0
  1  3  1  0
  1  4  1  0
  8 12  1  0
 12 13  2  0
 13 15  1  0
 15 17  2  0
 17 19  1  0
 19 21  2  0
 21 12  1  0
  8  9  1  0
  8 10  1  0
  8 11  1  0
 13 14  1  0
 15 16  1  0
 17 18  1  0
 19 20  1  0
 21 22  1  0
M  CHG  1   7  -1
V    7 [O&-]
M  END
>  <PDB_ID>  (2746) 
pdb5an1

>  <RESIDUE_NAME>  (2746) 
ASP   PHE

>  <FRAG_NAME>  (2746) 
ACET   MBZ

>  <FRAG_ATOM_NUM>  (2746) 
fragi: 7 fragj: 15

>  <atom.prop.CHAIN_ID>  (2746) 
A A A A A A A Z Z Z Z Z Z Z Z Z Z Z Z Z Z Z

>  <atom.prop.IS_HEAVY_ATOM>  (2746) 
1 0 0 0 1 1 1 1 0 0 0 1 1 0 1 0 1 0 1 0 1 0

>  <DIFUSE_FUNC_ATOM>  (2746) 
n/a

>  <FINAL_SINGLE_POINT_ENERGY>  (2746) 
0

>  <NONCOV_INTER_ENERGY_QM>  (2746) 
0

>  <FF_Energy>  (2746) 
-1.96

>  <QM_Energy>  (2746) 
-7.51

>  <source>  (2746) 
ACET_MBZ_03

>  <Index>  (2746) 
9107

$$$$
ACEH-pdb6ans-A-GLH-182:MBZ-pdb6ans-A-PHE-176
     RDKit          3D

 22 21  0  0  0  0  0  0  0  0999 V2000
   -5.3510    2.4169   -0.8887 C   0  0  0  0  0  0  0  0  0  0  0  0
   -6.0056    2.1355   -1.5610 H   0  0  0  0  0  0  0  0  0  0  0  0
   -5.7217    3.0493   -0.2382 H   0  0  0  0  0  0  0  0  0  0  0  0
   -5.0000    1.5335   -0.3553 H   0  0  0  0  0  0  0  0  0  0  0  0
   -4.2229    3.1103   -1.6092 C   0  0  0  0  0  0  0  0  0  0  0  0
   -4.4689    3.8462   -2.5834 O   0  0  0  0  0  0  0  0  0  0  0  0
   -3.0778    2.9269   -1.1826 O   0  0  0  0  0  0  0  0  0  0  0  0
    0.0093    2.8811   -0.0319 C   0  0  0  0  0  0  0  0  0  0  0  0
    0.8506    3.2001    0.3721 H   0  0  0  0  0  0  0  0  0  0  0  0
   -0.7798    3.2103    0.4596 H   0  0  0  0  0  0  0  0  0  0  0  0
   -0.0423    3.2793   -1.0452 H   0  0  0  0  0  0  0  0  0  0  0  0
    0.0019    1.3910    0.0080 C   0  0  0  0  0  0  0  0  0  0  0  0
   -1.1940    0.6957   -0.0034 C   0  0  0  0  0  0  0  0  0  0  0  0
   -2.0575    1.1941   -0.0158 H   0  0  0  0  0  0  0  0  0  0  0  0
   -1.2046   -0.6822    0.0000 C   0  0  0  0  0  0  0  0  0  0  0  0
   -2.0832   -1.1775    0.0044 H   0  0  0  0  0  0  0  0  0  0  0  0
   -0.0075   -1.3855   -0.0007 C   0  0  0  0  0  0  0  0  0  0  0  0
   -0.0177   -2.3851   -0.0027 H   0  0  0  0  0  0  0  0  0  0  0  0
    1.2046   -0.7000   -0.0000 C   0  0  0  0  0  0  0  0  0  0  0  0
    2.0764   -1.2064    0.0046 H   0  0  0  0  0  0  0  0  0  0  0  0
    1.1995    0.6811   -0.0038 C   0  0  0  0  0  0  0  0  0  0  0  0
    2.0662    1.1832   -0.0160 H   0  0  0  0  0  0  0  0  0  0  0  0
  1  5  1  0
  5  6  2  0
  5  7  1  0
  1  2  1  0
  1  3  1  0
  1  4  1  0
  8 12  1  0
 12 13  2  0
 13 15  1  0
 15 17  2  0
 17 19  1  0
 19 21  2  0
 21 12  1  0
  8  9  1  0
  8 10  1  0
  8 11  1  0
 13 14  1  0
 15 16  1  0
 17 18  1  0
 19 20  1  0
 21 22  1  0
M  CHG  1   7  -1
V    7 [O&-]
M  END
>  <PDB_ID>  (2747) 
pdb6ans

>  <RESIDUE_NAME>  (2747) 
GLU   PHE

>  <FRAG_NAME>  (2747) 
ACET   MBZ

>  <FRAG_ATOM_NUM>  (2747) 
fragi: 7 fragj: 15

>  <atom.prop.CHAIN_ID>  (2747) 
A A A A A A A Z Z Z Z Z Z Z Z Z Z Z Z Z Z Z

>  <atom.prop.IS_HEAVY_ATOM>  (2747) 
1 0 0 0 1 1 1 1 0 0 0 1 1 0 1 0 1 0 1 0 1 0

>  <DIFUSE_FUNC_ATOM>  (2747) 
n/a

>  <FINAL_SINGLE_POINT_ENERGY>  (2747) 
0

>  <NONCOV_INTER_ENERGY_QM>  (2747) 
0

>  <FF_Energy>  (2747) 
-0.83

>  <QM_Energy>  (2747) 
-7.19

>  <source>  (2747) 
ACET_MBZ_03

>  <Index>  (2747) 
9122

$$$$
ACEH-pdb5axg-A-GLH-479:MBZ-pdb5axg-A-PHE-149
     RDKit          3D

 22 21  0  0  0  0  0  0  0  0999 V2000
    0.6790   -0.2813    3.6239 C   0  0  0  0  0  0  0  0  0  0  0  0
    0.9391   -0.6364    4.5099 H   0  0  0  0  0  0  0  0  0  0  0  0
    0.6425   -1.0021    2.9467 H   0  0  0  0  0  0  0  0  0  0  0  0
   -0.3194    0.1465    3.7147 H   0  0  0  0  0  0  0  0  0  0  0  0
    1.7531    0.7008    3.1896 C   0  0  0  0  0  0  0  0  0  0  0  0
    1.4705    1.9164    3.0549 O   0  0  0  0  0  0  0  0  0  0  0  0
    2.9163    0.2346    2.9815 O   0  0  0  0  0  0  0  0  0  0  0  0
    0.0174    2.9018    0.0517 C   0  0  0  0  0  0  0  0  0  0  0  0
    0.9525    3.2018   -0.0824 H   0  0  0  0  0  0  0  0  0  0  0  0
   -0.3208    3.1804    0.9407 H   0  0  0  0  0  0  0  0  0  0  0  0
   -0.5999    3.3848   -0.7059 H   0  0  0  0  0  0  0  0  0  0  0  0
    0.0018    1.3971    0.0006 C   0  0  0  0  0  0  0  0  0  0  0  0
   -1.1975    0.6922    0.0060 C   0  0  0  0  0  0  0  0  0  0  0  0
   -2.0603    1.1858    0.0134 H   0  0  0  0  0  0  0  0  0  0  0  0
   -1.1966   -0.6883    0.0000 C   0  0  0  0  0  0  0  0  0  0  0  0
   -2.0732   -1.1894    0.0068 H   0  0  0  0  0  0  0  0  0  0  0  0
    0.0031   -1.3831   -0.0132 C   0  0  0  0  0  0  0  0  0  0  0  0
   -0.0103   -2.3872   -0.0337 H   0  0  0  0  0  0  0  0  0  0  0  0
    1.1966   -0.7023   -0.0000 C   0  0  0  0  0  0  0  0  0  0  0  0
    2.0793   -1.1993    0.0065 H   0  0  0  0  0  0  0  0  0  0  0  0
    1.1926    0.6845    0.0065 C   0  0  0  0  0  0  0  0  0  0  0  0
    2.0643    1.1806    0.0144 H   0  0  0  0  0  0  0  0  0  0  0  0
  1  5  1  0
  5  6  2  0
  5  7  1  0
  1  2  1  0
  1  3  1  0
  1  4  1  0
  8 12  1  0
 12 13  2  0
 13 15  1  0
 15 17  2  0
 17 19  1  0
 19 21  2  0
 21 12  1  0
  8  9  1  0
  8 10  1  0
  8 11  1  0
 13 14  1  0
 15 16  1  0
 17 18  1  0
 19 20  1  0
 21 22  1  0
M  CHG  1   7  -1
V    7 [O&-]
M  END
>  <PDB_ID>  (2748) 
pdb5axg

>  <RESIDUE_NAME>  (2748) 
GLU   PHE

>  <FRAG_NAME>  (2748) 
ACET   MBZ

>  <FRAG_ATOM_NUM>  (2748) 
fragi: 7 fragj: 15

>  <atom.prop.CHAIN_ID>  (2748) 
A A A A A A A Z Z Z Z Z Z Z Z Z Z Z Z Z Z Z

>  <atom.prop.IS_HEAVY_ATOM>  (2748) 
1 0 0 0 1 1 1 1 0 0 0 1 1 0 1 0 1 0 1 0 1 0

>  <DIFUSE_FUNC_ATOM>  (2748) 
n/a

>  <FINAL_SINGLE_POINT_ENERGY>  (2748) 
0

>  <NONCOV_INTER_ENERGY_QM>  (2748) 
0

>  <FF_Energy>  (2748) 
0.38

>  <QM_Energy>  (2748) 
-5.65

>  <source>  (2748) 
ACET_MBZ_03

>  <Index>  (2748) 
9202

$$$$
ACEH-pdb1aqd-G-GLH-21:MBZ-pdb1aqd-G-PHE-137
     RDKit          3D

 22 21  0  0  0  0  0  0  0  0999 V2000
   -5.3680    4.6211   -0.4635 C   0  0  0  0  0  0  0  0  0  0  0  0
   -5.5018    5.6026   -0.4738 H   0  0  0  0  0  0  0  0  0  0  0  0
   -6.0084    4.1832    0.1525 H   0  0  0  0  0  0  0  0  0  0  0  0
   -5.5544    4.2448   -1.4694 H   0  0  0  0  0  0  0  0  0  0  0  0
   -3.9688    4.3577    0.0709 C   0  0  0  0  0  0  0  0  0  0  0  0
   -3.6637    3.1982    0.4306 O   0  0  0  0  0  0  0  0  0  0  0  0
   -3.1883    5.3273    0.1670 O   0  0  0  0  0  0  0  0  0  0  0  0
    0.0071    2.8868    0.1232 C   0  0  0  0  0  0  0  0  0  0  0  0
   -0.7889    3.2410   -0.3369 H   0  0  0  0  0  0  0  0  0  0  0  0
    0.8432    3.2284   -0.2726 H   0  0  0  0  0  0  0  0  0  0  0  0
   -0.0309    3.2234    1.1592 H   0  0  0  0  0  0  0  0  0  0  0  0
   -0.0002    1.4078    0.0075 C   0  0  0  0  0  0  0  0  0  0  0  0
   -1.1904    0.6996   -0.0020 C   0  0  0  0  0  0  0  0  0  0  0  0
   -2.0620    1.1833   -0.0121 H   0  0  0  0  0  0  0  0  0  0  0  0
   -1.2015   -0.7059   -0.0000 C   0  0  0  0  0  0  0  0  0  0  0  0
   -2.0815   -1.1883    0.0050 H   0  0  0  0  0  0  0  0  0  0  0  0
   -0.0043   -1.4050   -0.0024 C   0  0  0  0  0  0  0  0  0  0  0  0
   -0.0031   -2.4003   -0.0058 H   0  0  0  0  0  0  0  0  0  0  0  0
    1.2015   -0.7006    0.0000 C   0  0  0  0  0  0  0  0  0  0  0  0
    2.0827   -1.1922    0.0056 H   0  0  0  0  0  0  0  0  0  0  0  0
    1.1949    0.7041   -0.0031 C   0  0  0  0  0  0  0  0  0  0  0  0
    2.0643    1.1944   -0.0144 H   0  0  0  0  0  0  0  0  0  0  0  0
  1  5  1  0
  5  6  2  0
  5  7  1  0
  1  2  1  0
  1  3  1  0
  1  4  1  0
  8 12  1  0
 12 13  2  0
 13 15  1  0
 15 17  2  0
 17 19  1  0
 19 21  2  0
 21 12  1  0
  8  9  1  0
  8 10  1  0
  8 11  1  0
 13 14  1  0
 15 16  1  0
 17 18  1  0
 19 20  1  0
 21 22  1  0
M  CHG  1   7  -1
V    7 [O&-]
M  END
>  <PDB_ID>  (2749) 
pdb1aqd

>  <RESIDUE_NAME>  (2749) 
GLU   PHE

>  <FRAG_NAME>  (2749) 
ACET   MBZ

>  <FRAG_ATOM_NUM>  (2749) 
fragi: 7 fragj: 15

>  <atom.prop.CHAIN_ID>  (2749) 
A A A A A A A Z Z Z Z Z Z Z Z Z Z Z Z Z Z Z

>  <atom.prop.IS_HEAVY_ATOM>  (2749) 
1 0 0 0 1 1 1 1 0 0 0 1 1 0 1 0 1 0 1 0 1 0

>  <DIFUSE_FUNC_ATOM>  (2749) 
n/a

>  <FINAL_SINGLE_POINT_ENERGY>  (2749) 
0

>  <NONCOV_INTER_ENERGY_QM>  (2749) 
0

>  <FF_Energy>  (2749) 
-2.51

>  <QM_Energy>  (2749) 
-7.85

>  <source>  (2749) 
ACET_MBZ_03

>  <Index>  (2749) 
9222

$$$$
ACEH-pdb1aqd-J-GLH-21:MBZ-pdb1aqd-J-PHE-137
     RDKit          3D

 22 21  0  0  0  0  0  0  0  0999 V2000
   -5.3355    4.7313   -0.5730 C   0  0  0  0  0  0  0  0  0  0  0  0
   -5.4807    5.7059   -0.6097 H   0  0  0  0  0  0  0  0  0  0  0  0
   -5.9590    4.2934    0.0533 H   0  0  0  0  0  0  0  0  0  0  0  0
   -5.5424    4.3358   -1.5674 H   0  0  0  0  0  0  0  0  0  0  0  0
   -3.9133    4.4889   -0.0623 C   0  0  0  0  0  0  0  0  0  0  0  0
   -3.5662    3.3356    0.2964 O   0  0  0  0  0  0  0  0  0  0  0  0
   -3.1540    5.4757    0.0030 O   0  0  0  0  0  0  0  0  0  0  0  0
    0.0079    2.8347    0.1106 C   0  0  0  0  0  0  0  0  0  0  0  0
   -0.7574    3.2021   -0.3966 H   0  0  0  0  0  0  0  0  0  0  0  0
    0.8669    3.1840   -0.2333 H   0  0  0  0  0  0  0  0  0  0  0  0
   -0.0913    3.1735    1.1418 H   0  0  0  0  0  0  0  0  0  0  0  0
    0.0034    1.3780   -0.0063 C   0  0  0  0  0  0  0  0  0  0  0  0
   -1.1764    0.6966    0.0038 C   0  0  0  0  0  0  0  0  0  0  0  0
   -2.0464    1.1966    0.0124 H   0  0  0  0  0  0  0  0  0  0  0  0
   -1.1939   -0.6732   -0.0000 C   0  0  0  0  0  0  0  0  0  0  0  0
   -2.0835   -1.1614   -0.0070 H   0  0  0  0  0  0  0  0  0  0  0  0
   -0.0176   -1.3824    0.0077 C   0  0  0  0  0  0  0  0  0  0  0  0
   -0.0263   -2.3801    0.0181 H   0  0  0  0  0  0  0  0  0  0  0  0
    1.1939   -0.6967    0.0000 C   0  0  0  0  0  0  0  0  0  0  0  0
    2.0658   -1.2064   -0.0001 H   0  0  0  0  0  0  0  0  0  0  0  0
    1.1906    0.6777   -0.0052 C   0  0  0  0  0  0  0  0  0  0  0  0
    2.0606    1.1781   -0.0087 H   0  0  0  0  0  0  0  0  0  0  0  0
  1  5  1  0
  5  6  2  0
  5  7  1  0
  1  2  1  0
  1  3  1  0
  1  4  1  0
  8 12  1  0
 12 13  2  0
 13 15  1  0
 15 17  2  0
 17 19  1  0
 19 21  2  0
 21 12  1  0
  8  9  1  0
  8 10  1  0
  8 11  1  0
 13 14  1  0
 15 16  1  0
 17 18  1  0
 19 20  1  0
 21 22  1  0
M  CHG  1   7  -1
V    7 [O&-]
M  END
>  <PDB_ID>  (2750) 
pdb1aqd

>  <RESIDUE_NAME>  (2750) 
GLU   PHE

>  <FRAG_NAME>  (2750) 
ACET   MBZ

>  <FRAG_ATOM_NUM>  (2750) 
fragi: 7 fragj: 15

>  <atom.prop.CHAIN_ID>  (2750) 
A A A A A A A Z Z Z Z Z Z Z Z Z Z Z Z Z Z Z

>  <atom.prop.IS_HEAVY_ATOM>  (2750) 
1 0 0 0 1 1 1 1 0 0 0 1 1 0 1 0 1 0 1 0 1 0

>  <DIFUSE_FUNC_ATOM>  (2750) 
n/a

>  <FINAL_SINGLE_POINT_ENERGY>  (2750) 
0

>  <NONCOV_INTER_ENERGY_QM>  (2750) 
0

>  <FF_Energy>  (2750) 
-2.52

>  <QM_Energy>  (2750) 
-7.69

>  <source>  (2750) 
ACET_MBZ_03

>  <Index>  (2750) 
9225

$$$$
ACEH-pdb4aul-A-ASH-400:MBZ-pdb4aul-D-PHE-337
     RDKit          3D

 22 21  0  0  0  0  0  0  0  0999 V2000
   -0.2938    0.4082    3.4718 C   0  0  0  0  0  0  0  0  0  0  0  0
    0.0116    0.0569    4.3565 H   0  0  0  0  0  0  0  0  0  0  0  0
    0.1151   -0.1325    2.7379 H   0  0  0  0  0  0  0  0  0  0  0  0
   -1.3723    0.2588    3.4205 H   0  0  0  0  0  0  0  0  0  0  0  0
    0.1576    1.8529    3.3320 C   0  0  0  0  0  0  0  0  0  0  0  0
    1.3947    2.1204    3.4720 O   0  0  0  0  0  0  0  0  0  0  0  0
   -0.6603    2.7476    3.0580 O   0  0  0  0  0  0  0  0  0  0  0  0
    0.0487    2.9102   -0.0410 C   0  0  0  0  0  0  0  0  0  0  0  0
    0.8875    3.2133    0.3670 H   0  0  0  0  0  0  0  0  0  0  0  0
   -0.7438    3.2710    0.4113 H   0  0  0  0  0  0  0  0  0  0  0  0
    0.0341    3.2848   -1.0645 H   0  0  0  0  0  0  0  0  0  0  0  0
   -0.0026    1.4254    0.0086 C   0  0  0  0  0  0  0  0  0  0  0  0
   -1.2122    0.6967    0.0001 C   0  0  0  0  0  0  0  0  0  0  0  0
   -2.0775    1.1732   -0.0075 H   0  0  0  0  0  0  0  0  0  0  0  0
   -1.2100   -0.7267    0.0000 C   0  0  0  0  0  0  0  0  0  0  0  0
   -2.0670   -1.2213   -0.0014 H   0  0  0  0  0  0  0  0  0  0  0  0
    0.0295   -1.4104    0.0039 C   0  0  0  0  0  0  0  0  0  0  0  0
    0.0288   -2.4068    0.0084 H   0  0  0  0  0  0  0  0  0  0  0  0
    1.2100   -0.6963   -0.0000 C   0  0  0  0  0  0  0  0  0  0  0  0
    2.1055   -1.1692    0.0072 H   0  0  0  0  0  0  0  0  0  0  0  0
    1.1852    0.7113   -0.0126 C   0  0  0  0  0  0  0  0  0  0  0  0
    2.0613    1.2051   -0.0390 H   0  0  0  0  0  0  0  0  0  0  0  0
  1  5  1  0
  5  6  2  0
  5  7  1  0
  1  2  1  0
  1  3  1  0
  1  4  1  0
  8 12  1  0
 12 13  2  0
 13 15  1  0
 15 17  2  0
 17 19  1  0
 19 21  2  0
 21 12  1  0
  8  9  1  0
  8 10  1  0
  8 11  1  0
 13 14  1  0
 15 16  1  0
 17 18  1  0
 19 20  1  0
 21 22  1  0
M  CHG  1   7  -1
V    7 [O&-]
M  END
>  <PDB_ID>  (2751) 
pdb4aul

>  <RESIDUE_NAME>  (2751) 
ASP   PHE

>  <FRAG_NAME>  (2751) 
ACET   MBZ

>  <FRAG_ATOM_NUM>  (2751) 
fragi: 7 fragj: 15

>  <atom.prop.CHAIN_ID>  (2751) 
A A A A A A A Z Z Z Z Z Z Z Z Z Z Z Z Z Z Z

>  <atom.prop.IS_HEAVY_ATOM>  (2751) 
1 0 0 0 1 1 1 1 0 0 0 1 1 0 1 0 1 0 1 0 1 0

>  <DIFUSE_FUNC_ATOM>  (2751) 
n/a

>  <FINAL_SINGLE_POINT_ENERGY>  (2751) 
0

>  <NONCOV_INTER_ENERGY_QM>  (2751) 
0

>  <FF_Energy>  (2751) 
0.82

>  <QM_Energy>  (2751) 
-6.07

>  <source>  (2751) 
ACET_MBZ_03

>  <Index>  (2751) 
9295

$$$$
ACEH-pdb1ax4-C-GLH-390:MBZ-pdb1ax4-C-PHE-394
     RDKit          3D

 22 21  0  0  0  0  0  0  0  0999 V2000
    4.1399    4.1709    0.7597 C   0  0  0  0  0  0  0  0  0  0  0  0
    4.7547    4.9675    0.8398 H   0  0  0  0  0  0  0  0  0  0  0  0
    4.0356    3.9576   -0.2223 H   0  0  0  0  0  0  0  0  0  0  0  0
    4.6219    3.3214    1.2436 H   0  0  0  0  0  0  0  0  0  0  0  0
    2.7791    4.6150    1.2569 C   0  0  0  0  0  0  0  0  0  0  0  0
    2.0790    5.3098    0.4781 O   0  0  0  0  0  0  0  0  0  0  0  0
    2.3428    4.3722    2.3922 O   0  0  0  0  0  0  0  0  0  0  0  0
    0.0314    2.8958   -0.0224 C   0  0  0  0  0  0  0  0  0  0  0  0
    0.0277    3.1831   -0.9954 H   0  0  0  0  0  0  0  0  0  0  0  0
    0.9211    3.1844    0.3722 H   0  0  0  0  0  0  0  0  0  0  0  0
   -0.7529    3.4531    0.4898 H   0  0  0  0  0  0  0  0  0  0  0  0
   -0.0016    1.4000    0.0001 C   0  0  0  0  0  0  0  0  0  0  0  0
   -1.1909    0.6858   -0.0064 C   0  0  0  0  0  0  0  0  0  0  0  0
   -2.0617    1.1770   -0.0175 H   0  0  0  0  0  0  0  0  0  0  0  0
   -1.1916   -0.6936   -0.0000 C   0  0  0  0  0  0  0  0  0  0  0  0
   -2.0696   -1.1924    0.0023 H   0  0  0  0  0  0  0  0  0  0  0  0
    0.0023   -1.3797    0.0050 C   0  0  0  0  0  0  0  0  0  0  0  0
   -0.0044   -2.3864    0.0115 H   0  0  0  0  0  0  0  0  0  0  0  0
    1.1916   -0.6965   -0.0000 C   0  0  0  0  0  0  0  0  0  0  0  0
    2.0760   -1.1959   -0.0032 H   0  0  0  0  0  0  0  0  0  0  0  0
    1.1902    0.6839    0.0013 C   0  0  0  0  0  0  0  0  0  0  0  0
    2.0615    1.1824    0.0020 H   0  0  0  0  0  0  0  0  0  0  0  0
  1  5  1  0
  5  6  2  0
  5  7  1  0
  1  2  1  0
  1  3  1  0
  1  4  1  0
  8 12  1  0
 12 13  2  0
 13 15  1  0
 15 17  2  0
 17 19  1  0
 19 21  2  0
 21 12  1  0
  8  9  1  0
  8 10  1  0
  8 11  1  0
 13 14  1  0
 15 16  1  0
 17 18  1  0
 19 20  1  0
 21 22  1  0
M  CHG  1   7  -1
V    7 [O&-]
M  END
>  <PDB_ID>  (2752) 
pdb1ax4

>  <RESIDUE_NAME>  (2752) 
GLU   PHE

>  <FRAG_NAME>  (2752) 
ACET   MBZ

>  <FRAG_ATOM_NUM>  (2752) 
fragi: 7 fragj: 15

>  <atom.prop.CHAIN_ID>  (2752) 
A A A A A A A Z Z Z Z Z Z Z Z Z Z Z Z Z Z Z

>  <atom.prop.IS_HEAVY_ATOM>  (2752) 
1 0 0 0 1 1 1 1 0 0 0 1 1 0 1 0 1 0 1 0 1 0

>  <DIFUSE_FUNC_ATOM>  (2752) 
n/a

>  <FINAL_SINGLE_POINT_ENERGY>  (2752) 
0

>  <NONCOV_INTER_ENERGY_QM>  (2752) 
0

>  <FF_Energy>  (2752) 
-0.5

>  <QM_Energy>  (2752) 
-5.51

>  <source>  (2752) 
ACET_MBZ_03

>  <Index>  (2752) 
9308

$$$$
ACEH-pdb5b4s-B-ASH-37:MBZ-pdb5b4s-B-PHE-203
     RDKit          3D

 22 21  0  0  0  0  0  0  0  0999 V2000
    6.3905    0.4908   -0.1087 C   0  0  0  0  0  0  0  0  0  0  0  0
    6.2927   -0.1688   -0.8498 H   0  0  0  0  0  0  0  0  0  0  0  0
    6.3844    0.0206    0.7690 H   0  0  0  0  0  0  0  0  0  0  0  0
    7.3557    0.9845   -0.2213 H   0  0  0  0  0  0  0  0  0  0  0  0
    5.2290    1.4510   -0.1555 C   0  0  0  0  0  0  0  0  0  0  0  0
    5.4324    2.6757   -0.3376 O   0  0  0  0  0  0  0  0  0  0  0  0
    4.0943    0.9534   -0.0119 O   0  0  0  0  0  0  0  0  0  0  0  0
    0.0121    2.8900   -0.0071 C   0  0  0  0  0  0  0  0  0  0  0  0
   -0.7121    3.2004   -0.6062 H   0  0  0  0  0  0  0  0  0  0  0  0
    0.8970    3.1935   -0.3310 H   0  0  0  0  0  0  0  0  0  0  0  0
   -0.1529    3.3406    0.9715 H   0  0  0  0  0  0  0  0  0  0  0  0
    0.0046    1.3936    0.0008 C   0  0  0  0  0  0  0  0  0  0  0  0
   -1.1979    0.6913   -0.0012 C   0  0  0  0  0  0  0  0  0  0  0  0
   -2.0598    1.1837   -0.0053 H   0  0  0  0  0  0  0  0  0  0  0  0
   -1.2010   -0.6977   -0.0000 C   0  0  0  0  0  0  0  0  0  0  0  0
   -2.0766   -1.1921   -0.0012 H   0  0  0  0  0  0  0  0  0  0  0  0
   -0.0021   -1.3830    0.0041 C   0  0  0  0  0  0  0  0  0  0  0  0
   -0.0037   -2.3877    0.0097 H   0  0  0  0  0  0  0  0  0  0  0  0
    1.2010   -0.6950   -0.0000 C   0  0  0  0  0  0  0  0  0  0  0  0
    2.0790   -1.1948    0.0009 H   0  0  0  0  0  0  0  0  0  0  0  0
    1.1954    0.6908   -0.0038 C   0  0  0  0  0  0  0  0  0  0  0  0
    2.0654    1.1875   -0.0106 H   0  0  0  0  0  0  0  0  0  0  0  0
  1  5  1  0
  5  6  2  0
  5  7  1  0
  1  2  1  0
  1  3  1  0
  1  4  1  0
  8 12  1  0
 12 13  2  0
 13 15  1  0
 15 17  2  0
 17 19  1  0
 19 21  2  0
 21 12  1  0
  8  9  1  0
  8 10  1  0
  8 11  1  0
 13 14  1  0
 15 16  1  0
 17 18  1  0
 19 20  1  0
 21 22  1  0
M  CHG  1   7  -1
V    7 [O&-]
M  END
>  <PDB_ID>  (2753) 
pdb5b4s

>  <RESIDUE_NAME>  (2753) 
ASP   PHE

>  <FRAG_NAME>  (2753) 
ACET   MBZ

>  <FRAG_ATOM_NUM>  (2753) 
fragi: 7 fragj: 15

>  <atom.prop.CHAIN_ID>  (2753) 
A A A A A A A Z Z Z Z Z Z Z Z Z Z Z Z Z Z Z

>  <atom.prop.IS_HEAVY_ATOM>  (2753) 
1 0 0 0 1 1 1 1 0 0 0 1 1 0 1 0 1 0 1 0 1 0

>  <DIFUSE_FUNC_ATOM>  (2753) 
n/a

>  <FINAL_SINGLE_POINT_ENERGY>  (2753) 
0

>  <NONCOV_INTER_ENERGY_QM>  (2753) 
0

>  <FF_Energy>  (2753) 
3.51

>  <QM_Energy>  (2753) 
-7.1

>  <source>  (2753) 
ACET_MBZ_03

>  <Index>  (2753) 
9344

$$$$
ACEH-pdb4b2y-B-ASH-400:MBZ-pdb4b2y-C-PHE-337
     RDKit          3D

 22 21  0  0  0  0  0  0  0  0999 V2000
   -0.1559    0.2764    3.4896 C   0  0  0  0  0  0  0  0  0  0  0  0
    0.1635   -0.0939    4.3525 H   0  0  0  0  0  0  0  0  0  0  0  0
    0.2346   -0.2217    2.7266 H   0  0  0  0  0  0  0  0  0  0  0  0
   -1.2353    0.1291    3.4536 H   0  0  0  0  0  0  0  0  0  0  0  0
    0.2462    1.7353    3.3935 C   0  0  0  0  0  0  0  0  0  0  0  0
    1.4767    2.0145    3.5567 O   0  0  0  0  0  0  0  0  0  0  0  0
   -0.6298    2.6100    3.0921 O   0  0  0  0  0  0  0  0  0  0  0  0
    0.0087    2.9056   -0.0319 C   0  0  0  0  0  0  0  0  0  0  0  0
    0.8430    3.2204    0.3898 H   0  0  0  0  0  0  0  0  0  0  0  0
   -0.7888    3.2276    0.4525 H   0  0  0  0  0  0  0  0  0  0  0  0
   -0.0287    3.3127   -1.0423 H   0  0  0  0  0  0  0  0  0  0  0  0
    0.0037    1.4061    0.0026 C   0  0  0  0  0  0  0  0  0  0  0  0
   -1.2080    0.6915   -0.0054 C   0  0  0  0  0  0  0  0  0  0  0  0
   -2.0681    1.1826   -0.0163 H   0  0  0  0  0  0  0  0  0  0  0  0
   -1.2103   -0.7077    0.0000 C   0  0  0  0  0  0  0  0  0  0  0  0
   -2.0804   -1.2021    0.0065 H   0  0  0  0  0  0  0  0  0  0  0  0
    0.0018   -1.3972   -0.0022 C   0  0  0  0  0  0  0  0  0  0  0  0
    0.0044   -2.3966   -0.0055 H   0  0  0  0  0  0  0  0  0  0  0  0
    1.2103   -0.6946   -0.0000 C   0  0  0  0  0  0  0  0  0  0  0  0
    2.0889   -1.1904   -0.0007 H   0  0  0  0  0  0  0  0  0  0  0  0
    1.2025    0.7020    0.0050 C   0  0  0  0  0  0  0  0  0  0  0  0
    2.0690    1.1977    0.0094 H   0  0  0  0  0  0  0  0  0  0  0  0
  1  5  1  0
  5  6  2  0
  5  7  1  0
  1  2  1  0
  1  3  1  0
  1  4  1  0
  8 12  1  0
 12 13  2  0
 13 15  1  0
 15 17  2  0
 17 19  1  0
 19 21  2  0
 21 12  1  0
  8  9  1  0
  8 10  1  0
  8 11  1  0
 13 14  1  0
 15 16  1  0
 17 18  1  0
 19 20  1  0
 21 22  1  0
M  CHG  1   7  -1
V    7 [O&-]
M  END
>  <PDB_ID>  (2754) 
pdb4b2y

>  <RESIDUE_NAME>  (2754) 
ASP   PHE

>  <FRAG_NAME>  (2754) 
ACET   MBZ

>  <FRAG_ATOM_NUM>  (2754) 
fragi: 7 fragj: 15

>  <atom.prop.CHAIN_ID>  (2754) 
A A A A A A A Z Z Z Z Z Z Z Z Z Z Z Z Z Z Z

>  <atom.prop.IS_HEAVY_ATOM>  (2754) 
1 0 0 0 1 1 1 1 0 0 0 1 1 0 1 0 1 0 1 0 1 0

>  <DIFUSE_FUNC_ATOM>  (2754) 
n/a

>  <FINAL_SINGLE_POINT_ENERGY>  (2754) 
0

>  <NONCOV_INTER_ENERGY_QM>  (2754) 
0

>  <FF_Energy>  (2754) 
0.65

>  <QM_Energy>  (2754) 
-5.93

>  <source>  (2754) 
ACET_MBZ_03

>  <Index>  (2754) 
9412

$$$$
ACEH-pdb4b2y-A-ASH-400:MBZ-pdb4b2y-D-PHE-337
     RDKit          3D

 22 21  0  0  0  0  0  0  0  0999 V2000
   -0.3388    0.3933    3.6083 C   0  0  0  0  0  0  0  0  0  0  0  0
   -0.0967    0.1476    4.5401 H   0  0  0  0  0  0  0  0  0  0  0  0
    0.1513   -0.1770    2.9593 H   0  0  0  0  0  0  0  0  0  0  0  0
   -1.4040    0.2000    3.4814 H   0  0  0  0  0  0  0  0  0  0  0  0
    0.0612    1.8604    3.3694 C   0  0  0  0  0  0  0  0  0  0  0  0
    1.2947    2.1734    3.4949 O   0  0  0  0  0  0  0  0  0  0  0  0
   -0.8102    2.7208    3.0384 O   0  0  0  0  0  0  0  0  0  0  0  0
   -0.0154    2.9032   -0.0488 C   0  0  0  0  0  0  0  0  0  0  0  0
    0.8063    3.2329    0.3818 H   0  0  0  0  0  0  0  0  0  0  0  0
   -0.8265    3.2208    0.4099 H   0  0  0  0  0  0  0  0  0  0  0  0
   -0.0364    3.2901   -1.0676 H   0  0  0  0  0  0  0  0  0  0  0  0
   -0.0035    1.3984    0.0089 C   0  0  0  0  0  0  0  0  0  0  0  0
   -1.1984    0.6872    0.0042 C   0  0  0  0  0  0  0  0  0  0  0  0
   -2.0658    1.1791    0.0024 H   0  0  0  0  0  0  0  0  0  0  0  0
   -1.2039   -0.6998    0.0000 C   0  0  0  0  0  0  0  0  0  0  0  0
   -2.0809   -1.1927   -0.0106 H   0  0  0  0  0  0  0  0  0  0  0  0
   -0.0085   -1.3865    0.0118 C   0  0  0  0  0  0  0  0  0  0  0  0
   -0.0036   -2.3884    0.0285 H   0  0  0  0  0  0  0  0  0  0  0  0
    1.2039   -0.6916    0.0000 C   0  0  0  0  0  0  0  0  0  0  0  0
    2.0787   -1.2019    0.0117 H   0  0  0  0  0  0  0  0  0  0  0  0
    1.2104    0.6923   -0.0249 C   0  0  0  0  0  0  0  0  0  0  0  0
    2.0656    1.1928   -0.0671 H   0  0  0  0  0  0  0  0  0  0  0  0
  1  5  1  0
  5  6  2  0
  5  7  1  0
  1  2  1  0
  1  3  1  0
  1  4  1  0
  8 12  1  0
 12 13  2  0
 13 15  1  0
 15 17  2  0
 17 19  1  0
 19 21  2  0
 21 12  1  0
  8  9  1  0
  8 10  1  0
  8 11  1  0
 13 14  1  0
 15 16  1  0
 17 18  1  0
 19 20  1  0
 21 22  1  0
M  CHG  1   7  -1
V    7 [O&-]
M  END
>  <PDB_ID>  (2755) 
pdb4b2y

>  <RESIDUE_NAME>  (2755) 
ASP   PHE

>  <FRAG_NAME>  (2755) 
ACET   MBZ

>  <FRAG_ATOM_NUM>  (2755) 
fragi: 7 fragj: 15

>  <atom.prop.CHAIN_ID>  (2755) 
A A A A A A A Z Z Z Z Z Z Z Z Z Z Z Z Z Z Z

>  <atom.prop.IS_HEAVY_ATOM>  (2755) 
1 0 0 0 1 1 1 1 0 0 0 1 1 0 1 0 1 0 1 0 1 0

>  <DIFUSE_FUNC_ATOM>  (2755) 
n/a

>  <FINAL_SINGLE_POINT_ENERGY>  (2755) 
0

>  <NONCOV_INTER_ENERGY_QM>  (2755) 
0

>  <FF_Energy>  (2755) 
0.57

>  <QM_Energy>  (2755) 
-6.0

>  <source>  (2755) 
ACET_MBZ_03

>  <Index>  (2755) 
9414

$$$$
ACEH-pdb4b40-C-ASH-400:MBZ-pdb4b40-B-PHE-337
     RDKit          3D

 22 21  0  0  0  0  0  0  0  0999 V2000
   -0.1855    0.3258    3.6333 C   0  0  0  0  0  0  0  0  0  0  0  0
    0.0811    0.0672    4.5497 H   0  0  0  0  0  0  0  0  0  0  0  0
    0.2899   -0.2140    2.9555 H   0  0  0  0  0  0  0  0  0  0  0  0
   -1.2525    0.1289    3.5289 H   0  0  0  0  0  0  0  0  0  0  0  0
    0.1707    1.8076    3.4187 C   0  0  0  0  0  0  0  0  0  0  0  0
    1.3701    2.1742    3.5381 O   0  0  0  0  0  0  0  0  0  0  0  0
   -0.7548    2.6127    3.1612 O   0  0  0  0  0  0  0  0  0  0  0  0
   -0.0043    2.9448   -0.0346 C   0  0  0  0  0  0  0  0  0  0  0  0
    0.8352    3.2496    0.3710 H   0  0  0  0  0  0  0  0  0  0  0  0
   -0.7948    3.2507    0.4595 H   0  0  0  0  0  0  0  0  0  0  0  0
   -0.0592    3.3347   -1.0510 H   0  0  0  0  0  0  0  0  0  0  0  0
   -0.0030    1.4150    0.0091 C   0  0  0  0  0  0  0  0  0  0  0  0
   -1.2122    0.6906   -0.0032 C   0  0  0  0  0  0  0  0  0  0  0  0
   -2.0755    1.1717   -0.0153 H   0  0  0  0  0  0  0  0  0  0  0  0
   -1.2075   -0.7192    0.0000 C   0  0  0  0  0  0  0  0  0  0  0  0
   -2.0753   -1.2135    0.0001 H   0  0  0  0  0  0  0  0  0  0  0  0
    0.0094   -1.4027    0.0052 C   0  0  0  0  0  0  0  0  0  0  0  0
    0.0151   -2.4018    0.0124 H   0  0  0  0  0  0  0  0  0  0  0  0
    1.2075   -0.6942   -0.0000 C   0  0  0  0  0  0  0  0  0  0  0  0
    2.0938   -1.1850    0.0058 H   0  0  0  0  0  0  0  0  0  0  0  0
    1.2058    0.7106   -0.0112 C   0  0  0  0  0  0  0  0  0  0  0  0
    2.0670    1.2034   -0.0340 H   0  0  0  0  0  0  0  0  0  0  0  0
  1  5  1  0
  5  6  2  0
  5  7  1  0
  1  2  1  0
  1  3  1  0
  1  4  1  0
  8 12  1  0
 12 13  2  0
 13 15  1  0
 15 17  2  0
 17 19  1  0
 19 21  2  0
 21 12  1  0
  8  9  1  0
  8 10  1  0
  8 11  1  0
 13 14  1  0
 15 16  1  0
 17 18  1  0
 19 20  1  0
 21 22  1  0
M  CHG  1   7  -1
V    7 [O&-]
M  END
>  <PDB_ID>  (2756) 
pdb4b40

>  <RESIDUE_NAME>  (2756) 
ASP   PHE

>  <FRAG_NAME>  (2756) 
ACET   MBZ

>  <FRAG_ATOM_NUM>  (2756) 
fragi: 7 fragj: 15

>  <atom.prop.CHAIN_ID>  (2756) 
A A A A A A A Z Z Z Z Z Z Z Z Z Z Z Z Z Z Z

>  <atom.prop.IS_HEAVY_ATOM>  (2756) 
1 0 0 0 1 1 1 1 0 0 0 1 1 0 1 0 1 0 1 0 1 0

>  <DIFUSE_FUNC_ATOM>  (2756) 
n/a

>  <FINAL_SINGLE_POINT_ENERGY>  (2756) 
0

>  <NONCOV_INTER_ENERGY_QM>  (2756) 
0

>  <FF_Energy>  (2756) 
0.32

>  <QM_Energy>  (2756) 
-5.69

>  <source>  (2756) 
ACET_MBZ_03

>  <Index>  (2756) 
9433

$$$$
ACEH-pdb4b40-A-ASH-400:MBZ-pdb4b40-D-PHE-337
     RDKit          3D

 22 21  0  0  0  0  0  0  0  0999 V2000
    0.2054    0.3529   -3.5257 C   0  0  0  0  0  0  0  0  0  0  0  0
   -0.1079    0.0370   -4.4131 H   0  0  0  0  0  0  0  0  0  0  0  0
   -0.2086   -0.1777   -2.7977 H   0  0  0  0  0  0  0  0  0  0  0  0
    1.2835    0.1995   -3.4788 H   0  0  0  0  0  0  0  0  0  0  0  0
   -0.2052    1.8208   -3.3567 C   0  0  0  0  0  0  0  0  0  0  0  0
    0.6676    2.6840   -3.0549 O   0  0  0  0  0  0  0  0  0  0  0  0
   -1.4094    2.1272   -3.5398 O   0  0  0  0  0  0  0  0  0  0  0  0
   -0.0169    2.9055    0.0468 C   0  0  0  0  0  0  0  0  0  0  0  0
   -0.8225    3.2230   -0.4197 H   0  0  0  0  0  0  0  0  0  0  0  0
    0.8098    3.2380   -0.3706 H   0  0  0  0  0  0  0  0  0  0  0  0
   -0.0508    3.2826    1.0689 H   0  0  0  0  0  0  0  0  0  0  0  0
   -0.0019    1.4043   -0.0156 C   0  0  0  0  0  0  0  0  0  0  0  0
   -1.2064    0.6995    0.0231 C   0  0  0  0  0  0  0  0  0  0  0  0
   -2.0666    1.1880    0.0663 H   0  0  0  0  0  0  0  0  0  0  0  0
   -1.2054   -0.6954   -0.0000 C   0  0  0  0  0  0  0  0  0  0  0  0
   -2.0767   -1.1931   -0.0024 H   0  0  0  0  0  0  0  0  0  0  0  0
    0.0064   -1.3892   -0.0180 C   0  0  0  0  0  0  0  0  0  0  0  0
   -0.0075   -2.3936   -0.0444 H   0  0  0  0  0  0  0  0  0  0  0  0
    1.2054   -0.7092    0.0000 C   0  0  0  0  0  0  0  0  0  0  0  0
    2.0860   -1.2024    0.0073 H   0  0  0  0  0  0  0  0  0  0  0  0
    1.2018    0.6900    0.0105 C   0  0  0  0  0  0  0  0  0  0  0  0
    2.0678    1.1843    0.0365 H   0  0  0  0  0  0  0  0  0  0  0  0
  1  5  1  0
  5  6  2  0
  5  7  1  0
  1  2  1  0
  1  3  1  0
  1  4  1  0
  8 12  1  0
 12 13  2  0
 13 15  1  0
 15 17  2  0
 17 19  1  0
 19 21  2  0
 21 12  1  0
  8  9  1  0
  8 10  1  0
  8 11  1  0
 13 14  1  0
 15 16  1  0
 17 18  1  0
 19 20  1  0
 21 22  1  0
M  CHG  1   7  -1
V    7 [O&-]
M  END
>  <PDB_ID>  (2757) 
pdb4b40

>  <RESIDUE_NAME>  (2757) 
ASP   PHE

>  <FRAG_NAME>  (2757) 
ACET   MBZ

>  <FRAG_ATOM_NUM>  (2757) 
fragi: 7 fragj: 15

>  <atom.prop.CHAIN_ID>  (2757) 
A A A A A A A Z Z Z Z Z Z Z Z Z Z Z Z Z Z Z

>  <atom.prop.IS_HEAVY_ATOM>  (2757) 
1 0 0 0 1 1 1 1 0 0 0 1 1 0 1 0 1 0 1 0 1 0

>  <DIFUSE_FUNC_ATOM>  (2757) 
n/a

>  <FINAL_SINGLE_POINT_ENERGY>  (2757) 
0

>  <NONCOV_INTER_ENERGY_QM>  (2757) 
0

>  <FF_Energy>  (2757) 
0.76

>  <QM_Energy>  (2757) 
-5.85

>  <source>  (2757) 
ACET_MBZ_03

>  <Index>  (2757) 
9437

$$$$
ACEH-pdb1b30-A-ASH-174:MBZ-pdb1b30-A-PHE-134
     RDKit          3D

 22 21  0  0  0  0  0  0  0  0999 V2000
    5.5654    3.2528    0.4619 C   0  0  0  0  0  0  0  0  0  0  0  0
    5.5327    2.3152    0.1385 H   0  0  0  0  0  0  0  0  0  0  0  0
    5.4622    3.2872    1.4481 H   0  0  0  0  0  0  0  0  0  0  0  0
    6.5439    3.6621    0.2108 H   0  0  0  0  0  0  0  0  0  0  0  0
    4.4295    4.0296   -0.1758 C   0  0  0  0  0  0  0  0  0  0  0  0
    4.5774    5.2485   -0.3688 O   0  0  0  0  0  0  0  0  0  0  0  0
    3.3954    3.4266   -0.5072 O   0  0  0  0  0  0  0  0  0  0  0  0
   -0.0015    2.8863   -0.0320 C   0  0  0  0  0  0  0  0  0  0  0  0
    0.9195    3.2047    0.1402 H   0  0  0  0  0  0  0  0  0  0  0  0
   -0.6280    3.2134    0.6600 H   0  0  0  0  0  0  0  0  0  0  0  0
   -0.3195    3.3106   -0.9844 H   0  0  0  0  0  0  0  0  0  0  0  0
   -0.0007    1.3957   -0.0034 C   0  0  0  0  0  0  0  0  0  0  0  0
   -1.1993    0.6921    0.0003 C   0  0  0  0  0  0  0  0  0  0  0  0
   -2.0633    1.1875    0.0018 H   0  0  0  0  0  0  0  0  0  0  0  0
   -1.2046   -0.6888   -0.0000 C   0  0  0  0  0  0  0  0  0  0  0  0
   -2.0779   -1.1890   -0.0006 H   0  0  0  0  0  0  0  0  0  0  0  0
    0.0020   -1.3904    0.0021 C   0  0  0  0  0  0  0  0  0  0  0  0
   -0.0076   -2.3880    0.0050 H   0  0  0  0  0  0  0  0  0  0  0  0
    1.2046   -0.6973   -0.0000 C   0  0  0  0  0  0  0  0  0  0  0  0
    2.0836   -1.1968   -0.0004 H   0  0  0  0  0  0  0  0  0  0  0  0
    1.1979    0.6887    0.0010 C   0  0  0  0  0  0  0  0  0  0  0  0
    2.0648    1.1891    0.0037 H   0  0  0  0  0  0  0  0  0  0  0  0
  1  5  1  0
  5  6  2  0
  5  7  1  0
  1  2  1  0
  1  3  1  0
  1  4  1  0
  8 12  1  0
 12 13  2  0
 13 15  1  0
 15 17  2  0
 17 19  1  0
 19 21  2  0
 21 12  1  0
  8  9  1  0
  8 10  1  0
  8 11  1  0
 13 14  1  0
 15 16  1  0
 17 18  1  0
 19 20  1  0
 21 22  1  0
M  CHG  1   7  -1
V    7 [O&-]
M  END
>  <PDB_ID>  (2758) 
pdb1b30

>  <RESIDUE_NAME>  (2758) 
ASP   PHE

>  <FRAG_NAME>  (2758) 
ACET   MBZ

>  <FRAG_ATOM_NUM>  (2758) 
fragi: 7 fragj: 15

>  <atom.prop.CHAIN_ID>  (2758) 
A A A A A A A Z Z Z Z Z Z Z Z Z Z Z Z Z Z Z

>  <atom.prop.IS_HEAVY_ATOM>  (2758) 
1 0 0 0 1 1 1 1 0 0 0 1 1 0 1 0 1 0 1 0 1 0

>  <DIFUSE_FUNC_ATOM>  (2758) 
n/a

>  <FINAL_SINGLE_POINT_ENERGY>  (2758) 
0

>  <NONCOV_INTER_ENERGY_QM>  (2758) 
0

>  <FF_Energy>  (2758) 
-2.18

>  <QM_Energy>  (2758) 
-7.49

>  <source>  (2758) 
ACET_MBZ_03

>  <Index>  (2758) 
9448

$$$$
ACEH-pdb5bk6-C-GLH-182:MBZ-pdb5bk6-C-PHE-148
     RDKit          3D

 22 21  0  0  0  0  0  0  0  0999 V2000
   -2.7987    3.0872   -3.2273 C   0  0  0  0  0  0  0  0  0  0  0  0
   -2.1978    3.6196   -3.7752 H   0  0  0  0  0  0  0  0  0  0  0  0
   -3.7216    3.0860   -3.5332 H   0  0  0  0  0  0  0  0  0  0  0  0
   -2.4312    2.0620   -3.1828 H   0  0  0  0  0  0  0  0  0  0  0  0
   -2.8001    3.7304   -1.8148 C   0  0  0  0  0  0  0  0  0  0  0  0
   -2.4001    4.9476   -1.6748 O   0  0  0  0  0  0  0  0  0  0  0  0
   -3.2500    3.0707   -0.8284 O   0  0  0  0  0  0  0  0  0  0  0  0
    0.0703    2.8945    0.0668 C   0  0  0  0  0  0  0  0  0  0  0  0
   -0.5796    3.2458   -0.5910 H   0  0  0  0  0  0  0  0  0  0  0  0
    0.9901    3.1951   -0.1421 H   0  0  0  0  0  0  0  0  0  0  0  0
   -0.1927    3.3233    1.0338 H   0  0  0  0  0  0  0  0  0  0  0  0
    0.0350    1.3998    0.0225 C   0  0  0  0  0  0  0  0  0  0  0  0
   -1.1768    0.6937   -0.0037 C   0  0  0  0  0  0  0  0  0  0  0  0
   -2.0315    1.2021   -0.0260 H   0  0  0  0  0  0  0  0  0  0  0  0
   -1.1795   -0.6698    0.0000 C   0  0  0  0  0  0  0  0  0  0  0  0
   -2.0962   -1.1500    0.0133 H   0  0  0  0  0  0  0  0  0  0  0  0
   -0.0511   -1.3829   -0.0116 C   0  0  0  0  0  0  0  0  0  0  0  0
   -0.0593   -2.3862   -0.0291 H   0  0  0  0  0  0  0  0  0  0  0  0
    1.1795   -0.7190   -0.0000 C   0  0  0  0  0  0  0  0  0  0  0  0
    2.0407   -1.2322    0.0145 H   0  0  0  0  0  0  0  0  0  0  0  0
    1.1929    0.6783   -0.0071 C   0  0  0  0  0  0  0  0  0  0  0  0
    2.0826    1.1492   -0.0355 H   0  0  0  0  0  0  0  0  0  0  0  0
  1  5  1  0
  5  6  2  0
  5  7  1  0
  1  2  1  0
  1  3  1  0
  1  4  1  0
  8 12  1  0
 12 13  2  0
 13 15  1  0
 15 17  2  0
 17 19  1  0
 19 21  2  0
 21 12  1  0
  8  9  1  0
  8 10  1  0
  8 11  1  0
 13 14  1  0
 15 16  1  0
 17 18  1  0
 19 20  1  0
 21 22  1  0
M  CHG  1   7  -1
V    7 [O&-]
M  END
>  <PDB_ID>  (2759) 
pdb5bk6

>  <RESIDUE_NAME>  (2759) 
GLU   PHE

>  <FRAG_NAME>  (2759) 
ACET   MBZ

>  <FRAG_ATOM_NUM>  (2759) 
fragi: 7 fragj: 15

>  <atom.prop.CHAIN_ID>  (2759) 
A A A A A A A Z Z Z Z Z Z Z Z Z Z Z Z Z Z Z

>  <atom.prop.IS_HEAVY_ATOM>  (2759) 
1 0 0 0 1 1 1 1 0 0 0 1 1 0 1 0 1 0 1 0 1 0

>  <DIFUSE_FUNC_ATOM>  (2759) 
n/a

>  <FINAL_SINGLE_POINT_ENERGY>  (2759) 
0

>  <NONCOV_INTER_ENERGY_QM>  (2759) 
0

>  <FF_Energy>  (2759) 
-1.81

>  <QM_Energy>  (2759) 
-8.48

>  <source>  (2759) 
ACET_MBZ_03

>  <Index>  (2759) 
9454

$$$$
ACEH-pdb2bkh-A-GLH-478:MBZ-pdb2bkh-A-PHE-582
     RDKit          3D

 22 21  0  0  0  0  0  0  0  0999 V2000
    5.3619    2.7691   -1.2001 C   0  0  0  0  0  0  0  0  0  0  0  0
    6.1665    3.2030   -0.8354 H   0  0  0  0  0  0  0  0  0  0  0  0
    5.0966    3.1513   -2.0680 H   0  0  0  0  0  0  0  0  0  0  0  0
    5.5808    1.7111   -1.3440 H   0  0  0  0  0  0  0  0  0  0  0  0
    4.2149    3.0361   -0.2164 C   0  0  0  0  0  0  0  0  0  0  0  0
    4.1315    2.3379    0.8217 O   0  0  0  0  0  0  0  0  0  0  0  0
    3.3966    3.9462   -0.4854 O   0  0  0  0  0  0  0  0  0  0  0  0
   -0.0008    2.9280   -0.0339 C   0  0  0  0  0  0  0  0  0  0  0  0
   -0.8528    3.2125   -0.4418 H   0  0  0  0  0  0  0  0  0  0  0  0
    0.7756    3.2185   -0.5693 H   0  0  0  0  0  0  0  0  0  0  0  0
    0.0748    3.3912    0.9500 H   0  0  0  0  0  0  0  0  0  0  0  0
    0.0066    1.3997   -0.0068 C   0  0  0  0  0  0  0  0  0  0  0  0
   -1.1878    0.6813   -0.0040 C   0  0  0  0  0  0  0  0  0  0  0  0
   -2.0561    1.1795   -0.0065 H   0  0  0  0  0  0  0  0  0  0  0  0
   -1.1940   -0.6936   -0.0000 C   0  0  0  0  0  0  0  0  0  0  0  0
   -2.0816   -1.1848   -0.0058 H   0  0  0  0  0  0  0  0  0  0  0  0
   -0.0172   -1.3882    0.0137 C   0  0  0  0  0  0  0  0  0  0  0  0
   -0.0139   -2.3884    0.0333 H   0  0  0  0  0  0  0  0  0  0  0  0
    1.1940   -0.6946    0.0000 C   0  0  0  0  0  0  0  0  0  0  0  0
    2.0700   -1.2009   -0.0059 H   0  0  0  0  0  0  0  0  0  0  0  0
    1.1985    0.6954   -0.0029 C   0  0  0  0  0  0  0  0  0  0  0  0
    2.0680    1.1858   -0.0026 H   0  0  0  0  0  0  0  0  0  0  0  0
  1  5  1  0
  5  6  2  0
  5  7  1  0
  1  2  1  0
  1  3  1  0
  1  4  1  0
  8 12  1  0
 12 13  2  0
 13 15  1  0
 15 17  2  0
 17 19  1  0
 19 21  2  0
 21 12  1  0
  8  9  1  0
  8 10  1  0
  8 11  1  0
 13 14  1  0
 15 16  1  0
 17 18  1  0
 19 20  1  0
 21 22  1  0
M  CHG  1   7  -1
V    7 [O&-]
M  END
>  <PDB_ID>  (2760) 
pdb2bkh

>  <RESIDUE_NAME>  (2760) 
GLU   PHE

>  <FRAG_NAME>  (2760) 
ACET   MBZ

>  <FRAG_ATOM_NUM>  (2760) 
fragi: 7 fragj: 15

>  <atom.prop.CHAIN_ID>  (2760) 
A A A A A A A Z Z Z Z Z Z Z Z Z Z Z Z Z Z Z

>  <atom.prop.IS_HEAVY_ATOM>  (2760) 
1 0 0 0 1 1 1 1 0 0 0 1 1 0 1 0 1 0 1 0 1 0

>  <DIFUSE_FUNC_ATOM>  (2760) 
n/a

>  <FINAL_SINGLE_POINT_ENERGY>  (2760) 
0

>  <NONCOV_INTER_ENERGY_QM>  (2760) 
0

>  <FF_Energy>  (2760) 
-2.61

>  <QM_Energy>  (2760) 
-8.31

>  <source>  (2760) 
ACET_MBZ_03

>  <Index>  (2760) 
9470

$$$$
ACEH-pdb1b4e-A-GLH-123:MBZ-pdb1b4e-A-PHE-79
     RDKit          3D

 22 21  0  0  0  0  0  0  0  0999 V2000
   -5.7606    3.6697    1.2629 C   0  0  0  0  0  0  0  0  0  0  0  0
   -5.3457    4.3280    1.8553 H   0  0  0  0  0  0  0  0  0  0  0  0
   -6.3009    3.0096    1.7405 H   0  0  0  0  0  0  0  0  0  0  0  0
   -6.4168    4.2054    0.5769 H   0  0  0  0  0  0  0  0  0  0  0  0
   -4.6653    2.9395    0.5311 C   0  0  0  0  0  0  0  0  0  0  0  0
   -4.6409    1.6925    0.5369 O   0  0  0  0  0  0  0  0  0  0  0  0
   -3.7992    3.5986   -0.0884 O   0  0  0  0  0  0  0  0  0  0  0  0
   -0.1442    2.8855   -0.0247 C   0  0  0  0  0  0  0  0  0  0  0  0
    0.6896    3.2560    0.3716 H   0  0  0  0  0  0  0  0  0  0  0  0
   -0.9315    3.1357    0.5294 H   0  0  0  0  0  0  0  0  0  0  0  0
   -0.2736    3.3327   -1.0102 H   0  0  0  0  0  0  0  0  0  0  0  0
   -0.0329    1.3927   -0.0206 C   0  0  0  0  0  0  0  0  0  0  0  0
   -1.1862    0.6264    0.0090 C   0  0  0  0  0  0  0  0  0  0  0  0
   -2.0855    1.1130    0.0383 H   0  0  0  0  0  0  0  0  0  0  0  0
   -1.2056   -0.7555    0.0000 C   0  0  0  0  0  0  0  0  0  0  0  0
   -2.0432   -1.2600   -0.0123 H   0  0  0  0  0  0  0  0  0  0  0  0
    0.0323   -1.3626    0.0120 C   0  0  0  0  0  0  0  0  0  0  0  0
    0.0710   -2.3840    0.0304 H   0  0  0  0  0  0  0  0  0  0  0  0
    1.2056   -0.6504   -0.0000 C   0  0  0  0  0  0  0  0  0  0  0  0
    2.1042   -1.1268   -0.0069 H   0  0  0  0  0  0  0  0  0  0  0  0
    1.1868    0.7495   -0.0005 C   0  0  0  0  0  0  0  0  0  0  0  0
    2.0314    1.2547    0.0125 H   0  0  0  0  0  0  0  0  0  0  0  0
  1  5  1  0
  5  6  2  0
  5  7  1  0
  1  2  1  0
  1  3  1  0
  1  4  1  0
  8 12  1  0
 12 13  2  0
 13 15  1  0
 15 17  2  0
 17 19  1  0
 19 21  2  0
 21 12  1  0
  8  9  1  0
  8 10  1  0
  8 11  1  0
 13 14  1  0
 15 16  1  0
 17 18  1  0
 19 20  1  0
 21 22  1  0
M  CHG  1   7  -1
V    7 [O&-]
M  END
>  <PDB_ID>  (2761) 
pdb1b4e

>  <RESIDUE_NAME>  (2761) 
GLU   PHE

>  <FRAG_NAME>  (2761) 
ACET   MBZ

>  <FRAG_ATOM_NUM>  (2761) 
fragi: 7 fragj: 15

>  <atom.prop.CHAIN_ID>  (2761) 
A A A A A A A Z Z Z Z Z Z Z Z Z Z Z Z Z Z Z

>  <atom.prop.IS_HEAVY_ATOM>  (2761) 
1 0 0 0 1 1 1 1 0 0 0 1 1 0 1 0 1 0 1 0 1 0

>  <DIFUSE_FUNC_ATOM>  (2761) 
n/a

>  <FINAL_SINGLE_POINT_ENERGY>  (2761) 
0

>  <NONCOV_INTER_ENERGY_QM>  (2761) 
0

>  <FF_Energy>  (2761) 
-3.12

>  <QM_Energy>  (2761) 
-8.13

>  <source>  (2761) 
ACET_MBZ_03

>  <Index>  (2761) 
9481

$$$$
ACEH-pdb2bm8-K-GLH-87:MBZ-pdb2bm8-K-PHE-99
     RDKit          3D

 22 21  0  0  0  0  0  0  0  0999 V2000
   -5.1570   -0.3879   -1.7182 C   0  0  0  0  0  0  0  0  0  0  0  0
   -4.3764   -0.2015   -2.2926 H   0  0  0  0  0  0  0  0  0  0  0  0
   -5.2422    0.2789   -0.9946 H   0  0  0  0  0  0  0  0  0  0  0  0
   -6.0527   -0.3341   -2.3369 H   0  0  0  0  0  0  0  0  0  0  0  0
   -4.9205   -1.7504   -1.0540 C   0  0  0  0  0  0  0  0  0  0  0  0
   -4.0558   -1.8370   -0.1471 O   0  0  0  0  0  0  0  0  0  0  0  0
   -5.5753   -2.7526   -1.4474 O   0  0  0  0  0  0  0  0  0  0  0  0
   -0.0160    2.8962   -0.0369 C   0  0  0  0  0  0  0  0  0  0  0  0
   -0.9430    3.2023    0.1191 H   0  0  0  0  0  0  0  0  0  0  0  0
    0.3138    3.1896   -0.9224 H   0  0  0  0  0  0  0  0  0  0  0  0
    0.6149    3.3642    0.7188 H   0  0  0  0  0  0  0  0  0  0  0  0
   -0.0052    1.3939   -0.0051 C   0  0  0  0  0  0  0  0  0  0  0  0
   -1.1992    0.6836   -0.0045 C   0  0  0  0  0  0  0  0  0  0  0  0
   -2.0662    1.1769   -0.0086 H   0  0  0  0  0  0  0  0  0  0  0  0
   -1.1981   -0.6933    0.0000 C   0  0  0  0  0  0  0  0  0  0  0  0
   -2.0691   -1.1985   -0.0072 H   0  0  0  0  0  0  0  0  0  0  0  0
    0.0091   -1.3829    0.0166 C   0  0  0  0  0  0  0  0  0  0  0  0
    0.0036   -2.3838    0.0400 H   0  0  0  0  0  0  0  0  0  0  0  0
    1.1981   -0.6886   -0.0000 C   0  0  0  0  0  0  0  0  0  0  0  0
    2.0845   -1.1900   -0.0054 H   0  0  0  0  0  0  0  0  0  0  0  0
    1.1953    0.6873   -0.0069 C   0  0  0  0  0  0  0  0  0  0  0  0
    2.0598    1.1913   -0.0140 H   0  0  0  0  0  0  0  0  0  0  0  0
  1  5  1  0
  5  6  2  0
  5  7  1  0
  1  2  1  0
  1  3  1  0
  1  4  1  0
  8 12  1  0
 12 13  2  0
 13 15  1  0
 15 17  2  0
 17 19  1  0
 19 21  2  0
 21 12  1  0
  8  9  1  0
  8 10  1  0
  8 11  1  0
 13 14  1  0
 15 16  1  0
 17 18  1  0
 19 20  1  0
 21 22  1  0
M  CHG  1   7  -1
V    7 [O&-]
M  END
>  <PDB_ID>  (2762) 
pdb2bm8

>  <RESIDUE_NAME>  (2762) 
GLU   PHE

>  <FRAG_NAME>  (2762) 
ACET   MBZ

>  <FRAG_ATOM_NUM>  (2762) 
fragi: 7 fragj: 15

>  <atom.prop.CHAIN_ID>  (2762) 
A A A A A A A Z Z Z Z Z Z Z Z Z Z Z Z Z Z Z

>  <atom.prop.IS_HEAVY_ATOM>  (2762) 
1 0 0 0 1 1 1 1 0 0 0 1 1 0 1 0 1 0 1 0 1 0

>  <DIFUSE_FUNC_ATOM>  (2762) 
n/a

>  <FINAL_SINGLE_POINT_ENERGY>  (2762) 
0

>  <NONCOV_INTER_ENERGY_QM>  (2762) 
0

>  <FF_Energy>  (2762) 
0.99

>  <QM_Energy>  (2762) 
-6.25

>  <source>  (2762) 
ACET_MBZ_03

>  <Index>  (2762) 
9499

$$$$
ACEH-pdb5bnf-A-GLH-230:MBZ-pdb5bnf-A-PHE-129
     RDKit          3D

 22 21  0  0  0  0  0  0  0  0999 V2000
   -3.1133   -1.4366    3.2254 C   0  0  0  0  0  0  0  0  0  0  0  0
   -3.1030   -2.2061    2.6090 H   0  0  0  0  0  0  0  0  0  0  0  0
   -3.7969   -1.5427    3.9293 H   0  0  0  0  0  0  0  0  0  0  0  0
   -2.1355   -1.3654    3.7018 H   0  0  0  0  0  0  0  0  0  0  0  0
   -3.4761   -0.2111    2.4194 C   0  0  0  0  0  0  0  0  0  0  0  0
   -3.9677   -0.3709    1.2867 O   0  0  0  0  0  0  0  0  0  0  0  0
   -3.2870    0.9141    2.9226 O   0  0  0  0  0  0  0  0  0  0  0  0
    0.0026    2.9016    0.0073 C   0  0  0  0  0  0  0  0  0  0  0  0
    0.9219    3.2082    0.2121 H   0  0  0  0  0  0  0  0  0  0  0  0
   -0.6377    3.2083    0.6977 H   0  0  0  0  0  0  0  0  0  0  0  0
   -0.2925    3.3527   -0.9401 H   0  0  0  0  0  0  0  0  0  0  0  0
   -0.0002    1.4034    0.0002 C   0  0  0  0  0  0  0  0  0  0  0  0
   -1.1952    0.6975   -0.0010 C   0  0  0  0  0  0  0  0  0  0  0  0
   -2.0622    1.1841   -0.0039 H   0  0  0  0  0  0  0  0  0  0  0  0
   -1.1959   -0.6962    0.0000 C   0  0  0  0  0  0  0  0  0  0  0  0
   -2.0741   -1.1892    0.0015 H   0  0  0  0  0  0  0  0  0  0  0  0
    0.0033   -1.3947    0.0011 C   0  0  0  0  0  0  0  0  0  0  0  0
   -0.0065   -2.3943    0.0026 H   0  0  0  0  0  0  0  0  0  0  0  0
    1.1959   -0.7037   -0.0000 C   0  0  0  0  0  0  0  0  0  0  0  0
    2.0816   -1.1956    0.0010 H   0  0  0  0  0  0  0  0  0  0  0  0
    1.1921    0.6937   -0.0003 C   0  0  0  0  0  0  0  0  0  0  0  0
    2.0635    1.1852   -0.0013 H   0  0  0  0  0  0  0  0  0  0  0  0
  1  5  1  0
  5  6  2  0
  5  7  1  0
  1  2  1  0
  1  3  1  0
  1  4  1  0
  8 12  1  0
 12 13  2  0
 13 15  1  0
 15 17  2  0
 17 19  1  0
 19 21  2  0
 21 12  1  0
  8  9  1  0
  8 10  1  0
  8 11  1  0
 13 14  1  0
 15 16  1  0
 17 18  1  0
 19 20  1  0
 21 22  1  0
M  CHG  1   7  -1
V    7 [O&-]
M  END
>  <PDB_ID>  (2763) 
pdb5bnf

>  <RESIDUE_NAME>  (2763) 
GLU   PHE

>  <FRAG_NAME>  (2763) 
ACET   MBZ

>  <FRAG_ATOM_NUM>  (2763) 
fragi: 7 fragj: 15

>  <atom.prop.CHAIN_ID>  (2763) 
A A A A A A A Z Z Z Z Z Z Z Z Z Z Z Z Z Z Z

>  <atom.prop.IS_HEAVY_ATOM>  (2763) 
1 0 0 0 1 1 1 1 0 0 0 1 1 0 1 0 1 0 1 0 1 0

>  <DIFUSE_FUNC_ATOM>  (2763) 
n/a

>  <FINAL_SINGLE_POINT_ENERGY>  (2763) 
0

>  <NONCOV_INTER_ENERGY_QM>  (2763) 
0

>  <FF_Energy>  (2763) 
-1.17

>  <QM_Energy>  (2763) 
-6.46

>  <source>  (2763) 
ACET_MBZ_03

>  <Index>  (2763) 
9501

$$$$
ACEH-pdb3bdv-A-GLH-5:MBZ-pdb3bdv-B-PHE-140
     RDKit          3D

 22 21  0  0  0  0  0  0  0  0999 V2000
    3.1202   -2.8008   -2.8275 C   0  0  0  0  0  0  0  0  0  0  0  0
    3.0792   -3.6621   -2.3648 H   0  0  0  0  0  0  0  0  0  0  0  0
    3.8819   -2.2530   -2.5489 H   0  0  0  0  0  0  0  0  0  0  0  0
    3.2073   -2.9913   -3.8972 H   0  0  0  0  0  0  0  0  0  0  0  0
    1.8370   -2.0212   -2.4539 C   0  0  0  0  0  0  0  0  0  0  0  0
    0.8361   -2.5143   -2.0129 O   0  0  0  0  0  0  0  0  0  0  0  0
    1.9861   -0.7978   -2.6897 O   0  0  0  0  0  0  0  0  0  0  0  0
    0.0051    2.9126    0.0435 C   0  0  0  0  0  0  0  0  0  0  0  0
   -0.7153    3.2283   -0.5430 H   0  0  0  0  0  0  0  0  0  0  0  0
    0.8898    3.2256   -0.2417 H   0  0  0  0  0  0  0  0  0  0  0  0
   -0.1823    3.2958    1.0466 H   0  0  0  0  0  0  0  0  0  0  0  0
    0.0103    1.4046    0.0053 C   0  0  0  0  0  0  0  0  0  0  0  0
   -1.1950    0.6922   -0.0082 C   0  0  0  0  0  0  0  0  0  0  0  0
   -2.0571    1.1784   -0.0249 H   0  0  0  0  0  0  0  0  0  0  0  0
   -1.1881   -0.7037    0.0000 C   0  0  0  0  0  0  0  0  0  0  0  0
   -2.0776   -1.1891    0.0075 H   0  0  0  0  0  0  0  0  0  0  0  0
   -0.0153   -1.3810   -0.0007 C   0  0  0  0  0  0  0  0  0  0  0  0
   -0.0129   -2.3923   -0.0022 H   0  0  0  0  0  0  0  0  0  0  0  0
    1.1881   -0.7050   -0.0000 C   0  0  0  0  0  0  0  0  0  0  0  0
    2.0663   -1.2073   -0.0002 H   0  0  0  0  0  0  0  0  0  0  0  0
    1.2000    0.6929    0.0036 C   0  0  0  0  0  0  0  0  0  0  0  0
    2.0716    1.1763    0.0043 H   0  0  0  0  0  0  0  0  0  0  0  0
  1  5  1  0
  5  6  2  0
  5  7  1  0
  1  2  1  0
  1  3  1  0
  1  4  1  0
  8 12  1  0
 12 13  2  0
 13 15  1  0
 15 17  2  0
 17 19  1  0
 19 21  2  0
 21 12  1  0
  8  9  1  0
  8 10  1  0
  8 11  1  0
 13 14  1  0
 15 16  1  0
 17 18  1  0
 19 20  1  0
 21 22  1  0
M  CHG  1   7  -1
V    7 [O&-]
M  END
>  <PDB_ID>  (2764) 
pdb3bdv

>  <RESIDUE_NAME>  (2764) 
GLU   PHE

>  <FRAG_NAME>  (2764) 
ACET   MBZ

>  <FRAG_ATOM_NUM>  (2764) 
fragi: 7 fragj: 15

>  <atom.prop.CHAIN_ID>  (2764) 
A A A A A A A Z Z Z Z Z Z Z Z Z Z Z Z Z Z Z

>  <atom.prop.IS_HEAVY_ATOM>  (2764) 
1 0 0 0 1 1 1 1 0 0 0 1 1 0 1 0 1 0 1 0 1 0

>  <DIFUSE_FUNC_ATOM>  (2764) 
n/a

>  <FINAL_SINGLE_POINT_ENERGY>  (2764) 
0

>  <NONCOV_INTER_ENERGY_QM>  (2764) 
0

>  <FF_Energy>  (2764) 
23.11

>  <QM_Energy>  (2764) 
5.28

>  <source>  (2764) 
ACET_MBZ_03

>  <Index>  (2764) 
9573

$$$$
ACEH-pdb4b9y-A-ASH-299:MBZ-pdb4b9y-A-PHE-271
     RDKit          3D

 22 21  0  0  0  0  0  0  0  0999 V2000
   -3.8126    2.2263   -2.5108 C   0  0  0  0  0  0  0  0  0  0  0  0
   -3.7219    3.1963   -2.3197 H   0  0  0  0  0  0  0  0  0  0  0  0
   -4.0794    1.7316   -1.6934 H   0  0  0  0  0  0  0  0  0  0  0  0
   -4.6043    2.1039   -3.2500 H   0  0  0  0  0  0  0  0  0  0  0  0
   -2.4631    1.6935   -2.9868 C   0  0  0  0  0  0  0  0  0  0  0  0
   -2.3925    0.5261   -3.4504 O   0  0  0  0  0  0  0  0  0  0  0  0
   -1.4657    2.4520   -2.8971 O   0  0  0  0  0  0  0  0  0  0  0  0
    0.0157    2.9266   -0.0046 C   0  0  0  0  0  0  0  0  0  0  0  0
    0.2164    3.2255   -0.9243 H   0  0  0  0  0  0  0  0  0  0  0  0
    0.7126    3.2215    0.6311 H   0  0  0  0  0  0  0  0  0  0  0  0
   -0.9256    3.3861    0.2968 H   0  0  0  0  0  0  0  0  0  0  0  0
    0.0016    1.4062   -0.0042 C   0  0  0  0  0  0  0  0  0  0  0  0
   -1.1919    0.6970    0.0018 C   0  0  0  0  0  0  0  0  0  0  0  0
   -2.0616    1.1822    0.0061 H   0  0  0  0  0  0  0  0  0  0  0  0
   -1.1981   -0.7033    0.0000 C   0  0  0  0  0  0  0  0  0  0  0  0
   -2.0788   -1.1884    0.0003 H   0  0  0  0  0  0  0  0  0  0  0  0
   -0.0047   -1.3956   -0.0001 C   0  0  0  0  0  0  0  0  0  0  0  0
   -0.0062   -2.3963   -0.0011 H   0  0  0  0  0  0  0  0  0  0  0  0
    1.1981   -0.7023   -0.0000 C   0  0  0  0  0  0  0  0  0  0  0  0
    2.0789   -1.1964   -0.0001 H   0  0  0  0  0  0  0  0  0  0  0  0
    1.1950    0.6980    0.0025 C   0  0  0  0  0  0  0  0  0  0  0  0
    2.0653    1.1877    0.0081 H   0  0  0  0  0  0  0  0  0  0  0  0
  1  5  1  0
  5  6  2  0
  5  7  1  0
  1  2  1  0
  1  3  1  0
  1  4  1  0
  8 12  1  0
 12 13  2  0
 13 15  1  0
 15 17  2  0
 17 19  1  0
 19 21  2  0
 21 12  1  0
  8  9  1  0
  8 10  1  0
  8 11  1  0
 13 14  1  0
 15 16  1  0
 17 18  1  0
 19 20  1  0
 21 22  1  0
M  CHG  1   7  -1
V    7 [O&-]
M  END
>  <PDB_ID>  (2765) 
pdb4b9y

>  <RESIDUE_NAME>  (2765) 
ASP   PHE

>  <FRAG_NAME>  (2765) 
ACET   MBZ

>  <FRAG_ATOM_NUM>  (2765) 
fragi: 7 fragj: 15

>  <atom.prop.CHAIN_ID>  (2765) 
A A A A A A A Z Z Z Z Z Z Z Z Z Z Z Z Z Z Z

>  <atom.prop.IS_HEAVY_ATOM>  (2765) 
1 0 0 0 1 1 1 1 0 0 0 1 1 0 1 0 1 0 1 0 1 0

>  <DIFUSE_FUNC_ATOM>  (2765) 
n/a

>  <FINAL_SINGLE_POINT_ENERGY>  (2765) 
0

>  <NONCOV_INTER_ENERGY_QM>  (2765) 
0

>  <FF_Energy>  (2765) 
1.71

>  <QM_Energy>  (2765) 
-3.61

>  <source>  (2765) 
ACET_MBZ_03

>  <Index>  (2765) 
9576

$$$$
ACEH-pdb2c1w-C-ASH-23:MBZ-pdb2c1w-C-PHE-237
     RDKit          3D

 22 21  0  0  0  0  0  0  0  0999 V2000
    2.9020    2.5071    3.7043 C   0  0  0  0  0  0  0  0  0  0  0  0
    3.0449    1.8067    3.0136 H   0  0  0  0  0  0  0  0  0  0  0  0
    2.7002    2.0915    4.5836 H   0  0  0  0  0  0  0  0  0  0  0  0
    3.8283    3.0728    3.8044 H   0  0  0  0  0  0  0  0  0  0  0  0
    1.6962    3.3649    3.2833 C   0  0  0  0  0  0  0  0  0  0  0  0
    1.6929    4.5988    3.4746 O   0  0  0  0  0  0  0  0  0  0  0  0
    0.7206    2.7786    2.7734 O   0  0  0  0  0  0  0  0  0  0  0  0
   -0.0149    2.8632   -0.0332 C   0  0  0  0  0  0  0  0  0  0  0  0
    0.7178    3.1959    0.5439 H   0  0  0  0  0  0  0  0  0  0  0  0
   -0.8952    3.1806    0.2927 H   0  0  0  0  0  0  0  0  0  0  0  0
    0.1372    3.2685   -1.0335 H   0  0  0  0  0  0  0  0  0  0  0  0
   -0.0060    1.3912   -0.0008 C   0  0  0  0  0  0  0  0  0  0  0  0
   -1.2063    0.6858   -0.0113 C   0  0  0  0  0  0  0  0  0  0  0  0
   -2.0687    1.1747   -0.0281 H   0  0  0  0  0  0  0  0  0  0  0  0
   -1.2013   -0.7013    0.0000 C   0  0  0  0  0  0  0  0  0  0  0  0
   -2.0666   -1.2066   -0.0036 H   0  0  0  0  0  0  0  0  0  0  0  0
    0.0142   -1.3777    0.0178 C   0  0  0  0  0  0  0  0  0  0  0  0
    0.0110   -2.3845    0.0435 H   0  0  0  0  0  0  0  0  0  0  0  0
    1.2013   -0.6874   -0.0000 C   0  0  0  0  0  0  0  0  0  0  0  0
    2.0882   -1.1875   -0.0075 H   0  0  0  0  0  0  0  0  0  0  0  0
    1.1981    0.6894   -0.0057 C   0  0  0  0  0  0  0  0  0  0  0  0
    2.0600    1.1943   -0.0140 H   0  0  0  0  0  0  0  0  0  0  0  0
  1  5  1  0
  5  6  2  0
  5  7  1  0
  1  2  1  0
  1  3  1  0
  1  4  1  0
  8 12  1  0
 12 13  2  0
 13 15  1  0
 15 17  2  0
 17 19  1  0
 19 21  2  0
 21 12  1  0
  8  9  1  0
  8 10  1  0
  8 11  1  0
 13 14  1  0
 15 16  1  0
 17 18  1  0
 19 20  1  0
 21 22  1  0
M  CHG  1   7  -1
V    7 [O&-]
M  END
>  <PDB_ID>  (2766) 
pdb2c1w

>  <RESIDUE_NAME>  (2766) 
ASP   PHE

>  <FRAG_NAME>  (2766) 
ACET   MBZ

>  <FRAG_ATOM_NUM>  (2766) 
fragi: 7 fragj: 15

>  <atom.prop.CHAIN_ID>  (2766) 
A A A A A A A Z Z Z Z Z Z Z Z Z Z Z Z Z Z Z

>  <atom.prop.IS_HEAVY_ATOM>  (2766) 
1 0 0 0 1 1 1 1 0 0 0 1 1 0 1 0 1 0 1 0 1 0

>  <DIFUSE_FUNC_ATOM>  (2766) 
n/a

>  <FINAL_SINGLE_POINT_ENERGY>  (2766) 
0

>  <NONCOV_INTER_ENERGY_QM>  (2766) 
0

>  <FF_Energy>  (2766) 
3.47

>  <QM_Energy>  (2766) 
-3.91

>  <source>  (2766) 
ACET_MBZ_03

>  <Index>  (2766) 
9670

$$$$
ACEH-pdb4bih-D-ASH-245:MBZ-pdb4bih-D-PHE-155
     RDKit          3D

 22 21  0  0  0  0  0  0  0  0999 V2000
    2.0884    3.1743   -3.7967 C   0  0  0  0  0  0  0  0  0  0  0  0
    1.1071    3.0274   -3.7198 H   0  0  0  0  0  0  0  0  0  0  0  0
    2.5552    2.3109   -3.9546 H   0  0  0  0  0  0  0  0  0  0  0  0
    2.2630    3.8122   -4.6631 H   0  0  0  0  0  0  0  0  0  0  0  0
    2.5964    3.7821   -2.5196 C   0  0  0  0  0  0  0  0  0  0  0  0
    2.5282    5.0285   -2.3894 O   0  0  0  0  0  0  0  0  0  0  0  0
    3.0562    3.0095   -1.6463 O   0  0  0  0  0  0  0  0  0  0  0  0
   -0.0074    2.8963    0.0185 C   0  0  0  0  0  0  0  0  0  0  0  0
   -0.8112    3.2062   -0.4673 H   0  0  0  0  0  0  0  0  0  0  0  0
    0.8210    3.2115   -0.4206 H   0  0  0  0  0  0  0  0  0  0  0  0
   -0.0377    3.3182    1.0231 H   0  0  0  0  0  0  0  0  0  0  0  0
   -0.0022    1.4024    0.0020 C   0  0  0  0  0  0  0  0  0  0  0  0
   -1.1977    0.6968    0.0076 C   0  0  0  0  0  0  0  0  0  0  0  0
   -2.0652    1.1862    0.0160 H   0  0  0  0  0  0  0  0  0  0  0  0
   -1.2064   -0.6972   -0.0000 C   0  0  0  0  0  0  0  0  0  0  0  0
   -2.0799   -1.1905    0.0016 H   0  0  0  0  0  0  0  0  0  0  0  0
    0.0023   -1.3980   -0.0083 C   0  0  0  0  0  0  0  0  0  0  0  0
   -0.0051   -2.3944   -0.0207 H   0  0  0  0  0  0  0  0  0  0  0  0
    1.2064   -0.7003    0.0000 C   0  0  0  0  0  0  0  0  0  0  0  0
    2.0865   -1.1944    0.0088 H   0  0  0  0  0  0  0  0  0  0  0  0
    1.1976    0.6963   -0.0014 C   0  0  0  0  0  0  0  0  0  0  0  0
    2.0646    1.1926   -0.0058 H   0  0  0  0  0  0  0  0  0  0  0  0
  1  5  1  0
  5  6  2  0
  5  7  1  0
  1  2  1  0
  1  3  1  0
  1  4  1  0
  8 12  1  0
 12 13  2  0
 13 15  1  0
 15 17  2  0
 17 19  1  0
 19 21  2  0
 21 12  1  0
  8  9  1  0
  8 10  1  0
  8 11  1  0
 13 14  1  0
 15 16  1  0
 17 18  1  0
 19 20  1  0
 21 22  1  0
M  CHG  1   7  -1
V    7 [O&-]
M  END
>  <PDB_ID>  (2767) 
pdb4bih

>  <RESIDUE_NAME>  (2767) 
ASP   PHE

>  <FRAG_NAME>  (2767) 
ACET   MBZ

>  <FRAG_ATOM_NUM>  (2767) 
fragi: 7 fragj: 15

>  <atom.prop.CHAIN_ID>  (2767) 
A A A A A A A Z Z Z Z Z Z Z Z Z Z Z Z Z Z Z

>  <atom.prop.IS_HEAVY_ATOM>  (2767) 
1 0 0 0 1 1 1 1 0 0 0 1 1 0 1 0 1 0 1 0 1 0

>  <DIFUSE_FUNC_ATOM>  (2767) 
n/a

>  <FINAL_SINGLE_POINT_ENERGY>  (2767) 
0

>  <NONCOV_INTER_ENERGY_QM>  (2767) 
0

>  <FF_Energy>  (2767) 
-2.08

>  <QM_Energy>  (2767) 
-7.46

>  <source>  (2767) 
ACET_MBZ_03

>  <Index>  (2767) 
9746

$$$$
ACEH-pdb4boj-A-GLH-75:MBZ-pdb4boj-A-PHE-60
     RDKit          3D

 22 21  0  0  0  0  0  0  0  0999 V2000
    5.8285    3.1066   -0.3089 C   0  0  0  0  0  0  0  0  0  0  0  0
    6.1945    3.5694   -1.1019 H   0  0  0  0  0  0  0  0  0  0  0  0
    6.2059    2.1977   -0.2174 H   0  0  0  0  0  0  0  0  0  0  0  0
    6.1033    3.6806    0.5761 H   0  0  0  0  0  0  0  0  0  0  0  0
    4.3217    2.9519   -0.5285 C   0  0  0  0  0  0  0  0  0  0  0  0
    3.5016    3.3352    0.3261 O   0  0  0  0  0  0  0  0  0  0  0  0
    3.9537    2.3675   -1.6087 O   0  0  0  0  0  0  0  0  0  0  0  0
    0.0109    2.9207   -0.0351 C   0  0  0  0  0  0  0  0  0  0  0  0
    0.8770    3.2243    0.3277 H   0  0  0  0  0  0  0  0  0  0  0  0
   -0.7454    3.2400    0.5117 H   0  0  0  0  0  0  0  0  0  0  0  0
   -0.0990    3.3448   -1.0332 H   0  0  0  0  0  0  0  0  0  0  0  0
   -0.0011    1.4111   -0.0117 C   0  0  0  0  0  0  0  0  0  0  0  0
   -1.1976    0.7050   -0.0063 C   0  0  0  0  0  0  0  0  0  0  0  0
   -2.0658    1.1828   -0.0083 H   0  0  0  0  0  0  0  0  0  0  0  0
   -1.1982   -0.7074    0.0000 C   0  0  0  0  0  0  0  0  0  0  0  0
   -2.0816   -1.1871   -0.0127 H   0  0  0  0  0  0  0  0  0  0  0  0
   -0.0105   -1.3897    0.0243 C   0  0  0  0  0  0  0  0  0  0  0  0
   -0.0125   -2.3982    0.0596 H   0  0  0  0  0  0  0  0  0  0  0  0
    1.1982   -0.7128    0.0000 C   0  0  0  0  0  0  0  0  0  0  0  0
    2.0740   -1.2122   -0.0117 H   0  0  0  0  0  0  0  0  0  0  0  0
    1.2092    0.6938   -0.0063 C   0  0  0  0  0  0  0  0  0  0  0  0
    2.0716    1.1810   -0.0075 H   0  0  0  0  0  0  0  0  0  0  0  0
  1  5  1  0
  5  6  2  0
  5  7  1  0
  1  2  1  0
  1  3  1  0
  1  4  1  0
  8 12  1  0
 12 13  2  0
 13 15  1  0
 15 17  2  0
 17 19  1  0
 19 21  2  0
 21 12  1  0
  8  9  1  0
  8 10  1  0
  8 11  1  0
 13 14  1  0
 15 16  1  0
 17 18  1  0
 19 20  1  0
 21 22  1  0
M  CHG  1   7  -1
V    7 [O&-]
M  END
>  <PDB_ID>  (2768) 
pdb4boj

>  <RESIDUE_NAME>  (2768) 
GLU   PHE

>  <FRAG_NAME>  (2768) 
ACET   MBZ

>  <FRAG_ATOM_NUM>  (2768) 
fragi: 7 fragj: 15

>  <atom.prop.CHAIN_ID>  (2768) 
A A A A A A A Z Z Z Z Z Z Z Z Z Z Z Z Z Z Z

>  <atom.prop.IS_HEAVY_ATOM>  (2768) 
1 0 0 0 1 1 1 1 0 0 0 1 1 0 1 0 1 0 1 0 1 0

>  <DIFUSE_FUNC_ATOM>  (2768) 
n/a

>  <FINAL_SINGLE_POINT_ENERGY>  (2768) 
0

>  <NONCOV_INTER_ENERGY_QM>  (2768) 
0

>  <FF_Energy>  (2768) 
-2.51

>  <QM_Energy>  (2768) 
-8.82

>  <source>  (2768) 
ACET_MBZ_03

>  <Index>  (2768) 
9828

$$$$
ACEH-pdb4boj-B-GLH-75:MBZ-pdb4boj-B-PHE-60
     RDKit          3D

 22 21  0  0  0  0  0  0  0  0999 V2000
    5.7833    3.2434   -0.2719 C   0  0  0  0  0  0  0  0  0  0  0  0
    6.1585    3.6909   -1.0676 H   0  0  0  0  0  0  0  0  0  0  0  0
    6.1403    2.3289   -0.1680 H   0  0  0  0  0  0  0  0  0  0  0  0
    6.0331    3.8267    0.6143 H   0  0  0  0  0  0  0  0  0  0  0  0
    4.2670    3.0969   -0.5236 C   0  0  0  0  0  0  0  0  0  0  0  0
    3.4147    3.4545    0.3003 O   0  0  0  0  0  0  0  0  0  0  0  0
    3.9203    2.5629   -1.6346 O   0  0  0  0  0  0  0  0  0  0  0  0
   -0.0391    2.9060   -0.0461 C   0  0  0  0  0  0  0  0  0  0  0  0
    0.8131    3.2460    0.3054 H   0  0  0  0  0  0  0  0  0  0  0  0
   -0.8108    3.2115    0.4802 H   0  0  0  0  0  0  0  0  0  0  0  0
   -0.1559    3.2968   -1.0569 H   0  0  0  0  0  0  0  0  0  0  0  0
   -0.0024    1.3995   -0.0018 C   0  0  0  0  0  0  0  0  0  0  0  0
   -1.1979    0.6810    0.0148 C   0  0  0  0  0  0  0  0  0  0  0  0
   -2.0663    1.1710    0.0370 H   0  0  0  0  0  0  0  0  0  0  0  0
   -1.2031   -0.7104   -0.0000 C   0  0  0  0  0  0  0  0  0  0  0  0
   -2.0778   -1.2013   -0.0204 H   0  0  0  0  0  0  0  0  0  0  0  0
   -0.0070   -1.3845    0.0151 C   0  0  0  0  0  0  0  0  0  0  0  0
   -0.0004   -2.3929    0.0365 H   0  0  0  0  0  0  0  0  0  0  0  0
    1.2031   -0.6965    0.0000 C   0  0  0  0  0  0  0  0  0  0  0  0
    2.0805   -1.1929    0.0103 H   0  0  0  0  0  0  0  0  0  0  0  0
    1.2072    0.7110   -0.0280 C   0  0  0  0  0  0  0  0  0  0  0  0
    2.0652    1.1989   -0.0669 H   0  0  0  0  0  0  0  0  0  0  0  0
  1  5  1  0
  5  6  2  0
  5  7  1  0
  1  2  1  0
  1  3  1  0
  1  4  1  0
  8 12  1  0
 12 13  2  0
 13 15  1  0
 15 17  2  0
 17 19  1  0
 19 21  2  0
 21 12  1  0
  8  9  1  0
  8 10  1  0
  8 11  1  0
 13 14  1  0
 15 16  1  0
 17 18  1  0
 19 20  1  0
 21 22  1  0
M  CHG  1   7  -1
V    7 [O&-]
M  END
>  <PDB_ID>  (2769) 
pdb4boj

>  <RESIDUE_NAME>  (2769) 
GLU   PHE

>  <FRAG_NAME>  (2769) 
ACET   MBZ

>  <FRAG_ATOM_NUM>  (2769) 
fragi: 7 fragj: 15

>  <atom.prop.CHAIN_ID>  (2769) 
A A A A A A A Z Z Z Z Z Z Z Z Z Z Z Z Z Z Z

>  <atom.prop.IS_HEAVY_ATOM>  (2769) 
1 0 0 0 1 1 1 1 0 0 0 1 1 0 1 0 1 0 1 0 1 0

>  <DIFUSE_FUNC_ATOM>  (2769) 
n/a

>  <FINAL_SINGLE_POINT_ENERGY>  (2769) 
0

>  <NONCOV_INTER_ENERGY_QM>  (2769) 
0

>  <FF_Energy>  (2769) 
-2.49

>  <QM_Energy>  (2769) 
-8.78

>  <source>  (2769) 
ACET_MBZ_03

>  <Index>  (2769) 
9831

$$$$
ACEH-pdb1bt3-A-GLH-236:MBZ-pdb1bt3-A-PHE-114
     RDKit          3D

 22 21  0  0  0  0  0  0  0  0999 V2000
   -0.9043   -0.1727   -3.6989 C   0  0  0  0  0  0  0  0  0  0  0  0
   -1.1915   -0.2463   -4.6464 H   0  0  0  0  0  0  0  0  0  0  0  0
   -1.3151   -0.8942   -3.1533 H   0  0  0  0  0  0  0  0  0  0  0  0
    0.1780   -0.2973   -3.6643 H   0  0  0  0  0  0  0  0  0  0  0  0
   -1.4077    1.1424   -3.1692 C   0  0  0  0  0  0  0  0  0  0  0  0
   -0.7159    2.1705   -3.2331 O   0  0  0  0  0  0  0  0  0  0  0  0
   -2.5386    1.1476   -2.6817 O   0  0  0  0  0  0  0  0  0  0  0  0
    0.0154    2.9114   -0.0391 C   0  0  0  0  0  0  0  0  0  0  0  0
   -0.7264    3.2060   -0.6264 H   0  0  0  0  0  0  0  0  0  0  0  0
    0.8917    3.1955   -0.4035 H   0  0  0  0  0  0  0  0  0  0  0  0
   -0.1148    3.3870    0.9329 H   0  0  0  0  0  0  0  0  0  0  0  0
    0.0001    1.4030   -0.0006 C   0  0  0  0  0  0  0  0  0  0  0  0
   -1.1949    0.7047    0.0010 C   0  0  0  0  0  0  0  0  0  0  0  0
   -2.0602    1.1962    0.0013 H   0  0  0  0  0  0  0  0  0  0  0  0
   -1.1978   -0.6797   -0.0000 C   0  0  0  0  0  0  0  0  0  0  0  0
   -2.0804   -1.1753    0.0003 H   0  0  0  0  0  0  0  0  0  0  0  0
   -0.0030   -1.3901    0.0005 C   0  0  0  0  0  0  0  0  0  0  0  0
   -0.0256   -2.3915    0.0011 H   0  0  0  0  0  0  0  0  0  0  0  0
    1.1978   -0.7166   -0.0000 C   0  0  0  0  0  0  0  0  0  0  0  0
    2.0755   -1.2140    0.0021 H   0  0  0  0  0  0  0  0  0  0  0  0
    1.1977    0.6787   -0.0010 C   0  0  0  0  0  0  0  0  0  0  0  0
    2.0680    1.1714   -0.0028 H   0  0  0  0  0  0  0  0  0  0  0  0
  1  5  1  0
  5  6  2  0
  5  7  1  0
  1  2  1  0
  1  3  1  0
  1  4  1  0
  8 12  1  0
 12 13  2  0
 13 15  1  0
 15 17  2  0
 17 19  1  0
 19 21  2  0
 21 12  1  0
  8  9  1  0
  8 10  1  0
  8 11  1  0
 13 14  1  0
 15 16  1  0
 17 18  1  0
 19 20  1  0
 21 22  1  0
M  CHG  1   7  -1
V    7 [O&-]
M  END
>  <PDB_ID>  (2770) 
pdb1bt3

>  <RESIDUE_NAME>  (2770) 
GLU   PHE

>  <FRAG_NAME>  (2770) 
ACET   MBZ

>  <FRAG_ATOM_NUM>  (2770) 
fragi: 7 fragj: 15

>  <atom.prop.CHAIN_ID>  (2770) 
A A A A A A A Z Z Z Z Z Z Z Z Z Z Z Z Z Z Z

>  <atom.prop.IS_HEAVY_ATOM>  (2770) 
1 0 0 0 1 1 1 1 0 0 0 1 1 0 1 0 1 0 1 0 1 0

>  <DIFUSE_FUNC_ATOM>  (2770) 
n/a

>  <FINAL_SINGLE_POINT_ENERGY>  (2770) 
0

>  <NONCOV_INTER_ENERGY_QM>  (2770) 
0

>  <FF_Energy>  (2770) 
1.2

>  <QM_Energy>  (2770) 
-6.04

>  <source>  (2770) 
ACET_MBZ_03

>  <Index>  (2770) 
9908

$$$$
ACEH-pdb3bt7-B-GLH-216:MBZ-pdb3bt7-B-PHE-297
     RDKit          3D

 22 21  0  0  0  0  0  0  0  0999 V2000
    3.7134    2.2467   -1.8899 C   0  0  0  0  0  0  0  0  0  0  0  0
    4.6842    2.2779   -1.6731 H   0  0  0  0  0  0  0  0  0  0  0  0
    3.1822    2.0863   -1.0637 H   0  0  0  0  0  0  0  0  0  0  0  0
    3.4300    3.2232   -2.2826 H   0  0  0  0  0  0  0  0  0  0  0  0
    3.4940    1.0335   -2.8125 C   0  0  0  0  0  0  0  0  0  0  0  0
    3.5201   -0.1264   -2.2899 O   0  0  0  0  0  0  0  0  0  0  0  0
    3.3541    1.2341   -4.0424 O   0  0  0  0  0  0  0  0  0  0  0  0
   -0.0134    2.9033    0.0140 C   0  0  0  0  0  0  0  0  0  0  0  0
   -0.8831    3.2024   -0.3469 H   0  0  0  0  0  0  0  0  0  0  0  0
    0.7373    3.2104   -0.5486 H   0  0  0  0  0  0  0  0  0  0  0  0
    0.1082    3.3410    1.0048 H   0  0  0  0  0  0  0  0  0  0  0  0
   -0.0067    1.3863    0.0055 C   0  0  0  0  0  0  0  0  0  0  0  0
   -1.1849    0.6862    0.0255 C   0  0  0  0  0  0  0  0  0  0  0  0
   -2.0570    1.1752    0.0578 H   0  0  0  0  0  0  0  0  0  0  0  0
   -1.1813   -0.6841    0.0000 C   0  0  0  0  0  0  0  0  0  0  0  0
   -2.0584   -1.1893   -0.0161 H   0  0  0  0  0  0  0  0  0  0  0  0
    0.0151   -1.3740   -0.0015 C   0  0  0  0  0  0  0  0  0  0  0  0
    0.0029   -2.3785   -0.0044 H   0  0  0  0  0  0  0  0  0  0  0  0
    1.1813   -0.6875   -0.0000 C   0  0  0  0  0  0  0  0  0  0  0  0
    2.0769   -1.1861    0.0244 H   0  0  0  0  0  0  0  0  0  0  0  0
    1.1764    0.6732   -0.0295 C   0  0  0  0  0  0  0  0  0  0  0  0
    2.0488    1.1786   -0.0788 H   0  0  0  0  0  0  0  0  0  0  0  0
  1  5  1  0
  5  6  2  0
  5  7  1  0
  1  2  1  0
  1  3  1  0
  1  4  1  0
  8 12  1  0
 12 13  2  0
 13 15  1  0
 15 17  2  0
 17 19  1  0
 19 21  2  0
 21 12  1  0
  8  9  1  0
  8 10  1  0
  8 11  1  0
 13 14  1  0
 15 16  1  0
 17 18  1  0
 19 20  1  0
 21 22  1  0
M  CHG  1   7  -1
V    7 [O&-]
M  END
>  <PDB_ID>  (2771) 
pdb3bt7

>  <RESIDUE_NAME>  (2771) 
GLU   PHE

>  <FRAG_NAME>  (2771) 
ACET   MBZ

>  <FRAG_ATOM_NUM>  (2771) 
fragi: 7 fragj: 15

>  <atom.prop.CHAIN_ID>  (2771) 
A A A A A A A Z Z Z Z Z Z Z Z Z Z Z Z Z Z Z

>  <atom.prop.IS_HEAVY_ATOM>  (2771) 
1 0 0 0 1 1 1 1 0 0 0 1 1 0 1 0 1 0 1 0 1 0

>  <DIFUSE_FUNC_ATOM>  (2771) 
n/a

>  <FINAL_SINGLE_POINT_ENERGY>  (2771) 
0

>  <NONCOV_INTER_ENERGY_QM>  (2771) 
0

>  <FF_Energy>  (2771) 
3.98

>  <QM_Energy>  (2771) 
-2.08

>  <source>  (2771) 
ACET_MBZ_03

>  <Index>  (2771) 
9919

$$$$
ACEH-pdb5cdf-E-GLH-163:MBZ-pdb5cdf-E-PHE-414
     RDKit          3D

 22 21  0  0  0  0  0  0  0  0999 V2000
    0.4801    1.0208    3.4230 C   0  0  0  0  0  0  0  0  0  0  0  0
    0.0415    0.6021    2.6455 H   0  0  0  0  0  0  0  0  0  0  0  0
    0.1523    0.6439    4.2731 H   0  0  0  0  0  0  0  0  0  0  0  0
    1.5502    0.8256    3.3540 H   0  0  0  0  0  0  0  0  0  0  0  0
    0.1153    2.5040    3.4102 C   0  0  0  0  0  0  0  0  0  0  0  0
   -1.0966    2.8058    3.4320 O   0  0  0  0  0  0  0  0  0  0  0  0
    1.0122    3.3783    3.3711 O   0  0  0  0  0  0  0  0  0  0  0  0
    0.0525    2.9304   -0.0030 C   0  0  0  0  0  0  0  0  0  0  0  0
    0.4045    3.2142   -0.8847 H   0  0  0  0  0  0  0  0  0  0  0  0
    0.6567    3.2152    0.7287 H   0  0  0  0  0  0  0  0  0  0  0  0
   -0.9082    3.4230    0.1466 H   0  0  0  0  0  0  0  0  0  0  0  0
    0.0032    1.4112    0.0063 C   0  0  0  0  0  0  0  0  0  0  0  0
   -1.2009    0.6862   -0.0057 C   0  0  0  0  0  0  0  0  0  0  0  0
   -2.0655    1.1766   -0.0197 H   0  0  0  0  0  0  0  0  0  0  0  0
   -1.1986   -0.7032   -0.0000 C   0  0  0  0  0  0  0  0  0  0  0  0
   -2.0746   -1.1998    0.0041 H   0  0  0  0  0  0  0  0  0  0  0  0
    0.0016   -1.3927    0.0015 C   0  0  0  0  0  0  0  0  0  0  0  0
    0.0016   -2.3929    0.0026 H   0  0  0  0  0  0  0  0  0  0  0  0
    1.1986   -0.6949    0.0000 C   0  0  0  0  0  0  0  0  0  0  0  0
    2.0822   -1.1934    0.0022 H   0  0  0  0  0  0  0  0  0  0  0  0
    1.1961    0.6934   -0.0021 C   0  0  0  0  0  0  0  0  0  0  0  0
    2.0678    1.1886   -0.0107 H   0  0  0  0  0  0  0  0  0  0  0  0
  1  5  1  0
  5  6  2  0
  5  7  1  0
  1  2  1  0
  1  3  1  0
  1  4  1  0
  8 12  1  0
 12 13  2  0
 13 15  1  0
 15 17  2  0
 17 19  1  0
 19 21  2  0
 21 12  1  0
  8  9  1  0
  8 10  1  0
  8 11  1  0
 13 14  1  0
 15 16  1  0
 17 18  1  0
 19 20  1  0
 21 22  1  0
M  CHG  1   7  -1
V    7 [O&-]
M  END
>  <PDB_ID>  (2772) 
pdb5cdf

>  <RESIDUE_NAME>  (2772) 
GLU   PHE

>  <FRAG_NAME>  (2772) 
ACET   MBZ

>  <FRAG_ATOM_NUM>  (2772) 
fragi: 7 fragj: 15

>  <atom.prop.CHAIN_ID>  (2772) 
A A A A A A A Z Z Z Z Z Z Z Z Z Z Z Z Z Z Z

>  <atom.prop.IS_HEAVY_ATOM>  (2772) 
1 0 0 0 1 1 1 1 0 0 0 1 1 0 1 0 1 0 1 0 1 0

>  <DIFUSE_FUNC_ATOM>  (2772) 
n/a

>  <FINAL_SINGLE_POINT_ENERGY>  (2772) 
0

>  <NONCOV_INTER_ENERGY_QM>  (2772) 
0

>  <FF_Energy>  (2772) 
-0.35

>  <QM_Energy>  (2772) 
-5.69

>  <source>  (2772) 
ACET_MBZ_03

>  <Index>  (2772) 
9924

$$$$
ACEH-pdb1byo-B-ASH-39:MBZ-pdb1byo-B-PHE-29
     RDKit          3D

 22 21  0  0  0  0  0  0  0  0999 V2000
    1.1783    0.7656    4.6392 C   0  0  0  0  0  0  0  0  0  0  0  0
    1.2291    1.7141    4.5533 H   0  0  0  0  0  0  0  0  0  0  0  0
    1.9978    0.2836    4.7071 H   0  0  0  0  0  0  0  0  0  0  0  0
    0.5959    0.5494    5.5349 H   0  0  0  0  0  0  0  0  0  0  0  0
    0.3403    0.1921    3.4869 C   0  0  0  0  0  0  0  0  0  0  0  0
   -0.4208    0.9951    2.9201 O   0  0  0  0  0  0  0  0  0  0  0  0
    0.4981   -1.0124    3.2342 O   0  0  0  0  0  0  0  0  0  0  0  0
    0.0227    2.8971    0.0034 C   0  0  0  0  0  0  0  0  0  0  0  0
    0.8842    3.1891    0.4278 H   0  0  0  0  0  0  0  0  0  0  0  0
   -0.7416    3.2082    0.5744 H   0  0  0  0  0  0  0  0  0  0  0  0
   -0.0589    3.3901   -0.9653 H   0  0  0  0  0  0  0  0  0  0  0  0
    0.0042    1.4017    0.0006 C   0  0  0  0  0  0  0  0  0  0  0  0
   -1.1883    0.6930   -0.0007 C   0  0  0  0  0  0  0  0  0  0  0  0
   -2.0559    1.1883   -0.0037 H   0  0  0  0  0  0  0  0  0  0  0  0
   -1.1930   -0.6852    0.0000 C   0  0  0  0  0  0  0  0  0  0  0  0
   -2.0766   -1.1809    0.0024 H   0  0  0  0  0  0  0  0  0  0  0  0
   -0.0039   -1.3903   -0.0003 C   0  0  0  0  0  0  0  0  0  0  0  0
   -0.0121   -2.3871   -0.0009 H   0  0  0  0  0  0  0  0  0  0  0  0
    1.1930   -0.6964    0.0000 C   0  0  0  0  0  0  0  0  0  0  0  0
    2.0748   -1.2011    0.0014 H   0  0  0  0  0  0  0  0  0  0  0  0
    1.1881    0.6772    0.0005 C   0  0  0  0  0  0  0  0  0  0  0  0
    2.0646    1.1782   -0.0002 H   0  0  0  0  0  0  0  0  0  0  0  0
  1  5  1  0
  5  6  2  0
  5  7  1  0
  1  2  1  0
  1  3  1  0
  1  4  1  0
  8 12  1  0
 12 13  2  0
 13 15  1  0
 15 17  2  0
 17 19  1  0
 19 21  2  0
 21 12  1  0
  8  9  1  0
  8 10  1  0
  8 11  1  0
 13 14  1  0
 15 16  1  0
 17 18  1  0
 19 20  1  0
 21 22  1  0
M  CHG  1   7  -1
V    7 [O&-]
M  END
>  <PDB_ID>  (2773) 
pdb1byo

>  <RESIDUE_NAME>  (2773) 
ASP   PHE

>  <FRAG_NAME>  (2773) 
ACET   MBZ

>  <FRAG_ATOM_NUM>  (2773) 
fragi: 7 fragj: 15

>  <atom.prop.CHAIN_ID>  (2773) 
A A A A A A A Z Z Z Z Z Z Z Z Z Z Z Z Z Z Z

>  <atom.prop.IS_HEAVY_ATOM>  (2773) 
1 0 0 0 1 1 1 1 0 0 0 1 1 0 1 0 1 0 1 0 1 0

>  <DIFUSE_FUNC_ATOM>  (2773) 
n/a

>  <FINAL_SINGLE_POINT_ENERGY>  (2773) 
0

>  <NONCOV_INTER_ENERGY_QM>  (2773) 
0

>  <FF_Energy>  (2773) 
6.74

>  <QM_Energy>  (2773) 
0.91

>  <source>  (2773) 
ACET_MBZ_03

>  <Index>  (2773) 
10007

$$$$
ACEH-pdb6cqs-A-GLH-92:MBZ-pdb6cqs-A-PHE-64
     RDKit          3D

 22 21  0  0  0  0  0  0  0  0999 V2000
   -0.2518    4.2019    4.8090 C   0  0  0  0  0  0  0  0  0  0  0  0
    0.2222    3.7610    5.5520 H   0  0  0  0  0  0  0  0  0  0  0  0
   -0.8213    4.9412    5.1259 H   0  0  0  0  0  0  0  0  0  0  0  0
    0.4886    4.6063    4.1189 H   0  0  0  0  0  0  0  0  0  0  0  0
   -1.1755    3.1583    4.1798 C   0  0  0  0  0  0  0  0  0  0  0  0
   -2.2671    2.9928    4.7030 O   0  0  0  0  0  0  0  0  0  0  0  0
   -0.7855    2.5130    3.2117 O   0  0  0  0  0  0  0  0  0  0  0  0
    0.0482    2.9217    0.0139 C   0  0  0  0  0  0  0  0  0  0  0  0
    0.8828    3.2038   -0.4460 H   0  0  0  0  0  0  0  0  0  0  0  0
    0.0611    3.2096    0.9655 H   0  0  0  0  0  0  0  0  0  0  0  0
   -0.7865    3.4250   -0.4741 H   0  0  0  0  0  0  0  0  0  0  0  0
    0.0003    1.4063   -0.0072 C   0  0  0  0  0  0  0  0  0  0  0  0
   -1.1984    0.7069   -0.0070 C   0  0  0  0  0  0  0  0  0  0  0  0
   -2.0632    1.1920   -0.0127 H   0  0  0  0  0  0  0  0  0  0  0  0
   -1.2028   -0.6947   -0.0000 C   0  0  0  0  0  0  0  0  0  0  0  0
   -2.0760   -1.1876   -0.0004 H   0  0  0  0  0  0  0  0  0  0  0  0
    0.0108   -1.4023    0.0091 C   0  0  0  0  0  0  0  0  0  0  0  0
   -0.0024   -2.3965    0.0213 H   0  0  0  0  0  0  0  0  0  0  0  0
    1.2028   -0.7027   -0.0000 C   0  0  0  0  0  0  0  0  0  0  0  0
    2.0890   -1.1923   -0.0088 H   0  0  0  0  0  0  0  0  0  0  0  0
    1.1873    0.6865    0.0051 C   0  0  0  0  0  0  0  0  0  0  0  0
    2.0636    1.1856    0.0171 H   0  0  0  0  0  0  0  0  0  0  0  0
  1  5  1  0
  5  6  2  0
  5  7  1  0
  1  2  1  0
  1  3  1  0
  1  4  1  0
  8 12  1  0
 12 13  2  0
 13 15  1  0
 15 17  2  0
 17 19  1  0
 19 21  2  0
 21 12  1  0
  8  9  1  0
  8 10  1  0
  8 11  1  0
 13 14  1  0
 15 16  1  0
 17 18  1  0
 19 20  1  0
 21 22  1  0
M  CHG  1   7  -1
V    7 [O&-]
M  END
>  <PDB_ID>  (2774) 
pdb6cqs

>  <RESIDUE_NAME>  (2774) 
GLU   PHE

>  <FRAG_NAME>  (2774) 
ACET   MBZ

>  <FRAG_ATOM_NUM>  (2774) 
fragi: 7 fragj: 15

>  <atom.prop.CHAIN_ID>  (2774) 
A A A A A A A Z Z Z Z Z Z Z Z Z Z Z Z Z Z Z

>  <atom.prop.IS_HEAVY_ATOM>  (2774) 
1 0 0 0 1 1 1 1 0 0 0 1 1 0 1 0 1 0 1 0 1 0

>  <DIFUSE_FUNC_ATOM>  (2774) 
n/a

>  <FINAL_SINGLE_POINT_ENERGY>  (2774) 
0

>  <NONCOV_INTER_ENERGY_QM>  (2774) 
0

>  <FF_Energy>  (2774) 
1.64

>  <QM_Energy>  (2774) 
-3.74

>  <source>  (2774) 
ACET_MBZ_03

>  <Index>  (2774) 
10019

$$$$
ACEH-pdb2clq-A-GLH-725:MBZ-pdb2clq-A-PHE-823
     RDKit          3D

 22 21  0  0  0  0  0  0  0  0999 V2000
    2.5894   -0.5633    4.2260 C   0  0  0  0  0  0  0  0  0  0  0  0
    2.4777   -0.6735    5.1911 H   0  0  0  0  0  0  0  0  0  0  0  0
    3.5186   -0.4198    3.9589 H   0  0  0  0  0  0  0  0  0  0  0  0
    2.2173   -1.4591    3.7287 H   0  0  0  0  0  0  0  0  0  0  0  0
    1.7991    0.6482    3.8064 C   0  0  0  0  0  0  0  0  0  0  0  0
    2.0613    1.1036    2.6770 O   0  0  0  0  0  0  0  0  0  0  0  0
    0.9154    1.1314    4.5648 O   0  0  0  0  0  0  0  0  0  0  0  0
    0.0009    2.8826   -0.0118 C   0  0  0  0  0  0  0  0  0  0  0  0
   -0.8526    3.1950   -0.4030 H   0  0  0  0  0  0  0  0  0  0  0  0
    0.7738    3.1941   -0.5437 H   0  0  0  0  0  0  0  0  0  0  0  0
    0.0878    3.3123    0.9862 H   0  0  0  0  0  0  0  0  0  0  0  0
    0.0009    1.4031   -0.0066 C   0  0  0  0  0  0  0  0  0  0  0  0
   -1.2037    0.6972    0.0086 C   0  0  0  0  0  0  0  0  0  0  0  0
   -2.0667    1.1835    0.0246 H   0  0  0  0  0  0  0  0  0  0  0  0
   -1.2065   -0.7049   -0.0000 C   0  0  0  0  0  0  0  0  0  0  0  0
   -2.0808   -1.1960   -0.0037 H   0  0  0  0  0  0  0  0  0  0  0  0
    0.0003   -1.4001   -0.0013 C   0  0  0  0  0  0  0  0  0  0  0  0
    0.0030   -2.3956   -0.0038 H   0  0  0  0  0  0  0  0  0  0  0  0
    1.2065   -0.6928    0.0000 C   0  0  0  0  0  0  0  0  0  0  0  0
    2.0869   -1.1928    0.0034 H   0  0  0  0  0  0  0  0  0  0  0  0
    1.2025    0.6975   -0.0007 C   0  0  0  0  0  0  0  0  0  0  0  0
    2.0675    1.1964    0.0020 H   0  0  0  0  0  0  0  0  0  0  0  0
  1  5  1  0
  5  6  2  0
  5  7  1  0
  1  2  1  0
  1  3  1  0
  1  4  1  0
  8 12  1  0
 12 13  2  0
 13 15  1  0
 15 17  2  0
 17 19  1  0
 19 21  2  0
 21 12  1  0
  8  9  1  0
  8 10  1  0
  8 11  1  0
 13 14  1  0
 15 16  1  0
 17 18  1  0
 19 20  1  0
 21 22  1  0
M  CHG  1   7  -1
V    7 [O&-]
M  END
>  <PDB_ID>  (2775) 
pdb2clq

>  <RESIDUE_NAME>  (2775) 
GLU   PHE

>  <FRAG_NAME>  (2775) 
ACET   MBZ

>  <FRAG_ATOM_NUM>  (2775) 
fragi: 7 fragj: 15

>  <atom.prop.CHAIN_ID>  (2775) 
A A A A A A A Z Z Z Z Z Z Z Z Z Z Z Z Z Z Z

>  <atom.prop.IS_HEAVY_ATOM>  (2775) 
1 0 0 0 1 1 1 1 0 0 0 1 1 0 1 0 1 0 1 0 1 0

>  <DIFUSE_FUNC_ATOM>  (2775) 
n/a

>  <FINAL_SINGLE_POINT_ENERGY>  (2775) 
0

>  <NONCOV_INTER_ENERGY_QM>  (2775) 
0

>  <FF_Energy>  (2775) 
3.42

>  <QM_Energy>  (2775) 
-1.9

>  <source>  (2775) 
ACET_MBZ_03

>  <Index>  (2775) 
10038

$$$$
ACEH-pdb3c3d-A-GLH-34:MBZ-pdb3c3d-A-PHE-147
     RDKit          3D

 22 21  0  0  0  0  0  0  0  0999 V2000
    2.8989    1.6130   -4.6554 C   0  0  0  0  0  0  0  0  0  0  0  0
    2.4531    1.9152   -5.4766 H   0  0  0  0  0  0  0  0  0  0  0  0
    3.4013    0.7790   -4.7880 H   0  0  0  0  0  0  0  0  0  0  0  0
    3.5880    2.3900   -4.3245 H   0  0  0  0  0  0  0  0  0  0  0  0
    1.8382    1.3477   -3.6313 C   0  0  0  0  0  0  0  0  0  0  0  0
    1.6735    0.1698   -3.2376 O   0  0  0  0  0  0  0  0  0  0  0  0
    1.1732    2.3238   -3.2245 O   0  0  0  0  0  0  0  0  0  0  0  0
   -0.0065    2.8966    0.0792 C   0  0  0  0  0  0  0  0  0  0  0  0
   -0.7286    3.2342   -0.5038 H   0  0  0  0  0  0  0  0  0  0  0  0
    0.8787    3.2243   -0.2128 H   0  0  0  0  0  0  0  0  0  0  0  0
   -0.1860    3.2786    1.0842 H   0  0  0  0  0  0  0  0  0  0  0  0
   -0.0022    1.4010    0.0002 C   0  0  0  0  0  0  0  0  0  0  0  0
   -1.1959    0.6944   -0.0014 C   0  0  0  0  0  0  0  0  0  0  0  0
   -2.0641    1.1862   -0.0049 H   0  0  0  0  0  0  0  0  0  0  0  0
   -1.2057   -0.6959   -0.0000 C   0  0  0  0  0  0  0  0  0  0  0  0
   -2.0805   -1.1888    0.0000 H   0  0  0  0  0  0  0  0  0  0  0  0
   -0.0013   -1.3961    0.0032 C   0  0  0  0  0  0  0  0  0  0  0  0
   -0.0058   -2.3929    0.0070 H   0  0  0  0  0  0  0  0  0  0  0  0
    1.2057   -0.6978   -0.0000 C   0  0  0  0  0  0  0  0  0  0  0  0
    2.0845   -1.1962    0.0004 H   0  0  0  0  0  0  0  0  0  0  0  0
    1.1993    0.6943   -0.0020 C   0  0  0  0  0  0  0  0  0  0  0  0
    2.0653    1.1930   -0.0059 H   0  0  0  0  0  0  0  0  0  0  0  0
  1  5  1  0
  5  6  2  0
  5  7  1  0
  1  2  1  0
  1  3  1  0
  1  4  1  0
  8 12  1  0
 12 13  2  0
 13 15  1  0
 15 17  2  0
 17 19  1  0
 19 21  2  0
 21 12  1  0
  8  9  1  0
  8 10  1  0
  8 11  1  0
 13 14  1  0
 15 16  1  0
 17 18  1  0
 19 20  1  0
 21 22  1  0
M  CHG  1   7  -1
V    7 [O&-]
M  END
>  <PDB_ID>  (2776) 
pdb3c3d

>  <RESIDUE_NAME>  (2776) 
GLU   PHE

>  <FRAG_NAME>  (2776) 
ACET   MBZ

>  <FRAG_ATOM_NUM>  (2776) 
fragi: 7 fragj: 15

>  <atom.prop.CHAIN_ID>  (2776) 
A A A A A A A Z Z Z Z Z Z Z Z Z Z Z Z Z Z Z

>  <atom.prop.IS_HEAVY_ATOM>  (2776) 
1 0 0 0 1 1 1 1 0 0 0 1 1 0 1 0 1 0 1 0 1 0

>  <DIFUSE_FUNC_ATOM>  (2776) 
n/a

>  <FINAL_SINGLE_POINT_ENERGY>  (2776) 
0

>  <NONCOV_INTER_ENERGY_QM>  (2776) 
0

>  <FF_Energy>  (2776) 
3.27

>  <QM_Energy>  (2776) 
-1.78

>  <source>  (2776) 
ACET_MBZ_03

>  <Index>  (2776) 
10067

$$$$
ACEH-pdb3c3d-C-GLH-34:MBZ-pdb3c3d-C-PHE-147
     RDKit          3D

 22 21  0  0  0  0  0  0  0  0999 V2000
    3.2530    1.4557   -4.5549 C   0  0  0  0  0  0  0  0  0  0  0  0
    2.7515    1.8161   -5.3167 H   0  0  0  0  0  0  0  0  0  0  0  0
    3.7222    0.6215   -4.7729 H   0  0  0  0  0  0  0  0  0  0  0  0
    3.9867    2.1975   -4.2396 H   0  0  0  0  0  0  0  0  0  0  0  0
    2.2661    1.1515   -3.4598 C   0  0  0  0  0  0  0  0  0  0  0  0
    1.8455   -0.0301   -3.3372 O   0  0  0  0  0  0  0  0  0  0  0  0
    1.9150    2.1045   -2.7279 O   0  0  0  0  0  0  0  0  0  0  0  0
   -0.0028    2.9070    0.0792 C   0  0  0  0  0  0  0  0  0  0  0  0
   -0.7368    3.2439   -0.4882 H   0  0  0  0  0  0  0  0  0  0  0  0
    0.8756    3.2318   -0.2317 H   0  0  0  0  0  0  0  0  0  0  0  0
   -0.1604    3.2894    1.0877 H   0  0  0  0  0  0  0  0  0  0  0  0
   -0.0015    1.4062    0.0009 C   0  0  0  0  0  0  0  0  0  0  0  0
   -1.1976    0.6973   -0.0010 C   0  0  0  0  0  0  0  0  0  0  0  0
   -2.0649    1.1847   -0.0045 H   0  0  0  0  0  0  0  0  0  0  0  0
   -1.2038   -0.6997    0.0000 C   0  0  0  0  0  0  0  0  0  0  0  0
   -2.0783   -1.1917   -0.0002 H   0  0  0  0  0  0  0  0  0  0  0  0
    0.0026   -1.4000    0.0029 C   0  0  0  0  0  0  0  0  0  0  0  0
   -0.0030   -2.3968    0.0069 H   0  0  0  0  0  0  0  0  0  0  0  0
    1.2038   -0.7006   -0.0000 C   0  0  0  0  0  0  0  0  0  0  0  0
    2.0863   -1.1941    0.0012 H   0  0  0  0  0  0  0  0  0  0  0  0
    1.1965    0.6969   -0.0028 C   0  0  0  0  0  0  0  0  0  0  0  0
    2.0645    1.1917   -0.0086 H   0  0  0  0  0  0  0  0  0  0  0  0
  1  5  1  0
  5  6  2  0
  5  7  1  0
  1  2  1  0
  1  3  1  0
  1  4  1  0
  8 12  1  0
 12 13  2  0
 13 15  1  0
 15 17  2  0
 17 19  1  0
 19 21  2  0
 21 12  1  0
  8  9  1  0
  8 10  1  0
  8 11  1  0
 13 14  1  0
 15 16  1  0
 17 18  1  0
 19 20  1  0
 21 22  1  0
M  CHG  1   7  -1
V    7 [O&-]
M  END
>  <PDB_ID>  (2777) 
pdb3c3d

>  <RESIDUE_NAME>  (2777) 
GLU   PHE

>  <FRAG_NAME>  (2777) 
ACET   MBZ

>  <FRAG_ATOM_NUM>  (2777) 
fragi: 7 fragj: 15

>  <atom.prop.CHAIN_ID>  (2777) 
A A A A A A A Z Z Z Z Z Z Z Z Z Z Z Z Z Z Z

>  <atom.prop.IS_HEAVY_ATOM>  (2777) 
1 0 0 0 1 1 1 1 0 0 0 1 1 0 1 0 1 0 1 0 1 0

>  <DIFUSE_FUNC_ATOM>  (2777) 
n/a

>  <FINAL_SINGLE_POINT_ENERGY>  (2777) 
0

>  <NONCOV_INTER_ENERGY_QM>  (2777) 
0

>  <FF_Energy>  (2777) 
2.79

>  <QM_Energy>  (2777) 
-2.62

>  <source>  (2777) 
ACET_MBZ_03

>  <Index>  (2777) 
10069

$$$$
ACEH-pdb3c3d-D-GLH-34:MBZ-pdb3c3d-D-PHE-147
     RDKit          3D

 22 21  0  0  0  0  0  0  0  0999 V2000
    2.6591    1.5982   -4.7343 C   0  0  0  0  0  0  0  0  0  0  0  0
    2.1931    1.8838   -5.5511 H   0  0  0  0  0  0  0  0  0  0  0  0
    3.1348    0.7465   -4.8555 H   0  0  0  0  0  0  0  0  0  0  0  0
    3.3815    2.3665   -4.4589 H   0  0  0  0  0  0  0  0  0  0  0  0
    1.6220    1.3932   -3.6656 C   0  0  0  0  0  0  0  0  0  0  0  0
    1.3863    0.2230   -3.2756 O   0  0  0  0  0  0  0  0  0  0  0  0
    1.0435    2.4087   -3.2231 O   0  0  0  0  0  0  0  0  0  0  0  0
   -0.0008    2.9025    0.0737 C   0  0  0  0  0  0  0  0  0  0  0  0
   -0.7595    3.2371   -0.4610 H   0  0  0  0  0  0  0  0  0  0  0  0
    0.8627    3.2292   -0.2740 H   0  0  0  0  0  0  0  0  0  0  0  0
   -0.1153    3.2884    1.0867 H   0  0  0  0  0  0  0  0  0  0  0  0
    0.0007    1.4024    0.0009 C   0  0  0  0  0  0  0  0  0  0  0  0
   -1.1965    0.6964   -0.0014 C   0  0  0  0  0  0  0  0  0  0  0  0
   -2.0628    1.1889   -0.0055 H   0  0  0  0  0  0  0  0  0  0  0  0
   -1.2058   -0.6945   -0.0000 C   0  0  0  0  0  0  0  0  0  0  0  0
   -2.0816   -1.1871    0.0005 H   0  0  0  0  0  0  0  0  0  0  0  0
   -0.0021   -1.3979    0.0025 C   0  0  0  0  0  0  0  0  0  0  0  0
   -0.0080   -2.3940    0.0050 H   0  0  0  0  0  0  0  0  0  0  0  0
    1.2058   -0.6999    0.0000 C   0  0  0  0  0  0  0  0  0  0  0  0
    2.0834   -1.1976    0.0016 H   0  0  0  0  0  0  0  0  0  0  0  0
    1.1978    0.6935   -0.0020 C   0  0  0  0  0  0  0  0  0  0  0  0
    2.0660    1.1902   -0.0064 H   0  0  0  0  0  0  0  0  0  0  0  0
  1  5  1  0
  5  6  2  0
  5  7  1  0
  1  2  1  0
  1  3  1  0
  1  4  1  0
  8 12  1  0
 12 13  2  0
 13 15  1  0
 15 17  2  0
 17 19  1  0
 19 21  2  0
 21 12  1  0
  8  9  1  0
  8 10  1  0
  8 11  1  0
 13 14  1  0
 15 16  1  0
 17 18  1  0
 19 20  1  0
 21 22  1  0
M  CHG  1   7  -1
V    7 [O&-]
M  END
>  <PDB_ID>  (2778) 
pdb3c3d

>  <RESIDUE_NAME>  (2778) 
GLU   PHE

>  <FRAG_NAME>  (2778) 
ACET   MBZ

>  <FRAG_ATOM_NUM>  (2778) 
fragi: 7 fragj: 15

>  <atom.prop.CHAIN_ID>  (2778) 
A A A A A A A Z Z Z Z Z Z Z Z Z Z Z Z Z Z Z

>  <atom.prop.IS_HEAVY_ATOM>  (2778) 
1 0 0 0 1 1 1 1 0 0 0 1 1 0 1 0 1 0 1 0 1 0

>  <DIFUSE_FUNC_ATOM>  (2778) 
n/a

>  <FINAL_SINGLE_POINT_ENERGY>  (2778) 
0

>  <NONCOV_INTER_ENERGY_QM>  (2778) 
0

>  <FF_Energy>  (2778) 
3.55

>  <QM_Energy>  (2778) 
-1.7

>  <source>  (2778) 
ACET_MBZ_03

>  <Index>  (2778) 
10070

$$$$
ACEH-pdb5cnw-A-GLH-53:MBZ-pdb5cnw-A-PHE-110
     RDKit          3D

 22 21  0  0  0  0  0  0  0  0999 V2000
   -4.7093    4.3207   -1.7614 C   0  0  0  0  0  0  0  0  0  0  0  0
   -4.4568    5.2037   -1.4249 H   0  0  0  0  0  0  0  0  0  0  0  0
   -5.2487    3.8086   -1.1258 H   0  0  0  0  0  0  0  0  0  0  0  0
   -5.2874    4.4535   -2.6760 H   0  0  0  0  0  0  0  0  0  0  0  0
   -3.4372    3.5438   -2.0172 C   0  0  0  0  0  0  0  0  0  0  0  0
   -2.4155    4.1741   -2.3658 O   0  0  0  0  0  0  0  0  0  0  0  0
   -3.4621    2.2998   -1.9030 O   0  0  0  0  0  0  0  0  0  0  0  0
    0.0189    2.9176   -0.0248 C   0  0  0  0  0  0  0  0  0  0  0  0
   -0.2891    3.2021   -0.9233 H   0  0  0  0  0  0  0  0  0  0  0  0
    0.9501    3.2142    0.1417 H   0  0  0  0  0  0  0  0  0  0  0  0
   -0.6193    3.4041    0.7128 H   0  0  0  0  0  0  0  0  0  0  0  0
   -0.0006    1.4054    0.0151 C   0  0  0  0  0  0  0  0  0  0  0  0
   -1.1924    0.6996   -0.0087 C   0  0  0  0  0  0  0  0  0  0  0  0
   -2.0614    1.1882   -0.0339 H   0  0  0  0  0  0  0  0  0  0  0  0
   -1.1993   -0.6924    0.0000 C   0  0  0  0  0  0  0  0  0  0  0  0
   -2.0798   -1.1828    0.0091 H   0  0  0  0  0  0  0  0  0  0  0  0
   -0.0029   -1.3959   -0.0026 C   0  0  0  0  0  0  0  0  0  0  0  0
   -0.0122   -2.3936   -0.0072 H   0  0  0  0  0  0  0  0  0  0  0  0
    1.1993   -0.7039    0.0000 C   0  0  0  0  0  0  0  0  0  0  0  0
    2.0787   -1.2026    0.0059 H   0  0  0  0  0  0  0  0  0  0  0  0
    1.1959    0.6872   -0.0038 C   0  0  0  0  0  0  0  0  0  0  0  0
    2.0655    1.1836   -0.0215 H   0  0  0  0  0  0  0  0  0  0  0  0
  1  5  1  0
  5  6  2  0
  5  7  1  0
  1  2  1  0
  1  3  1  0
  1  4  1  0
  8 12  1  0
 12 13  2  0
 13 15  1  0
 15 17  2  0
 17 19  1  0
 19 21  2  0
 21 12  1  0
  8  9  1  0
  8 10  1  0
  8 11  1  0
 13 14  1  0
 15 16  1  0
 17 18  1  0
 19 20  1  0
 21 22  1  0
M  CHG  1   7  -1
V    7 [O&-]
M  END
>  <PDB_ID>  (2779) 
pdb5cnw

>  <RESIDUE_NAME>  (2779) 
GLU   PHE

>  <FRAG_NAME>  (2779) 
ACET   MBZ

>  <FRAG_ATOM_NUM>  (2779) 
fragi: 7 fragj: 15

>  <atom.prop.CHAIN_ID>  (2779) 
A A A A A A A Z Z Z Z Z Z Z Z Z Z Z Z Z Z Z

>  <atom.prop.IS_HEAVY_ATOM>  (2779) 
1 0 0 0 1 1 1 1 0 0 0 1 1 0 1 0 1 0 1 0 1 0

>  <DIFUSE_FUNC_ATOM>  (2779) 
n/a

>  <FINAL_SINGLE_POINT_ENERGY>  (2779) 
0

>  <NONCOV_INTER_ENERGY_QM>  (2779) 
0

>  <FF_Energy>  (2779) 
-1.64

>  <QM_Energy>  (2779) 
-7.28

>  <source>  (2779) 
ACET_MBZ_03

>  <Index>  (2779) 
10078

$$$$
ACEH-pdb1ca1-A-ASH-132:MBZ-pdb1ca1-A-PHE-196
     RDKit          3D

 22 21  0  0  0  0  0  0  0  0999 V2000
   -2.2206    4.5675    3.9031 C   0  0  0  0  0  0  0  0  0  0  0  0
   -1.2595    4.3299    3.9683 H   0  0  0  0  0  0  0  0  0  0  0  0
   -2.6742    4.4432    4.7753 H   0  0  0  0  0  0  0  0  0  0  0  0
   -2.2985    5.6170    3.6191 H   0  0  0  0  0  0  0  0  0  0  0  0
   -2.8764    3.6471    2.8829 C   0  0  0  0  0  0  0  0  0  0  0  0
   -2.2703    2.6026    2.6023 O   0  0  0  0  0  0  0  0  0  0  0  0
   -3.9854    3.9512    2.3595 O   0  0  0  0  0  0  0  0  0  0  0  0
   -0.0051    2.8544   -0.0659 C   0  0  0  0  0  0  0  0  0  0  0  0
    0.9056    3.1837    0.1457 H   0  0  0  0  0  0  0  0  0  0  0  0
   -0.6670    3.2002    0.5854 H   0  0  0  0  0  0  0  0  0  0  0  0
   -0.2758    3.2425   -1.0479 H   0  0  0  0  0  0  0  0  0  0  0  0
   -0.0021    1.3847   -0.0008 C   0  0  0  0  0  0  0  0  0  0  0  0
   -1.1961    0.6879   -0.0002 C   0  0  0  0  0  0  0  0  0  0  0  0
   -2.0614    1.1879   -0.0011 H   0  0  0  0  0  0  0  0  0  0  0  0
   -1.2058   -0.6857   -0.0000 C   0  0  0  0  0  0  0  0  0  0  0  0
   -2.0763   -1.1889    0.0024 H   0  0  0  0  0  0  0  0  0  0  0  0
    0.0053   -1.3849   -0.0014 C   0  0  0  0  0  0  0  0  0  0  0  0
   -0.0031   -2.3828   -0.0038 H   0  0  0  0  0  0  0  0  0  0  0  0
    1.2058   -0.6896   -0.0000 C   0  0  0  0  0  0  0  0  0  0  0  0
    2.0852   -1.1902    0.0007 H   0  0  0  0  0  0  0  0  0  0  0  0
    1.1929    0.6875    0.0025 C   0  0  0  0  0  0  0  0  0  0  0  0
    2.0593    1.1942    0.0057 H   0  0  0  0  0  0  0  0  0  0  0  0
  1  5  1  0
  5  6  2  0
  5  7  1  0
  1  2  1  0
  1  3  1  0
  1  4  1  0
  8 12  1  0
 12 13  2  0
 13 15  1  0
 15 17  2  0
 17 19  1  0
 19 21  2  0
 21 12  1  0
  8  9  1  0
  8 10  1  0
  8 11  1  0
 13 14  1  0
 15 16  1  0
 17 18  1  0
 19 20  1  0
 21 22  1  0
M  CHG  1   7  -1
V    7 [O&-]
M  END
>  <PDB_ID>  (2780) 
pdb1ca1

>  <RESIDUE_NAME>  (2780) 
ASP   PHE

>  <FRAG_NAME>  (2780) 
ACET   MBZ

>  <FRAG_ATOM_NUM>  (2780) 
fragi: 7 fragj: 15

>  <atom.prop.CHAIN_ID>  (2780) 
A A A A A A A Z Z Z Z Z Z Z Z Z Z Z Z Z Z Z

>  <atom.prop.IS_HEAVY_ATOM>  (2780) 
1 0 0 0 1 1 1 1 0 0 0 1 1 0 1 0 1 0 1 0 1 0

>  <DIFUSE_FUNC_ATOM>  (2780) 
n/a

>  <FINAL_SINGLE_POINT_ENERGY>  (2780) 
0

>  <NONCOV_INTER_ENERGY_QM>  (2780) 
0

>  <FF_Energy>  (2780) 
-0.43

>  <QM_Energy>  (2780) 
-5.57

>  <source>  (2780) 
ACET_MBZ_03

>  <Index>  (2780) 
10155

$$$$
ACEH-pdb1ca4-C-GLH-479:MBZ-pdb1ca4-C-PHE-361
     RDKit          3D

 22 21  0  0  0  0  0  0  0  0999 V2000
    0.9963   -4.4635    0.2813 C   0  0  0  0  0  0  0  0  0  0  0  0
    0.8793   -3.4808    0.4381 H   0  0  0  0  0  0  0  0  0  0  0  0
    0.2885   -4.7809   -0.3518 H   0  0  0  0  0  0  0  0  0  0  0  0
    1.9619   -4.6065   -0.2038 H   0  0  0  0  0  0  0  0  0  0  0  0
    0.7886   -5.1621    1.5860 C   0  0  0  0  0  0  0  0  0  0  0  0
   -0.3442   -4.9553    2.0629 O   0  0  0  0  0  0  0  0  0  0  0  0
    1.6338   -5.8693    2.1209 O   0  0  0  0  0  0  0  0  0  0  0  0
    0.0042    2.9071    0.0485 C   0  0  0  0  0  0  0  0  0  0  0  0
   -0.6211    3.2351   -0.6411 H   0  0  0  0  0  0  0  0  0  0  0  0
    0.9270    3.2160   -0.1201 H   0  0  0  0  0  0  0  0  0  0  0  0
   -0.3136    3.3122    1.0092 H   0  0  0  0  0  0  0  0  0  0  0  0
    0.0009    1.4028    0.0005 C   0  0  0  0  0  0  0  0  0  0  0  0
   -1.1942    0.6967    0.0001 C   0  0  0  0  0  0  0  0  0  0  0  0
   -2.0621    1.1868   -0.0013 H   0  0  0  0  0  0  0  0  0  0  0  0
   -1.2011   -0.6950    0.0000 C   0  0  0  0  0  0  0  0  0  0  0  0
   -2.0800   -1.1858    0.0013 H   0  0  0  0  0  0  0  0  0  0  0  0
   -0.0038   -1.3951    0.0002 C   0  0  0  0  0  0  0  0  0  0  0  0
   -0.0104   -2.3940   -0.0000 H   0  0  0  0  0  0  0  0  0  0  0  0
    1.2011   -0.7029   -0.0000 C   0  0  0  0  0  0  0  0  0  0  0  0
    2.0797   -1.2000    0.0017 H   0  0  0  0  0  0  0  0  0  0  0  0
    1.1972    0.6935   -0.0008 C   0  0  0  0  0  0  0  0  0  0  0  0
    2.0663    1.1872   -0.0034 H   0  0  0  0  0  0  0  0  0  0  0  0
  1  5  1  0
  5  6  2  0
  5  7  1  0
  1  2  1  0
  1  3  1  0
  1  4  1  0
  8 12  1  0
 12 13  2  0
 13 15  1  0
 15 17  2  0
 17 19  1  0
 19 21  2  0
 21 12  1  0
  8  9  1  0
  8 10  1  0
  8 11  1  0
 13 14  1  0
 15 16  1  0
 17 18  1  0
 19 20  1  0
 21 22  1  0
M  CHG  1   7  -1
V    7 [O&-]
M  END
>  <PDB_ID>  (2781) 
pdb1ca4

>  <RESIDUE_NAME>  (2781) 
GLU   PHE

>  <FRAG_NAME>  (2781) 
ACET   MBZ

>  <FRAG_ATOM_NUM>  (2781) 
fragi: 7 fragj: 15

>  <atom.prop.CHAIN_ID>  (2781) 
A A A A A A A Z Z Z Z Z Z Z Z Z Z Z Z Z Z Z

>  <atom.prop.IS_HEAVY_ATOM>  (2781) 
1 0 0 0 1 1 1 1 0 0 0 1 1 0 1 0 1 0 1 0 1 0

>  <DIFUSE_FUNC_ATOM>  (2781) 
n/a

>  <FINAL_SINGLE_POINT_ENERGY>  (2781) 
0

>  <NONCOV_INTER_ENERGY_QM>  (2781) 
0

>  <FF_Energy>  (2781) 
42.18

>  <QM_Energy>  (2781) 
3.59

>  <source>  (2781) 
ACET_MBZ_03

>  <Index>  (2781) 
10158

$$$$
ACEH-pdb5cuy-B-GLH-299:MBZ-pdb5cuy-B-PHE-305
     RDKit          3D

 22 21  0  0  0  0  0  0  0  0999 V2000
    3.4986   -1.8316   -2.1410 C   0  0  0  0  0  0  0  0  0  0  0  0
    3.0279   -1.3188   -1.4563 H   0  0  0  0  0  0  0  0  0  0  0  0
    3.4484   -1.4309   -3.0300 H   0  0  0  0  0  0  0  0  0  0  0  0
    4.5511   -1.8456   -1.8580 H   0  0  0  0  0  0  0  0  0  0  0  0
    2.9257   -3.2100   -2.1964 C   0  0  0  0  0  0  0  0  0  0  0  0
    3.4056   -4.0413   -1.4406 O   0  0  0  0  0  0  0  0  0  0  0  0
    2.0025   -3.4719   -2.9624 O   0  0  0  0  0  0  0  0  0  0  0  0
    0.0178    2.9157    0.0362 C   0  0  0  0  0  0  0  0  0  0  0  0
    0.8899    3.2156   -0.3293 H   0  0  0  0  0  0  0  0  0  0  0  0
   -0.0839    3.1994    0.9812 H   0  0  0  0  0  0  0  0  0  0  0  0
   -0.7699    3.3973   -0.5433 H   0  0  0  0  0  0  0  0  0  0  0  0
   -0.0046    1.4105    0.0008 C   0  0  0  0  0  0  0  0  0  0  0  0
   -1.2007    0.7099    0.0030 C   0  0  0  0  0  0  0  0  0  0  0  0
   -2.0679    1.1882    0.0055 H   0  0  0  0  0  0  0  0  0  0  0  0
   -1.2026   -0.7012    0.0000 C   0  0  0  0  0  0  0  0  0  0  0  0
   -2.0751   -1.1911    0.0018 H   0  0  0  0  0  0  0  0  0  0  0  0
    0.0125   -1.4038   -0.0033 C   0  0  0  0  0  0  0  0  0  0  0  0
   -0.0007   -2.4002   -0.0084 H   0  0  0  0  0  0  0  0  0  0  0  0
    1.2026   -0.7078   -0.0000 C   0  0  0  0  0  0  0  0  0  0  0  0
    2.0901   -1.1943    0.0036 H   0  0  0  0  0  0  0  0  0  0  0  0
    1.1928    0.6924   -0.0005 C   0  0  0  0  0  0  0  0  0  0  0  0
    2.0638    1.1870   -0.0025 H   0  0  0  0  0  0  0  0  0  0  0  0
  1  5  1  0
  5  6  2  0
  5  7  1  0
  1  2  1  0
  1  3  1  0
  1  4  1  0
  8 12  1  0
 12 13  2  0
 13 15  1  0
 15 17  2  0
 17 19  1  0
 19 21  2  0
 21 12  1  0
  8  9  1  0
  8 10  1  0
  8 11  1  0
 13 14  1  0
 15 16  1  0
 17 18  1  0
 19 20  1  0
 21 22  1  0
M  CHG  1   7  -1
V    7 [O&-]
M  END
>  <PDB_ID>  (2782) 
pdb5cuy

>  <RESIDUE_NAME>  (2782) 
GLU   PHE

>  <FRAG_NAME>  (2782) 
ACET   MBZ

>  <FRAG_ATOM_NUM>  (2782) 
fragi: 7 fragj: 15

>  <atom.prop.CHAIN_ID>  (2782) 
A A A A A A A Z Z Z Z Z Z Z Z Z Z Z Z Z Z Z

>  <atom.prop.IS_HEAVY_ATOM>  (2782) 
1 0 0 0 1 1 1 1 0 0 0 1 1 0 1 0 1 0 1 0 1 0

>  <DIFUSE_FUNC_ATOM>  (2782) 
n/a

>  <FINAL_SINGLE_POINT_ENERGY>  (2782) 
0

>  <NONCOV_INTER_ENERGY_QM>  (2782) 
0

>  <FF_Energy>  (2782) 
4.98

>  <QM_Energy>  (2782) 
-0.27

>  <source>  (2782) 
ACET_MBZ_03

>  <Index>  (2782) 
10173

$$$$
ACEH-pdb2cwl-A-GLH-280:MBZ-pdb2cwl-A-PHE-116
     RDKit          3D

 22 21  0  0  0  0  0  0  0  0999 V2000
   -5.2923    2.6005   -1.7677 C   0  0  0  0  0  0  0  0  0  0  0  0
   -5.5872    2.2933   -0.8829 H   0  0  0  0  0  0  0  0  0  0  0  0
   -4.9260    1.8717   -2.3153 H   0  0  0  0  0  0  0  0  0  0  0  0
   -6.1522    3.0231   -2.2874 H   0  0  0  0  0  0  0  0  0  0  0  0
   -4.1754    3.6142   -1.5516 C   0  0  0  0  0  0  0  0  0  0  0  0
   -4.2368    4.7142   -2.1386 O   0  0  0  0  0  0  0  0  0  0  0  0
   -3.2287    3.3043   -0.7975 O   0  0  0  0  0  0  0  0  0  0  0  0
   -0.0036    2.9032   -0.0749 C   0  0  0  0  0  0  0  0  0  0  0  0
    0.8240    3.2337    0.3503 H   0  0  0  0  0  0  0  0  0  0  0  0
   -0.8088    3.2314    0.3917 H   0  0  0  0  0  0  0  0  0  0  0  0
   -0.0300    3.2843   -1.0958 H   0  0  0  0  0  0  0  0  0  0  0  0
    0.0000    1.4046   -0.0011 C   0  0  0  0  0  0  0  0  0  0  0  0
   -1.1977    0.6961    0.0005 C   0  0  0  0  0  0  0  0  0  0  0  0
   -2.0644    1.1847    0.0008 H   0  0  0  0  0  0  0  0  0  0  0  0
   -1.2032   -0.7003   -0.0000 C   0  0  0  0  0  0  0  0  0  0  0  0
   -2.0800   -1.1917    0.0018 H   0  0  0  0  0  0  0  0  0  0  0  0
   -0.0009   -1.3969   -0.0009 C   0  0  0  0  0  0  0  0  0  0  0  0
   -0.0042   -2.3952   -0.0023 H   0  0  0  0  0  0  0  0  0  0  0  0
    1.2032   -0.7006   -0.0000 C   0  0  0  0  0  0  0  0  0  0  0  0
    2.0834   -1.1953    0.0011 H   0  0  0  0  0  0  0  0  0  0  0  0
    1.1986    0.6972    0.0015 C   0  0  0  0  0  0  0  0  0  0  0  0
    2.0662    1.1913    0.0034 H   0  0  0  0  0  0  0  0  0  0  0  0
  1  5  1  0
  5  6  2  0
  5  7  1  0
  1  2  1  0
  1  3  1  0
  1  4  1  0
  8 12  1  0
 12 13  2  0
 13 15  1  0
 15 17  2  0
 17 19  1  0
 19 21  2  0
 21 12  1  0
  8  9  1  0
  8 10  1  0
  8 11  1  0
 13 14  1  0
 15 16  1  0
 17 18  1  0
 19 20  1  0
 21 22  1  0
M  CHG  1   7  -1
V    7 [O&-]
M  END
>  <PDB_ID>  (2783) 
pdb2cwl

>  <RESIDUE_NAME>  (2783) 
GLU   PHE

>  <FRAG_NAME>  (2783) 
ACET   MBZ

>  <FRAG_ATOM_NUM>  (2783) 
fragi: 7 fragj: 15

>  <atom.prop.CHAIN_ID>  (2783) 
A A A A A A A Z Z Z Z Z Z Z Z Z Z Z Z Z Z Z

>  <atom.prop.IS_HEAVY_ATOM>  (2783) 
1 0 0 0 1 1 1 1 0 0 0 1 1 0 1 0 1 0 1 0 1 0

>  <DIFUSE_FUNC_ATOM>  (2783) 
n/a

>  <FINAL_SINGLE_POINT_ENERGY>  (2783) 
0

>  <NONCOV_INTER_ENERGY_QM>  (2783) 
0

>  <FF_Energy>  (2783) 
-1.9

>  <QM_Energy>  (2783) 
-7.38

>  <source>  (2783) 
ACET_MBZ_03

>  <Index>  (2783) 
10186

$$$$
ACEH-pdb2cwl-B-GLH-280:MBZ-pdb2cwl-B-PHE-116
     RDKit          3D

 22 21  0  0  0  0  0  0  0  0999 V2000
   -5.4866    2.7469   -1.3800 C   0  0  0  0  0  0  0  0  0  0  0  0
   -5.7846    2.4504   -0.4935 H   0  0  0  0  0  0  0  0  0  0  0  0
   -5.2155    2.0006   -1.9563 H   0  0  0  0  0  0  0  0  0  0  0  0
   -6.3153    3.2663   -1.8613 H   0  0  0  0  0  0  0  0  0  0  0  0
   -4.2734    3.6406   -1.1832 C   0  0  0  0  0  0  0  0  0  0  0  0
   -3.3616    3.2478   -0.4253 O   0  0  0  0  0  0  0  0  0  0  0  0
   -4.2264    4.7297   -1.7932 O   0  0  0  0  0  0  0  0  0  0  0  0
   -0.0027    2.9014   -0.0711 C   0  0  0  0  0  0  0  0  0  0  0  0
    0.8529    3.2279    0.2991 H   0  0  0  0  0  0  0  0  0  0  0  0
   -0.7735    3.2325    0.4492 H   0  0  0  0  0  0  0  0  0  0  0  0
   -0.0960    3.2871   -1.0863 H   0  0  0  0  0  0  0  0  0  0  0  0
   -0.0006    1.4030   -0.0010 C   0  0  0  0  0  0  0  0  0  0  0  0
   -1.1988    0.6942    0.0011 C   0  0  0  0  0  0  0  0  0  0  0  0
   -2.0651    1.1830    0.0017 H   0  0  0  0  0  0  0  0  0  0  0  0
   -1.2025   -0.6999   -0.0000 C   0  0  0  0  0  0  0  0  0  0  0  0
   -2.0778   -1.1931    0.0014 H   0  0  0  0  0  0  0  0  0  0  0  0
    0.0017   -1.3948   -0.0016 C   0  0  0  0  0  0  0  0  0  0  0  0
   -0.0028   -2.3937   -0.0043 H   0  0  0  0  0  0  0  0  0  0  0  0
    1.2025   -0.6990    0.0000 C   0  0  0  0  0  0  0  0  0  0  0  0
    2.0837   -1.1941    0.0018 H   0  0  0  0  0  0  0  0  0  0  0  0
    1.1977    0.6965    0.0015 C   0  0  0  0  0  0  0  0  0  0  0  0
    2.0648    1.1913    0.0038 H   0  0  0  0  0  0  0  0  0  0  0  0
  1  5  1  0
  5  6  2  0
  5  7  1  0
  1  2  1  0
  1  3  1  0
  1  4  1  0
  8 12  1  0
 12 13  2  0
 13 15  1  0
 15 17  2  0
 17 19  1  0
 19 21  2  0
 21 12  1  0
  8  9  1  0
  8 10  1  0
  8 11  1  0
 13 14  1  0
 15 16  1  0
 17 18  1  0
 19 20  1  0
 21 22  1  0
M  CHG  1   7  -1
V    7 [O&-]
M  END
>  <PDB_ID>  (2784) 
pdb2cwl

>  <RESIDUE_NAME>  (2784) 
GLU   PHE

>  <FRAG_NAME>  (2784) 
ACET   MBZ

>  <FRAG_ATOM_NUM>  (2784) 
fragi: 7 fragj: 15

>  <atom.prop.CHAIN_ID>  (2784) 
A A A A A A A Z Z Z Z Z Z Z Z Z Z Z Z Z Z Z

>  <atom.prop.IS_HEAVY_ATOM>  (2784) 
1 0 0 0 1 1 1 1 0 0 0 1 1 0 1 0 1 0 1 0 1 0

>  <DIFUSE_FUNC_ATOM>  (2784) 
n/a

>  <FINAL_SINGLE_POINT_ENERGY>  (2784) 
0

>  <NONCOV_INTER_ENERGY_QM>  (2784) 
0

>  <FF_Energy>  (2784) 
-2.01

>  <QM_Energy>  (2784) 
-7.67

>  <source>  (2784) 
ACET_MBZ_03

>  <Index>  (2784) 
10187

$$$$
ACEH-pdb2cx4-D-GLH-52:MBZ-pdb2cx4-D-PHE-56
     RDKit          3D

 22 21  0  0  0  0  0  0  0  0999 V2000
   -4.2604   -1.5344    0.6334 C   0  0  0  0  0  0  0  0  0  0  0  0
   -3.9002   -0.7665    0.1354 H   0  0  0  0  0  0  0  0  0  0  0  0
   -3.6027   -1.9137    1.2589 H   0  0  0  0  0  0  0  0  0  0  0  0
   -5.1192   -1.1910    1.2100 H   0  0  0  0  0  0  0  0  0  0  0  0
   -4.6003   -2.6246   -0.3887 C   0  0  0  0  0  0  0  0  0  0  0  0
   -5.7570   -2.6600   -0.8674 O   0  0  0  0  0  0  0  0  0  0  0  0
   -3.7054   -3.4383   -0.7312 O   0  0  0  0  0  0  0  0  0  0  0  0
    0.0053    2.8775   -0.0270 C   0  0  0  0  0  0  0  0  0  0  0  0
   -0.9044    3.1872   -0.2696 H   0  0  0  0  0  0  0  0  0  0  0  0
    0.6706    3.1754   -0.6989 H   0  0  0  0  0  0  0  0  0  0  0  0
    0.2683    3.3349    0.9267 H   0  0  0  0  0  0  0  0  0  0  0  0
    0.0014    1.3911   -0.0009 C   0  0  0  0  0  0  0  0  0  0  0  0
   -1.1921    0.6854    0.0011 C   0  0  0  0  0  0  0  0  0  0  0  0
   -2.0590    1.1788    0.0021 H   0  0  0  0  0  0  0  0  0  0  0  0
   -1.1963   -0.6967    0.0000 C   0  0  0  0  0  0  0  0  0  0  0  0
   -2.0742   -1.1924    0.0012 H   0  0  0  0  0  0  0  0  0  0  0  0
   -0.0015   -1.3839   -0.0008 C   0  0  0  0  0  0  0  0  0  0  0  0
   -0.0006   -2.3863   -0.0026 H   0  0  0  0  0  0  0  0  0  0  0  0
    1.1963   -0.6896    0.0000 C   0  0  0  0  0  0  0  0  0  0  0  0
    2.0780   -1.1903    0.0016 H   0  0  0  0  0  0  0  0  0  0  0  0
    1.1922    0.6938    0.0006 C   0  0  0  0  0  0  0  0  0  0  0  0
    2.0612    1.1915    0.0016 H   0  0  0  0  0  0  0  0  0  0  0  0
  1  5  1  0
  5  6  2  0
  5  7  1  0
  1  2  1  0
  1  3  1  0
  1  4  1  0
  8 12  1  0
 12 13  2  0
 13 15  1  0
 15 17  2  0
 17 19  1  0
 19 21  2  0
 21 12  1  0
  8  9  1  0
  8 10  1  0
  8 11  1  0
 13 14  1  0
 15 16  1  0
 17 18  1  0
 19 20  1  0
 21 22  1  0
M  CHG  1   7  -1
V    7 [O&-]
M  END
>  <PDB_ID>  (2785) 
pdb2cx4

>  <RESIDUE_NAME>  (2785) 
GLU   PHE

>  <FRAG_NAME>  (2785) 
ACET   MBZ

>  <FRAG_ATOM_NUM>  (2785) 
fragi: 7 fragj: 15

>  <atom.prop.CHAIN_ID>  (2785) 
A A A A A A A Z Z Z Z Z Z Z Z Z Z Z Z Z Z Z

>  <atom.prop.IS_HEAVY_ATOM>  (2785) 
1 0 0 0 1 1 1 1 0 0 0 1 1 0 1 0 1 0 1 0 1 0

>  <DIFUSE_FUNC_ATOM>  (2785) 
n/a

>  <FINAL_SINGLE_POINT_ENERGY>  (2785) 
0

>  <NONCOV_INTER_ENERGY_QM>  (2785) 
0

>  <FF_Energy>  (2785) 
4.26

>  <QM_Energy>  (2785) 
-1.96

>  <source>  (2785) 
ACET_MBZ_03

>  <Index>  (2785) 
10222

$$$$
ACEH-pdb1ckm-B-GLH-131:MBZ-pdb1ckm-B-PHE-146
     RDKit          3D

 22 21  0  0  0  0  0  0  0  0999 V2000
   -1.4415   -4.3812   -0.7421 C   0  0  0  0  0  0  0  0  0  0  0  0
   -1.0056   -3.5143   -0.4881 H   0  0  0  0  0  0  0  0  0  0  0  0
   -2.2466   -4.5241   -0.1619 H   0  0  0  0  0  0  0  0  0  0  0  0
   -1.7760   -4.3027   -1.7766 H   0  0  0  0  0  0  0  0  0  0  0  0
   -0.4641   -5.4813   -0.4276 C   0  0  0  0  0  0  0  0  0  0  0  0
   -0.8892   -6.5422   -0.0222 O   0  0  0  0  0  0  0  0  0  0  0  0
    0.7269   -5.2651   -0.5519 O   0  0  0  0  0  0  0  0  0  0  0  0
    0.0803    2.9223   -0.0146 C   0  0  0  0  0  0  0  0  0  0  0  0
    1.0204    3.1609   -0.3494 H   0  0  0  0  0  0  0  0  0  0  0  0
    0.0559    3.2221    0.9667 H   0  0  0  0  0  0  0  0  0  0  0  0
   -0.6215    3.5550   -0.5578 H   0  0  0  0  0  0  0  0  0  0  0  0
   -0.0034    1.3940   -0.0054 C   0  0  0  0  0  0  0  0  0  0  0  0
   -1.2198    0.6902    0.0023 C   0  0  0  0  0  0  0  0  0  0  0  0
   -2.0752    1.1783    0.0082 H   0  0  0  0  0  0  0  0  0  0  0  0
   -1.2130   -0.7092   -0.0000 C   0  0  0  0  0  0  0  0  0  0  0  0
   -2.0782   -1.2109    0.0025 H   0  0  0  0  0  0  0  0  0  0  0  0
    0.0091   -1.3929   -0.0042 C   0  0  0  0  0  0  0  0  0  0  0  0
    0.0146   -2.3908   -0.0105 H   0  0  0  0  0  0  0  0  0  0  0  0
    1.2130   -0.6838    0.0000 C   0  0  0  0  0  0  0  0  0  0  0  0
    2.0949   -1.1883   -0.0010 H   0  0  0  0  0  0  0  0  0  0  0  0
    1.2142    0.7017    0.0073 C   0  0  0  0  0  0  0  0  0  0  0  0
    2.0668    1.2053    0.0214 H   0  0  0  0  0  0  0  0  0  0  0  0
  1  5  1  0
  5  6  2  0
  5  7  1  0
  1  2  1  0
  1  3  1  0
  1  4  1  0
  8 12  1  0
 12 13  2  0
 13 15  1  0
 15 17  2  0
 17 19  1  0
 19 21  2  0
 21 12  1  0
  8  9  1  0
  8 10  1  0
  8 11  1  0
 13 14  1  0
 15 16  1  0
 17 18  1  0
 19 20  1  0
 21 22  1  0
M  CHG  1   7  -1
V    7 [O&-]
M  END
>  <PDB_ID>  (2786) 
pdb1ckm

>  <RESIDUE_NAME>  (2786) 
GLU   PHE

>  <FRAG_NAME>  (2786) 
ACET   MBZ

>  <FRAG_ATOM_NUM>  (2786) 
fragi: 7 fragj: 15

>  <atom.prop.CHAIN_ID>  (2786) 
A A A A A A A Z Z Z Z Z Z Z Z Z Z Z Z Z Z Z

>  <atom.prop.IS_HEAVY_ATOM>  (2786) 
1 0 0 0 1 1 1 1 0 0 0 1 1 0 1 0 1 0 1 0 1 0

>  <DIFUSE_FUNC_ATOM>  (2786) 
n/a

>  <FINAL_SINGLE_POINT_ENERGY>  (2786) 
0

>  <NONCOV_INTER_ENERGY_QM>  (2786) 
0

>  <FF_Energy>  (2786) 
14.2

>  <QM_Energy>  (2786) 
-0.25

>  <source>  (2786) 
ACET_MBZ_03

>  <Index>  (2786) 
10281

$$$$
ACEH-pdb2czg-A-GLH-213:MBZ-pdb2czg-A-PHE-229
     RDKit          3D

 22 21  0  0  0  0  0  0  0  0999 V2000
    4.8390    2.2565   -0.9213 C   0  0  0  0  0  0  0  0  0  0  0  0
    4.4947    1.6870   -1.6443 H   0  0  0  0  0  0  0  0  0  0  0  0
    4.6157    1.9040   -0.0317 H   0  0  0  0  0  0  0  0  0  0  0  0
    5.9245    2.2990   -1.0097 H   0  0  0  0  0  0  0  0  0  0  0  0
    4.1711    3.6211   -1.0543 C   0  0  0  0  0  0  0  0  0  0  0  0
    4.6085    4.4386   -1.9017 O   0  0  0  0  0  0  0  0  0  0  0  0
    3.1883    3.8729   -0.3143 O   0  0  0  0  0  0  0  0  0  0  0  0
    0.0133    2.9139   -0.0428 C   0  0  0  0  0  0  0  0  0  0  0  0
   -0.7232    3.2078   -0.6350 H   0  0  0  0  0  0  0  0  0  0  0  0
    0.8918    3.2060   -0.3921 H   0  0  0  0  0  0  0  0  0  0  0  0
   -0.1317    3.3933    0.9253 H   0  0  0  0  0  0  0  0  0  0  0  0
    0.0051    1.4071   -0.0003 C   0  0  0  0  0  0  0  0  0  0  0  0
   -1.1985    0.6970    0.0006 C   0  0  0  0  0  0  0  0  0  0  0  0
   -2.0624    1.1886    0.0010 H   0  0  0  0  0  0  0  0  0  0  0  0
   -1.2064   -0.6992    0.0000 C   0  0  0  0  0  0  0  0  0  0  0  0
   -2.0848   -1.1888    0.0002 H   0  0  0  0  0  0  0  0  0  0  0  0
   -0.0059   -1.4012    0.0003 C   0  0  0  0  0  0  0  0  0  0  0  0
   -0.0071   -2.3966    0.0001 H   0  0  0  0  0  0  0  0  0  0  0  0
    1.2064   -0.6998   -0.0000 C   0  0  0  0  0  0  0  0  0  0  0  0
    2.0830   -1.1980    0.0016 H   0  0  0  0  0  0  0  0  0  0  0  0
    1.1993    0.6961   -0.0006 C   0  0  0  0  0  0  0  0  0  0  0  0
    2.0697    1.1902   -0.0023 H   0  0  0  0  0  0  0  0  0  0  0  0
  1  5  1  0
  5  6  2  0
  5  7  1  0
  1  2  1  0
  1  3  1  0
  1  4  1  0
  8 12  1  0
 12 13  2  0
 13 15  1  0
 15 17  2  0
 17 19  1  0
 19 21  2  0
 21 12  1  0
  8  9  1  0
  8 10  1  0
  8 11  1  0
 13 14  1  0
 15 16  1  0
 17 18  1  0
 19 20  1  0
 21 22  1  0
M  CHG  1   7  -1
V    7 [O&-]
M  END
>  <PDB_ID>  (2787) 
pdb2czg

>  <RESIDUE_NAME>  (2787) 
GLU   PHE

>  <FRAG_NAME>  (2787) 
ACET   MBZ

>  <FRAG_ATOM_NUM>  (2787) 
fragi: 7 fragj: 15

>  <atom.prop.CHAIN_ID>  (2787) 
A A A A A A A Z Z Z Z Z Z Z Z Z Z Z Z Z Z Z

>  <atom.prop.IS_HEAVY_ATOM>  (2787) 
1 0 0 0 1 1 1 1 0 0 0 1 1 0 1 0 1 0 1 0 1 0

>  <DIFUSE_FUNC_ATOM>  (2787) 
n/a

>  <FINAL_SINGLE_POINT_ENERGY>  (2787) 
0

>  <NONCOV_INTER_ENERGY_QM>  (2787) 
0

>  <FF_Energy>  (2787) 
-2.05

>  <QM_Energy>  (2787) 
-7.3

>  <source>  (2787) 
ACET_MBZ_03

>  <Index>  (2787) 
10291

$$$$
ACEH-pdb4cnc-A-GLH-196:MBZ-pdb4cnc-A-PHE-222
     RDKit          3D

 22 21  0  0  0  0  0  0  0  0999 V2000
   -0.4773    0.1618    3.6568 C   0  0  0  0  0  0  0  0  0  0  0  0
   -0.1933   -0.1582    4.5498 H   0  0  0  0  0  0  0  0  0  0  0  0
   -0.1147   -0.4197    2.9405 H   0  0  0  0  0  0  0  0  0  0  0  0
   -1.5660    0.1409    3.6085 H   0  0  0  0  0  0  0  0  0  0  0  0
    0.1377    1.5438    3.4619 C   0  0  0  0  0  0  0  0  0  0  0  0
   -0.6108    2.5212    3.2179 O   0  0  0  0  0  0  0  0  0  0  0  0
    1.3897    1.6592    3.5244 O   0  0  0  0  0  0  0  0  0  0  0  0
    0.0427    2.9037    0.0320 C   0  0  0  0  0  0  0  0  0  0  0  0
    0.6371    3.1986   -0.7084 H   0  0  0  0  0  0  0  0  0  0  0  0
    0.4280    3.1659    0.9107 H   0  0  0  0  0  0  0  0  0  0  0  0
   -0.9203    3.4015   -0.0818 H   0  0  0  0  0  0  0  0  0  0  0  0
   -0.0198    1.4042   -0.0063 C   0  0  0  0  0  0  0  0  0  0  0  0
   -1.1932    0.6911   -0.0136 C   0  0  0  0  0  0  0  0  0  0  0  0
   -2.0746    1.1681   -0.0300 H   0  0  0  0  0  0  0  0  0  0  0  0
   -1.2005   -0.7108    0.0000 C   0  0  0  0  0  0  0  0  0  0  0  0
   -2.0719   -1.1989   -0.0098 H   0  0  0  0  0  0  0  0  0  0  0  0
    0.0046   -1.3849    0.0283 C   0  0  0  0  0  0  0  0  0  0  0  0
    0.0082   -2.3912    0.0694 H   0  0  0  0  0  0  0  0  0  0  0  0
    1.2005   -0.6937   -0.0000 C   0  0  0  0  0  0  0  0  0  0  0  0
    2.0834   -1.1967   -0.0133 H   0  0  0  0  0  0  0  0  0  0  0  0
    1.2084    0.6940   -0.0084 C   0  0  0  0  0  0  0  0  0  0  0  0
    2.0585    1.1979   -0.0171 H   0  0  0  0  0  0  0  0  0  0  0  0
  1  5  1  0
  5  6  2  0
  5  7  1  0
  1  2  1  0
  1  3  1  0
  1  4  1  0
  8 12  1  0
 12 13  2  0
 13 15  1  0
 15 17  2  0
 17 19  1  0
 19 21  2  0
 21 12  1  0
  8  9  1  0
  8 10  1  0
  8 11  1  0
 13 14  1  0
 15 16  1  0
 17 18  1  0
 19 20  1  0
 21 22  1  0
M  CHG  1   7  -1
V    7 [O&-]
M  END
>  <PDB_ID>  (2788) 
pdb4cnc

>  <RESIDUE_NAME>  (2788) 
GLU   PHE

>  <FRAG_NAME>  (2788) 
ACET   MBZ

>  <FRAG_ATOM_NUM>  (2788) 
fragi: 7 fragj: 15

>  <atom.prop.CHAIN_ID>  (2788) 
A A A A A A A Z Z Z Z Z Z Z Z Z Z Z Z Z Z Z

>  <atom.prop.IS_HEAVY_ATOM>  (2788) 
1 0 0 0 1 1 1 1 0 0 0 1 1 0 1 0 1 0 1 0 1 0

>  <DIFUSE_FUNC_ATOM>  (2788) 
n/a

>  <FINAL_SINGLE_POINT_ENERGY>  (2788) 
0

>  <NONCOV_INTER_ENERGY_QM>  (2788) 
0

>  <FF_Energy>  (2788) 
0.49

>  <QM_Energy>  (2788) 
-5.99

>  <source>  (2788) 
ACET_MBZ_03

>  <Index>  (2788) 
10311

$$$$
ACEH-pdb4cnc-B-GLH-196:MBZ-pdb4cnc-B-PHE-222
     RDKit          3D

 22 21  0  0  0  0  0  0  0  0999 V2000
   -0.1359    0.1383    3.6143 C   0  0  0  0  0  0  0  0  0  0  0  0
    0.1501   -0.2135    4.4997 H   0  0  0  0  0  0  0  0  0  0  0  0
    0.1972   -0.4524    2.8859 H   0  0  0  0  0  0  0  0  0  0  0  0
   -1.2254    0.1274    3.5852 H   0  0  0  0  0  0  0  0  0  0  0  0
    0.5146    1.4948    3.4318 C   0  0  0  0  0  0  0  0  0  0  0  0
   -0.1737    2.5090    3.2402 O   0  0  0  0  0  0  0  0  0  0  0  0
    1.7723    1.5668    3.4956 O   0  0  0  0  0  0  0  0  0  0  0  0
    0.0192    2.9113   -0.0030 C   0  0  0  0  0  0  0  0  0  0  0  0
    0.5037    3.2170   -0.8111 H   0  0  0  0  0  0  0  0  0  0  0  0
    0.4858    3.2011    0.8215 H   0  0  0  0  0  0  0  0  0  0  0  0
   -0.9651    3.3793   -0.0092 H   0  0  0  0  0  0  0  0  0  0  0  0
   -0.0024    1.4019   -0.0176 C   0  0  0  0  0  0  0  0  0  0  0  0
   -1.1804    0.6960    0.0070 C   0  0  0  0  0  0  0  0  0  0  0  0
   -2.0561    1.1835    0.0290 H   0  0  0  0  0  0  0  0  0  0  0  0
   -1.1923   -0.6927   -0.0000 C   0  0  0  0  0  0  0  0  0  0  0  0
   -2.0789   -1.1766   -0.0259 H   0  0  0  0  0  0  0  0  0  0  0  0
   -0.0111   -1.3899    0.0296 C   0  0  0  0  0  0  0  0  0  0  0  0
   -0.0211   -2.3936    0.0720 H   0  0  0  0  0  0  0  0  0  0  0  0
    1.1923   -0.7134   -0.0000 C   0  0  0  0  0  0  0  0  0  0  0  0
    2.0711   -1.2041   -0.0070 H   0  0  0  0  0  0  0  0  0  0  0  0
    1.1939    0.6981   -0.0191 C   0  0  0  0  0  0  0  0  0  0  0  0
    2.0625    1.1817   -0.0342 H   0  0  0  0  0  0  0  0  0  0  0  0
  1  5  1  0
  5  6  2  0
  5  7  1  0
  1  2  1  0
  1  3  1  0
  1  4  1  0
  8 12  1  0
 12 13  2  0
 13 15  1  0
 15 17  2  0
 17 19  1  0
 19 21  2  0
 21 12  1  0
  8  9  1  0
  8 10  1  0
  8 11  1  0
 13 14  1  0
 15 16  1  0
 17 18  1  0
 19 20  1  0
 21 22  1  0
M  CHG  1   7  -1
V    7 [O&-]
M  END
>  <PDB_ID>  (2789) 
pdb4cnc

>  <RESIDUE_NAME>  (2789) 
GLU   PHE

>  <FRAG_NAME>  (2789) 
ACET   MBZ

>  <FRAG_ATOM_NUM>  (2789) 
fragi: 7 fragj: 15

>  <atom.prop.CHAIN_ID>  (2789) 
A A A A A A A Z Z Z Z Z Z Z Z Z Z Z Z Z Z Z

>  <atom.prop.IS_HEAVY_ATOM>  (2789) 
1 0 0 0 1 1 1 1 0 0 0 1 1 0 1 0 1 0 1 0 1 0

>  <DIFUSE_FUNC_ATOM>  (2789) 
n/a

>  <FINAL_SINGLE_POINT_ENERGY>  (2789) 
0

>  <NONCOV_INTER_ENERGY_QM>  (2789) 
0

>  <FF_Energy>  (2789) 
0.37

>  <QM_Energy>  (2789) 
-5.86

>  <source>  (2789) 
ACET_MBZ_03

>  <Index>  (2789) 
10314

$$$$
ACEH-pdb4cu4-A-GLH-350:MBZ-pdb4cu4-A-PHE-115
     RDKit          3D

 22 21  0  0  0  0  0  0  0  0999 V2000
    5.3770    2.6581    1.1642 C   0  0  0  0  0  0  0  0  0  0  0  0
    5.5303    2.1534    0.3240 H   0  0  0  0  0  0  0  0  0  0  0  0
    5.5810    2.0946    1.9544 H   0  0  0  0  0  0  0  0  0  0  0  0
    6.0434    3.5206    1.1736 H   0  0  0  0  0  0  0  0  0  0  0  0
    3.9051    3.0007    1.2228 C   0  0  0  0  0  0  0  0  0  0  0  0
    3.5183    4.0216    0.6158 O   0  0  0  0  0  0  0  0  0  0  0  0
    3.1271    2.2153    1.8101 O   0  0  0  0  0  0  0  0  0  0  0  0
    0.0078    2.9314   -0.0178 C   0  0  0  0  0  0  0  0  0  0  0  0
   -0.1306    3.2252   -0.9633 H   0  0  0  0  0  0  0  0  0  0  0  0
    0.9044    3.2407    0.2995 H   0  0  0  0  0  0  0  0  0  0  0  0
   -0.7341    3.4558    0.5845 H   0  0  0  0  0  0  0  0  0  0  0  0
    0.0010    1.4090    0.0060 C   0  0  0  0  0  0  0  0  0  0  0  0
   -1.1916    0.6978   -0.0220 C   0  0  0  0  0  0  0  0  0  0  0  0
   -2.0607    1.1807   -0.0594 H   0  0  0  0  0  0  0  0  0  0  0  0
   -1.1913   -0.7008   -0.0000 C   0  0  0  0  0  0  0  0  0  0  0  0
   -2.0740   -1.1890   -0.0055 H   0  0  0  0  0  0  0  0  0  0  0  0
   -0.0002   -1.3924    0.0306 C   0  0  0  0  0  0  0  0  0  0  0  0
   -0.0062   -2.3940    0.0742 H   0  0  0  0  0  0  0  0  0  0  0  0
    1.1913   -0.7052    0.0000 C   0  0  0  0  0  0  0  0  0  0  0  0
    2.0766   -1.1984   -0.0113 H   0  0  0  0  0  0  0  0  0  0  0  0
    1.1908    0.6917   -0.0146 C   0  0  0  0  0  0  0  0  0  0  0  0
    2.0643    1.1805   -0.0414 H   0  0  0  0  0  0  0  0  0  0  0  0
  1  5  1  0
  5  6  2  0
  5  7  1  0
  1  2  1  0
  1  3  1  0
  1  4  1  0
  8 12  1  0
 12 13  2  0
 13 15  1  0
 15 17  2  0
 17 19  1  0
 19 21  2  0
 21 12  1  0
  8  9  1  0
  8 10  1  0
  8 11  1  0
 13 14  1  0
 15 16  1  0
 17 18  1  0
 19 20  1  0
 21 22  1  0
M  CHG  1   7  -1
V    7 [O&-]
M  END
>  <PDB_ID>  (2790) 
pdb4cu4

>  <RESIDUE_NAME>  (2790) 
GLU   PHE

>  <FRAG_NAME>  (2790) 
ACET   MBZ

>  <FRAG_ATOM_NUM>  (2790) 
fragi: 7 fragj: 15

>  <atom.prop.CHAIN_ID>  (2790) 
A A A A A A A Z Z Z Z Z Z Z Z Z Z Z Z Z Z Z

>  <atom.prop.IS_HEAVY_ATOM>  (2790) 
1 0 0 0 1 1 1 1 0 0 0 1 1 0 1 0 1 0 1 0 1 0

>  <DIFUSE_FUNC_ATOM>  (2790) 
n/a

>  <FINAL_SINGLE_POINT_ENERGY>  (2790) 
0

>  <NONCOV_INTER_ENERGY_QM>  (2790) 
0

>  <FF_Energy>  (2790) 
-1.09

>  <QM_Energy>  (2790) 
-7.56

>  <source>  (2790) 
ACET_MBZ_03

>  <Index>  (2790) 
10382

$$$$
ACEH-pdb5dtb-B-GLH-101:MBZ-pdb5dtb-B-PHE-106
     RDKit          3D

 22 21  0  0  0  0  0  0  0  0999 V2000
    5.6438    3.0205    0.4912 C   0  0  0  0  0  0  0  0  0  0  0  0
    5.6223    3.5131    1.3265 H   0  0  0  0  0  0  0  0  0  0  0  0
    6.4816    3.1908    0.0323 H   0  0  0  0  0  0  0  0  0  0  0  0
    5.5775    1.9551    0.7116 H   0  0  0  0  0  0  0  0  0  0  0  0
    4.5128    3.5519   -0.3920 C   0  0  0  0  0  0  0  0  0  0  0  0
    4.8446    4.3407   -1.2917 O   0  0  0  0  0  0  0  0  0  0  0  0
    3.3116    3.1953   -0.1978 O   0  0  0  0  0  0  0  0  0  0  0  0
   -0.0324    2.8985   -0.0196 C   0  0  0  0  0  0  0  0  0  0  0  0
    0.7773    3.2123    0.4120 H   0  0  0  0  0  0  0  0  0  0  0  0
   -0.8077    3.1842    0.4878 H   0  0  0  0  0  0  0  0  0  0  0  0
   -0.0874    3.3302   -1.0190 H   0  0  0  0  0  0  0  0  0  0  0  0
   -0.0041    1.3991   -0.0112 C   0  0  0  0  0  0  0  0  0  0  0  0
   -1.1856    0.6843   -0.0046 C   0  0  0  0  0  0  0  0  0  0  0  0
   -1.9953    1.1428   -0.0056 H   0  0  0  0  0  0  0  0  0  0  0  0
   -1.1915   -0.7080   -0.0000 C   0  0  0  0  0  0  0  0  0  0  0  0
   -1.9961   -1.1735    0.0141 H   0  0  0  0  0  0  0  0  0  0  0  0
   -0.0066   -1.3828    0.0284 C   0  0  0  0  0  0  0  0  0  0  0  0
   -0.0047   -2.3130    0.0223 H   0  0  0  0  0  0  0  0  0  0  0  0
    1.1915   -0.6951    0.0000 C   0  0  0  0  0  0  0  0  0  0  0  0
    1.9952   -1.1622    0.0065 H   0  0  0  0  0  0  0  0  0  0  0  0
    1.1964    0.7026   -0.0126 C   0  0  0  0  0  0  0  0  0  0  0  0
    2.0030    1.1649   -0.0133 H   0  0  0  0  0  0  0  0  0  0  0  0
  1  5  1  0
  5  6  2  0
  5  7  1  0
  1  2  1  0
  1  3  1  0
  1  4  1  0
  8 12  1  0
 12 13  2  0
 13 15  1  0
 15 17  2  0
 17 19  1  0
 19 21  2  0
 21 12  1  0
  8  9  1  0
  8 10  1  0
  8 11  1  0
 13 14  1  0
 15 16  1  0
 17 18  1  0
 19 20  1  0
 21 22  1  0
M  CHG  1   7  -1
V    7 [O&-]
M  END
>  <PDB_ID>  (2791) 
pdb5dtb

>  <RESIDUE_NAME>  (2791) 
GLU   PHE

>  <FRAG_NAME>  (2791) 
ACET   MBZ

>  <FRAG_ATOM_NUM>  (2791) 
fragi: 7 fragj: 15

>  <atom.prop.CHAIN_ID>  (2791) 
A A A A A A A Z Z Z Z Z Z Z Z Z Z Z Z Z Z Z

>  <atom.prop.IS_HEAVY_ATOM>  (2791) 
1 0 0 0 1 1 1 1 0 0 0 1 1 0 1 0 1 0 1 0 1 0

>  <DIFUSE_FUNC_ATOM>  (2791) 
n/a

>  <FINAL_SINGLE_POINT_ENERGY>  (2791) 
0

>  <NONCOV_INTER_ENERGY_QM>  (2791) 
0

>  <FF_Energy>  (2791) 
-1.66

>  <QM_Energy>  (2791) 
-7.66

>  <source>  (2791) 
ACET_MBZ_03

>  <Index>  (2791) 
10457

$$$$
ACEH-pdb5e8n-A-GLH-9:MBZ-pdb5e8n-A-PHE-74
     RDKit          3D

 22 21  0  0  0  0  0  0  0  0999 V2000
   -2.1606   -3.2860   -3.4259 C   0  0  0  0  0  0  0  0  0  0  0  0
   -2.1029   -2.4450   -3.9373 H   0  0  0  0  0  0  0  0  0  0  0  0
   -2.4764   -4.0335   -3.9851 H   0  0  0  0  0  0  0  0  0  0  0  0
   -1.1579   -3.5306   -3.0756 H   0  0  0  0  0  0  0  0  0  0  0  0
   -3.1745   -3.0813   -2.3109 C   0  0  0  0  0  0  0  0  0  0  0  0
   -2.8492   -2.5407   -1.2175 O   0  0  0  0  0  0  0  0  0  0  0  0
   -4.3178   -3.4947   -2.5394 O   0  0  0  0  0  0  0  0  0  0  0  0
   -0.0048    2.8819    0.0069 C   0  0  0  0  0  0  0  0  0  0  0  0
   -0.7783    3.1922   -0.5223 H   0  0  0  0  0  0  0  0  0  0  0  0
    0.8480    3.1962   -0.3795 H   0  0  0  0  0  0  0  0  0  0  0  0
   -0.0937    3.2975    1.0106 H   0  0  0  0  0  0  0  0  0  0  0  0
   -0.0011    1.3942   -0.0029 C   0  0  0  0  0  0  0  0  0  0  0  0
   -1.1904    0.6857    0.0039 C   0  0  0  0  0  0  0  0  0  0  0  0
   -2.0589    1.1847    0.0109 H   0  0  0  0  0  0  0  0  0  0  0  0
   -1.1982   -0.6844   -0.0000 C   0  0  0  0  0  0  0  0  0  0  0  0
   -2.0759   -1.1858    0.0014 H   0  0  0  0  0  0  0  0  0  0  0  0
    0.0002   -1.3889   -0.0047 C   0  0  0  0  0  0  0  0  0  0  0  0
   -0.0131   -2.3882   -0.0123 H   0  0  0  0  0  0  0  0  0  0  0  0
    1.1982   -0.7011   -0.0000 C   0  0  0  0  0  0  0  0  0  0  0  0
    2.0795   -1.1935    0.0024 H   0  0  0  0  0  0  0  0  0  0  0  0
    1.1913    0.6945    0.0037 C   0  0  0  0  0  0  0  0  0  0  0  0
    2.0609    1.1876    0.0105 H   0  0  0  0  0  0  0  0  0  0  0  0
  1  5  1  0
  5  6  2  0
  5  7  1  0
  1  2  1  0
  1  3  1  0
  1  4  1  0
  8 12  1  0
 12 13  2  0
 13 15  1  0
 15 17  2  0
 17 19  1  0
 19 21  2  0
 21 12  1  0
  8  9  1  0
  8 10  1  0
  8 11  1  0
 13 14  1  0
 15 16  1  0
 17 18  1  0
 19 20  1  0
 21 22  1  0
M  CHG  1   7  -1
V    7 [O&-]
M  END
>  <PDB_ID>  (2792) 
pdb5e8n

>  <RESIDUE_NAME>  (2792) 
GLU   PHE

>  <FRAG_NAME>  (2792) 
ACET   MBZ

>  <FRAG_ATOM_NUM>  (2792) 
fragi: 7 fragj: 15

>  <atom.prop.CHAIN_ID>  (2792) 
A A A A A A A Z Z Z Z Z Z Z Z Z Z Z Z Z Z Z

>  <atom.prop.IS_HEAVY_ATOM>  (2792) 
1 0 0 0 1 1 1 1 0 0 0 1 1 0 1 0 1 0 1 0 1 0

>  <DIFUSE_FUNC_ATOM>  (2792) 
n/a

>  <FINAL_SINGLE_POINT_ENERGY>  (2792) 
0

>  <NONCOV_INTER_ENERGY_QM>  (2792) 
0

>  <FF_Energy>  (2792) 
7.93

>  <QM_Energy>  (2792) 
-3.95

>  <source>  (2792) 
ACET_MBZ_03

>  <Index>  (2792) 
10630

$$$$
ACEH-pdb5e9g-C-ASH-370:MBZ-pdb5e9g-C-PHE-379
     RDKit          3D

 22 21  0  0  0  0  0  0  0  0999 V2000
    4.2521   -2.8306    2.7213 C   0  0  0  0  0  0  0  0  0  0  0  0
    5.1266   -3.1309    3.0803 H   0  0  0  0  0  0  0  0  0  0  0  0
    3.5050   -3.2602    3.2106 H   0  0  0  0  0  0  0  0  0  0  0  0
    4.1778   -1.7529    2.8671 H   0  0  0  0  0  0  0  0  0  0  0  0
    4.1661   -3.2324    1.2509 C   0  0  0  0  0  0  0  0  0  0  0  0
    5.0162   -4.0318    0.8015 O   0  0  0  0  0  0  0  0  0  0  0  0
    3.2526   -2.7556    0.5407 O   0  0  0  0  0  0  0  0  0  0  0  0
    0.0040    2.8996    0.0074 C   0  0  0  0  0  0  0  0  0  0  0  0
   -0.6445    3.2127   -0.6717 H   0  0  0  0  0  0  0  0  0  0  0  0
    0.9212    3.2049   -0.2081 H   0  0  0  0  0  0  0  0  0  0  0  0
   -0.2768    3.3394    0.9645 H   0  0  0  0  0  0  0  0  0  0  0  0
   -0.0016    1.4015   -0.0001 C   0  0  0  0  0  0  0  0  0  0  0  0
   -1.2005    0.6968    0.0004 C   0  0  0  0  0  0  0  0  0  0  0  0
   -2.0656    1.1876   -0.0006 H   0  0  0  0  0  0  0  0  0  0  0  0
   -1.2047   -0.6940    0.0000 C   0  0  0  0  0  0  0  0  0  0  0  0
   -2.0790   -1.1894    0.0012 H   0  0  0  0  0  0  0  0  0  0  0  0
    0.0025   -1.3944   -0.0004 C   0  0  0  0  0  0  0  0  0  0  0  0
   -0.0058   -2.3923   -0.0011 H   0  0  0  0  0  0  0  0  0  0  0  0
    1.2047   -0.7005    0.0000 C   0  0  0  0  0  0  0  0  0  0  0  0
    2.0850   -1.1986    0.0018 H   0  0  0  0  0  0  0  0  0  0  0  0
    1.1996    0.6906    0.0001 C   0  0  0  0  0  0  0  0  0  0  0  0
    2.0655    1.1890   -0.0003 H   0  0  0  0  0  0  0  0  0  0  0  0
  1  5  1  0
  5  6  2  0
  5  7  1  0
  1  2  1  0
  1  3  1  0
  1  4  1  0
  8 12  1  0
 12 13  2  0
 13 15  1  0
 15 17  2  0
 17 19  1  0
 19 21  2  0
 21 12  1  0
  8  9  1  0
  8 10  1  0
  8 11  1  0
 13 14  1  0
 15 16  1  0
 17 18  1  0
 19 20  1  0
 21 22  1  0
M  CHG  1   7  -1
V    7 [O&-]
M  END
>  <PDB_ID>  (2793) 
pdb5e9g

>  <RESIDUE_NAME>  (2793) 
ASP   PHE

>  <FRAG_NAME>  (2793) 
ACET   MBZ

>  <FRAG_ATOM_NUM>  (2793) 
fragi: 7 fragj: 15

>  <atom.prop.CHAIN_ID>  (2793) 
A A A A A A A Z Z Z Z Z Z Z Z Z Z Z Z Z Z Z

>  <atom.prop.IS_HEAVY_ATOM>  (2793) 
1 0 0 0 1 1 1 1 0 0 0 1 1 0 1 0 1 0 1 0 1 0

>  <DIFUSE_FUNC_ATOM>  (2793) 
n/a

>  <FINAL_SINGLE_POINT_ENERGY>  (2793) 
0

>  <NONCOV_INTER_ENERGY_QM>  (2793) 
0

>  <FF_Energy>  (2793) 
4.12

>  <QM_Energy>  (2793) 
-5.67

>  <source>  (2793) 
ACET_MBZ_03

>  <Index>  (2793) 
10638

$$$$
ACEH-pdb2du2-A-ASH-164:MBZ-pdb2du2-A-PHE-129
     RDKit          3D

 22 21  0  0  0  0  0  0  0  0999 V2000
   -0.1844   -0.9032    3.3567 C   0  0  0  0  0  0  0  0  0  0  0  0
    0.5031   -0.8423    4.0691 H   0  0  0  0  0  0  0  0  0  0  0  0
    0.2377   -1.0786    2.4764 H   0  0  0  0  0  0  0  0  0  0  0  0
   -0.8363   -1.7450    3.5903 H   0  0  0  0  0  0  0  0  0  0  0  0
   -0.9217    0.4619    3.2779 C   0  0  0  0  0  0  0  0  0  0  0  0
   -0.2019    1.5231    3.2873 O   0  0  0  0  0  0  0  0  0  0  0  0
   -2.1748    0.5001    3.1899 O   0  0  0  0  0  0  0  0  0  0  0  0
    0.0294    2.9182   -0.0628 C   0  0  0  0  0  0  0  0  0  0  0  0
    0.6585    3.2535    0.6061 H   0  0  0  0  0  0  0  0  0  0  0  0
   -0.8823    3.2454    0.0678 H   0  0  0  0  0  0  0  0  0  0  0  0
    0.3703    3.2478   -1.0442 H   0  0  0  0  0  0  0  0  0  0  0  0
    0.0058    1.4173    0.0260 C   0  0  0  0  0  0  0  0  0  0  0  0
   -1.2043    0.7149   -0.0188 C   0  0  0  0  0  0  0  0  0  0  0  0
   -2.0640    1.2062   -0.0656 H   0  0  0  0  0  0  0  0  0  0  0  0
   -1.2237   -0.6969   -0.0000 C   0  0  0  0  0  0  0  0  0  0  0  0
   -2.1032   -1.1741    0.0131 H   0  0  0  0  0  0  0  0  0  0  0  0
   -0.0209   -1.4115    0.0016 C   0  0  0  0  0  0  0  0  0  0  0  0
   -0.0251   -2.4041    0.0032 H   0  0  0  0  0  0  0  0  0  0  0  0
    1.2237   -0.7159    0.0000 C   0  0  0  0  0  0  0  0  0  0  0  0
    2.0829   -1.2212    0.0064 H   0  0  0  0  0  0  0  0  0  0  0  0
    1.2193    0.6921   -0.0088 C   0  0  0  0  0  0  0  0  0  0  0  0
    2.0825    1.1867   -0.0407 H   0  0  0  0  0  0  0  0  0  0  0  0
  1  5  1  0
  5  6  2  0
  5  7  1  0
  1  2  1  0
  1  3  1  0
  1  4  1  0
  8 12  1  0
 12 13  2  0
 13 15  1  0
 15 17  2  0
 17 19  1  0
 19 21  2  0
 21 12  1  0
  8  9  1  0
  8 10  1  0
  8 11  1  0
 13 14  1  0
 15 16  1  0
 17 18  1  0
 19 20  1  0
 21 22  1  0
M  CHG  1   7  -1
V    7 [O&-]
M  END
>  <PDB_ID>  (2794) 
pdb2du2

>  <RESIDUE_NAME>  (2794) 
ASP   PHE

>  <FRAG_NAME>  (2794) 
ACET   MBZ

>  <FRAG_ATOM_NUM>  (2794) 
fragi: 7 fragj: 15

>  <atom.prop.CHAIN_ID>  (2794) 
A A A A A A A Z Z Z Z Z Z Z Z Z Z Z Z Z Z Z

>  <atom.prop.IS_HEAVY_ATOM>  (2794) 
1 0 0 0 1 1 1 1 0 0 0 1 1 0 1 0 1 0 1 0 1 0

>  <DIFUSE_FUNC_ATOM>  (2794) 
n/a

>  <FINAL_SINGLE_POINT_ENERGY>  (2794) 
0

>  <NONCOV_INTER_ENERGY_QM>  (2794) 
0

>  <FF_Energy>  (2794) 
3.6

>  <QM_Energy>  (2794) 
-2.19

>  <source>  (2794) 
ACET_MBZ_03

>  <Index>  (2794) 
10660

$$$$
ACEH-pdb5ech-A-ASH-498:MBZ-pdb5ech-A-PHE-575
     RDKit          3D

 22 21  0  0  0  0  0  0  0  0999 V2000
    2.7742   -3.7512   -1.3244 C   0  0  0  0  0  0  0  0  0  0  0  0
    2.2361   -3.5714   -2.1424 H   0  0  0  0  0  0  0  0  0  0  0  0
    2.2276   -3.5833   -0.5106 H   0  0  0  0  0  0  0  0  0  0  0  0
    3.0469   -4.8065   -1.3309 H   0  0  0  0  0  0  0  0  0  0  0  0
    3.9694   -2.8379   -1.3124 C   0  0  0  0  0  0  0  0  0  0  0  0
    5.0931   -3.3446   -1.4623 O   0  0  0  0  0  0  0  0  0  0  0  0
    3.7842   -1.6116   -1.1498 O   0  0  0  0  0  0  0  0  0  0  0  0
   -0.0026    2.8897    0.0285 C   0  0  0  0  0  0  0  0  0  0  0  0
    0.7554    3.2085   -0.5210 H   0  0  0  0  0  0  0  0  0  0  0  0
    0.0883    3.1835    0.9690 H   0  0  0  0  0  0  0  0  0  0  0  0
   -0.9128    3.3367   -0.3714 H   0  0  0  0  0  0  0  0  0  0  0  0
   -0.0002    1.3909    0.0051 C   0  0  0  0  0  0  0  0  0  0  0  0
   -1.1901    0.6837   -0.0098 C   0  0  0  0  0  0  0  0  0  0  0  0
   -2.0580    1.1800   -0.0292 H   0  0  0  0  0  0  0  0  0  0  0  0
   -1.1931   -0.6889   -0.0000 C   0  0  0  0  0  0  0  0  0  0  0  0
   -2.0731   -1.1886    0.0119 H   0  0  0  0  0  0  0  0  0  0  0  0
   -0.0020   -1.3807   -0.0045 C   0  0  0  0  0  0  0  0  0  0  0  0
   -0.0055   -2.3832   -0.0116 H   0  0  0  0  0  0  0  0  0  0  0  0
    1.1931   -0.6907    0.0000 C   0  0  0  0  0  0  0  0  0  0  0  0
    2.0754   -1.1954   -0.0020 H   0  0  0  0  0  0  0  0  0  0  0  0
    1.1923    0.6857    0.0092 C   0  0  0  0  0  0  0  0  0  0  0  0
    2.0608    1.1858    0.0177 H   0  0  0  0  0  0  0  0  0  0  0  0
  1  5  1  0
  5  6  2  0
  5  7  1  0
  1  2  1  0
  1  3  1  0
  1  4  1  0
  8 12  1  0
 12 13  2  0
 13 15  1  0
 15 17  2  0
 17 19  1  0
 19 21  2  0
 21 12  1  0
  8  9  1  0
  8 10  1  0
  8 11  1  0
 13 14  1  0
 15 16  1  0
 17 18  1  0
 19 20  1  0
 21 22  1  0
M  CHG  1   7  -1
V    7 [O&-]
M  END
>  <PDB_ID>  (2795) 
pdb5ech

>  <RESIDUE_NAME>  (2795) 
ASP   PHE

>  <FRAG_NAME>  (2795) 
ACET   MBZ

>  <FRAG_ATOM_NUM>  (2795) 
fragi: 7 fragj: 15

>  <atom.prop.CHAIN_ID>  (2795) 
A A A A A A A Z Z Z Z Z Z Z Z Z Z Z Z Z Z Z

>  <atom.prop.IS_HEAVY_ATOM>  (2795) 
1 0 0 0 1 1 1 1 0 0 0 1 1 0 1 0 1 0 1 0 1 0

>  <DIFUSE_FUNC_ATOM>  (2795) 
n/a

>  <FINAL_SINGLE_POINT_ENERGY>  (2795) 
0

>  <NONCOV_INTER_ENERGY_QM>  (2795) 
0

>  <FF_Energy>  (2795) 
1.69

>  <QM_Energy>  (2795) 
-5.03

>  <source>  (2795) 
ACET_MBZ_03

>  <Index>  (2795) 
10664

$$$$
ACEH-pdb4dkm-A-GLH-35:MBZ-pdb4dkm-A-PHE-61
     RDKit          3D

 22 21  0  0  0  0  0  0  0  0999 V2000
    2.7413    4.8164    3.0880 C   0  0  0  0  0  0  0  0  0  0  0  0
    3.4073    4.2159    3.4730 H   0  0  0  0  0  0  0  0  0  0  0  0
    1.8260    4.6028    3.3484 H   0  0  0  0  0  0  0  0  0  0  0  0
    2.9698    5.8409    3.3816 H   0  0  0  0  0  0  0  0  0  0  0  0
    2.8215    4.6580    1.5678 C   0  0  0  0  0  0  0  0  0  0  0  0
    2.4219    5.6012    0.8442 O   0  0  0  0  0  0  0  0  0  0  0  0
    3.2785    3.5988    1.0902 O   0  0  0  0  0  0  0  0  0  0  0  0
   -0.0022    2.8907   -0.1275 C   0  0  0  0  0  0  0  0  0  0  0  0
    0.8006    3.2433    0.3251 H   0  0  0  0  0  0  0  0  0  0  0  0
   -0.8319    3.2349    0.2803 H   0  0  0  0  0  0  0  0  0  0  0  0
    0.0244    3.2306   -1.1627 H   0  0  0  0  0  0  0  0  0  0  0  0
    0.0019    1.4032   -0.0013 C   0  0  0  0  0  0  0  0  0  0  0  0
   -1.1950    0.6962    0.0015 C   0  0  0  0  0  0  0  0  0  0  0  0
   -2.0623    1.1812    0.0027 H   0  0  0  0  0  0  0  0  0  0  0  0
   -1.1998   -0.7056    0.0000 C   0  0  0  0  0  0  0  0  0  0  0  0
   -2.0784   -1.1927    0.0033 H   0  0  0  0  0  0  0  0  0  0  0  0
   -0.0023   -1.3964   -0.0044 C   0  0  0  0  0  0  0  0  0  0  0  0
    0.0007   -2.3956   -0.0116 H   0  0  0  0  0  0  0  0  0  0  0  0
    1.1998   -0.6957    0.0000 C   0  0  0  0  0  0  0  0  0  0  0  0
    2.0819   -1.1927    0.0016 H   0  0  0  0  0  0  0  0  0  0  0  0
    1.1955    0.6982    0.0041 C   0  0  0  0  0  0  0  0  0  0  0  0
    2.0647    1.1925    0.0102 H   0  0  0  0  0  0  0  0  0  0  0  0
  1  5  1  0
  5  6  2  0
  5  7  1  0
  1  2  1  0
  1  3  1  0
  1  4  1  0
  8 12  1  0
 12 13  2  0
 13 15  1  0
 15 17  2  0
 17 19  1  0
 19 21  2  0
 21 12  1  0
  8  9  1  0
  8 10  1  0
  8 11  1  0
 13 14  1  0
 15 16  1  0
 17 18  1  0
 19 20  1  0
 21 22  1  0
M  CHG  1   7  -1
V    7 [O&-]
M  END
>  <PDB_ID>  (2796) 
pdb4dkm

>  <RESIDUE_NAME>  (2796) 
GLU   PHE

>  <FRAG_NAME>  (2796) 
ACET   MBZ

>  <FRAG_ATOM_NUM>  (2796) 
fragi: 7 fragj: 15

>  <atom.prop.CHAIN_ID>  (2796) 
A A A A A A A Z Z Z Z Z Z Z Z Z Z Z Z Z Z Z

>  <atom.prop.IS_HEAVY_ATOM>  (2796) 
1 0 0 0 1 1 1 1 0 0 0 1 1 0 1 0 1 0 1 0 1 0

>  <DIFUSE_FUNC_ATOM>  (2796) 
n/a

>  <FINAL_SINGLE_POINT_ENERGY>  (2796) 
0

>  <NONCOV_INTER_ENERGY_QM>  (2796) 
0

>  <FF_Energy>  (2796) 
-2.25

>  <QM_Energy>  (2796) 
-7.51

>  <source>  (2796) 
ACET_MBZ_03

>  <Index>  (2796) 
10665

$$$$
ACEH-pdb5ech-B-ASH-154:MBZ-pdb5ech-B-PHE-150
     RDKit          3D

 22 21  0  0  0  0  0  0  0  0999 V2000
   -0.4724   -0.3699    4.6135 C   0  0  0  0  0  0  0  0  0  0  0  0
   -1.4136   -0.2500    4.9107 H   0  0  0  0  0  0  0  0  0  0  0  0
    0.0781    0.4117    4.8821 H   0  0  0  0  0  0  0  0  0  0  0  0
   -0.0720   -1.2517    5.1139 H   0  0  0  0  0  0  0  0  0  0  0  0
   -0.4431   -0.4992    3.1154 C   0  0  0  0  0  0  0  0  0  0  0  0
   -1.5202   -0.6727    2.5065 O   0  0  0  0  0  0  0  0  0  0  0  0
    0.6570   -0.4291    2.5375 O   0  0  0  0  0  0  0  0  0  0  0  0
   -0.0127    2.8996    0.0123 C   0  0  0  0  0  0  0  0  0  0  0  0
   -0.7799    3.2060   -0.5270 H   0  0  0  0  0  0  0  0  0  0  0  0
    0.8447    3.2168   -0.3582 H   0  0  0  0  0  0  0  0  0  0  0  0
   -0.1194    3.3195    1.0126 H   0  0  0  0  0  0  0  0  0  0  0  0
   -0.0015    1.3962   -0.0043 C   0  0  0  0  0  0  0  0  0  0  0  0
   -1.1907    0.6859    0.0024 C   0  0  0  0  0  0  0  0  0  0  0  0
   -2.0610    1.1748    0.0084 H   0  0  0  0  0  0  0  0  0  0  0  0
   -1.1934   -0.7006   -0.0000 C   0  0  0  0  0  0  0  0  0  0  0  0
   -2.0718   -1.1944    0.0006 H   0  0  0  0  0  0  0  0  0  0  0  0
    0.0007   -1.3882   -0.0015 C   0  0  0  0  0  0  0  0  0  0  0  0
    0.0028   -2.3885   -0.0045 H   0  0  0  0  0  0  0  0  0  0  0  0
    1.1934   -0.6890   -0.0000 C   0  0  0  0  0  0  0  0  0  0  0  0
    2.0797   -1.1879    0.0002 H   0  0  0  0  0  0  0  0  0  0  0  0
    1.1915    0.6957    0.0033 C   0  0  0  0  0  0  0  0  0  0  0  0
    2.0594    1.1929    0.0103 H   0  0  0  0  0  0  0  0  0  0  0  0
  1  5  1  0
  5  6  2  0
  5  7  1  0
  1  2  1  0
  1  3  1  0
  1  4  1  0
  8 12  1  0
 12 13  2  0
 13 15  1  0
 15 17  2  0
 17 19  1  0
 19 21  2  0
 21 12  1  0
  8  9  1  0
  8 10  1  0
  8 11  1  0
 13 14  1  0
 15 16  1  0
 17 18  1  0
 19 20  1  0
 21 22  1  0
M  CHG  1   7  -1
V    7 [O&-]
M  END
>  <PDB_ID>  (2797) 
pdb5ech

>  <RESIDUE_NAME>  (2797) 
ASP   PHE

>  <FRAG_NAME>  (2797) 
ACET   MBZ

>  <FRAG_ATOM_NUM>  (2797) 
fragi: 7 fragj: 15

>  <atom.prop.CHAIN_ID>  (2797) 
A A A A A A A Z Z Z Z Z Z Z Z Z Z Z Z Z Z Z

>  <atom.prop.IS_HEAVY_ATOM>  (2797) 
1 0 0 0 1 1 1 1 0 0 0 1 1 0 1 0 1 0 1 0 1 0

>  <DIFUSE_FUNC_ATOM>  (2797) 
n/a

>  <FINAL_SINGLE_POINT_ENERGY>  (2797) 
0

>  <NONCOV_INTER_ENERGY_QM>  (2797) 
0

>  <FF_Energy>  (2797) 
25.75

>  <QM_Energy>  (2797) 
10.34

>  <source>  (2797) 
ACET_MBZ_03

>  <Index>  (2797) 
10670

$$$$
ACEH-pdb4dkm-C-GLH-35:MBZ-pdb4dkm-C-PHE-61
     RDKit          3D

 22 21  0  0  0  0  0  0  0  0999 V2000
    2.7744    4.7979    3.0485 C   0  0  0  0  0  0  0  0  0  0  0  0
    3.4430    4.1967    3.4218 H   0  0  0  0  0  0  0  0  0  0  0  0
    1.8623    4.5926    3.3228 H   0  0  0  0  0  0  0  0  0  0  0  0
    3.0138    5.8215    3.3365 H   0  0  0  0  0  0  0  0  0  0  0  0
    2.8302    4.6420    1.5247 C   0  0  0  0  0  0  0  0  0  0  0  0
    3.2825    3.5863    1.0385 O   0  0  0  0  0  0  0  0  0  0  0  0
    2.4171    5.5861    0.8100 O   0  0  0  0  0  0  0  0  0  0  0  0
    0.0099    2.8921   -0.1247 C   0  0  0  0  0  0  0  0  0  0  0  0
    0.8214    3.2375    0.3137 H   0  0  0  0  0  0  0  0  0  0  0  0
   -0.8115    3.2418    0.2898 H   0  0  0  0  0  0  0  0  0  0  0  0
    0.0258    3.2321   -1.1602 H   0  0  0  0  0  0  0  0  0  0  0  0
    0.0041    1.4011   -0.0014 C   0  0  0  0  0  0  0  0  0  0  0  0
   -1.1932    0.6944    0.0017 C   0  0  0  0  0  0  0  0  0  0  0  0
   -2.0598    1.1876    0.0041 H   0  0  0  0  0  0  0  0  0  0  0  0
   -1.2025   -0.6949    0.0000 C   0  0  0  0  0  0  0  0  0  0  0  0
   -2.0832   -1.1845    0.0026 H   0  0  0  0  0  0  0  0  0  0  0  0
   -0.0085   -1.3956   -0.0034 C   0  0  0  0  0  0  0  0  0  0  0  0
   -0.0099   -2.3919   -0.0083 H   0  0  0  0  0  0  0  0  0  0  0  0
    1.2025   -0.6969    0.0000 C   0  0  0  0  0  0  0  0  0  0  0  0
    2.0786   -1.1993    0.0019 H   0  0  0  0  0  0  0  0  0  0  0  0
    1.1976    0.6919    0.0031 C   0  0  0  0  0  0  0  0  0  0  0  0
    2.0673    1.1880    0.0082 H   0  0  0  0  0  0  0  0  0  0  0  0
  1  5  1  0
  5  6  2  0
  5  7  1  0
  1  2  1  0
  1  3  1  0
  1  4  1  0
  8 12  1  0
 12 13  2  0
 13 15  1  0
 15 17  2  0
 17 19  1  0
 19 21  2  0
 21 12  1  0
  8  9  1  0
  8 10  1  0
  8 11  1  0
 13 14  1  0
 15 16  1  0
 17 18  1  0
 19 20  1  0
 21 22  1  0
M  CHG  1   7  -1
V    7 [O&-]
M  END
>  <PDB_ID>  (2798) 
pdb4dkm

>  <RESIDUE_NAME>  (2798) 
GLU   PHE

>  <FRAG_NAME>  (2798) 
ACET   MBZ

>  <FRAG_ATOM_NUM>  (2798) 
fragi: 7 fragj: 15

>  <atom.prop.CHAIN_ID>  (2798) 
A A A A A A A Z Z Z Z Z Z Z Z Z Z Z Z Z Z Z

>  <atom.prop.IS_HEAVY_ATOM>  (2798) 
1 0 0 0 1 1 1 1 0 0 0 1 1 0 1 0 1 0 1 0 1 0

>  <DIFUSE_FUNC_ATOM>  (2798) 
n/a

>  <FINAL_SINGLE_POINT_ENERGY>  (2798) 
0

>  <NONCOV_INTER_ENERGY_QM>  (2798) 
0

>  <FF_Energy>  (2798) 
-2.24

>  <QM_Energy>  (2798) 
-7.62

>  <source>  (2798) 
ACET_MBZ_03

>  <Index>  (2798) 
10671

$$$$
ACEH-pdb4dkm-E-GLH-35:MBZ-pdb4dkm-E-PHE-61
     RDKit          3D

 22 21  0  0  0  0  0  0  0  0999 V2000
    2.6828    4.8160    3.1018 C   0  0  0  0  0  0  0  0  0  0  0  0
    3.3372    4.2129    3.4999 H   0  0  0  0  0  0  0  0  0  0  0  0
    1.7616    4.6116    3.3499 H   0  0  0  0  0  0  0  0  0  0  0  0
    2.9142    5.8388    3.3992 H   0  0  0  0  0  0  0  0  0  0  0  0
    2.7860    4.6526    1.5820 C   0  0  0  0  0  0  0  0  0  0  0  0
    3.2388    3.5889    1.1084 O   0  0  0  0  0  0  0  0  0  0  0  0
    2.4108    5.5978    0.8538 O   0  0  0  0  0  0  0  0  0  0  0  0
    0.0072    2.8959   -0.1210 C   0  0  0  0  0  0  0  0  0  0  0  0
    0.8088    3.2407    0.3355 H   0  0  0  0  0  0  0  0  0  0  0  0
   -0.8234    3.2402    0.2812 H   0  0  0  0  0  0  0  0  0  0  0  0
    0.0412    3.2376   -1.1555 H   0  0  0  0  0  0  0  0  0  0  0  0
    0.0040    1.4032   -0.0019 C   0  0  0  0  0  0  0  0  0  0  0  0
   -1.1953    0.6937    0.0011 C   0  0  0  0  0  0  0  0  0  0  0  0
   -2.0613    1.1848    0.0025 H   0  0  0  0  0  0  0  0  0  0  0  0
   -1.2052   -0.7022    0.0000 C   0  0  0  0  0  0  0  0  0  0  0  0
   -2.0836   -1.1898    0.0032 H   0  0  0  0  0  0  0  0  0  0  0  0
   -0.0065   -1.3981   -0.0032 C   0  0  0  0  0  0  0  0  0  0  0  0
   -0.0041   -2.3948   -0.0088 H   0  0  0  0  0  0  0  0  0  0  0  0
    1.2052   -0.6961   -0.0000 C   0  0  0  0  0  0  0  0  0  0  0  0
    2.0815   -1.1940    0.0007 H   0  0  0  0  0  0  0  0  0  0  0  0
    1.1977    0.6995    0.0040 C   0  0  0  0  0  0  0  0  0  0  0  0
    2.0674    1.1935    0.0106 H   0  0  0  0  0  0  0  0  0  0  0  0
  1  5  1  0
  5  6  2  0
  5  7  1  0
  1  2  1  0
  1  3  1  0
  1  4  1  0
  8 12  1  0
 12 13  2  0
 13 15  1  0
 15 17  2  0
 17 19  1  0
 19 21  2  0
 21 12  1  0
  8  9  1  0
  8 10  1  0
  8 11  1  0
 13 14  1  0
 15 16  1  0
 17 18  1  0
 19 20  1  0
 21 22  1  0
M  CHG  1   7  -1
V    7 [O&-]
M  END
>  <PDB_ID>  (2799) 
pdb4dkm

>  <RESIDUE_NAME>  (2799) 
GLU   PHE

>  <FRAG_NAME>  (2799) 
ACET   MBZ

>  <FRAG_ATOM_NUM>  (2799) 
fragi: 7 fragj: 15

>  <atom.prop.CHAIN_ID>  (2799) 
A A A A A A A Z Z Z Z Z Z Z Z Z Z Z Z Z Z Z

>  <atom.prop.IS_HEAVY_ATOM>  (2799) 
1 0 0 0 1 1 1 1 0 0 0 1 1 0 1 0 1 0 1 0 1 0

>  <DIFUSE_FUNC_ATOM>  (2799) 
n/a

>  <FINAL_SINGLE_POINT_ENERGY>  (2799) 
0

>  <NONCOV_INTER_ENERGY_QM>  (2799) 
0

>  <FF_Energy>  (2799) 
-2.19

>  <QM_Energy>  (2799) 
-7.62

>  <source>  (2799) 
ACET_MBZ_03

>  <Index>  (2799) 
10677

$$$$
ACEH-pdb4dkm-G-GLH-35:MBZ-pdb4dkm-G-PHE-61
     RDKit          3D

 22 21  0  0  0  0  0  0  0  0999 V2000
    2.7659    4.7630    3.1106 C   0  0  0  0  0  0  0  0  0  0  0  0
    3.4334    4.1559    3.4776 H   0  0  0  0  0  0  0  0  0  0  0  0
    1.8536    4.5608    3.3867 H   0  0  0  0  0  0  0  0  0  0  0  0
    3.0108    5.7816    3.4117 H   0  0  0  0  0  0  0  0  0  0  0  0
    2.8183    4.6256    1.5875 C   0  0  0  0  0  0  0  0  0  0  0  0
    2.4028    5.5806    0.8867 O   0  0  0  0  0  0  0  0  0  0  0  0
    3.2731    3.5685    1.0961 O   0  0  0  0  0  0  0  0  0  0  0  0
   -0.0014    2.9047   -0.0929 C   0  0  0  0  0  0  0  0  0  0  0  0
    0.8114    3.2428    0.3479 H   0  0  0  0  0  0  0  0  0  0  0  0
   -0.8217    3.2368    0.3389 H   0  0  0  0  0  0  0  0  0  0  0  0
    0.0027    3.2663   -1.1211 H   0  0  0  0  0  0  0  0  0  0  0  0
    0.0031    1.4062   -0.0013 C   0  0  0  0  0  0  0  0  0  0  0  0
   -1.1939    0.6925    0.0009 C   0  0  0  0  0  0  0  0  0  0  0  0
   -2.0629    1.1801    0.0014 H   0  0  0  0  0  0  0  0  0  0  0  0
   -1.2031   -0.7085    0.0000 C   0  0  0  0  0  0  0  0  0  0  0  0
   -2.0830   -1.1933    0.0015 H   0  0  0  0  0  0  0  0  0  0  0  0
   -0.0079   -1.4014   -0.0012 C   0  0  0  0  0  0  0  0  0  0  0  0
   -0.0004   -2.3980   -0.0027 H   0  0  0  0  0  0  0  0  0  0  0  0
    1.2031   -0.6950    0.0000 C   0  0  0  0  0  0  0  0  0  0  0  0
    2.0816   -1.1913    0.0013 H   0  0  0  0  0  0  0  0  0  0  0  0
    1.1988    0.7063    0.0016 C   0  0  0  0  0  0  0  0  0  0  0  0
    2.0665    1.1971    0.0039 H   0  0  0  0  0  0  0  0  0  0  0  0
  1  5  1  0
  5  6  2  0
  5  7  1  0
  1  2  1  0
  1  3  1  0
  1  4  1  0
  8 12  1  0
 12 13  2  0
 13 15  1  0
 15 17  2  0
 17 19  1  0
 19 21  2  0
 21 12  1  0
  8  9  1  0
  8 10  1  0
  8 11  1  0
 13 14  1  0
 15 16  1  0
 17 18  1  0
 19 20  1  0
 21 22  1  0
M  CHG  1   7  -1
V    7 [O&-]
M  END
>  <PDB_ID>  (2800) 
pdb4dkm

>  <RESIDUE_NAME>  (2800) 
GLU   PHE

>  <FRAG_NAME>  (2800) 
ACET   MBZ

>  <FRAG_ATOM_NUM>  (2800) 
fragi: 7 fragj: 15

>  <atom.prop.CHAIN_ID>  (2800) 
A A A A A A A Z Z Z Z Z Z Z Z Z Z Z Z Z Z Z

>  <atom.prop.IS_HEAVY_ATOM>  (2800) 
1 0 0 0 1 1 1 1 0 0 0 1 1 0 1 0 1 0 1 0 1 0

>  <DIFUSE_FUNC_ATOM>  (2800) 
n/a

>  <FINAL_SINGLE_POINT_ENERGY>  (2800) 
0

>  <NONCOV_INTER_ENERGY_QM>  (2800) 
0

>  <FF_Energy>  (2800) 
-2.21

>  <QM_Energy>  (2800) 
-7.66

>  <source>  (2800) 
ACET_MBZ_03

>  <Index>  (2800) 
10680

$$$$
ACEH-pdb4dkm-H-GLH-35:MBZ-pdb4dkm-H-PHE-61
     RDKit          3D

 22 21  0  0  0  0  0  0  0  0999 V2000
    2.7827    4.7740    3.1094 C   0  0  0  0  0  0  0  0  0  0  0  0
    3.4662    4.1823    3.4744 H   0  0  0  0  0  0  0  0  0  0  0  0
    1.8763    4.5441    3.3890 H   0  0  0  0  0  0  0  0  0  0  0  0
    3.0009    5.7993    3.4081 H   0  0  0  0  0  0  0  0  0  0  0  0
    2.8323    4.6323    1.5878 C   0  0  0  0  0  0  0  0  0  0  0  0
    3.2744    3.5714    1.0928 O   0  0  0  0  0  0  0  0  0  0  0  0
    2.4188    5.5904    0.8832 O   0  0  0  0  0  0  0  0  0  0  0  0
   -0.0078    2.8896   -0.1064 C   0  0  0  0  0  0  0  0  0  0  0  0
    0.7969    3.2344    0.3490 H   0  0  0  0  0  0  0  0  0  0  0  0
   -0.8359    3.2267    0.3113 H   0  0  0  0  0  0  0  0  0  0  0  0
    0.0136    3.2430   -1.1373 H   0  0  0  0  0  0  0  0  0  0  0  0
   -0.0026    1.4019   -0.0014 C   0  0  0  0  0  0  0  0  0  0  0  0
   -1.1947    0.6931    0.0022 C   0  0  0  0  0  0  0  0  0  0  0  0
   -2.0635    1.1795    0.0054 H   0  0  0  0  0  0  0  0  0  0  0  0
   -1.1957   -0.6980    0.0000 C   0  0  0  0  0  0  0  0  0  0  0  0
   -2.0740   -1.1924    0.0022 H   0  0  0  0  0  0  0  0  0  0  0  0
    0.0025   -1.3917   -0.0031 C   0  0  0  0  0  0  0  0  0  0  0  0
   -0.0043   -2.3932   -0.0081 H   0  0  0  0  0  0  0  0  0  0  0  0
    1.1957   -0.7013    0.0000 C   0  0  0  0  0  0  0  0  0  0  0  0
    2.0812   -1.1944    0.0022 H   0  0  0  0  0  0  0  0  0  0  0  0
    1.1948    0.6960    0.0023 C   0  0  0  0  0  0  0  0  0  0  0  0
    2.0621    1.1873    0.0059 H   0  0  0  0  0  0  0  0  0  0  0  0
  1  5  1  0
  5  6  2  0
  5  7  1  0
  1  2  1  0
  1  3  1  0
  1  4  1  0
  8 12  1  0
 12 13  2  0
 13 15  1  0
 15 17  2  0
 17 19  1  0
 19 21  2  0
 21 12  1  0
  8  9  1  0
  8 10  1  0
  8 11  1  0
 13 14  1  0
 15 16  1  0
 17 18  1  0
 19 20  1  0
 21 22  1  0
M  CHG  1   7  -1
V    7 [O&-]
M  END
>  <PDB_ID>  (2801) 
pdb4dkm

>  <RESIDUE_NAME>  (2801) 
GLU   PHE

>  <FRAG_NAME>  (2801) 
ACET   MBZ

>  <FRAG_ATOM_NUM>  (2801) 
fragi: 7 fragj: 15

>  <atom.prop.CHAIN_ID>  (2801) 
A A A A A A A Z Z Z Z Z Z Z Z Z Z Z Z Z Z Z

>  <atom.prop.IS_HEAVY_ATOM>  (2801) 
1 0 0 0 1 1 1 1 0 0 0 1 1 0 1 0 1 0 1 0 1 0

>  <DIFUSE_FUNC_ATOM>  (2801) 
n/a

>  <FINAL_SINGLE_POINT_ENERGY>  (2801) 
0

>  <NONCOV_INTER_ENERGY_QM>  (2801) 
0

>  <FF_Energy>  (2801) 
-2.24

>  <QM_Energy>  (2801) 
-7.52

>  <source>  (2801) 
ACET_MBZ_03

>  <Index>  (2801) 
10682

$$$$
ACEH-pdb5ech-E-ASH-154:MBZ-pdb5ech-E-PHE-145
     RDKit          3D

 22 21  0  0  0  0  0  0  0  0999 V2000
   -4.1032    3.9038   -1.4724 C   0  0  0  0  0  0  0  0  0  0  0  0
   -3.9921    4.8436   -1.7749 H   0  0  0  0  0  0  0  0  0  0  0  0
   -5.0459    3.7295   -1.2168 H   0  0  0  0  0  0  0  0  0  0  0  0
   -3.8525    3.2484   -2.3065 H   0  0  0  0  0  0  0  0  0  0  0  0
   -3.2197    3.6669   -0.2771 C   0  0  0  0  0  0  0  0  0  0  0  0
   -2.4120    4.5549    0.0641 O   0  0  0  0  0  0  0  0  0  0  0  0
   -3.3279    2.5752    0.3088 O   0  0  0  0  0  0  0  0  0  0  0  0
   -0.0025    2.9082   -0.0172 C   0  0  0  0  0  0  0  0  0  0  0  0
   -0.8910    3.1988   -0.3621 H   0  0  0  0  0  0  0  0  0  0  0  0
    0.7191    3.1961   -0.6408 H   0  0  0  0  0  0  0  0  0  0  0  0
    0.1652    3.3948    0.9436 H   0  0  0  0  0  0  0  0  0  0  0  0
   -0.0002    1.3958    0.0109 C   0  0  0  0  0  0  0  0  0  0  0  0
   -1.1908    0.6853   -0.0080 C   0  0  0  0  0  0  0  0  0  0  0  0
   -2.0597    1.1787   -0.0288 H   0  0  0  0  0  0  0  0  0  0  0  0
   -1.1958   -0.6937   -0.0000 C   0  0  0  0  0  0  0  0  0  0  0  0
   -2.0746   -1.1903    0.0069 H   0  0  0  0  0  0  0  0  0  0  0  0
   -0.0025   -1.3845    0.0002 C   0  0  0  0  0  0  0  0  0  0  0  0
   -0.0050   -2.3869   -0.0006 H   0  0  0  0  0  0  0  0  0  0  0  0
    1.1958   -0.6934    0.0000 C   0  0  0  0  0  0  0  0  0  0  0  0
    2.0767   -1.1945    0.0039 H   0  0  0  0  0  0  0  0  0  0  0  0
    1.1936    0.6905   -0.0031 C   0  0  0  0  0  0  0  0  0  0  0  0
    2.0619    1.1888   -0.0165 H   0  0  0  0  0  0  0  0  0  0  0  0
  1  5  1  0
  5  6  2  0
  5  7  1  0
  1  2  1  0
  1  3  1  0
  1  4  1  0
  8 12  1  0
 12 13  2  0
 13 15  1  0
 15 17  2  0
 17 19  1  0
 19 21  2  0
 21 12  1  0
  8  9  1  0
  8 10  1  0
  8 11  1  0
 13 14  1  0
 15 16  1  0
 17 18  1  0
 19 20  1  0
 21 22  1  0
M  CHG  1   7  -1
V    7 [O&-]
M  END
>  <PDB_ID>  (2802) 
pdb5ech

>  <RESIDUE_NAME>  (2802) 
ASP   PHE

>  <FRAG_NAME>  (2802) 
ACET   MBZ

>  <FRAG_ATOM_NUM>  (2802) 
fragi: 7 fragj: 15

>  <atom.prop.CHAIN_ID>  (2802) 
A A A A A A A Z Z Z Z Z Z Z Z Z Z Z Z Z Z Z

>  <atom.prop.IS_HEAVY_ATOM>  (2802) 
1 0 0 0 1 1 1 1 0 0 0 1 1 0 1 0 1 0 1 0 1 0

>  <DIFUSE_FUNC_ATOM>  (2802) 
n/a

>  <FINAL_SINGLE_POINT_ENERGY>  (2802) 
0

>  <NONCOV_INTER_ENERGY_QM>  (2802) 
0

>  <FF_Energy>  (2802) 
18.56

>  <QM_Energy>  (2802) 
-5.28

>  <source>  (2802) 
ACET_MBZ_03

>  <Index>  (2802) 
10683

$$$$
ACEH-pdb5ech-F-ASH-154:MBZ-pdb5ech-F-PHE-145
     RDKit          3D

 22 21  0  0  0  0  0  0  0  0999 V2000
    4.6995    4.3993    0.4842 C   0  0  0  0  0  0  0  0  0  0  0  0
    4.7578    5.3238    0.8422 H   0  0  0  0  0  0  0  0  0  0  0  0
    5.5583    4.1313    0.0648 H   0  0  0  0  0  0  0  0  0  0  0  0
    4.5112    3.7274    1.3216 H   0  0  0  0  0  0  0  0  0  0  0  0
    3.6051    4.3470   -0.5617 C   0  0  0  0  0  0  0  0  0  0  0  0
    3.0323    5.3982   -0.9129 O   0  0  0  0  0  0  0  0  0  0  0  0
    3.3264    3.2408   -1.0497 O   0  0  0  0  0  0  0  0  0  0  0  0
   -0.0051    2.8841    0.0026 C   0  0  0  0  0  0  0  0  0  0  0  0
    0.9313    3.1958    0.0594 H   0  0  0  0  0  0  0  0  0  0  0  0
   -0.5328    3.1869    0.7823 H   0  0  0  0  0  0  0  0  0  0  0  0
   -0.4489    3.3233   -0.8909 H   0  0  0  0  0  0  0  0  0  0  0  0
    0.0006    1.3881   -0.0041 C   0  0  0  0  0  0  0  0  0  0  0  0
   -1.1920    0.6835    0.0058 C   0  0  0  0  0  0  0  0  0  0  0  0
   -2.0587    1.1789    0.0163 H   0  0  0  0  0  0  0  0  0  0  0  0
   -1.1968   -0.6928    0.0000 C   0  0  0  0  0  0  0  0  0  0  0  0
   -2.0743   -1.1902   -0.0044 H   0  0  0  0  0  0  0  0  0  0  0  0
   -0.0036   -1.3754    0.0015 C   0  0  0  0  0  0  0  0  0  0  0  0
   -0.0032   -2.3812    0.0035 H   0  0  0  0  0  0  0  0  0  0  0  0
    1.1968   -0.6881   -0.0000 C   0  0  0  0  0  0  0  0  0  0  0  0
    2.0751   -1.1959    0.0027 H   0  0  0  0  0  0  0  0  0  0  0  0
    1.1950    0.6846   -0.0033 C   0  0  0  0  0  0  0  0  0  0  0  0
    2.0616    1.1878   -0.0064 H   0  0  0  0  0  0  0  0  0  0  0  0
  1  5  1  0
  5  6  2  0
  5  7  1  0
  1  2  1  0
  1  3  1  0
  1  4  1  0
  8 12  1  0
 12 13  2  0
 13 15  1  0
 15 17  2  0
 17 19  1  0
 19 21  2  0
 21 12  1  0
  8  9  1  0
  8 10  1  0
  8 11  1  0
 13 14  1  0
 15 16  1  0
 17 18  1  0
 19 20  1  0
 21 22  1  0
M  CHG  1   7  -1
V    7 [O&-]
M  END
>  <PDB_ID>  (2803) 
pdb5ech

>  <RESIDUE_NAME>  (2803) 
ASP   PHE

>  <FRAG_NAME>  (2803) 
ACET   MBZ

>  <FRAG_ATOM_NUM>  (2803) 
fragi: 7 fragj: 15

>  <atom.prop.CHAIN_ID>  (2803) 
A A A A A A A Z Z Z Z Z Z Z Z Z Z Z Z Z Z Z

>  <atom.prop.IS_HEAVY_ATOM>  (2803) 
1 0 0 0 1 1 1 1 0 0 0 1 1 0 1 0 1 0 1 0 1 0

>  <DIFUSE_FUNC_ATOM>  (2803) 
n/a

>  <FINAL_SINGLE_POINT_ENERGY>  (2803) 
0

>  <NONCOV_INTER_ENERGY_QM>  (2803) 
0

>  <FF_Energy>  (2803) 
-2.26

>  <QM_Energy>  (2803) 
-7.56

>  <source>  (2803) 
ACET_MBZ_03

>  <Index>  (2803) 
10688

$$$$
ACEH-pdb2dv6-B-GLH-298:MBZ-pdb2dv6-B-PHE-360
     RDKit          3D

 22 21  0  0  0  0  0  0  0  0999 V2000
    3.8648    2.3485    2.4663 C   0  0  0  0  0  0  0  0  0  0  0  0
    3.1389    1.7046    2.6291 H   0  0  0  0  0  0  0  0  0  0  0  0
    3.6994    3.2117    2.9090 H   0  0  0  0  0  0  0  0  0  0  0  0
    4.7799    1.9297    2.8850 H   0  0  0  0  0  0  0  0  0  0  0  0
    3.9272    2.6059    0.9593 C   0  0  0  0  0  0  0  0  0  0  0  0
    4.6326    1.8573    0.2236 O   0  0  0  0  0  0  0  0  0  0  0  0
    3.2557    3.5798    0.4983 O   0  0  0  0  0  0  0  0  0  0  0  0
   -0.0020    2.8796   -0.0503 C   0  0  0  0  0  0  0  0  0  0  0  0
    0.7150    3.2129    0.5344 H   0  0  0  0  0  0  0  0  0  0  0  0
   -0.8890    3.2030    0.2263 H   0  0  0  0  0  0  0  0  0  0  0  0
    0.1879    3.2657   -1.0519 H   0  0  0  0  0  0  0  0  0  0  0  0
   -0.0007    1.3924   -0.0062 C   0  0  0  0  0  0  0  0  0  0  0  0
   -1.2016    0.6898   -0.0110 C   0  0  0  0  0  0  0  0  0  0  0  0
   -2.0651    1.1895   -0.0235 H   0  0  0  0  0  0  0  0  0  0  0  0
   -1.2126   -0.6907    0.0000 C   0  0  0  0  0  0  0  0  0  0  0  0
   -2.0792   -1.1918    0.0087 H   0  0  0  0  0  0  0  0  0  0  0  0
    0.0044   -1.3881    0.0011 C   0  0  0  0  0  0  0  0  0  0  0  0
   -0.0023   -2.3863    0.0028 H   0  0  0  0  0  0  0  0  0  0  0  0
    1.2126   -0.6921   -0.0000 C   0  0  0  0  0  0  0  0  0  0  0  0
    2.0886   -1.1928   -0.0108 H   0  0  0  0  0  0  0  0  0  0  0  0
    1.1978    0.6886    0.0161 C   0  0  0  0  0  0  0  0  0  0  0  0
    2.0636    1.1946    0.0437 H   0  0  0  0  0  0  0  0  0  0  0  0
  1  5  1  0
  5  6  2  0
  5  7  1  0
  1  2  1  0
  1  3  1  0
  1  4  1  0
  8 12  1  0
 12 13  2  0
 13 15  1  0
 15 17  2  0
 17 19  1  0
 19 21  2  0
 21 12  1  0
  8  9  1  0
  8 10  1  0
  8 11  1  0
 13 14  1  0
 15 16  1  0
 17 18  1  0
 19 20  1  0
 21 22  1  0
M  CHG  1   7  -1
V    7 [O&-]
M  END
>  <PDB_ID>  (2804) 
pdb2dv6

>  <RESIDUE_NAME>  (2804) 
GLU   PHE

>  <FRAG_NAME>  (2804) 
ACET   MBZ

>  <FRAG_ATOM_NUM>  (2804) 
fragi: 7 fragj: 15

>  <atom.prop.CHAIN_ID>  (2804) 
A A A A A A A Z Z Z Z Z Z Z Z Z Z Z Z Z Z Z

>  <atom.prop.IS_HEAVY_ATOM>  (2804) 
1 0 0 0 1 1 1 1 0 0 0 1 1 0 1 0 1 0 1 0 1 0

>  <DIFUSE_FUNC_ATOM>  (2804) 
n/a

>  <FINAL_SINGLE_POINT_ENERGY>  (2804) 
0

>  <NONCOV_INTER_ENERGY_QM>  (2804) 
0

>  <FF_Energy>  (2804) 
-2.22

>  <QM_Energy>  (2804) 
-8.46

>  <source>  (2804) 
ACET_MBZ_03

>  <Index>  (2804) 
10695

$$$$
ACEH-pdb2dv6-C-GLH-298:MBZ-pdb2dv6-C-PHE-360
     RDKit          3D

 22 21  0  0  0  0  0  0  0  0999 V2000
    3.9958    2.2403    2.2754 C   0  0  0  0  0  0  0  0  0  0  0  0
    3.2855    1.5836    2.4381 H   0  0  0  0  0  0  0  0  0  0  0  0
    3.8368    3.0898    2.7391 H   0  0  0  0  0  0  0  0  0  0  0  0
    4.9207    1.8218    2.6723 H   0  0  0  0  0  0  0  0  0  0  0  0
    4.0466    2.5215    0.7775 C   0  0  0  0  0  0  0  0  0  0  0  0
    4.6598    1.7302    0.0146 O   0  0  0  0  0  0  0  0  0  0  0  0
    3.4234    3.5270    0.3533 O   0  0  0  0  0  0  0  0  0  0  0  0
    0.0268    2.9193   -0.0608 C   0  0  0  0  0  0  0  0  0  0  0  0
    0.7854    3.2360    0.4779 H   0  0  0  0  0  0  0  0  0  0  0  0
   -0.8354    3.2507    0.2759 H   0  0  0  0  0  0  0  0  0  0  0  0
    0.1569    3.2981   -1.0745 H   0  0  0  0  0  0  0  0  0  0  0  0
    0.0046    1.4103    0.0031 C   0  0  0  0  0  0  0  0  0  0  0  0
   -1.2043    0.7089   -0.0214 C   0  0  0  0  0  0  0  0  0  0  0  0
   -2.0645    1.1937   -0.0555 H   0  0  0  0  0  0  0  0  0  0  0  0
   -1.2098   -0.7022   -0.0000 C   0  0  0  0  0  0  0  0  0  0  0  0
   -2.0850   -1.1883    0.0022 H   0  0  0  0  0  0  0  0  0  0  0  0
   -0.0008   -1.4034    0.0187 C   0  0  0  0  0  0  0  0  0  0  0  0
   -0.0045   -2.3985    0.0444 H   0  0  0  0  0  0  0  0  0  0  0  0
    1.2098   -0.7020    0.0000 C   0  0  0  0  0  0  0  0  0  0  0  0
    2.0859   -1.2015   -0.0117 H   0  0  0  0  0  0  0  0  0  0  0  0
    1.2005    0.6884   -0.0004 C   0  0  0  0  0  0  0  0  0  0  0  0
    2.0719    1.1879   -0.0042 H   0  0  0  0  0  0  0  0  0  0  0  0
  1  5  1  0
  5  6  2  0
  5  7  1  0
  1  2  1  0
  1  3  1  0
  1  4  1  0
  8 12  1  0
 12 13  2  0
 13 15  1  0
 15 17  2  0
 17 19  1  0
 19 21  2  0
 21 12  1  0
  8  9  1  0
  8 10  1  0
  8 11  1  0
 13 14  1  0
 15 16  1  0
 17 18  1  0
 19 20  1  0
 21 22  1  0
M  CHG  1   7  -1
V    7 [O&-]
M  END
>  <PDB_ID>  (2805) 
pdb2dv6

>  <RESIDUE_NAME>  (2805) 
GLU   PHE

>  <FRAG_NAME>  (2805) 
ACET   MBZ

>  <FRAG_ATOM_NUM>  (2805) 
fragi: 7 fragj: 15

>  <atom.prop.CHAIN_ID>  (2805) 
A A A A A A A Z Z Z Z Z Z Z Z Z Z Z Z Z Z Z

>  <atom.prop.IS_HEAVY_ATOM>  (2805) 
1 0 0 0 1 1 1 1 0 0 0 1 1 0 1 0 1 0 1 0 1 0

>  <DIFUSE_FUNC_ATOM>  (2805) 
n/a

>  <FINAL_SINGLE_POINT_ENERGY>  (2805) 
0

>  <NONCOV_INTER_ENERGY_QM>  (2805) 
0

>  <FF_Energy>  (2805) 
-2.35

>  <QM_Energy>  (2805) 
-8.38

>  <source>  (2805) 
ACET_MBZ_03

>  <Index>  (2805) 
10698

$$$$
ACEH-pdb2dv6-D-GLH-298:MBZ-pdb2dv6-D-PHE-360
     RDKit          3D

 22 21  0  0  0  0  0  0  0  0999 V2000
    3.8683    2.5774    2.2424 C   0  0  0  0  0  0  0  0  0  0  0  0
    3.1990    1.8779    2.3882 H   0  0  0  0  0  0  0  0  0  0  0  0
    3.6329    3.4260    2.6722 H   0  0  0  0  0  0  0  0  0  0  0  0
    4.8236    2.2352    2.6404 H   0  0  0  0  0  0  0  0  0  0  0  0
    3.9204    2.8422    0.7245 C   0  0  0  0  0  0  0  0  0  0  0  0
    4.6338    2.1072   -0.0085 O   0  0  0  0  0  0  0  0  0  0  0  0
    3.1850    3.7604    0.2593 O   0  0  0  0  0  0  0  0  0  0  0  0
    0.0042    2.9351   -0.0792 C   0  0  0  0  0  0  0  0  0  0  0  0
    0.7982    3.2561    0.3886 H   0  0  0  0  0  0  0  0  0  0  0  0
   -0.8326    3.2541    0.3091 H   0  0  0  0  0  0  0  0  0  0  0  0
    0.0537    3.2984   -1.1057 H   0  0  0  0  0  0  0  0  0  0  0  0
    0.0027    1.3988   -0.0006 C   0  0  0  0  0  0  0  0  0  0  0  0
   -1.1975    0.6978   -0.0330 C   0  0  0  0  0  0  0  0  0  0  0  0
   -2.0601    1.1869   -0.0812 H   0  0  0  0  0  0  0  0  0  0  0  0
   -1.2055   -0.6983   -0.0000 C   0  0  0  0  0  0  0  0  0  0  0  0
   -2.0797   -1.1898    0.0028 H   0  0  0  0  0  0  0  0  0  0  0  0
    0.0003   -1.3913    0.0302 C   0  0  0  0  0  0  0  0  0  0  0  0
    0.0018   -2.3874    0.0726 H   0  0  0  0  0  0  0  0  0  0  0  0
    1.2055   -0.6873    0.0000 C   0  0  0  0  0  0  0  0  0  0  0  0
    2.0824   -1.1954   -0.0229 H   0  0  0  0  0  0  0  0  0  0  0  0
    1.1945    0.6803    0.0035 C   0  0  0  0  0  0  0  0  0  0  0  0
    2.0652    1.1897    0.0082 H   0  0  0  0  0  0  0  0  0  0  0  0
  1  5  1  0
  5  6  2  0
  5  7  1  0
  1  2  1  0
  1  3  1  0
  1  4  1  0
  8 12  1  0
 12 13  2  0
 13 15  1  0
 15 17  2  0
 17 19  1  0
 19 21  2  0
 21 12  1  0
  8  9  1  0
  8 10  1  0
  8 11  1  0
 13 14  1  0
 15 16  1  0
 17 18  1  0
 19 20  1  0
 21 22  1  0
M  CHG  1   7  -1
V    7 [O&-]
M  END
>  <PDB_ID>  (2806) 
pdb2dv6

>  <RESIDUE_NAME>  (2806) 
GLU   PHE

>  <FRAG_NAME>  (2806) 
ACET   MBZ

>  <FRAG_ATOM_NUM>  (2806) 
fragi: 7 fragj: 15

>  <atom.prop.CHAIN_ID>  (2806) 
A A A A A A A Z Z Z Z Z Z Z Z Z Z Z Z Z Z Z

>  <atom.prop.IS_HEAVY_ATOM>  (2806) 
1 0 0 0 1 1 1 1 0 0 0 1 1 0 1 0 1 0 1 0 1 0

>  <DIFUSE_FUNC_ATOM>  (2806) 
n/a

>  <FINAL_SINGLE_POINT_ENERGY>  (2806) 
0

>  <NONCOV_INTER_ENERGY_QM>  (2806) 
0

>  <FF_Energy>  (2806) 
-2.39

>  <QM_Energy>  (2806) 
-8.32

>  <source>  (2806) 
ACET_MBZ_03

>  <Index>  (2806) 
10701

$$$$
ACEH-pdb2dv6-E-GLH-298:MBZ-pdb2dv6-E-PHE-360
     RDKit          3D

 22 21  0  0  0  0  0  0  0  0999 V2000
    4.0410    2.2349    2.3599 C   0  0  0  0  0  0  0  0  0  0  0  0
    3.3641    1.5382    2.4976 H   0  0  0  0  0  0  0  0  0  0  0  0
    3.8392    3.0600    2.8508 H   0  0  0  0  0  0  0  0  0  0  0  0
    4.9977    1.8526    2.7157 H   0  0  0  0  0  0  0  0  0  0  0  0
    4.0468    2.5807    0.8650 C   0  0  0  0  0  0  0  0  0  0  0  0
    4.6389    1.8380    0.0619 O   0  0  0  0  0  0  0  0  0  0  0  0
    3.4266    3.5868    0.4726 O   0  0  0  0  0  0  0  0  0  0  0  0
    0.0032    2.8758   -0.0707 C   0  0  0  0  0  0  0  0  0  0  0  0
    0.7585    3.2123    0.4633 H   0  0  0  0  0  0  0  0  0  0  0  0
   -0.8628    3.2022    0.2679 H   0  0  0  0  0  0  0  0  0  0  0  0
    0.1231    3.2529   -1.0863 H   0  0  0  0  0  0  0  0  0  0  0  0
    0.0054    1.3895   -0.0106 C   0  0  0  0  0  0  0  0  0  0  0  0
   -1.1960    0.6849   -0.0162 C   0  0  0  0  0  0  0  0  0  0  0  0
   -2.0567    1.1877   -0.0330 H   0  0  0  0  0  0  0  0  0  0  0  0
   -1.1965   -0.6800   -0.0000 C   0  0  0  0  0  0  0  0  0  0  0  0
   -2.0757   -1.1862   -0.0019 H   0  0  0  0  0  0  0  0  0  0  0  0
   -0.0006   -1.3859    0.0212 C   0  0  0  0  0  0  0  0  0  0  0  0
   -0.0110   -2.3820    0.0506 H   0  0  0  0  0  0  0  0  0  0  0  0
    1.1965   -0.6933    0.0000 C   0  0  0  0  0  0  0  0  0  0  0  0
    2.0779   -1.1954   -0.0178 H   0  0  0  0  0  0  0  0  0  0  0  0
    1.1913    0.6847    0.0056 C   0  0  0  0  0  0  0  0  0  0  0  0
    2.0632    1.1837    0.0205 H   0  0  0  0  0  0  0  0  0  0  0  0
  1  5  1  0
  5  6  2  0
  5  7  1  0
  1  2  1  0
  1  3  1  0
  1  4  1  0
  8 12  1  0
 12 13  2  0
 13 15  1  0
 15 17  2  0
 17 19  1  0
 19 21  2  0
 21 12  1  0
  8  9  1  0
  8 10  1  0
  8 11  1  0
 13 14  1  0
 15 16  1  0
 17 18  1  0
 19 20  1  0
 21 22  1  0
M  CHG  1   7  -1
V    7 [O&-]
M  END
>  <PDB_ID>  (2807) 
pdb2dv6

>  <RESIDUE_NAME>  (2807) 
GLU   PHE

>  <FRAG_NAME>  (2807) 
ACET   MBZ

>  <FRAG_ATOM_NUM>  (2807) 
fragi: 7 fragj: 15

>  <atom.prop.CHAIN_ID>  (2807) 
A A A A A A A Z Z Z Z Z Z Z Z Z Z Z Z Z Z Z

>  <atom.prop.IS_HEAVY_ATOM>  (2807) 
1 0 0 0 1 1 1 1 0 0 0 1 1 0 1 0 1 0 1 0 1 0

>  <DIFUSE_FUNC_ATOM>  (2807) 
n/a

>  <FINAL_SINGLE_POINT_ENERGY>  (2807) 
0

>  <NONCOV_INTER_ENERGY_QM>  (2807) 
0

>  <FF_Energy>  (2807) 
-2.67

>  <QM_Energy>  (2807) 
-8.23

>  <source>  (2807) 
ACET_MBZ_03

>  <Index>  (2807) 
10703

$$$$
ACEH-pdb2dv6-F-GLH-298:MBZ-pdb2dv6-F-PHE-360
     RDKit          3D

 22 21  0  0  0  0  0  0  0  0999 V2000
    3.9220    2.3462    2.3016 C   0  0  0  0  0  0  0  0  0  0  0  0
    3.1826    1.7212    2.4467 H   0  0  0  0  0  0  0  0  0  0  0  0
    3.7803    3.2128    2.7336 H   0  0  0  0  0  0  0  0  0  0  0  0
    4.8273    1.9029    2.7164 H   0  0  0  0  0  0  0  0  0  0  0  0
    4.0138    2.6023    0.7799 C   0  0  0  0  0  0  0  0  0  0  0  0
    4.6525    1.7969    0.0708 O   0  0  0  0  0  0  0  0  0  0  0  0
    3.4463    3.6118    0.2970 O   0  0  0  0  0  0  0  0  0  0  0  0
   -0.0123    2.8862   -0.0728 C   0  0  0  0  0  0  0  0  0  0  0  0
    0.7464    3.2363    0.4520 H   0  0  0  0  0  0  0  0  0  0  0  0
   -0.8767    3.2138    0.2718 H   0  0  0  0  0  0  0  0  0  0  0  0
    0.0955    3.2649   -1.0892 H   0  0  0  0  0  0  0  0  0  0  0  0
   -0.0000    1.4069   -0.0040 C   0  0  0  0  0  0  0  0  0  0  0  0
   -1.2056    0.6920   -0.0174 C   0  0  0  0  0  0  0  0  0  0  0  0
   -2.0683    1.1810   -0.0409 H   0  0  0  0  0  0  0  0  0  0  0  0
   -1.2066   -0.7047   -0.0000 C   0  0  0  0  0  0  0  0  0  0  0  0
   -2.0808   -1.1983   -0.0038 H   0  0  0  0  0  0  0  0  0  0  0  0
   -0.0012   -1.3983    0.0243 C   0  0  0  0  0  0  0  0  0  0  0  0
    0.0015   -2.3944    0.0590 H   0  0  0  0  0  0  0  0  0  0  0  0
    1.2066   -0.6939   -0.0000 C   0  0  0  0  0  0  0  0  0  0  0  0
    2.0856   -1.1955   -0.0142 H   0  0  0  0  0  0  0  0  0  0  0  0
    1.2068    0.6980   -0.0029 C   0  0  0  0  0  0  0  0  0  0  0  0
    2.0690    1.1953   -0.0056 H   0  0  0  0  0  0  0  0  0  0  0  0
  1  5  1  0
  5  6  2  0
  5  7  1  0
  1  2  1  0
  1  3  1  0
  1  4  1  0
  8 12  1  0
 12 13  2  0
 13 15  1  0
 15 17  2  0
 17 19  1  0
 19 21  2  0
 21 12  1  0
  8  9  1  0
  8 10  1  0
  8 11  1  0
 13 14  1  0
 15 16  1  0
 17 18  1  0
 19 20  1  0
 21 22  1  0
M  CHG  1   7  -1
V    7 [O&-]
M  END
>  <PDB_ID>  (2808) 
pdb2dv6

>  <RESIDUE_NAME>  (2808) 
GLU   PHE

>  <FRAG_NAME>  (2808) 
ACET   MBZ

>  <FRAG_ATOM_NUM>  (2808) 
fragi: 7 fragj: 15

>  <atom.prop.CHAIN_ID>  (2808) 
A A A A A A A Z Z Z Z Z Z Z Z Z Z Z Z Z Z Z

>  <atom.prop.IS_HEAVY_ATOM>  (2808) 
1 0 0 0 1 1 1 1 0 0 0 1 1 0 1 0 1 0 1 0 1 0

>  <DIFUSE_FUNC_ATOM>  (2808) 
n/a

>  <FINAL_SINGLE_POINT_ENERGY>  (2808) 
0

>  <NONCOV_INTER_ENERGY_QM>  (2808) 
0

>  <FF_Energy>  (2808) 
-2.43

>  <QM_Energy>  (2808) 
-8.17

>  <source>  (2808) 
ACET_MBZ_03

>  <Index>  (2808) 
10707

$$$$
ACEH-pdb6ekk-A-GLH-18:MBZ-pdb6ekk-A-PHE-97
     RDKit          3D

 22 21  0  0  0  0  0  0  0  0999 V2000
    3.1368    0.1720    2.1613 C   0  0  0  0  0  0  0  0  0  0  0  0
    3.3445   -0.7809    1.9433 H   0  0  0  0  0  0  0  0  0  0  0  0
    2.1882    0.3704    1.9176 H   0  0  0  0  0  0  0  0  0  0  0  0
    3.2349    0.2936    3.2401 H   0  0  0  0  0  0  0  0  0  0  0  0
    4.0163    1.0379    1.3129 C   0  0  0  0  0  0  0  0  0  0  0  0
    3.8336    0.8473    0.0927 O   0  0  0  0  0  0  0  0  0  0  0  0
    4.8151    1.8478    1.7608 O   0  0  0  0  0  0  0  0  0  0  0  0
    0.0049    2.9039   -0.0096 C   0  0  0  0  0  0  0  0  0  0  0  0
   -0.7073    3.2088   -0.6232 H   0  0  0  0  0  0  0  0  0  0  0  0
    0.8958    3.2066   -0.3134 H   0  0  0  0  0  0  0  0  0  0  0  0
   -0.1828    3.3541    0.9652 H   0  0  0  0  0  0  0  0  0  0  0  0
    0.0007    1.4010    0.0014 C   0  0  0  0  0  0  0  0  0  0  0  0
   -1.1932    0.6949   -0.0044 C   0  0  0  0  0  0  0  0  0  0  0  0
   -2.0606    1.1815   -0.0127 H   0  0  0  0  0  0  0  0  0  0  0  0
   -1.1949   -0.6982   -0.0000 C   0  0  0  0  0  0  0  0  0  0  0  0
   -2.0749   -1.1888   -0.0013 H   0  0  0  0  0  0  0  0  0  0  0  0
   -0.0019   -1.3876    0.0082 C   0  0  0  0  0  0  0  0  0  0  0  0
   -0.0053   -2.3911    0.0191 H   0  0  0  0  0  0  0  0  0  0  0  0
    1.1949   -0.6991    0.0000 C   0  0  0  0  0  0  0  0  0  0  0  0
    2.0774   -1.1984   -0.0008 H   0  0  0  0  0  0  0  0  0  0  0  0
    1.1944    0.6889   -0.0052 C   0  0  0  0  0  0  0  0  0  0  0  0
    2.0641    1.1834   -0.0149 H   0  0  0  0  0  0  0  0  0  0  0  0
  1  5  1  0
  5  6  2  0
  5  7  1  0
  1  2  1  0
  1  3  1  0
  1  4  1  0
  8 12  1  0
 12 13  2  0
 13 15  1  0
 15 17  2  0
 17 19  1  0
 19 21  2  0
 21 12  1  0
  8  9  1  0
  8 10  1  0
  8 11  1  0
 13 14  1  0
 15 16  1  0
 17 18  1  0
 19 20  1  0
 21 22  1  0
M  CHG  1   7  -1
V    7 [O&-]
M  END
>  <PDB_ID>  (2809) 
pdb6ekk

>  <RESIDUE_NAME>  (2809) 
GLU   PHE

>  <FRAG_NAME>  (2809) 
ACET   MBZ

>  <FRAG_ATOM_NUM>  (2809) 
fragi: 7 fragj: 15

>  <atom.prop.CHAIN_ID>  (2809) 
A A A A A A A Z Z Z Z Z Z Z Z Z Z Z Z Z Z Z

>  <atom.prop.IS_HEAVY_ATOM>  (2809) 
1 0 0 0 1 1 1 1 0 0 0 1 1 0 1 0 1 0 1 0 1 0

>  <DIFUSE_FUNC_ATOM>  (2809) 
n/a

>  <FINAL_SINGLE_POINT_ENERGY>  (2809) 
0

>  <NONCOV_INTER_ENERGY_QM>  (2809) 
0

>  <FF_Energy>  (2809) 
44.64

>  <QM_Energy>  (2809) 
2.45

>  <source>  (2809) 
ACET_MBZ_03

>  <Index>  (2809) 
10727

$$$$
ACEH-pdb5ein-A-ASH-96:MBZ-pdb5ein-A-PHE-80
     RDKit          3D

 22 21  0  0  0  0  0  0  0  0999 V2000
    4.0818   -0.2043   -2.4259 C   0  0  0  0  0  0  0  0  0  0  0  0
    3.2381   -0.6746   -2.1773 H   0  0  0  0  0  0  0  0  0  0  0  0
    4.8667   -0.7044   -2.0694 H   0  0  0  0  0  0  0  0  0  0  0  0
    4.1537   -0.2036   -3.5135 H   0  0  0  0  0  0  0  0  0  0  0  0
    4.0662    1.1848   -1.8116 C   0  0  0  0  0  0  0  0  0  0  0  0
    4.3902    1.3107   -0.6005 O   0  0  0  0  0  0  0  0  0  0  0  0
    3.6894    2.1511   -2.5070 O   0  0  0  0  0  0  0  0  0  0  0  0
    0.0351    2.8848   -0.0476 C   0  0  0  0  0  0  0  0  0  0  0  0
   -0.1749    3.1742   -0.9732 H   0  0  0  0  0  0  0  0  0  0  0  0
    0.9412    3.1879    0.2198 H   0  0  0  0  0  0  0  0  0  0  0  0
   -0.6796    3.3722    0.6154 H   0  0  0  0  0  0  0  0  0  0  0  0
    0.0054    1.3926   -0.0026 C   0  0  0  0  0  0  0  0  0  0  0  0
   -1.1850    0.6944   -0.0015 C   0  0  0  0  0  0  0  0  0  0  0  0
   -2.0523    1.1834   -0.0034 H   0  0  0  0  0  0  0  0  0  0  0  0
   -1.1859   -0.6891    0.0000 C   0  0  0  0  0  0  0  0  0  0  0  0
   -2.0744   -1.1789   -0.0004 H   0  0  0  0  0  0  0  0  0  0  0  0
   -0.0088   -1.3826    0.0040 C   0  0  0  0  0  0  0  0  0  0  0  0
   -0.0060   -2.3815    0.0092 H   0  0  0  0  0  0  0  0  0  0  0  0
    1.1859   -0.6847   -0.0000 C   0  0  0  0  0  0  0  0  0  0  0  0
    2.0676   -1.2017   -0.0012 H   0  0  0  0  0  0  0  0  0  0  0  0
    1.1885    0.6694    0.0002 C   0  0  0  0  0  0  0  0  0  0  0  0
    2.0625    1.1758    0.0016 H   0  0  0  0  0  0  0  0  0  0  0  0
  1  5  1  0
  5  6  2  0
  5  7  1  0
  1  2  1  0
  1  3  1  0
  1  4  1  0
  8 12  1  0
 12 13  2  0
 13 15  1  0
 15 17  2  0
 17 19  1  0
 19 21  2  0
 21 12  1  0
  8  9  1  0
  8 10  1  0
  8 11  1  0
 13 14  1  0
 15 16  1  0
 17 18  1  0
 19 20  1  0
 21 22  1  0
M  CHG  1   7  -1
V    7 [O&-]
M  END
>  <PDB_ID>  (2810) 
pdb5ein

>  <RESIDUE_NAME>  (2810) 
ASP   PHE

>  <FRAG_NAME>  (2810) 
ACET   MBZ

>  <FRAG_ATOM_NUM>  (2810) 
fragi: 7 fragj: 15

>  <atom.prop.CHAIN_ID>  (2810) 
A A A A A A A Z Z Z Z Z Z Z Z Z Z Z Z Z Z Z

>  <atom.prop.IS_HEAVY_ATOM>  (2810) 
1 0 0 0 1 1 1 1 0 0 0 1 1 0 1 0 1 0 1 0 1 0

>  <DIFUSE_FUNC_ATOM>  (2810) 
n/a

>  <FINAL_SINGLE_POINT_ENERGY>  (2810) 
0

>  <NONCOV_INTER_ENERGY_QM>  (2810) 
0

>  <FF_Energy>  (2810) 
-1.99

>  <QM_Energy>  (2810) 
-7.02

>  <source>  (2810) 
ACET_MBZ_03

>  <Index>  (2810) 
10759

$$$$
ACEH-pdb2e28-A-GLH-223:MBZ-pdb2e28-A-PHE-194
     RDKit          3D

 22 21  0  0  0  0  0  0  0  0999 V2000
    3.0776    1.2872    3.5294 C   0  0  0  0  0  0  0  0  0  0  0  0
    3.6573    0.8757    4.2115 H   0  0  0  0  0  0  0  0  0  0  0  0
    2.6868    2.1358    3.8427 H   0  0  0  0  0  0  0  0  0  0  0  0
    3.6873    1.4990    2.6510 H   0  0  0  0  0  0  0  0  0  0  0  0
    1.9263    0.3227    3.2625 C   0  0  0  0  0  0  0  0  0  0  0  0
    1.1109    0.6027    2.3635 O   0  0  0  0  0  0  0  0  0  0  0  0
    1.8308   -0.7119    3.9596 O   0  0  0  0  0  0  0  0  0  0  0  0
   -0.1423    2.8893   -0.0154 C   0  0  0  0  0  0  0  0  0  0  0  0
   -1.0558    3.1118   -0.3750 H   0  0  0  0  0  0  0  0  0  0  0  0
    0.5467    3.2580   -0.6497 H   0  0  0  0  0  0  0  0  0  0  0  0
   -0.0258    3.4048    0.9379 H   0  0  0  0  0  0  0  0  0  0  0  0
   -0.0068    1.4033   -0.0145 C   0  0  0  0  0  0  0  0  0  0  0  0
   -1.1924    0.6493    0.0335 C   0  0  0  0  0  0  0  0  0  0  0  0
   -2.0676    1.1443    0.0932 H   0  0  0  0  0  0  0  0  0  0  0  0
   -1.1897   -0.7168   -0.0000 C   0  0  0  0  0  0  0  0  0  0  0  0
   -2.0552   -1.2289   -0.0105 H   0  0  0  0  0  0  0  0  0  0  0  0
    0.0203   -1.3898   -0.0180 C   0  0  0  0  0  0  0  0  0  0  0  0
    0.0338   -2.3872   -0.0448 H   0  0  0  0  0  0  0  0  0  0  0  0
    1.1897   -0.6682   -0.0000 C   0  0  0  0  0  0  0  0  0  0  0  0
    2.0916   -1.1520    0.0161 H   0  0  0  0  0  0  0  0  0  0  0  0
    1.1789    0.7223   -0.0011 C   0  0  0  0  0  0  0  0  0  0  0  0
    2.0487    1.2173    0.0069 H   0  0  0  0  0  0  0  0  0  0  0  0
  1  5  1  0
  5  6  2  0
  5  7  1  0
  1  2  1  0
  1  3  1  0
  1  4  1  0
  8 12  1  0
 12 13  2  0
 13 15  1  0
 15 17  2  0
 17 19  1  0
 19 21  2  0
 21 12  1  0
  8  9  1  0
  8 10  1  0
  8 11  1  0
 13 14  1  0
 15 16  1  0
 17 18  1  0
 19 20  1  0
 21 22  1  0
M  CHG  1   7  -1
V    7 [O&-]
M  END
>  <PDB_ID>  (2811) 
pdb2e28

>  <RESIDUE_NAME>  (2811) 
GLU   PHE

>  <FRAG_NAME>  (2811) 
ACET   MBZ

>  <FRAG_ATOM_NUM>  (2811) 
fragi: 7 fragj: 15

>  <atom.prop.CHAIN_ID>  (2811) 
A A A A A A A Z Z Z Z Z Z Z Z Z Z Z Z Z Z Z

>  <atom.prop.IS_HEAVY_ATOM>  (2811) 
1 0 0 0 1 1 1 1 0 0 0 1 1 0 1 0 1 0 1 0 1 0

>  <DIFUSE_FUNC_ATOM>  (2811) 
n/a

>  <FINAL_SINGLE_POINT_ENERGY>  (2811) 
0

>  <NONCOV_INTER_ENERGY_QM>  (2811) 
0

>  <FF_Energy>  (2811) 
28.47

>  <QM_Energy>  (2811) 
7.54

>  <source>  (2811) 
ACET_MBZ_03

>  <Index>  (2811) 
10785

$$$$
ACEH-pdb1dgb-D-ASH-389:MBZ-pdb1dgb-A-PHE-326
     RDKit          3D

 22 21  0  0  0  0  0  0  0  0999 V2000
   -0.1064   -0.3505    3.4787 C   0  0  0  0  0  0  0  0  0  0  0  0
    0.2316   -0.7504    4.3237 H   0  0  0  0  0  0  0  0  0  0  0  0
    0.2679   -0.8297    2.6934 H   0  0  0  0  0  0  0  0  0  0  0  0
   -1.1903   -0.4638    3.4597 H   0  0  0  0  0  0  0  0  0  0  0  0
    0.3295    1.0987    3.4188 C   0  0  0  0  0  0  0  0  0  0  0  0
    1.5272    1.3695    3.6467 O   0  0  0  0  0  0  0  0  0  0  0  0
   -0.5180    1.9756    3.1470 O   0  0  0  0  0  0  0  0  0  0  0  0
    0.0054    2.8960   -0.0152 C   0  0  0  0  0  0  0  0  0  0  0  0
    0.7789    3.2062    0.5172 H   0  0  0  0  0  0  0  0  0  0  0  0
   -0.8478    3.2111    0.3747 H   0  0  0  0  0  0  0  0  0  0  0  0
    0.0943    3.3188   -1.0159 H   0  0  0  0  0  0  0  0  0  0  0  0
   -0.0000    1.4026    0.0003 C   0  0  0  0  0  0  0  0  0  0  0  0
   -1.1985    0.6970    0.0007 C   0  0  0  0  0  0  0  0  0  0  0  0
   -2.0645    1.1860    0.0001 H   0  0  0  0  0  0  0  0  0  0  0  0
   -1.2049   -0.6999    0.0000 C   0  0  0  0  0  0  0  0  0  0  0  0
   -2.0788   -1.1915    0.0014 H   0  0  0  0  0  0  0  0  0  0  0  0
    0.0013   -1.3972   -0.0009 C   0  0  0  0  0  0  0  0  0  0  0  0
   -0.0013   -2.3938   -0.0025 H   0  0  0  0  0  0  0  0  0  0  0  0
    1.2049   -0.6967    0.0000 C   0  0  0  0  0  0  0  0  0  0  0  0
    2.0857   -1.1935    0.0024 H   0  0  0  0  0  0  0  0  0  0  0  0
    1.1973    0.6942    0.0000 C   0  0  0  0  0  0  0  0  0  0  0  0
    2.0652    1.1921   -0.0010 H   0  0  0  0  0  0  0  0  0  0  0  0
  1  5  1  0
  5  6  2  0
  5  7  1  0
  1  2  1  0
  1  3  1  0
  1  4  1  0
  8 12  1  0
 12 13  2  0
 13 15  1  0
 15 17  2  0
 17 19  1  0
 19 21  2  0
 21 12  1  0
  8  9  1  0
  8 10  1  0
  8 11  1  0
 13 14  1  0
 15 16  1  0
 17 18  1  0
 19 20  1  0
 21 22  1  0
M  CHG  1   7  -1
V    7 [O&-]
M  END
>  <PDB_ID>  (2812) 
pdb1dgb

>  <RESIDUE_NAME>  (2812) 
ASP   PHE

>  <FRAG_NAME>  (2812) 
ACET   MBZ

>  <FRAG_ATOM_NUM>  (2812) 
fragi: 7 fragj: 15

>  <atom.prop.CHAIN_ID>  (2812) 
A A A A A A A Z Z Z Z Z Z Z Z Z Z Z Z Z Z Z

>  <atom.prop.IS_HEAVY_ATOM>  (2812) 
1 0 0 0 1 1 1 1 0 0 0 1 1 0 1 0 1 0 1 0 1 0

>  <DIFUSE_FUNC_ATOM>  (2812) 
n/a

>  <FINAL_SINGLE_POINT_ENERGY>  (2812) 
0

>  <NONCOV_INTER_ENERGY_QM>  (2812) 
0

>  <FF_Energy>  (2812) 
1.73

>  <QM_Energy>  (2812) 
-4.37

>  <source>  (2812) 
ACET_MBZ_03

>  <Index>  (2812) 
10792

$$$$
ACEH-pdb1dgb-C-ASH-389:MBZ-pdb1dgb-B-PHE-326
     RDKit          3D

 22 21  0  0  0  0  0  0  0  0999 V2000
   -0.1662   -0.0429    3.6230 C   0  0  0  0  0  0  0  0  0  0  0  0
    0.1576   -0.3750    4.5011 H   0  0  0  0  0  0  0  0  0  0  0  0
    0.1975   -0.5961    2.8843 H   0  0  0  0  0  0  0  0  0  0  0  0
   -1.2525   -0.1306    3.6079 H   0  0  0  0  0  0  0  0  0  0  0  0
    0.3095    1.3903    3.4395 C   0  0  0  0  0  0  0  0  0  0  0  0
   -0.4968    2.2496    3.0179 O   0  0  0  0  0  0  0  0  0  0  0  0
    1.4951    1.6607    3.7173 O   0  0  0  0  0  0  0  0  0  0  0  0
    0.0008    2.9197   -0.0132 C   0  0  0  0  0  0  0  0  0  0  0  0
    0.7779    3.2268    0.5141 H   0  0  0  0  0  0  0  0  0  0  0  0
   -0.8501    3.2261    0.3838 H   0  0  0  0  0  0  0  0  0  0  0  0
    0.0801    3.3497   -1.0115 H   0  0  0  0  0  0  0  0  0  0  0  0
    0.0001    1.4099    0.0003 C   0  0  0  0  0  0  0  0  0  0  0  0
   -1.1951    0.6971   -0.0001 C   0  0  0  0  0  0  0  0  0  0  0  0
   -2.0645    1.1819   -0.0025 H   0  0  0  0  0  0  0  0  0  0  0  0
   -1.2006   -0.7045   -0.0000 C   0  0  0  0  0  0  0  0  0  0  0  0
   -2.0783   -1.1923    0.0024 H   0  0  0  0  0  0  0  0  0  0  0  0
    0.0015   -1.4037   -0.0013 C   0  0  0  0  0  0  0  0  0  0  0  0
   -0.0004   -2.3988   -0.0034 H   0  0  0  0  0  0  0  0  0  0  0  0
    1.2006   -0.7004   -0.0000 C   0  0  0  0  0  0  0  0  0  0  0  0
    2.0844   -1.1907    0.0015 H   0  0  0  0  0  0  0  0  0  0  0  0
    1.1935    0.7017    0.0011 C   0  0  0  0  0  0  0  0  0  0  0  0
    2.0644    1.1927    0.0017 H   0  0  0  0  0  0  0  0  0  0  0  0
  1  5  1  0
  5  6  2  0
  5  7  1  0
  1  2  1  0
  1  3  1  0
  1  4  1  0
  8 12  1  0
 12 13  2  0
 13 15  1  0
 15 17  2  0
 17 19  1  0
 19 21  2  0
 21 12  1  0
  8  9  1  0
  8 10  1  0
  8 11  1  0
 13 14  1  0
 15 16  1  0
 17 18  1  0
 19 20  1  0
 21 22  1  0
M  CHG  1   7  -1
V    7 [O&-]
M  END
>  <PDB_ID>  (2813) 
pdb1dgb

>  <RESIDUE_NAME>  (2813) 
ASP   PHE

>  <FRAG_NAME>  (2813) 
ACET   MBZ

>  <FRAG_ATOM_NUM>  (2813) 
fragi: 7 fragj: 15

>  <atom.prop.CHAIN_ID>  (2813) 
A A A A A A A Z Z Z Z Z Z Z Z Z Z Z Z Z Z Z

>  <atom.prop.IS_HEAVY_ATOM>  (2813) 
1 0 0 0 1 1 1 1 0 0 0 1 1 0 1 0 1 0 1 0 1 0

>  <DIFUSE_FUNC_ATOM>  (2813) 
n/a

>  <FINAL_SINGLE_POINT_ENERGY>  (2813) 
0

>  <NONCOV_INTER_ENERGY_QM>  (2813) 
0

>  <FF_Energy>  (2813) 
1.51

>  <QM_Energy>  (2813) 
-5.12

>  <source>  (2813) 
ACET_MBZ_03

>  <Index>  (2813) 
10794

$$$$
ACEH-pdb1dgb-A-ASH-389:MBZ-pdb1dgb-D-PHE-326
     RDKit          3D

 22 21  0  0  0  0  0  0  0  0999 V2000
   -0.4271   -0.2795    3.4081 C   0  0  0  0  0  0  0  0  0  0  0  0
   -0.2067   -0.6729    4.2921 H   0  0  0  0  0  0  0  0  0  0  0  0
   -0.0100   -0.8025    2.6762 H   0  0  0  0  0  0  0  0  0  0  0  0
   -1.5090   -0.3185    3.2804 H   0  0  0  0  0  0  0  0  0  0  0  0
    0.1235    1.1466    3.3606 C   0  0  0  0  0  0  0  0  0  0  0  0
    1.3192    1.3368    3.6769 O   0  0  0  0  0  0  0  0  0  0  0  0
   -0.6354    2.0751    3.0034 O   0  0  0  0  0  0  0  0  0  0  0  0
    0.0116    2.8795   -0.0484 C   0  0  0  0  0  0  0  0  0  0  0  0
    0.7133    3.2056    0.5678 H   0  0  0  0  0  0  0  0  0  0  0  0
   -0.8827    3.2069    0.2210 H   0  0  0  0  0  0  0  0  0  0  0  0
    0.2272    3.2765   -1.0404 H   0  0  0  0  0  0  0  0  0  0  0  0
    0.0007    1.3954   -0.0003 C   0  0  0  0  0  0  0  0  0  0  0  0
   -1.1960    0.6961    0.0008 C   0  0  0  0  0  0  0  0  0  0  0  0
   -2.0610    1.1869    0.0004 H   0  0  0  0  0  0  0  0  0  0  0  0
   -1.2021   -0.6945   -0.0000 C   0  0  0  0  0  0  0  0  0  0  0  0
   -2.0776   -1.1887    0.0019 H   0  0  0  0  0  0  0  0  0  0  0  0
    0.0019   -1.3921   -0.0019 C   0  0  0  0  0  0  0  0  0  0  0  0
   -0.0032   -2.3896   -0.0051 H   0  0  0  0  0  0  0  0  0  0  0  0
    1.2021   -0.6948   -0.0000 C   0  0  0  0  0  0  0  0  0  0  0  0
    2.0833   -1.1935    0.0015 H   0  0  0  0  0  0  0  0  0  0  0  0
    1.1934    0.6899    0.0014 C   0  0  0  0  0  0  0  0  0  0  0  0
    2.0633    1.1901    0.0031 H   0  0  0  0  0  0  0  0  0  0  0  0
  1  5  1  0
  5  6  2  0
  5  7  1  0
  1  2  1  0
  1  3  1  0
  1  4  1  0
  8 12  1  0
 12 13  2  0
 13 15  1  0
 15 17  2  0
 17 19  1  0
 19 21  2  0
 21 12  1  0
  8  9  1  0
  8 10  1  0
  8 11  1  0
 13 14  1  0
 15 16  1  0
 17 18  1  0
 19 20  1  0
 21 22  1  0
M  CHG  1   7  -1
V    7 [O&-]
M  END
>  <PDB_ID>  (2814) 
pdb1dgb

>  <RESIDUE_NAME>  (2814) 
ASP   PHE

>  <FRAG_NAME>  (2814) 
ACET   MBZ

>  <FRAG_ATOM_NUM>  (2814) 
fragi: 7 fragj: 15

>  <atom.prop.CHAIN_ID>  (2814) 
A A A A A A A Z Z Z Z Z Z Z Z Z Z Z Z Z Z Z

>  <atom.prop.IS_HEAVY_ATOM>  (2814) 
1 0 0 0 1 1 1 1 0 0 0 1 1 0 1 0 1 0 1 0 1 0

>  <DIFUSE_FUNC_ATOM>  (2814) 
n/a

>  <FINAL_SINGLE_POINT_ENERGY>  (2814) 
0

>  <NONCOV_INTER_ENERGY_QM>  (2814) 
0

>  <FF_Energy>  (2814) 
2.35

>  <QM_Energy>  (2814) 
-4.44

>  <source>  (2814) 
ACET_MBZ_03

>  <Index>  (2814) 
10797

$$$$
ACEH-pdb2e54-A-GLH-212:MBZ-pdb2e54-A-PHE-224
     RDKit          3D

 22 21  0  0  0  0  0  0  0  0999 V2000
   -4.4516    2.3908    2.4289 C   0  0  0  0  0  0  0  0  0  0  0  0
   -5.2739    2.8666    2.6837 H   0  0  0  0  0  0  0  0  0  0  0  0
   -3.9871    2.0083    3.2072 H   0  0  0  0  0  0  0  0  0  0  0  0
   -4.7257    1.5741    1.7612 H   0  0  0  0  0  0  0  0  0  0  0  0
   -3.5179    3.3962    1.7850 C   0  0  0  0  0  0  0  0  0  0  0  0
   -2.6792    3.9765    2.5054 O   0  0  0  0  0  0  0  0  0  0  0  0
   -3.6390    3.6168    0.5629 O   0  0  0  0  0  0  0  0  0  0  0  0
   -0.0006    2.8969   -0.0034 C   0  0  0  0  0  0  0  0  0  0  0  0
    0.9104    3.2038    0.1712 H   0  0  0  0  0  0  0  0  0  0  0  0
   -0.6475    3.2027    0.6621 H   0  0  0  0  0  0  0  0  0  0  0  0
   -0.3066    3.2887   -0.9735 H   0  0  0  0  0  0  0  0  0  0  0  0
    0.0005    1.3901   -0.0010 C   0  0  0  0  0  0  0  0  0  0  0  0
   -1.2037    0.6940    0.0069 C   0  0  0  0  0  0  0  0  0  0  0  0
   -2.0634    1.1832    0.0158 H   0  0  0  0  0  0  0  0  0  0  0  0
   -1.1990   -0.6946    0.0000 C   0  0  0  0  0  0  0  0  0  0  0  0
   -2.0781   -1.1927    0.0076 H   0  0  0  0  0  0  0  0  0  0  0  0
    0.0000   -1.3972   -0.0147 C   0  0  0  0  0  0  0  0  0  0  0  0
   -0.0024   -2.3905   -0.0358 H   0  0  0  0  0  0  0  0  0  0  0  0
    1.1990   -0.6925   -0.0000 C   0  0  0  0  0  0  0  0  0  0  0  0
    2.0831   -1.1927    0.0058 H   0  0  0  0  0  0  0  0  0  0  0  0
    1.2032    0.7002    0.0089 C   0  0  0  0  0  0  0  0  0  0  0  0
    2.0641    1.1931    0.0216 H   0  0  0  0  0  0  0  0  0  0  0  0
  1  5  1  0
  5  6  2  0
  5  7  1  0
  1  2  1  0
  1  3  1  0
  1  4  1  0
  8 12  1  0
 12 13  2  0
 13 15  1  0
 15 17  2  0
 17 19  1  0
 19 21  2  0
 21 12  1  0
  8  9  1  0
  8 10  1  0
  8 11  1  0
 13 14  1  0
 15 16  1  0
 17 18  1  0
 19 20  1  0
 21 22  1  0
M  CHG  1   7  -1
V    7 [O&-]
M  END
>  <PDB_ID>  (2815) 
pdb2e54

>  <RESIDUE_NAME>  (2815) 
GLU   PHE

>  <FRAG_NAME>  (2815) 
ACET   MBZ

>  <FRAG_ATOM_NUM>  (2815) 
fragi: 7 fragj: 15

>  <atom.prop.CHAIN_ID>  (2815) 
A A A A A A A Z Z Z Z Z Z Z Z Z Z Z Z Z Z Z

>  <atom.prop.IS_HEAVY_ATOM>  (2815) 
1 0 0 0 1 1 1 1 0 0 0 1 1 0 1 0 1 0 1 0 1 0

>  <DIFUSE_FUNC_ATOM>  (2815) 
n/a

>  <FINAL_SINGLE_POINT_ENERGY>  (2815) 
0

>  <NONCOV_INTER_ENERGY_QM>  (2815) 
0

>  <FF_Energy>  (2815) 
-2.35

>  <QM_Energy>  (2815) 
-7.49

>  <source>  (2815) 
ACET_MBZ_03

>  <Index>  (2815) 
10856

$$$$
ACEH-pdb3d64-B-GLH-112:MBZ-pdb3d64-B-PHE-120
     RDKit          3D

 22 21  0  0  0  0  0  0  0  0999 V2000
    5.4518   -0.5055   -2.0981 C   0  0  0  0  0  0  0  0  0  0  0  0
    6.4242   -0.5500   -1.9348 H   0  0  0  0  0  0  0  0  0  0  0  0
    5.2490   -0.0891   -2.9702 H   0  0  0  0  0  0  0  0  0  0  0  0
    5.0667   -1.5252   -2.1135 H   0  0  0  0  0  0  0  0  0  0  0  0
    4.8430    0.3650   -1.0197 C   0  0  0  0  0  0  0  0  0  0  0  0
    4.8432    1.5936   -1.2013 O   0  0  0  0  0  0  0  0  0  0  0  0
    4.3678   -0.1476   -0.0024 O   0  0  0  0  0  0  0  0  0  0  0  0
   -0.0035    2.9127    0.0193 C   0  0  0  0  0  0  0  0  0  0  0  0
    0.6378    3.2292   -0.6576 H   0  0  0  0  0  0  0  0  0  0  0  0
    0.2461    3.2034    0.9271 H   0  0  0  0  0  0  0  0  0  0  0  0
   -0.9755    3.3472   -0.2143 H   0  0  0  0  0  0  0  0  0  0  0  0
    0.0003    1.3999   -0.0044 C   0  0  0  0  0  0  0  0  0  0  0  0
   -1.1995    0.6944    0.0028 C   0  0  0  0  0  0  0  0  0  0  0  0
   -2.0643    1.1845    0.0086 H   0  0  0  0  0  0  0  0  0  0  0  0
   -1.2036   -0.6979    0.0000 C   0  0  0  0  0  0  0  0  0  0  0  0
   -2.0760   -1.1935   -0.0018 H   0  0  0  0  0  0  0  0  0  0  0  0
    0.0047   -1.3935    0.0011 C   0  0  0  0  0  0  0  0  0  0  0  0
    0.0017   -2.3906    0.0018 H   0  0  0  0  0  0  0  0  0  0  0  0
    1.2036   -0.6922   -0.0000 C   0  0  0  0  0  0  0  0  0  0  0  0
    2.0859   -1.1918    0.0007 H   0  0  0  0  0  0  0  0  0  0  0  0
    1.1946    0.6893    0.0005 C   0  0  0  0  0  0  0  0  0  0  0  0
    2.0633    1.1916    0.0040 H   0  0  0  0  0  0  0  0  0  0  0  0
  1  5  1  0
  5  6  2  0
  5  7  1  0
  1  2  1  0
  1  3  1  0
  1  4  1  0
  8 12  1  0
 12 13  2  0
 13 15  1  0
 15 17  2  0
 17 19  1  0
 19 21  2  0
 21 12  1  0
  8  9  1  0
  8 10  1  0
  8 11  1  0
 13 14  1  0
 15 16  1  0
 17 18  1  0
 19 20  1  0
 21 22  1  0
M  CHG  1   7  -1
V    7 [O&-]
M  END
>  <PDB_ID>  (2816) 
pdb3d64

>  <RESIDUE_NAME>  (2816) 
GLU   PHE

>  <FRAG_NAME>  (2816) 
ACET   MBZ

>  <FRAG_ATOM_NUM>  (2816) 
fragi: 7 fragj: 15

>  <atom.prop.CHAIN_ID>  (2816) 
A A A A A A A Z Z Z Z Z Z Z Z Z Z Z Z Z Z Z

>  <atom.prop.IS_HEAVY_ATOM>  (2816) 
1 0 0 0 1 1 1 1 0 0 0 1 1 0 1 0 1 0 1 0 1 0

>  <DIFUSE_FUNC_ATOM>  (2816) 
n/a

>  <FINAL_SINGLE_POINT_ENERGY>  (2816) 
0

>  <NONCOV_INTER_ENERGY_QM>  (2816) 
0

>  <FF_Energy>  (2816) 
-2.88

>  <QM_Energy>  (2816) 
-7.96

>  <source>  (2816) 
ACET_MBZ_03

>  <Index>  (2816) 
10928

$$$$
ACEH-pdb5evl-A-GLH-221:MBZ-pdb5evl-A-PHE-171
     RDKit          3D

 22 21  0  0  0  0  0  0  0  0999 V2000
   -0.3284    0.0778   -3.3927 C   0  0  0  0  0  0  0  0  0  0  0  0
   -1.2268    0.2840   -3.7473 H   0  0  0  0  0  0  0  0  0  0  0  0
   -0.3692   -0.1939   -2.4430 H   0  0  0  0  0  0  0  0  0  0  0  0
    0.0831   -0.7513   -3.9681 H   0  0  0  0  0  0  0  0  0  0  0  0
    0.4934    1.3575   -3.4644 C   0  0  0  0  0  0  0  0  0  0  0  0
    1.7122    1.3016   -3.7635 O   0  0  0  0  0  0  0  0  0  0  0  0
   -0.0950    2.4270   -3.2010 O   0  0  0  0  0  0  0  0  0  0  0  0
    0.0018    2.9008   -0.0074 C   0  0  0  0  0  0  0  0  0  0  0  0
   -0.7711    3.2077   -0.5407 H   0  0  0  0  0  0  0  0  0  0  0  0
    0.8564    3.2067   -0.3976 H   0  0  0  0  0  0  0  0  0  0  0  0
   -0.0853    3.3310    0.9903 H   0  0  0  0  0  0  0  0  0  0  0  0
    0.0013    1.4001   -0.0102 C   0  0  0  0  0  0  0  0  0  0  0  0
   -1.1925    0.6931    0.0058 C   0  0  0  0  0  0  0  0  0  0  0  0
   -2.0599    1.1795    0.0207 H   0  0  0  0  0  0  0  0  0  0  0  0
   -1.1938   -0.7002    0.0000 C   0  0  0  0  0  0  0  0  0  0  0  0
   -2.0747   -1.1904   -0.0074 H   0  0  0  0  0  0  0  0  0  0  0  0
   -0.0024   -1.3891    0.0059 C   0  0  0  0  0  0  0  0  0  0  0  0
   -0.0027   -2.3908    0.0141 H   0  0  0  0  0  0  0  0  0  0  0  0
    1.1938   -0.6948    0.0000 C   0  0  0  0  0  0  0  0  0  0  0  0
    2.0770   -1.1948   -0.0021 H   0  0  0  0  0  0  0  0  0  0  0  0
    1.1937    0.6908   -0.0015 C   0  0  0  0  0  0  0  0  0  0  0  0
    2.0632    1.1867    0.0029 H   0  0  0  0  0  0  0  0  0  0  0  0
  1  5  1  0
  5  6  2  0
  5  7  1  0
  1  2  1  0
  1  3  1  0
  1  4  1  0
  8 12  1  0
 12 13  2  0
 13 15  1  0
 15 17  2  0
 17 19  1  0
 19 21  2  0
 21 12  1  0
  8  9  1  0
  8 10  1  0
  8 11  1  0
 13 14  1  0
 15 16  1  0
 17 18  1  0
 19 20  1  0
 21 22  1  0
M  CHG  1   7  -1
V    7 [O&-]
M  END
>  <PDB_ID>  (2817) 
pdb5evl

>  <RESIDUE_NAME>  (2817) 
GLU   PHE

>  <FRAG_NAME>  (2817) 
ACET   MBZ

>  <FRAG_ATOM_NUM>  (2817) 
fragi: 7 fragj: 15

>  <atom.prop.CHAIN_ID>  (2817) 
A A A A A A A Z Z Z Z Z Z Z Z Z Z Z Z Z Z Z

>  <atom.prop.IS_HEAVY_ATOM>  (2817) 
1 0 0 0 1 1 1 1 0 0 0 1 1 0 1 0 1 0 1 0 1 0

>  <DIFUSE_FUNC_ATOM>  (2817) 
n/a

>  <FINAL_SINGLE_POINT_ENERGY>  (2817) 
0

>  <NONCOV_INTER_ENERGY_QM>  (2817) 
0

>  <FF_Energy>  (2817) 
1.74

>  <QM_Energy>  (2817) 
-4.51

>  <source>  (2817) 
ACET_MBZ_03

>  <Index>  (2817) 
10931

$$$$
ACEH-pdb1dl5-B-ASH-279:MBZ-pdb1dl5-A-PHE-310
     RDKit          3D

 22 21  0  0  0  0  0  0  0  0999 V2000
    3.1869    1.5124   -2.8623 C   0  0  0  0  0  0  0  0  0  0  0  0
    2.4614    1.7722   -3.4857 H   0  0  0  0  0  0  0  0  0  0  0  0
    2.9293    0.7162   -2.3319 H   0  0  0  0  0  0  0  0  0  0  0  0
    4.0629    1.2515   -3.4562 H   0  0  0  0  0  0  0  0  0  0  0  0
    3.4555    2.6682   -1.9139 C   0  0  0  0  0  0  0  0  0  0  0  0
    4.5297    2.6758   -1.2850 O   0  0  0  0  0  0  0  0  0  0  0  0
    2.5985    3.5696   -1.7830 O   0  0  0  0  0  0  0  0  0  0  0  0
   -0.0106    2.9151   -0.0118 C   0  0  0  0  0  0  0  0  0  0  0  0
    0.9211    3.2239   -0.1098 H   0  0  0  0  0  0  0  0  0  0  0  0
   -0.4116    3.2238    0.8348 H   0  0  0  0  0  0  0  0  0  0  0  0
   -0.5918    3.3384   -0.8311 H   0  0  0  0  0  0  0  0  0  0  0  0
   -0.0020    1.4078   -0.0004 C   0  0  0  0  0  0  0  0  0  0  0  0
   -1.1996    0.6954    0.0002 C   0  0  0  0  0  0  0  0  0  0  0  0
   -2.0674    1.1846   -0.0009 H   0  0  0  0  0  0  0  0  0  0  0  0
   -1.2060   -0.7004    0.0000 C   0  0  0  0  0  0  0  0  0  0  0  0
   -2.0805   -1.1930    0.0002 H   0  0  0  0  0  0  0  0  0  0  0  0
    0.0011   -1.4005    0.0006 C   0  0  0  0  0  0  0  0  0  0  0  0
   -0.0028   -2.3962    0.0005 H   0  0  0  0  0  0  0  0  0  0  0  0
    1.2060   -0.6999   -0.0000 C   0  0  0  0  0  0  0  0  0  0  0  0
    2.0864   -1.1949    0.0017 H   0  0  0  0  0  0  0  0  0  0  0  0
    1.2005    0.6975   -0.0005 C   0  0  0  0  0  0  0  0  0  0  0  0
    2.0666    1.1932   -0.0016 H   0  0  0  0  0  0  0  0  0  0  0  0
  1  5  1  0
  5  6  2  0
  5  7  1  0
  1  2  1  0
  1  3  1  0
  1  4  1  0
  8 12  1  0
 12 13  2  0
 13 15  1  0
 15 17  2  0
 17 19  1  0
 19 21  2  0
 21 12  1  0
  8  9  1  0
  8 10  1  0
  8 11  1  0
 13 14  1  0
 15 16  1  0
 17 18  1  0
 19 20  1  0
 21 22  1  0
M  CHG  1   7  -1
V    7 [O&-]
M  END
>  <PDB_ID>  (2818) 
pdb1dl5

>  <RESIDUE_NAME>  (2818) 
ASP   PHE

>  <FRAG_NAME>  (2818) 
ACET   MBZ

>  <FRAG_ATOM_NUM>  (2818) 
fragi: 7 fragj: 15

>  <atom.prop.CHAIN_ID>  (2818) 
A A A A A A A Z Z Z Z Z Z Z Z Z Z Z Z Z Z Z

>  <atom.prop.IS_HEAVY_ATOM>  (2818) 
1 0 0 0 1 1 1 1 0 0 0 1 1 0 1 0 1 0 1 0 1 0

>  <DIFUSE_FUNC_ATOM>  (2818) 
n/a

>  <FINAL_SINGLE_POINT_ENERGY>  (2818) 
0

>  <NONCOV_INTER_ENERGY_QM>  (2818) 
0

>  <FF_Energy>  (2818) 
-1.82

>  <QM_Energy>  (2818) 
-7.25

>  <source>  (2818) 
ACET_MBZ_03

>  <Index>  (2818) 
10976

$$$$
ACEH-pdb6f35-A-ASH-215:MBZ-pdb6f35-A-PHE-227
     RDKit          3D

 22 21  0  0  0  0  0  0  0  0999 V2000
    0.3586   -4.7749   -1.3266 C   0  0  0  0  0  0  0  0  0  0  0  0
    1.0245   -5.4174   -1.6925 H   0  0  0  0  0  0  0  0  0  0  0  0
    0.4653   -3.8855   -1.7579 H   0  0  0  0  0  0  0  0  0  0  0  0
   -0.6380   -5.1488   -1.5610 H   0  0  0  0  0  0  0  0  0  0  0  0
    0.6145   -4.6181    0.1753 C   0  0  0  0  0  0  0  0  0  0  0  0
   -0.3561   -4.5920    0.9577 O   0  0  0  0  0  0  0  0  0  0  0  0
    1.8055   -4.5039    0.5611 O   0  0  0  0  0  0  0  0  0  0  0  0
   -0.0073    2.8847   -0.0003 C   0  0  0  0  0  0  0  0  0  0  0  0
   -0.7625    3.1939   -0.5559 H   0  0  0  0  0  0  0  0  0  0  0  0
    0.8578    3.2016   -0.3571 H   0  0  0  0  0  0  0  0  0  0  0  0
   -0.1317    3.3081    0.9964 H   0  0  0  0  0  0  0  0  0  0  0  0
    0.0005    1.3941   -0.0072 C   0  0  0  0  0  0  0  0  0  0  0  0
   -1.1954    0.6886    0.0004 C   0  0  0  0  0  0  0  0  0  0  0  0
   -2.0608    1.1842    0.0047 H   0  0  0  0  0  0  0  0  0  0  0  0
   -1.1997   -0.6898    0.0000 C   0  0  0  0  0  0  0  0  0  0  0  0
   -2.0773   -1.1884   -0.0020 H   0  0  0  0  0  0  0  0  0  0  0  0
   -0.0018   -1.3871    0.0044 C   0  0  0  0  0  0  0  0  0  0  0  0
   -0.0075   -2.3870    0.0100 H   0  0  0  0  0  0  0  0  0  0  0  0
    1.1997   -0.6955    0.0000 C   0  0  0  0  0  0  0  0  0  0  0  0
    2.0793   -1.1965   -0.0036 H   0  0  0  0  0  0  0  0  0  0  0  0
    1.1966    0.6896    0.0025 C   0  0  0  0  0  0  0  0  0  0  0  0
    2.0640    1.1883    0.0104 H   0  0  0  0  0  0  0  0  0  0  0  0
  1  5  1  0
  5  6  2  0
  5  7  1  0
  1  2  1  0
  1  3  1  0
  1  4  1  0
  8 12  1  0
 12 13  2  0
 13 15  1  0
 15 17  2  0
 17 19  1  0
 19 21  2  0
 21 12  1  0
  8  9  1  0
  8 10  1  0
  8 11  1  0
 13 14  1  0
 15 16  1  0
 17 18  1  0
 19 20  1  0
 21 22  1  0
M  CHG  1   7  -1
V    7 [O&-]
M  END
>  <PDB_ID>  (2819) 
pdb6f35

>  <RESIDUE_NAME>  (2819) 
ASP   PHE

>  <FRAG_NAME>  (2819) 
ACET   MBZ

>  <FRAG_ATOM_NUM>  (2819) 
fragi: 7 fragj: 15

>  <atom.prop.CHAIN_ID>  (2819) 
A A A A A A A Z Z Z Z Z Z Z Z Z Z Z Z Z Z Z

>  <atom.prop.IS_HEAVY_ATOM>  (2819) 
1 0 0 0 1 1 1 1 0 0 0 1 1 0 1 0 1 0 1 0 1 0

>  <DIFUSE_FUNC_ATOM>  (2819) 
n/a

>  <FINAL_SINGLE_POINT_ENERGY>  (2819) 
0

>  <NONCOV_INTER_ENERGY_QM>  (2819) 
0

>  <FF_Energy>  (2819) 
0.7

>  <QM_Energy>  (2819) 
-4.92

>  <source>  (2819) 
ACET_MBZ_03

>  <Index>  (2819) 
11028

$$$$
ACEH-pdb4e2q-G-GLH-123:MBZ-pdb4e2q-G-PHE-218
     RDKit          3D

 22 21  0  0  0  0  0  0  0  0999 V2000
    4.4612   -2.4489   -0.2427 C   0  0  0  0  0  0  0  0  0  0  0  0
    5.1107   -2.2479   -0.9546 H   0  0  0  0  0  0  0  0  0  0  0  0
    3.5666   -2.6457   -0.6041 H   0  0  0  0  0  0  0  0  0  0  0  0
    4.8119   -3.3244    0.3037 H   0  0  0  0  0  0  0  0  0  0  0  0
    4.3349   -1.1978    0.6261 C   0  0  0  0  0  0  0  0  0  0  0  0
    3.8692   -1.2885    1.7875 O   0  0  0  0  0  0  0  0  0  0  0  0
    4.6848   -0.1024    0.1373 O   0  0  0  0  0  0  0  0  0  0  0  0
   -0.0018    2.9111   -0.0346 C   0  0  0  0  0  0  0  0  0  0  0  0
   -0.7389    3.2035   -0.6276 H   0  0  0  0  0  0  0  0  0  0  0  0
    0.8762    3.2108   -0.3810 H   0  0  0  0  0  0  0  0  0  0  0  0
   -0.1524    3.3841    0.9358 H   0  0  0  0  0  0  0  0  0  0  0  0
    0.0004    1.4049    0.0006 C   0  0  0  0  0  0  0  0  0  0  0  0
   -1.1935    0.6919    0.0013 C   0  0  0  0  0  0  0  0  0  0  0  0
   -2.0624    1.1819    0.0011 H   0  0  0  0  0  0  0  0  0  0  0  0
   -1.2002   -0.6990    0.0000 C   0  0  0  0  0  0  0  0  0  0  0  0
   -2.0788   -1.1903    0.0021 H   0  0  0  0  0  0  0  0  0  0  0  0
   -0.0022   -1.3968   -0.0023 C   0  0  0  0  0  0  0  0  0  0  0  0
   -0.0044   -2.3948   -0.0065 H   0  0  0  0  0  0  0  0  0  0  0  0
    1.2002   -0.6988   -0.0000 C   0  0  0  0  0  0  0  0  0  0  0  0
    2.0816   -1.1941    0.0026 H   0  0  0  0  0  0  0  0  0  0  0  0
    1.1953    0.6978    0.0004 C   0  0  0  0  0  0  0  0  0  0  0  0
    2.0645    1.1914   -0.0004 H   0  0  0  0  0  0  0  0  0  0  0  0
  1  5  1  0
  5  6  2  0
  5  7  1  0
  1  2  1  0
  1  3  1  0
  1  4  1  0
  8 12  1  0
 12 13  2  0
 13 15  1  0
 15 17  2  0
 17 19  1  0
 19 21  2  0
 21 12  1  0
  8  9  1  0
  8 10  1  0
  8 11  1  0
 13 14  1  0
 15 16  1  0
 17 18  1  0
 19 20  1  0
 21 22  1  0
M  CHG  1   7  -1
V    7 [O&-]
M  END
>  <PDB_ID>  (2820) 
pdb4e2q

>  <RESIDUE_NAME>  (2820) 
GLU   PHE

>  <FRAG_NAME>  (2820) 
ACET   MBZ

>  <FRAG_ATOM_NUM>  (2820) 
fragi: 7 fragj: 15

>  <atom.prop.CHAIN_ID>  (2820) 
A A A A A A A Z Z Z Z Z Z Z Z Z Z Z Z Z Z Z

>  <atom.prop.IS_HEAVY_ATOM>  (2820) 
1 0 0 0 1 1 1 1 0 0 0 1 1 0 1 0 1 0 1 0 1 0

>  <DIFUSE_FUNC_ATOM>  (2820) 
n/a

>  <FINAL_SINGLE_POINT_ENERGY>  (2820) 
0

>  <NONCOV_INTER_ENERGY_QM>  (2820) 
0

>  <FF_Energy>  (2820) 
1.38

>  <QM_Energy>  (2820) 
-4.97

>  <source>  (2820) 
ACET_MBZ_03

>  <Index>  (2820) 
11062

$$$$
ACEH-pdb4e2q-I-GLH-123:MBZ-pdb4e2q-I-PHE-218
     RDKit          3D

 22 21  0  0  0  0  0  0  0  0999 V2000
    4.5341   -1.9862   -0.6540 C   0  0  0  0  0  0  0  0  0  0  0  0
    5.1267   -1.7503   -1.3976 H   0  0  0  0  0  0  0  0  0  0  0  0
    3.6395   -2.2528   -0.9516 H   0  0  0  0  0  0  0  0  0  0  0  0
    4.9796   -2.8200   -0.1116 H   0  0  0  0  0  0  0  0  0  0  0  0
    4.3732   -0.7409    0.2174 C   0  0  0  0  0  0  0  0  0  0  0  0
    3.9083   -0.8656    1.3686 O   0  0  0  0  0  0  0  0  0  0  0  0
    4.7039    0.3699   -0.2470 O   0  0  0  0  0  0  0  0  0  0  0  0
   -0.0018    2.9079   -0.0209 C   0  0  0  0  0  0  0  0  0  0  0  0
   -0.7071    3.2042   -0.6490 H   0  0  0  0  0  0  0  0  0  0  0  0
    0.8918    3.2121   -0.3192 H   0  0  0  0  0  0  0  0  0  0  0  0
   -0.2030    3.3747    0.9433 H   0  0  0  0  0  0  0  0  0  0  0  0
    0.0012    1.3987    0.0000 C   0  0  0  0  0  0  0  0  0  0  0  0
   -1.1946    0.6856    0.0012 C   0  0  0  0  0  0  0  0  0  0  0  0
   -2.0625    1.1776    0.0023 H   0  0  0  0  0  0  0  0  0  0  0  0
   -1.2002   -0.7022    0.0000 C   0  0  0  0  0  0  0  0  0  0  0  0
   -2.0773   -1.1951    0.0013 H   0  0  0  0  0  0  0  0  0  0  0  0
   -0.0025   -1.3921   -0.0013 C   0  0  0  0  0  0  0  0  0  0  0  0
    0.0035   -2.3903   -0.0037 H   0  0  0  0  0  0  0  0  0  0  0  0
    1.2002   -0.6870   -0.0000 C   0  0  0  0  0  0  0  0  0  0  0  0
    2.0817   -1.1891    0.0017 H   0  0  0  0  0  0  0  0  0  0  0  0
    1.1959    0.6970    0.0001 C   0  0  0  0  0  0  0  0  0  0  0  0
    2.0630    1.1958   -0.0004 H   0  0  0  0  0  0  0  0  0  0  0  0
  1  5  1  0
  5  6  2  0
  5  7  1  0
  1  2  1  0
  1  3  1  0
  1  4  1  0
  8 12  1  0
 12 13  2  0
 13 15  1  0
 15 17  2  0
 17 19  1  0
 19 21  2  0
 21 12  1  0
  8  9  1  0
  8 10  1  0
  8 11  1  0
 13 14  1  0
 15 16  1  0
 17 18  1  0
 19 20  1  0
 21 22  1  0
M  CHG  1   7  -1
V    7 [O&-]
M  END
>  <PDB_ID>  (2821) 
pdb4e2q

>  <RESIDUE_NAME>  (2821) 
GLU   PHE

>  <FRAG_NAME>  (2821) 
ACET   MBZ

>  <FRAG_ATOM_NUM>  (2821) 
fragi: 7 fragj: 15

>  <atom.prop.CHAIN_ID>  (2821) 
A A A A A A A Z Z Z Z Z Z Z Z Z Z Z Z Z Z Z

>  <atom.prop.IS_HEAVY_ATOM>  (2821) 
1 0 0 0 1 1 1 1 0 0 0 1 1 0 1 0 1 0 1 0 1 0

>  <DIFUSE_FUNC_ATOM>  (2821) 
n/a

>  <FINAL_SINGLE_POINT_ENERGY>  (2821) 
0

>  <NONCOV_INTER_ENERGY_QM>  (2821) 
0

>  <FF_Energy>  (2821) 
2.56

>  <QM_Energy>  (2821) 
-5.16

>  <source>  (2821) 
ACET_MBZ_03

>  <Index>  (2821) 
11064

$$$$
ACEH-pdb4e2q-M-GLH-123:MBZ-pdb4e2q-M-PHE-218
     RDKit          3D

 22 21  0  0  0  0  0  0  0  0999 V2000
    4.5134   -2.1468    0.4847 C   0  0  0  0  0  0  0  0  0  0  0  0
    5.2552   -1.9174   -0.1272 H   0  0  0  0  0  0  0  0  0  0  0  0
    3.7094   -2.4308   -0.0166 H   0  0  0  0  0  0  0  0  0  0  0  0
    4.8362   -2.9787    1.1107 H   0  0  0  0  0  0  0  0  0  0  0  0
    4.1587   -0.9147    1.2605 C   0  0  0  0  0  0  0  0  0  0  0  0
    3.4306   -1.0349    2.2736 O   0  0  0  0  0  0  0  0  0  0  0  0
    4.5965    0.1798    0.8414 O   0  0  0  0  0  0  0  0  0  0  0  0
    0.0035    2.9124   -0.0295 C   0  0  0  0  0  0  0  0  0  0  0  0
   -0.5968    3.2079   -0.7601 H   0  0  0  0  0  0  0  0  0  0  0  0
    0.9338    3.2153   -0.1895 H   0  0  0  0  0  0  0  0  0  0  0  0
   -0.3421    3.3825    0.8912 H   0  0  0  0  0  0  0  0  0  0  0  0
   -0.0003    1.4111   -0.0005 C   0  0  0  0  0  0  0  0  0  0  0  0
   -1.1975    0.6996   -0.0004 C   0  0  0  0  0  0  0  0  0  0  0  0
   -2.0657    1.1849   -0.0021 H   0  0  0  0  0  0  0  0  0  0  0  0
   -1.2013   -0.7003   -0.0000 C   0  0  0  0  0  0  0  0  0  0  0  0
   -2.0811   -1.1886    0.0016 H   0  0  0  0  0  0  0  0  0  0  0  0
   -0.0031   -1.4024   -0.0003 C   0  0  0  0  0  0  0  0  0  0  0  0
   -0.0093   -2.3993   -0.0015 H   0  0  0  0  0  0  0  0  0  0  0  0
    1.2013   -0.7066   -0.0000 C   0  0  0  0  0  0  0  0  0  0  0  0
    2.0825   -1.2000    0.0011 H   0  0  0  0  0  0  0  0  0  0  0  0
    1.2009    0.6987    0.0012 C   0  0  0  0  0  0  0  0  0  0  0  0
    2.0683    1.1883    0.0024 H   0  0  0  0  0  0  0  0  0  0  0  0
  1  5  1  0
  5  6  2  0
  5  7  1  0
  1  2  1  0
  1  3  1  0
  1  4  1  0
  8 12  1  0
 12 13  2  0
 13 15  1  0
 15 17  2  0
 17 19  1  0
 19 21  2  0
 21 12  1  0
  8  9  1  0
  8 10  1  0
  8 11  1  0
 13 14  1  0
 15 16  1  0
 17 18  1  0
 19 20  1  0
 21 22  1  0
M  CHG  1   7  -1
V    7 [O&-]
M  END
>  <PDB_ID>  (2822) 
pdb4e2q

>  <RESIDUE_NAME>  (2822) 
GLU   PHE

>  <FRAG_NAME>  (2822) 
ACET   MBZ

>  <FRAG_ATOM_NUM>  (2822) 
fragi: 7 fragj: 15

>  <atom.prop.CHAIN_ID>  (2822) 
A A A A A A A Z Z Z Z Z Z Z Z Z Z Z Z Z Z Z

>  <atom.prop.IS_HEAVY_ATOM>  (2822) 
1 0 0 0 1 1 1 1 0 0 0 1 1 0 1 0 1 0 1 0 1 0

>  <DIFUSE_FUNC_ATOM>  (2822) 
n/a

>  <FINAL_SINGLE_POINT_ENERGY>  (2822) 
0

>  <NONCOV_INTER_ENERGY_QM>  (2822) 
0

>  <FF_Energy>  (2822) 
1.31

>  <QM_Energy>  (2822) 
-4.27

>  <source>  (2822) 
ACET_MBZ_03

>  <Index>  (2822) 
11068

$$$$
ACEH-pdb4e2q-O-GLH-123:MBZ-pdb4e2q-O-PHE-218
     RDKit          3D

 22 21  0  0  0  0  0  0  0  0999 V2000
    4.3545   -1.8451   -1.1747 C   0  0  0  0  0  0  0  0  0  0  0  0
    4.8251   -1.5438   -1.9796 H   0  0  0  0  0  0  0  0  0  0  0  0
    3.4257   -2.1034   -1.3527 H   0  0  0  0  0  0  0  0  0  0  0  0
    4.8816   -2.7104   -0.7726 H   0  0  0  0  0  0  0  0  0  0  0  0
    4.3165   -0.6559   -0.1972 C   0  0  0  0  0  0  0  0  0  0  0  0
    4.6612    0.4708   -0.6249 O   0  0  0  0  0  0  0  0  0  0  0  0
    3.9352   -0.8303    0.9919 O   0  0  0  0  0  0  0  0  0  0  0  0
   -0.0015    2.9114    0.0168 C   0  0  0  0  0  0  0  0  0  0  0  0
   -0.7733    3.2242   -0.5180 H   0  0  0  0  0  0  0  0  0  0  0  0
    0.8530    3.2249   -0.3719 H   0  0  0  0  0  0  0  0  0  0  0  0
   -0.0903    3.3492    1.0110 H   0  0  0  0  0  0  0  0  0  0  0  0
   -0.0000    1.4075    0.0006 C   0  0  0  0  0  0  0  0  0  0  0  0
   -1.1986    0.6982   -0.0007 C   0  0  0  0  0  0  0  0  0  0  0  0
   -2.0657    1.1868   -0.0031 H   0  0  0  0  0  0  0  0  0  0  0  0
   -1.2065   -0.7003    0.0000 C   0  0  0  0  0  0  0  0  0  0  0  0
   -2.0843   -1.1892    0.0013 H   0  0  0  0  0  0  0  0  0  0  0  0
   -0.0048   -1.4013    0.0013 C   0  0  0  0  0  0  0  0  0  0  0  0
   -0.0063   -2.3962    0.0025 H   0  0  0  0  0  0  0  0  0  0  0  0
    1.2065   -0.7000   -0.0000 C   0  0  0  0  0  0  0  0  0  0  0  0
    2.0834   -1.1996    0.0015 H   0  0  0  0  0  0  0  0  0  0  0  0
    1.2035    0.6959   -0.0012 C   0  0  0  0  0  0  0  0  0  0  0  0
    2.0689    1.1914   -0.0043 H   0  0  0  0  0  0  0  0  0  0  0  0
  1  5  1  0
  5  6  2  0
  5  7  1  0
  1  2  1  0
  1  3  1  0
  1  4  1  0
  8 12  1  0
 12 13  2  0
 13 15  1  0
 15 17  2  0
 17 19  1  0
 19 21  2  0
 21 12  1  0
  8  9  1  0
  8 10  1  0
  8 11  1  0
 13 14  1  0
 15 16  1  0
 17 18  1  0
 19 20  1  0
 21 22  1  0
M  CHG  1   7  -1
V    7 [O&-]
M  END
>  <PDB_ID>  (2823) 
pdb4e2q

>  <RESIDUE_NAME>  (2823) 
GLU   PHE

>  <FRAG_NAME>  (2823) 
ACET   MBZ

>  <FRAG_ATOM_NUM>  (2823) 
fragi: 7 fragj: 15

>  <atom.prop.CHAIN_ID>  (2823) 
A A A A A A A Z Z Z Z Z Z Z Z Z Z Z Z Z Z Z

>  <atom.prop.IS_HEAVY_ATOM>  (2823) 
1 0 0 0 1 1 1 1 0 0 0 1 1 0 1 0 1 0 1 0 1 0

>  <DIFUSE_FUNC_ATOM>  (2823) 
n/a

>  <FINAL_SINGLE_POINT_ENERGY>  (2823) 
0

>  <NONCOV_INTER_ENERGY_QM>  (2823) 
0

>  <FF_Energy>  (2823) 
6.11

>  <QM_Energy>  (2823) 
-4.79

>  <source>  (2823) 
ACET_MBZ_03

>  <Index>  (2823) 
11070

$$$$
ACEH-pdb6f9o-A-GLH-55:MBZ-pdb6f9o-A-PHE-212
     RDKit          3D

 22 21  0  0  0  0  0  0  0  0999 V2000
    2.9544    3.7783    2.7611 C   0  0  0  0  0  0  0  0  0  0  0  0
    2.1349    4.2945    3.0110 H   0  0  0  0  0  0  0  0  0  0  0  0
    3.7354    4.1192    3.2852 H   0  0  0  0  0  0  0  0  0  0  0  0
    2.7917    2.7360    3.0350 H   0  0  0  0  0  0  0  0  0  0  0  0
    3.2334    4.0481    1.3107 C   0  0  0  0  0  0  0  0  0  0  0  0
    3.5404    3.1662    0.5023 O   0  0  0  0  0  0  0  0  0  0  0  0
    3.1056    5.2890    0.9557 O   0  0  0  0  0  0  0  0  0  0  0  0
    0.0748    2.9063   -0.0014 C   0  0  0  0  0  0  0  0  0  0  0  0
    0.8983    3.1891   -0.4707 H   0  0  0  0  0  0  0  0  0  0  0  0
    0.0745    3.2141    0.9390 H   0  0  0  0  0  0  0  0  0  0  0  0
   -0.7610    3.3992   -0.4981 H   0  0  0  0  0  0  0  0  0  0  0  0
    0.0151    1.4028   -0.0096 C   0  0  0  0  0  0  0  0  0  0  0  0
   -1.1859    0.6970    0.0267 C   0  0  0  0  0  0  0  0  0  0  0  0
   -2.0479    1.1871    0.0705 H   0  0  0  0  0  0  0  0  0  0  0  0
   -1.1873   -0.6936    0.0000 C   0  0  0  0  0  0  0  0  0  0  0  0
   -2.0793   -1.1769    0.0030 H   0  0  0  0  0  0  0  0  0  0  0  0
   -0.0170   -1.3811   -0.0273 C   0  0  0  0  0  0  0  0  0  0  0  0
   -0.0168   -2.3866   -0.0677 H   0  0  0  0  0  0  0  0  0  0  0  0
    1.1873   -0.7000   -0.0000 C   0  0  0  0  0  0  0  0  0  0  0  0
    2.0629   -1.2087    0.0135 H   0  0  0  0  0  0  0  0  0  0  0  0
    1.1878    0.6748    0.0103 C   0  0  0  0  0  0  0  0  0  0  0  0
    2.0702    1.1679    0.0323 H   0  0  0  0  0  0  0  0  0  0  0  0
  1  5  1  0
  5  6  2  0
  5  7  1  0
  1  2  1  0
  1  3  1  0
  1  4  1  0
  8 12  1  0
 12 13  2  0
 13 15  1  0
 15 17  2  0
 17 19  1  0
 19 21  2  0
 21 12  1  0
  8  9  1  0
  8 10  1  0
  8 11  1  0
 13 14  1  0
 15 16  1  0
 17 18  1  0
 19 20  1  0
 21 22  1  0
M  CHG  1   7  -1
V    7 [O&-]
M  END
>  <PDB_ID>  (2824) 
pdb6f9o

>  <RESIDUE_NAME>  (2824) 
GLU   PHE

>  <FRAG_NAME>  (2824) 
ACET   MBZ

>  <FRAG_ATOM_NUM>  (2824) 
fragi: 7 fragj: 15

>  <atom.prop.CHAIN_ID>  (2824) 
A A A A A A A Z Z Z Z Z Z Z Z Z Z Z Z Z Z Z

>  <atom.prop.IS_HEAVY_ATOM>  (2824) 
1 0 0 0 1 1 1 1 0 0 0 1 1 0 1 0 1 0 1 0 1 0

>  <DIFUSE_FUNC_ATOM>  (2824) 
n/a

>  <FINAL_SINGLE_POINT_ENERGY>  (2824) 
0

>  <NONCOV_INTER_ENERGY_QM>  (2824) 
0

>  <FF_Energy>  (2824) 
-2.86

>  <QM_Energy>  (2824) 
-7.95

>  <source>  (2824) 
ACET_MBZ_03

>  <Index>  (2824) 
11098

$$$$
ACEH-pdb2egi-I-GLH-30:MBZ-pdb2egi-D-PHE-11
     RDKit          3D

 22 21  0  0  0  0  0  0  0  0999 V2000
    2.9540    5.2273   -2.7259 C   0  0  0  0  0  0  0  0  0  0  0  0
    2.1890    5.8242   -2.5991 H   0  0  0  0  0  0  0  0  0  0  0  0
    2.8321    4.6011   -3.4678 H   0  0  0  0  0  0  0  0  0  0  0  0
    3.8260    5.8434   -2.9456 H   0  0  0  0  0  0  0  0  0  0  0  0
    3.1244    4.4106   -1.4509 C   0  0  0  0  0  0  0  0  0  0  0  0
    3.9165    3.4449   -1.4731 O   0  0  0  0  0  0  0  0  0  0  0  0
    2.4782    4.7438   -0.4299 O   0  0  0  0  0  0  0  0  0  0  0  0
   -0.0026    2.8982    0.1049 C   0  0  0  0  0  0  0  0  0  0  0  0
   -0.7257    3.2477   -0.4682 H   0  0  0  0  0  0  0  0  0  0  0  0
    0.8816    3.2288   -0.1811 H   0  0  0  0  0  0  0  0  0  0  0  0
   -0.1792    3.2614    1.1174 H   0  0  0  0  0  0  0  0  0  0  0  0
   -0.0013    1.4021    0.0015 C   0  0  0  0  0  0  0  0  0  0  0  0
   -1.1962    0.6967   -0.0024 C   0  0  0  0  0  0  0  0  0  0  0  0
   -2.0636    1.1833   -0.0081 H   0  0  0  0  0  0  0  0  0  0  0  0
   -1.1995   -0.6987   -0.0000 C   0  0  0  0  0  0  0  0  0  0  0  0
   -2.0769   -1.1908    0.0002 H   0  0  0  0  0  0  0  0  0  0  0  0
    0.0014   -1.3951    0.0035 C   0  0  0  0  0  0  0  0  0  0  0  0
   -0.0025   -2.3935    0.0080 H   0  0  0  0  0  0  0  0  0  0  0  0
    1.1995   -0.6985    0.0000 C   0  0  0  0  0  0  0  0  0  0  0  0
    2.0821   -1.1949    0.0005 H   0  0  0  0  0  0  0  0  0  0  0  0
    1.1961    0.6935   -0.0026 C   0  0  0  0  0  0  0  0  0  0  0  0
    2.0641    1.1895   -0.0085 H   0  0  0  0  0  0  0  0  0  0  0  0
  1  5  1  0
  5  6  2  0
  5  7  1  0
  1  2  1  0
  1  3  1  0
  1  4  1  0
  8 12  1  0
 12 13  2  0
 13 15  1  0
 15 17  2  0
 17 19  1  0
 19 21  2  0
 21 12  1  0
  8  9  1  0
  8 10  1  0
  8 11  1  0
 13 14  1  0
 15 16  1  0
 17 18  1  0
 19 20  1  0
 21 22  1  0
M  CHG  1   7  -1
V    7 [O&-]
M  END
>  <PDB_ID>  (2825) 
pdb2egi

>  <RESIDUE_NAME>  (2825) 
GLU   PHE

>  <FRAG_NAME>  (2825) 
ACET   MBZ

>  <FRAG_ATOM_NUM>  (2825) 
fragi: 7 fragj: 15

>  <atom.prop.CHAIN_ID>  (2825) 
A A A A A A A Z Z Z Z Z Z Z Z Z Z Z Z Z Z Z

>  <atom.prop.IS_HEAVY_ATOM>  (2825) 
1 0 0 0 1 1 1 1 0 0 0 1 1 0 1 0 1 0 1 0 1 0

>  <DIFUSE_FUNC_ATOM>  (2825) 
n/a

>  <FINAL_SINGLE_POINT_ENERGY>  (2825) 
0

>  <NONCOV_INTER_ENERGY_QM>  (2825) 
0

>  <FF_Energy>  (2825) 
-0.6

>  <QM_Energy>  (2825) 
-6.89

>  <source>  (2825) 
ACET_MBZ_03

>  <Index>  (2825) 
11129

$$$$
ACEH-pdb3dli-A-ASH-288:MBZ-pdb3dli-A-PHE-296
     RDKit          3D

 22 21  0  0  0  0  0  0  0  0999 V2000
    4.8071    1.9267   -1.1592 C   0  0  0  0  0  0  0  0  0  0  0  0
    4.5977    1.3226   -0.4008 H   0  0  0  0  0  0  0  0  0  0  0  0
    5.5012    2.5859   -0.9039 H   0  0  0  0  0  0  0  0  0  0  0  0
    5.2024    1.3193   -1.9735 H   0  0  0  0  0  0  0  0  0  0  0  0
    3.5394    2.6768   -1.5504 C   0  0  0  0  0  0  0  0  0  0  0  0
    3.0308    3.4865   -0.7414 O   0  0  0  0  0  0  0  0  0  0  0  0
    3.0426    2.4491   -2.6774 O   0  0  0  0  0  0  0  0  0  0  0  0
    0.0010    2.9133   -0.0296 C   0  0  0  0  0  0  0  0  0  0  0  0
   -0.5628    3.2078   -0.7889 H   0  0  0  0  0  0  0  0  0  0  0  0
    0.9372    3.2155   -0.1421 H   0  0  0  0  0  0  0  0  0  0  0  0
   -0.3908    3.3773    0.8755 H   0  0  0  0  0  0  0  0  0  0  0  0
   -0.0007    1.4059   -0.0073 C   0  0  0  0  0  0  0  0  0  0  0  0
   -1.1971    0.6964    0.0008 C   0  0  0  0  0  0  0  0  0  0  0  0
   -2.0645    1.1858    0.0063 H   0  0  0  0  0  0  0  0  0  0  0  0
   -1.2009   -0.6949    0.0000 C   0  0  0  0  0  0  0  0  0  0  0  0
   -2.0771   -1.1891   -0.0031 H   0  0  0  0  0  0  0  0  0  0  0  0
    0.0021   -1.3960    0.0053 C   0  0  0  0  0  0  0  0  0  0  0  0
   -0.0081   -2.3949    0.0128 H   0  0  0  0  0  0  0  0  0  0  0  0
    1.2009   -0.7044    0.0000 C   0  0  0  0  0  0  0  0  0  0  0  0
    2.0829   -1.1977   -0.0037 H   0  0  0  0  0  0  0  0  0  0  0  0
    1.1958    0.6930    0.0013 C   0  0  0  0  0  0  0  0  0  0  0  0
    2.0656    1.1870    0.0076 H   0  0  0  0  0  0  0  0  0  0  0  0
  1  5  1  0
  5  6  2  0
  5  7  1  0
  1  2  1  0
  1  3  1  0
  1  4  1  0
  8 12  1  0
 12 13  2  0
 13 15  1  0
 15 17  2  0
 17 19  1  0
 19 21  2  0
 21 12  1  0
  8  9  1  0
  8 10  1  0
  8 11  1  0
 13 14  1  0
 15 16  1  0
 17 18  1  0
 19 20  1  0
 21 22  1  0
M  CHG  1   7  -1
V    7 [O&-]
M  END
>  <PDB_ID>  (2826) 
pdb3dli

>  <RESIDUE_NAME>  (2826) 
ASP   PHE

>  <FRAG_NAME>  (2826) 
ACET   MBZ

>  <FRAG_ATOM_NUM>  (2826) 
fragi: 7 fragj: 15

>  <atom.prop.CHAIN_ID>  (2826) 
A A A A A A A Z Z Z Z Z Z Z Z Z Z Z Z Z Z Z

>  <atom.prop.IS_HEAVY_ATOM>  (2826) 
1 0 0 0 1 1 1 1 0 0 0 1 1 0 1 0 1 0 1 0 1 0

>  <DIFUSE_FUNC_ATOM>  (2826) 
n/a

>  <FINAL_SINGLE_POINT_ENERGY>  (2826) 
0

>  <NONCOV_INTER_ENERGY_QM>  (2826) 
0

>  <FF_Energy>  (2826) 
0.73

>  <QM_Energy>  (2826) 
-7.35

>  <source>  (2826) 
ACET_MBZ_03

>  <Index>  (2826) 
11166

$$$$
ACEH-pdb2ek8-A-ASH-347:MBZ-pdb2ek8-A-PHE-269
     RDKit          3D

 22 21  0  0  0  0  0  0  0  0999 V2000
    3.0106    0.4371    3.1557 C   0  0  0  0  0  0  0  0  0  0  0  0
    3.7390    0.1398    2.5529 H   0  0  0  0  0  0  0  0  0  0  0  0
    2.1927   -0.1024    3.0143 H   0  0  0  0  0  0  0  0  0  0  0  0
    3.3406    0.2902    4.1842 H   0  0  0  0  0  0  0  0  0  0  0  0
    2.6958    1.8904    2.8609 C   0  0  0  0  0  0  0  0  0  0  0  0
    3.2769    2.4482    1.9132 O   0  0  0  0  0  0  0  0  0  0  0  0
    1.8673    2.4764    3.5886 O   0  0  0  0  0  0  0  0  0  0  0  0
    0.0022    2.8997   -0.0101 C   0  0  0  0  0  0  0  0  0  0  0  0
    0.9235    3.2102    0.1800 H   0  0  0  0  0  0  0  0  0  0  0  0
   -0.6297    3.2152    0.6851 H   0  0  0  0  0  0  0  0  0  0  0  0
   -0.3052    3.3389   -0.9591 H   0  0  0  0  0  0  0  0  0  0  0  0
    0.0009    1.4041    0.0006 C   0  0  0  0  0  0  0  0  0  0  0  0
   -1.1984    0.6956   -0.0004 C   0  0  0  0  0  0  0  0  0  0  0  0
   -2.0638    1.1869   -0.0029 H   0  0  0  0  0  0  0  0  0  0  0  0
   -1.2031   -0.6946    0.0000 C   0  0  0  0  0  0  0  0  0  0  0  0
   -2.0804   -1.1881    0.0023 H   0  0  0  0  0  0  0  0  0  0  0  0
   -0.0020   -1.3957   -0.0008 C   0  0  0  0  0  0  0  0  0  0  0  0
   -0.0103   -2.3947   -0.0021 H   0  0  0  0  0  0  0  0  0  0  0  0
    1.2031   -0.7045   -0.0000 C   0  0  0  0  0  0  0  0  0  0  0  0
    2.0819   -1.1999    0.0020 H   0  0  0  0  0  0  0  0  0  0  0  0
    1.1995    0.6951    0.0007 C   0  0  0  0  0  0  0  0  0  0  0  0
    2.0672    1.1874    0.0000 H   0  0  0  0  0  0  0  0  0  0  0  0
  1  5  1  0
  5  6  2  0
  5  7  1  0
  1  2  1  0
  1  3  1  0
  1  4  1  0
  8 12  1  0
 12 13  2  0
 13 15  1  0
 15 17  2  0
 17 19  1  0
 19 21  2  0
 21 12  1  0
  8  9  1  0
  8 10  1  0
  8 11  1  0
 13 14  1  0
 15 16  1  0
 17 18  1  0
 19 20  1  0
 21 22  1  0
M  CHG  1   7  -1
V    7 [O&-]
M  END
>  <PDB_ID>  (2827) 
pdb2ek8

>  <RESIDUE_NAME>  (2827) 
ASP   PHE

>  <FRAG_NAME>  (2827) 
ACET   MBZ

>  <FRAG_ATOM_NUM>  (2827) 
fragi: 7 fragj: 15

>  <atom.prop.CHAIN_ID>  (2827) 
A A A A A A A Z Z Z Z Z Z Z Z Z Z Z Z Z Z Z

>  <atom.prop.IS_HEAVY_ATOM>  (2827) 
1 0 0 0 1 1 1 1 0 0 0 1 1 0 1 0 1 0 1 0 1 0

>  <DIFUSE_FUNC_ATOM>  (2827) 
n/a

>  <FINAL_SINGLE_POINT_ENERGY>  (2827) 
0

>  <NONCOV_INTER_ENERGY_QM>  (2827) 
0

>  <FF_Energy>  (2827) 
-1.37

>  <QM_Energy>  (2827) 
-6.61

>  <source>  (2827) 
ACET_MBZ_03

>  <Index>  (2827) 
11174

$$$$
ACEH-pdb1e0t-A-GLH-222:MBZ-pdb1e0t-A-PHE-193
     RDKit          3D

 22 21  0  0  0  0  0  0  0  0999 V2000
   -4.8179    3.1218    1.9396 C   0  0  0  0  0  0  0  0  0  0  0  0
   -5.7780    3.3465    1.8631 H   0  0  0  0  0  0  0  0  0  0  0  0
   -4.4148    3.5441    2.7381 H   0  0  0  0  0  0  0  0  0  0  0  0
   -4.7094    2.0397    2.0130 H   0  0  0  0  0  0  0  0  0  0  0  0
   -4.1246    3.7306    0.7232 C   0  0  0  0  0  0  0  0  0  0  0  0
   -3.1793    3.1136    0.1743 O   0  0  0  0  0  0  0  0  0  0  0  0
   -4.4618    4.8624    0.2630 O   0  0  0  0  0  0  0  0  0  0  0  0
   -0.0560    2.9018   -0.1013 C   0  0  0  0  0  0  0  0  0  0  0  0
   -0.7140    3.1736   -0.7806 H   0  0  0  0  0  0  0  0  0  0  0  0
    0.8469    3.2362   -0.3043 H   0  0  0  0  0  0  0  0  0  0  0  0
   -0.3626    3.3464    0.8455 H   0  0  0  0  0  0  0  0  0  0  0  0
   -0.0139    1.4168   -0.0433 C   0  0  0  0  0  0  0  0  0  0  0  0
   -1.1877    0.6768   -0.0192 C   0  0  0  0  0  0  0  0  0  0  0  0
   -2.0746    1.1553   -0.0167 H   0  0  0  0  0  0  0  0  0  0  0  0
   -1.2041   -0.7324    0.0000 C   0  0  0  0  0  0  0  0  0  0  0  0
   -2.0630   -1.2186   -0.0558 H   0  0  0  0  0  0  0  0  0  0  0  0
    0.0117   -1.3936    0.1012 C   0  0  0  0  0  0  0  0  0  0  0  0
    0.0262   -2.3857    0.2481 H   0  0  0  0  0  0  0  0  0  0  0  0
    1.2041   -0.6885   -0.0000 C   0  0  0  0  0  0  0  0  0  0  0  0
    2.0897   -1.1711   -0.0454 H   0  0  0  0  0  0  0  0  0  0  0  0
    1.1899    0.7209   -0.0387 C   0  0  0  0  0  0  0  0  0  0  0  0
    2.0541    1.2138   -0.0632 H   0  0  0  0  0  0  0  0  0  0  0  0
  1  5  1  0
  5  6  2  0
  5  7  1  0
  1  2  1  0
  1  3  1  0
  1  4  1  0
  8 12  1  0
 12 13  2  0
 13 15  1  0
 15 17  2  0
 17 19  1  0
 19 21  2  0
 21 12  1  0
  8  9  1  0
  8 10  1  0
  8 11  1  0
 13 14  1  0
 15 16  1  0
 17 18  1  0
 19 20  1  0
 21 22  1  0
M  CHG  1   7  -1
V    7 [O&-]
M  END
>  <PDB_ID>  (2828) 
pdb1e0t

>  <RESIDUE_NAME>  (2828) 
GLU   PHE

>  <FRAG_NAME>  (2828) 
ACET   MBZ

>  <FRAG_ATOM_NUM>  (2828) 
fragi: 7 fragj: 15

>  <atom.prop.CHAIN_ID>  (2828) 
A A A A A A A Z Z Z Z Z Z Z Z Z Z Z Z Z Z Z

>  <atom.prop.IS_HEAVY_ATOM>  (2828) 
1 0 0 0 1 1 1 1 0 0 0 1 1 0 1 0 1 0 1 0 1 0

>  <DIFUSE_FUNC_ATOM>  (2828) 
n/a

>  <FINAL_SINGLE_POINT_ENERGY>  (2828) 
0

>  <NONCOV_INTER_ENERGY_QM>  (2828) 
0

>  <FF_Energy>  (2828) 
-0.74

>  <QM_Energy>  (2828) 
-8.06

>  <source>  (2828) 
ACET_MBZ_03

>  <Index>  (2828) 
11189

$$$$
ACEH-pdb1e0t-B-GLH-222:MBZ-pdb1e0t-B-PHE-193
     RDKit          3D

 22 21  0  0  0  0  0  0  0  0999 V2000
   -5.0901    3.2163    0.7362 C   0  0  0  0  0  0  0  0  0  0  0  0
   -6.0399    3.1943    0.4272 H   0  0  0  0  0  0  0  0  0  0  0  0
   -4.9934    3.8893    1.4690 H   0  0  0  0  0  0  0  0  0  0  0  0
   -4.8481    2.2355    1.1454 H   0  0  0  0  0  0  0  0  0  0  0  0
   -4.2472    3.6972   -0.4296 C   0  0  0  0  0  0  0  0  0  0  0  0
   -4.7025    4.4857   -1.2924 O   0  0  0  0  0  0  0  0  0  0  0  0
   -3.0802    3.2815   -0.5309 O   0  0  0  0  0  0  0  0  0  0  0  0
   -0.0313    2.9457   -0.0558 C   0  0  0  0  0  0  0  0  0  0  0  0
   -0.5005    3.2042   -0.8993 H   0  0  0  0  0  0  0  0  0  0  0  0
    0.9181    3.2560   -0.0914 H   0  0  0  0  0  0  0  0  0  0  0  0
   -0.5174    3.4752    0.7637 H   0  0  0  0  0  0  0  0  0  0  0  0
   -0.0095    1.4139    0.0041 C   0  0  0  0  0  0  0  0  0  0  0  0
   -1.1919    0.6611   -0.0146 C   0  0  0  0  0  0  0  0  0  0  0  0
   -2.0744    1.1495   -0.0411 H   0  0  0  0  0  0  0  0  0  0  0  0
   -1.2043   -0.7320    0.0000 C   0  0  0  0  0  0  0  0  0  0  0  0
   -2.0653   -1.2245   -0.0073 H   0  0  0  0  0  0  0  0  0  0  0  0
    0.0066   -1.3754    0.0262 C   0  0  0  0  0  0  0  0  0  0  0  0
    0.0325   -2.3877    0.0655 H   0  0  0  0  0  0  0  0  0  0  0  0
    1.2043   -0.6721    0.0000 C   0  0  0  0  0  0  0  0  0  0  0  0
    2.0866   -1.1730   -0.0057 H   0  0  0  0  0  0  0  0  0  0  0  0
    1.1948    0.7045   -0.0158 C   0  0  0  0  0  0  0  0  0  0  0  0
    2.0577    1.2127   -0.0429 H   0  0  0  0  0  0  0  0  0  0  0  0
  1  5  1  0
  5  6  2  0
  5  7  1  0
  1  2  1  0
  1  3  1  0
  1  4  1  0
  8 12  1  0
 12 13  2  0
 13 15  1  0
 15 17  2  0
 17 19  1  0
 19 21  2  0
 21 12  1  0
  8  9  1  0
  8 10  1  0
  8 11  1  0
 13 14  1  0
 15 16  1  0
 17 18  1  0
 19 20  1  0
 21 22  1  0
M  CHG  1   7  -1
V    7 [O&-]
M  END
>  <PDB_ID>  (2829) 
pdb1e0t

>  <RESIDUE_NAME>  (2829) 
GLU   PHE

>  <FRAG_NAME>  (2829) 
ACET   MBZ

>  <FRAG_ATOM_NUM>  (2829) 
fragi: 7 fragj: 15

>  <atom.prop.CHAIN_ID>  (2829) 
A A A A A A A Z Z Z Z Z Z Z Z Z Z Z Z Z Z Z

>  <atom.prop.IS_HEAVY_ATOM>  (2829) 
1 0 0 0 1 1 1 1 0 0 0 1 1 0 1 0 1 0 1 0 1 0

>  <DIFUSE_FUNC_ATOM>  (2829) 
n/a

>  <FINAL_SINGLE_POINT_ENERGY>  (2829) 
0

>  <NONCOV_INTER_ENERGY_QM>  (2829) 
0

>  <FF_Energy>  (2829) 
-1.2

>  <QM_Energy>  (2829) 
-7.58

>  <source>  (2829) 
ACET_MBZ_03

>  <Index>  (2829) 
11190

$$$$
ACEH-pdb1e0t-D-GLH-222:MBZ-pdb1e0t-D-PHE-193
     RDKit          3D

 22 21  0  0  0  0  0  0  0  0999 V2000
   -4.9158    3.1298    1.4444 C   0  0  0  0  0  0  0  0  0  0  0  0
   -5.8839    3.2444    1.2040 H   0  0  0  0  0  0  0  0  0  0  0  0
   -4.7132    3.6958    2.2483 H   0  0  0  0  0  0  0  0  0  0  0  0
   -4.7746    2.0885    1.7341 H   0  0  0  0  0  0  0  0  0  0  0  0
   -4.0955    3.6536    0.2995 C   0  0  0  0  0  0  0  0  0  0  0  0
   -4.1146    4.8584    0.0363 O   0  0  0  0  0  0  0  0  0  0  0  0
   -3.3850    2.8765   -0.3389 O   0  0  0  0  0  0  0  0  0  0  0  0
   -0.0241    2.9179   -0.0027 C   0  0  0  0  0  0  0  0  0  0  0  0
   -0.5494    3.2011   -0.7963 H   0  0  0  0  0  0  0  0  0  0  0  0
    0.9171    3.2268   -0.0777 H   0  0  0  0  0  0  0  0  0  0  0  0
   -0.4619    3.3984    0.8724 H   0  0  0  0  0  0  0  0  0  0  0  0
   -0.0104    1.4011    0.0247 C   0  0  0  0  0  0  0  0  0  0  0  0
   -1.2113    0.6714   -0.0255 C   0  0  0  0  0  0  0  0  0  0  0  0
   -2.0759    1.1600   -0.0813 H   0  0  0  0  0  0  0  0  0  0  0  0
   -1.2054   -0.7157   -0.0000 C   0  0  0  0  0  0  0  0  0  0  0  0
   -2.0600   -1.2260    0.0287 H   0  0  0  0  0  0  0  0  0  0  0  0
    0.0254   -1.3796   -0.0142 C   0  0  0  0  0  0  0  0  0  0  0  0
    0.0285   -2.3886   -0.0359 H   0  0  0  0  0  0  0  0  0  0  0  0
    1.2054   -0.6816   -0.0000 C   0  0  0  0  0  0  0  0  0  0  0  0
    2.0974   -1.1713    0.0015 H   0  0  0  0  0  0  0  0  0  0  0  0
    1.1964    0.7045    0.0150 C   0  0  0  0  0  0  0  0  0  0  0  0
    2.0567    1.2089    0.0182 H   0  0  0  0  0  0  0  0  0  0  0  0
  1  5  1  0
  5  6  2  0
  5  7  1  0
  1  2  1  0
  1  3  1  0
  1  4  1  0
  8 12  1  0
 12 13  2  0
 13 15  1  0
 15 17  2  0
 17 19  1  0
 19 21  2  0
 21 12  1  0
  8  9  1  0
  8 10  1  0
  8 11  1  0
 13 14  1  0
 15 16  1  0
 17 18  1  0
 19 20  1  0
 21 22  1  0
M  CHG  1   7  -1
V    7 [O&-]
M  END
>  <PDB_ID>  (2830) 
pdb1e0t

>  <RESIDUE_NAME>  (2830) 
GLU   PHE

>  <FRAG_NAME>  (2830) 
ACET   MBZ

>  <FRAG_ATOM_NUM>  (2830) 
fragi: 7 fragj: 15

>  <atom.prop.CHAIN_ID>  (2830) 
A A A A A A A Z Z Z Z Z Z Z Z Z Z Z Z Z Z Z

>  <atom.prop.IS_HEAVY_ATOM>  (2830) 
1 0 0 0 1 1 1 1 0 0 0 1 1 0 1 0 1 0 1 0 1 0

>  <DIFUSE_FUNC_ATOM>  (2830) 
n/a

>  <FINAL_SINGLE_POINT_ENERGY>  (2830) 
0

>  <NONCOV_INTER_ENERGY_QM>  (2830) 
0

>  <FF_Energy>  (2830) 
-0.12

>  <QM_Energy>  (2830) 
-8.2

>  <source>  (2830) 
ACET_MBZ_03

>  <Index>  (2830) 
11192

$$$$
ACEH-pdb3dmy-B-GLH-524:MBZ-pdb3dmy-A-PHE-421
     RDKit          3D

 22 21  0  0  0  0  0  0  0  0999 V2000
    0.8646    2.0701   -3.3090 C   0  0  0  0  0  0  0  0  0  0  0  0
    0.2677    1.3644   -3.6214 H   0  0  0  0  0  0  0  0  0  0  0  0
    1.2097    1.9181   -2.4087 H   0  0  0  0  0  0  0  0  0  0  0  0
    1.7064    2.1432   -3.9976 H   0  0  0  0  0  0  0  0  0  0  0  0
    0.0639    3.3667   -3.2787 C   0  0  0  0  0  0  0  0  0  0  0  0
   -1.1499    3.3162   -3.5493 O   0  0  0  0  0  0  0  0  0  0  0  0
    0.6491    4.4370   -2.9911 O   0  0  0  0  0  0  0  0  0  0  0  0
    0.0029    2.9005   -0.0041 C   0  0  0  0  0  0  0  0  0  0  0  0
   -0.9363    3.2098   -0.0297 H   0  0  0  0  0  0  0  0  0  0  0  0
    0.5018    3.2066   -0.8014 H   0  0  0  0  0  0  0  0  0  0  0  0
    0.4747    3.3432    0.8731 H   0  0  0  0  0  0  0  0  0  0  0  0
    0.0018    1.4043    0.0001 C   0  0  0  0  0  0  0  0  0  0  0  0
   -1.1963    0.6970    0.0004 C   0  0  0  0  0  0  0  0  0  0  0  0
   -2.0629    1.1870   -0.0001 H   0  0  0  0  0  0  0  0  0  0  0  0
   -1.2044   -0.6984   -0.0000 C   0  0  0  0  0  0  0  0  0  0  0  0
   -2.0841   -1.1875    0.0014 H   0  0  0  0  0  0  0  0  0  0  0  0
   -0.0065   -1.3996   -0.0009 C   0  0  0  0  0  0  0  0  0  0  0  0
   -0.0085   -2.3959   -0.0026 H   0  0  0  0  0  0  0  0  0  0  0  0
    1.2044   -0.7001   -0.0000 C   0  0  0  0  0  0  0  0  0  0  0  0
    2.0819   -1.1985    0.0024 H   0  0  0  0  0  0  0  0  0  0  0  0
    1.2009    0.6969    0.0005 C   0  0  0  0  0  0  0  0  0  0  0  0
    2.0679    1.1907   -0.0001 H   0  0  0  0  0  0  0  0  0  0  0  0
  1  5  1  0
  5  6  2  0
  5  7  1  0
  1  2  1  0
  1  3  1  0
  1  4  1  0
  8 12  1  0
 12 13  2  0
 13 15  1  0
 15 17  2  0
 17 19  1  0
 19 21  2  0
 21 12  1  0
  8  9  1  0
  8 10  1  0
  8 11  1  0
 13 14  1  0
 15 16  1  0
 17 18  1  0
 19 20  1  0
 21 22  1  0
M  CHG  1   7  -1
V    7 [O&-]
M  END
>  <PDB_ID>  (2831) 
pdb3dmy

>  <RESIDUE_NAME>  (2831) 
GLU   PHE

>  <FRAG_NAME>  (2831) 
ACET   MBZ

>  <FRAG_ATOM_NUM>  (2831) 
fragi: 7 fragj: 15

>  <atom.prop.CHAIN_ID>  (2831) 
A A A A A A A Z Z Z Z Z Z Z Z Z Z Z Z Z Z Z

>  <atom.prop.IS_HEAVY_ATOM>  (2831) 
1 0 0 0 1 1 1 1 0 0 0 1 1 0 1 0 1 0 1 0 1 0

>  <DIFUSE_FUNC_ATOM>  (2831) 
n/a

>  <FINAL_SINGLE_POINT_ENERGY>  (2831) 
0

>  <NONCOV_INTER_ENERGY_QM>  (2831) 
0

>  <FF_Energy>  (2831) 
1.1

>  <QM_Energy>  (2831) 
-4.43

>  <source>  (2831) 
ACET_MBZ_03

>  <Index>  (2831) 
11205

$$$$
ACEH-pdb4edb-B-ASH-112:MBZ-pdb4edb-B-PHE-3
     RDKit          3D

 22 21  0  0  0  0  0  0  0  0999 V2000
   -4.2135    1.9826   -1.1294 C   0  0  0  0  0  0  0  0  0  0  0  0
   -5.1563    1.7170   -0.9625 H   0  0  0  0  0  0  0  0  0  0  0  0
   -3.5890    1.3078   -0.7544 H   0  0  0  0  0  0  0  0  0  0  0  0
   -4.0603    2.0237   -2.2078 H   0  0  0  0  0  0  0  0  0  0  0  0
   -3.9559    3.3168   -0.4482 C   0  0  0  0  0  0  0  0  0  0  0  0
   -3.0020    4.0239   -0.8418 O   0  0  0  0  0  0  0  0  0  0  0  0
   -4.7139    3.6570    0.4881 O   0  0  0  0  0  0  0  0  0  0  0  0
   -0.0045    2.9028   -0.0047 C   0  0  0  0  0  0  0  0  0  0  0  0
   -0.8293    3.2053   -0.4587 H   0  0  0  0  0  0  0  0  0  0  0  0
    0.8031    3.2093   -0.4876 H   0  0  0  0  0  0  0  0  0  0  0  0
    0.0120    3.3521    0.9883 H   0  0  0  0  0  0  0  0  0  0  0  0
   -0.0005    1.3983    0.0004 C   0  0  0  0  0  0  0  0  0  0  0  0
   -1.1958    0.6882    0.0001 C   0  0  0  0  0  0  0  0  0  0  0  0
   -2.0631    1.1816   -0.0013 H   0  0  0  0  0  0  0  0  0  0  0  0
   -1.2005   -0.6956   -0.0000 C   0  0  0  0  0  0  0  0  0  0  0  0
   -2.0767   -1.1924    0.0009 H   0  0  0  0  0  0  0  0  0  0  0  0
    0.0002   -1.3888    0.0009 C   0  0  0  0  0  0  0  0  0  0  0  0
   -0.0031   -2.3889    0.0015 H   0  0  0  0  0  0  0  0  0  0  0  0
    1.2005   -0.6942   -0.0000 C   0  0  0  0  0  0  0  0  0  0  0  0
    2.0813   -1.1936    0.0019 H   0  0  0  0  0  0  0  0  0  0  0  0
    1.1962    0.6920   -0.0014 C   0  0  0  0  0  0  0  0  0  0  0  0
    2.0637    1.1909   -0.0047 H   0  0  0  0  0  0  0  0  0  0  0  0
  1  5  1  0
  5  6  2  0
  5  7  1  0
  1  2  1  0
  1  3  1  0
  1  4  1  0
  8 12  1  0
 12 13  2  0
 13 15  1  0
 15 17  2  0
 17 19  1  0
 19 21  2  0
 21 12  1  0
  8  9  1  0
  8 10  1  0
  8 11  1  0
 13 14  1  0
 15 16  1  0
 17 18  1  0
 19 20  1  0
 21 22  1  0
M  CHG  1   7  -1
V    7 [O&-]
M  END
>  <PDB_ID>  (2832) 
pdb4edb

>  <RESIDUE_NAME>  (2832) 
ASP   PHE

>  <FRAG_NAME>  (2832) 
ACET   MBZ

>  <FRAG_ATOM_NUM>  (2832) 
fragi: 7 fragj: 15

>  <atom.prop.CHAIN_ID>  (2832) 
A A A A A A A Z Z Z Z Z Z Z Z Z Z Z Z Z Z Z

>  <atom.prop.IS_HEAVY_ATOM>  (2832) 
1 0 0 0 1 1 1 1 0 0 0 1 1 0 1 0 1 0 1 0 1 0

>  <DIFUSE_FUNC_ATOM>  (2832) 
n/a

>  <FINAL_SINGLE_POINT_ENERGY>  (2832) 
0

>  <NONCOV_INTER_ENERGY_QM>  (2832) 
0

>  <FF_Energy>  (2832) 
5.36

>  <QM_Energy>  (2832) 
-4.62

>  <source>  (2832) 
ACET_MBZ_03

>  <Index>  (2832) 
11239

$$$$
ACEH-pdb6fqz-B-GLH-198:MBZ-pdb6fqz-B-PHE-423
     RDKit          3D

 22 21  0  0  0  0  0  0  0  0999 V2000
    5.4648    1.6486    1.2572 C   0  0  0  0  0  0  0  0  0  0  0  0
    5.7418    2.1097    2.0831 H   0  0  0  0  0  0  0  0  0  0  0  0
    6.2361    1.2714    0.7724 H   0  0  0  0  0  0  0  0  0  0  0  0
    4.8027    0.8280    1.5336 H   0  0  0  0  0  0  0  0  0  0  0  0
    4.8136    2.6795    0.3519 C   0  0  0  0  0  0  0  0  0  0  0  0
    3.5713    2.6804    0.2273 O   0  0  0  0  0  0  0  0  0  0  0  0
    5.5569    3.4932   -0.2344 O   0  0  0  0  0  0  0  0  0  0  0  0
    0.0050    2.9054    0.0077 C   0  0  0  0  0  0  0  0  0  0  0  0
    0.7406    3.2061    0.5971 H   0  0  0  0  0  0  0  0  0  0  0  0
   -0.8730    3.2115    0.3471 H   0  0  0  0  0  0  0  0  0  0  0  0
    0.1584    3.3563   -0.9728 H   0  0  0  0  0  0  0  0  0  0  0  0
    0.0010    1.3994    0.0002 C   0  0  0  0  0  0  0  0  0  0  0  0
   -1.1922    0.6901    0.0001 C   0  0  0  0  0  0  0  0  0  0  0  0
   -2.0607    1.1805   -0.0015 H   0  0  0  0  0  0  0  0  0  0  0  0
   -1.1959   -0.6967    0.0000 C   0  0  0  0  0  0  0  0  0  0  0  0
   -2.0742   -1.1914    0.0038 H   0  0  0  0  0  0  0  0  0  0  0  0
    0.0007   -1.3902   -0.0041 C   0  0  0  0  0  0  0  0  0  0  0  0
   -0.0014   -2.3899   -0.0107 H   0  0  0  0  0  0  0  0  0  0  0  0
    1.1959   -0.6934   -0.0000 C   0  0  0  0  0  0  0  0  0  0  0  0
    2.0801   -1.1919    0.0023 H   0  0  0  0  0  0  0  0  0  0  0  0
    1.1905    0.6908    0.0037 C   0  0  0  0  0  0  0  0  0  0  0  0
    2.0618    1.1878    0.0087 H   0  0  0  0  0  0  0  0  0  0  0  0
  1  5  1  0
  5  6  2  0
  5  7  1  0
  1  2  1  0
  1  3  1  0
  1  4  1  0
  8 12  1  0
 12 13  2  0
 13 15  1  0
 15 17  2  0
 17 19  1  0
 19 21  2  0
 21 12  1  0
  8  9  1  0
  8 10  1  0
  8 11  1  0
 13 14  1  0
 15 16  1  0
 17 18  1  0
 19 20  1  0
 21 22  1  0
M  CHG  1   7  -1
V    7 [O&-]
M  END
>  <PDB_ID>  (2833) 
pdb6fqz

>  <RESIDUE_NAME>  (2833) 
GLU   PHE

>  <FRAG_NAME>  (2833) 
ACET   MBZ

>  <FRAG_ATOM_NUM>  (2833) 
fragi: 7 fragj: 15

>  <atom.prop.CHAIN_ID>  (2833) 
A A A A A A A Z Z Z Z Z Z Z Z Z Z Z Z Z Z Z

>  <atom.prop.IS_HEAVY_ATOM>  (2833) 
1 0 0 0 1 1 1 1 0 0 0 1 1 0 1 0 1 0 1 0 1 0

>  <DIFUSE_FUNC_ATOM>  (2833) 
n/a

>  <FINAL_SINGLE_POINT_ENERGY>  (2833) 
0

>  <NONCOV_INTER_ENERGY_QM>  (2833) 
0

>  <FF_Energy>  (2833) 
0.5

>  <QM_Energy>  (2833) 
-7.77

>  <source>  (2833) 
ACET_MBZ_03

>  <Index>  (2833) 
11265

$$$$
ACEH-pdb4ene-A-GLH-148:MBZ-pdb4ene-A-PHE-357
     RDKit          3D

 22 21  0  0  0  0  0  0  0  0999 V2000
    0.6355    3.5144   -3.2650 C   0  0  0  0  0  0  0  0  0  0  0  0
   -0.1457    4.1019   -3.3806 H   0  0  0  0  0  0  0  0  0  0  0  0
    0.4497    2.7710   -2.6465 H   0  0  0  0  0  0  0  0  0  0  0  0
    0.8965    3.0960   -4.2370 H   0  0  0  0  0  0  0  0  0  0  0  0
    1.7478    4.3507   -2.6503 C   0  0  0  0  0  0  0  0  0  0  0  0
    2.8870    4.3491   -3.1830 O   0  0  0  0  0  0  0  0  0  0  0  0
    1.4798    5.0117   -1.6210 O   0  0  0  0  0  0  0  0  0  0  0  0
   -0.0153    2.8896   -0.0374 C   0  0  0  0  0  0  0  0  0  0  0  0
   -0.9278    3.1817   -0.3028 H   0  0  0  0  0  0  0  0  0  0  0  0
    0.6536    3.1831   -0.7118 H   0  0  0  0  0  0  0  0  0  0  0  0
    0.2285    3.3760    0.9071 H   0  0  0  0  0  0  0  0  0  0  0  0
   -0.0034    1.3926    0.0050 C   0  0  0  0  0  0  0  0  0  0  0  0
   -1.1921    0.6882   -0.0047 C   0  0  0  0  0  0  0  0  0  0  0  0
   -2.0613    1.1816   -0.0171 H   0  0  0  0  0  0  0  0  0  0  0  0
   -1.1972   -0.6904   -0.0000 C   0  0  0  0  0  0  0  0  0  0  0  0
   -2.0732   -1.1891    0.0019 H   0  0  0  0  0  0  0  0  0  0  0  0
    0.0031   -1.3843    0.0041 C   0  0  0  0  0  0  0  0  0  0  0  0
   -0.0042   -2.3862    0.0097 H   0  0  0  0  0  0  0  0  0  0  0  0
    1.1972   -0.6946    0.0000 C   0  0  0  0  0  0  0  0  0  0  0  0
    2.0800   -1.1932    0.0018 H   0  0  0  0  0  0  0  0  0  0  0  0
    1.1924    0.6885   -0.0043 C   0  0  0  0  0  0  0  0  0  0  0  0
    2.0596    1.1887   -0.0147 H   0  0  0  0  0  0  0  0  0  0  0  0
  1  5  1  0
  5  6  2  0
  5  7  1  0
  1  2  1  0
  1  3  1  0
  1  4  1  0
  8 12  1  0
 12 13  2  0
 13 15  1  0
 15 17  2  0
 17 19  1  0
 19 21  2  0
 21 12  1  0
  8  9  1  0
  8 10  1  0
  8 11  1  0
 13 14  1  0
 15 16  1  0
 17 18  1  0
 19 20  1  0
 21 22  1  0
M  CHG  1   7  -1
V    7 [O&-]
M  END
>  <PDB_ID>  (2834) 
pdb4ene

>  <RESIDUE_NAME>  (2834) 
GLU   PHE

>  <FRAG_NAME>  (2834) 
ACET   MBZ

>  <FRAG_ATOM_NUM>  (2834) 
fragi: 7 fragj: 15

>  <atom.prop.CHAIN_ID>  (2834) 
A A A A A A A Z Z Z Z Z Z Z Z Z Z Z Z Z Z Z

>  <atom.prop.IS_HEAVY_ATOM>  (2834) 
1 0 0 0 1 1 1 1 0 0 0 1 1 0 1 0 1 0 1 0 1 0

>  <DIFUSE_FUNC_ATOM>  (2834) 
n/a

>  <FINAL_SINGLE_POINT_ENERGY>  (2834) 
0

>  <NONCOV_INTER_ENERGY_QM>  (2834) 
0

>  <FF_Energy>  (2834) 
3.07

>  <QM_Energy>  (2834) 
-3.45

>  <source>  (2834) 
ACET_MBZ_03

>  <Index>  (2834) 
11382

$$$$
ACEH-pdb1ec7-D-ASH-313:MBZ-pdb1ec7-D-PHE-351
     RDKit          3D

 22 21  0  0  0  0  0  0  0  0999 V2000
   -4.5412   -4.1328   -0.4846 C   0  0  0  0  0  0  0  0  0  0  0  0
   -4.6450   -4.5301    0.4344 H   0  0  0  0  0  0  0  0  0  0  0  0
   -4.9508   -4.7661   -1.1516 H   0  0  0  0  0  0  0  0  0  0  0  0
   -5.1252   -3.2128   -0.5087 H   0  0  0  0  0  0  0  0  0  0  0  0
   -3.0560   -3.9987   -0.7897 C   0  0  0  0  0  0  0  0  0  0  0  0
   -2.2866   -4.9004   -0.5799 O   0  0  0  0  0  0  0  0  0  0  0  0
   -2.6753   -2.8449   -1.2855 O   0  0  0  0  0  0  0  0  0  0  0  0
   -0.0208    2.9137    0.0598 C   0  0  0  0  0  0  0  0  0  0  0  0
    0.9187    3.2436    0.0100 H   0  0  0  0  0  0  0  0  0  0  0  0
   -0.4358    3.1944    0.9215 H   0  0  0  0  0  0  0  0  0  0  0  0
   -0.5721    3.4217   -0.7314 H   0  0  0  0  0  0  0  0  0  0  0  0
   -0.0065    1.4223    0.0008 C   0  0  0  0  0  0  0  0  0  0  0  0
   -1.1967    0.6852   -0.0010 C   0  0  0  0  0  0  0  0  0  0  0  0
   -2.0732    1.1693   -0.0044 H   0  0  0  0  0  0  0  0  0  0  0  0
   -1.2036   -0.7175    0.0000 C   0  0  0  0  0  0  0  0  0  0  0  0
   -2.0780   -1.2067    0.0141 H   0  0  0  0  0  0  0  0  0  0  0  0
    0.0040   -1.4194   -0.0164 C   0  0  0  0  0  0  0  0  0  0  0  0
    0.0140   -2.4038   -0.0396 H   0  0  0  0  0  0  0  0  0  0  0  0
    1.2036   -0.6879    0.0000 C   0  0  0  0  0  0  0  0  0  0  0  0
    2.0931   -1.1789    0.0014 H   0  0  0  0  0  0  0  0  0  0  0  0
    1.1993    0.7172    0.0166 C   0  0  0  0  0  0  0  0  0  0  0  0
    2.0630    1.2099    0.0386 H   0  0  0  0  0  0  0  0  0  0  0  0
  1  5  1  0
  5  6  2  0
  5  7  1  0
  1  2  1  0
  1  3  1  0
  1  4  1  0
  8 12  1  0
 12 13  2  0
 13 15  1  0
 15 17  2  0
 17 19  1  0
 19 21  2  0
 21 12  1  0
  8  9  1  0
  8 10  1  0
  8 11  1  0
 13 14  1  0
 15 16  1  0
 17 18  1  0
 19 20  1  0
 21 22  1  0
M  CHG  1   7  -1
V    7 [O&-]
M  END
>  <PDB_ID>  (2835) 
pdb1ec7

>  <RESIDUE_NAME>  (2835) 
ASP   PHE

>  <FRAG_NAME>  (2835) 
ACET   MBZ

>  <FRAG_ATOM_NUM>  (2835) 
fragi: 7 fragj: 15

>  <atom.prop.CHAIN_ID>  (2835) 
A A A A A A A Z Z Z Z Z Z Z Z Z Z Z Z Z Z Z

>  <atom.prop.IS_HEAVY_ATOM>  (2835) 
1 0 0 0 1 1 1 1 0 0 0 1 1 0 1 0 1 0 1 0 1 0

>  <DIFUSE_FUNC_ATOM>  (2835) 
n/a

>  <FINAL_SINGLE_POINT_ENERGY>  (2835) 
0

>  <NONCOV_INTER_ENERGY_QM>  (2835) 
0

>  <FF_Energy>  (2835) 
0.72

>  <QM_Energy>  (2835) 
-5.73

>  <source>  (2835) 
ACET_MBZ_03

>  <Index>  (2835) 
11401

$$$$
ACEH-pdb4eq9-A-GLH-63:MBZ-pdb4eq9-A-PHE-51
     RDKit          3D

 22 21  0  0  0  0  0  0  0  0999 V2000
    3.3292    4.0243    0.1425 C   0  0  0  0  0  0  0  0  0  0  0  0
    3.2863    3.1685    0.6117 H   0  0  0  0  0  0  0  0  0  0  0  0
    2.6655    4.6702    0.4564 H   0  0  0  0  0  0  0  0  0  0  0  0
    4.3246    4.4485    0.2737 H   0  0  0  0  0  0  0  0  0  0  0  0
    3.0520    3.7583   -1.3166 C   0  0  0  0  0  0  0  0  0  0  0  0
    2.5153    4.6517   -2.0122 O   0  0  0  0  0  0  0  0  0  0  0  0
    3.4812    2.7172   -1.8060 O   0  0  0  0  0  0  0  0  0  0  0  0
    0.0255    2.8999    0.0330 C   0  0  0  0  0  0  0  0  0  0  0  0
   -0.7575    3.2289   -0.4642 H   0  0  0  0  0  0  0  0  0  0  0  0
    0.8722    3.2018   -0.3667 H   0  0  0  0  0  0  0  0  0  0  0  0
   -0.0285    3.3080    1.0422 H   0  0  0  0  0  0  0  0  0  0  0  0
    0.0025    1.4026    0.0130 C   0  0  0  0  0  0  0  0  0  0  0  0
   -1.1895    0.7003   -0.0022 C   0  0  0  0  0  0  0  0  0  0  0  0
   -2.0584    1.1725   -0.0163 H   0  0  0  0  0  0  0  0  0  0  0  0
   -1.1828   -0.7123    0.0000 C   0  0  0  0  0  0  0  0  0  0  0  0
   -2.0624   -1.1964    0.0029 H   0  0  0  0  0  0  0  0  0  0  0  0
    0.0097   -1.3826    0.0000 C   0  0  0  0  0  0  0  0  0  0  0  0
    0.0025   -2.3985   -0.0002 H   0  0  0  0  0  0  0  0  0  0  0  0
    1.1828   -0.7110   -0.0000 C   0  0  0  0  0  0  0  0  0  0  0  0
    2.0770   -1.1862    0.0086 H   0  0  0  0  0  0  0  0  0  0  0  0
    1.1773    0.7030   -0.0108 C   0  0  0  0  0  0  0  0  0  0  0  0
    2.0575    1.1798   -0.0375 H   0  0  0  0  0  0  0  0  0  0  0  0
  1  5  1  0
  5  6  2  0
  5  7  1  0
  1  2  1  0
  1  3  1  0
  1  4  1  0
  8 12  1  0
 12 13  2  0
 13 15  1  0
 15 17  2  0
 17 19  1  0
 19 21  2  0
 21 12  1  0
  8  9  1  0
  8 10  1  0
  8 11  1  0
 13 14  1  0
 15 16  1  0
 17 18  1  0
 19 20  1  0
 21 22  1  0
M  CHG  1   7  -1
V    7 [O&-]
M  END
>  <PDB_ID>  (2836) 
pdb4eq9

>  <RESIDUE_NAME>  (2836) 
GLU   PHE

>  <FRAG_NAME>  (2836) 
ACET   MBZ

>  <FRAG_ATOM_NUM>  (2836) 
fragi: 7 fragj: 15

>  <atom.prop.CHAIN_ID>  (2836) 
A A A A A A A Z Z Z Z Z Z Z Z Z Z Z Z Z Z Z

>  <atom.prop.IS_HEAVY_ATOM>  (2836) 
1 0 0 0 1 1 1 1 0 0 0 1 1 0 1 0 1 0 1 0 1 0

>  <DIFUSE_FUNC_ATOM>  (2836) 
n/a

>  <FINAL_SINGLE_POINT_ENERGY>  (2836) 
0

>  <NONCOV_INTER_ENERGY_QM>  (2836) 
0

>  <FF_Energy>  (2836) 
-0.23

>  <QM_Energy>  (2836) 
-5.83

>  <source>  (2836) 
ACET_MBZ_03

>  <Index>  (2836) 
11423

$$$$
ACEH-pdb1ee1-A-ASH-173:MBZ-pdb1ee1-A-PHE-168
     RDKit          3D

 22 21  0  0  0  0  0  0  0  0999 V2000
   -2.7951    5.6928   -3.1838 C   0  0  0  0  0  0  0  0  0  0  0  0
   -2.1960    5.7242   -3.9796 H   0  0  0  0  0  0  0  0  0  0  0  0
   -3.1986    6.5897   -3.0259 H   0  0  0  0  0  0  0  0  0  0  0  0
   -3.6030    4.9934   -3.3988 H   0  0  0  0  0  0  0  0  0  0  0  0
   -1.9811    5.3036   -1.9760 C   0  0  0  0  0  0  0  0  0  0  0  0
   -2.5475    4.7920   -0.9994 O   0  0  0  0  0  0  0  0  0  0  0  0
   -0.7658    5.5528   -1.9935 O   0  0  0  0  0  0  0  0  0  0  0  0
   -0.0083    2.9260   -0.0643 C   0  0  0  0  0  0  0  0  0  0  0  0
   -0.7483    3.2001   -0.6615 H   0  0  0  0  0  0  0  0  0  0  0  0
    0.8670    3.2181   -0.4221 H   0  0  0  0  0  0  0  0  0  0  0  0
   -0.1561    3.4230    0.8945 H   0  0  0  0  0  0  0  0  0  0  0  0
   -0.0001    1.4084   -0.0005 C   0  0  0  0  0  0  0  0  0  0  0  0
   -1.1917    0.6870    0.0016 C   0  0  0  0  0  0  0  0  0  0  0  0
   -2.0626    1.1755    0.0033 H   0  0  0  0  0  0  0  0  0  0  0  0
   -1.1950   -0.7018    0.0000 C   0  0  0  0  0  0  0  0  0  0  0  0
   -2.0777   -1.1919    0.0021 H   0  0  0  0  0  0  0  0  0  0  0  0
   -0.0062   -1.3953   -0.0024 C   0  0  0  0  0  0  0  0  0  0  0  0
   -0.0065   -2.3953   -0.0061 H   0  0  0  0  0  0  0  0  0  0  0  0
    1.1950   -0.7011   -0.0000 C   0  0  0  0  0  0  0  0  0  0  0  0
    2.0778   -1.1959    0.0022 H   0  0  0  0  0  0  0  0  0  0  0  0
    1.1980    0.7028    0.0013 C   0  0  0  0  0  0  0  0  0  0  0  0
    2.0651    1.1899    0.0027 H   0  0  0  0  0  0  0  0  0  0  0  0
  1  5  1  0
  5  6  2  0
  5  7  1  0
  1  2  1  0
  1  3  1  0
  1  4  1  0
  8 12  1  0
 12 13  2  0
 13 15  1  0
 15 17  2  0
 17 19  1  0
 19 21  2  0
 21 12  1  0
  8  9  1  0
  8 10  1  0
  8 11  1  0
 13 14  1  0
 15 16  1  0
 17 18  1  0
 19 20  1  0
 21 22  1  0
M  CHG  1   7  -1
V    7 [O&-]
M  END
>  <PDB_ID>  (2837) 
pdb1ee1

>  <RESIDUE_NAME>  (2837) 
ASP   PHE

>  <FRAG_NAME>  (2837) 
ACET   MBZ

>  <FRAG_ATOM_NUM>  (2837) 
fragi: 7 fragj: 15

>  <atom.prop.CHAIN_ID>  (2837) 
A A A A A A A Z Z Z Z Z Z Z Z Z Z Z Z Z Z Z

>  <atom.prop.IS_HEAVY_ATOM>  (2837) 
1 0 0 0 1 1 1 1 0 0 0 1 1 0 1 0 1 0 1 0 1 0

>  <DIFUSE_FUNC_ATOM>  (2837) 
n/a

>  <FINAL_SINGLE_POINT_ENERGY>  (2837) 
0

>  <NONCOV_INTER_ENERGY_QM>  (2837) 
0

>  <FF_Energy>  (2837) 
-1.16

>  <QM_Energy>  (2837) 
-6.66

>  <source>  (2837) 
ACET_MBZ_03

>  <Index>  (2837) 
11437

$$$$
ACEH-pdb1ehk-B-GLH-15:MBZ-pdb1ehk-A-PHE-314
     RDKit          3D

 22 21  0  0  0  0  0  0  0  0999 V2000
   -4.8566    1.5637    3.3562 C   0  0  0  0  0  0  0  0  0  0  0  0
   -5.8384    1.5805    3.2935 H   0  0  0  0  0  0  0  0  0  0  0  0
   -4.5278    2.0420    4.1502 H   0  0  0  0  0  0  0  0  0  0  0  0
   -4.5360    0.5241    3.4235 H   0  0  0  0  0  0  0  0  0  0  0  0
   -4.3089    2.2873    2.1293 C   0  0  0  0  0  0  0  0  0  0  0  0
   -4.5589    3.5037    2.0002 O   0  0  0  0  0  0  0  0  0  0  0  0
   -3.6455    1.6438    1.2879 O   0  0  0  0  0  0  0  0  0  0  0  0
    0.0098    2.9039   -0.0498 C   0  0  0  0  0  0  0  0  0  0  0  0
    0.7525    3.2268    0.5171 H   0  0  0  0  0  0  0  0  0  0  0  0
   -0.8632    3.2287    0.2818 H   0  0  0  0  0  0  0  0  0  0  0  0
    0.1564    3.3084   -1.0513 H   0  0  0  0  0  0  0  0  0  0  0  0
    0.0006    1.4062    0.0002 C   0  0  0  0  0  0  0  0  0  0  0  0
   -1.1979    0.6974   -0.0004 C   0  0  0  0  0  0  0  0  0  0  0  0
   -2.0639    1.1864   -0.0029 H   0  0  0  0  0  0  0  0  0  0  0  0
   -1.2033   -0.6981   -0.0000 C   0  0  0  0  0  0  0  0  0  0  0  0
   -2.0810   -1.1884    0.0024 H   0  0  0  0  0  0  0  0  0  0  0  0
   -0.0022   -1.3969   -0.0009 C   0  0  0  0  0  0  0  0  0  0  0  0
   -0.0077   -2.3956   -0.0027 H   0  0  0  0  0  0  0  0  0  0  0  0
    1.2033   -0.7032   -0.0000 C   0  0  0  0  0  0  0  0  0  0  0  0
    2.0826   -1.1993    0.0012 H   0  0  0  0  0  0  0  0  0  0  0  0
    1.1995    0.6945    0.0011 C   0  0  0  0  0  0  0  0  0  0  0  0
    2.0676    1.1879    0.0020 H   0  0  0  0  0  0  0  0  0  0  0  0
  1  5  1  0
  5  6  2  0
  5  7  1  0
  1  2  1  0
  1  3  1  0
  1  4  1  0
  8 12  1  0
 12 13  2  0
 13 15  1  0
 15 17  2  0
 17 19  1  0
 19 21  2  0
 21 12  1  0
  8  9  1  0
  8 10  1  0
  8 11  1  0
 13 14  1  0
 15 16  1  0
 17 18  1  0
 19 20  1  0
 21 22  1  0
M  CHG  1   7  -1
V    7 [O&-]
M  END
>  <PDB_ID>  (2838) 
pdb1ehk

>  <RESIDUE_NAME>  (2838) 
GLU   PHE

>  <FRAG_NAME>  (2838) 
ACET   MBZ

>  <FRAG_ATOM_NUM>  (2838) 
fragi: 7 fragj: 15

>  <atom.prop.CHAIN_ID>  (2838) 
A A A A A A A Z Z Z Z Z Z Z Z Z Z Z Z Z Z Z

>  <atom.prop.IS_HEAVY_ATOM>  (2838) 
1 0 0 0 1 1 1 1 0 0 0 1 1 0 1 0 1 0 1 0 1 0

>  <DIFUSE_FUNC_ATOM>  (2838) 
n/a

>  <FINAL_SINGLE_POINT_ENERGY>  (2838) 
0

>  <NONCOV_INTER_ENERGY_QM>  (2838) 
0

>  <FF_Energy>  (2838) 
2.44

>  <QM_Energy>  (2838) 
-6.5

>  <source>  (2838) 
ACET_MBZ_03

>  <Index>  (2838) 
11542

$$$$
ACEH-pdb2f6q-C-GLH-250:MBZ-pdb2f6q-C-PHE-242
     RDKit          3D

 22 21  0  0  0  0  0  0  0  0999 V2000
   -1.5698   -3.3418    4.1811 C   0  0  0  0  0  0  0  0  0  0  0  0
   -1.4455   -4.3137    4.0797 H   0  0  0  0  0  0  0  0  0  0  0  0
   -2.5126   -3.1070    4.3476 H   0  0  0  0  0  0  0  0  0  0  0  0
   -0.9677   -2.9981    5.0222 H   0  0  0  0  0  0  0  0  0  0  0  0
   -1.1598   -2.6941    2.9011 C   0  0  0  0  0  0  0  0  0  0  0  0
   -1.4845   -1.4978    2.7176 O   0  0  0  0  0  0  0  0  0  0  0  0
   -0.4475   -3.3537    2.1109 O   0  0  0  0  0  0  0  0  0  0  0  0
   -0.0025    2.8730    0.0264 C   0  0  0  0  0  0  0  0  0  0  0  0
    0.9260    3.1977   -0.0990 H   0  0  0  0  0  0  0  0  0  0  0  0
   -0.3680    3.1782    0.8966 H   0  0  0  0  0  0  0  0  0  0  0  0
   -0.6126    3.3211   -0.7578 H   0  0  0  0  0  0  0  0  0  0  0  0
    0.0056    1.3953    0.0080 C   0  0  0  0  0  0  0  0  0  0  0  0
   -1.1966    0.6845    0.0124 C   0  0  0  0  0  0  0  0  0  0  0  0
   -2.0612    1.1769    0.0235 H   0  0  0  0  0  0  0  0  0  0  0  0
   -1.2048   -0.7099    0.0000 C   0  0  0  0  0  0  0  0  0  0  0  0
   -2.0825   -1.1977    0.0036 H   0  0  0  0  0  0  0  0  0  0  0  0
   -0.0091   -1.3941   -0.0147 C   0  0  0  0  0  0  0  0  0  0  0  0
    0.0079   -2.3902   -0.0361 H   0  0  0  0  0  0  0  0  0  0  0  0
    1.2048   -0.6789    0.0000 C   0  0  0  0  0  0  0  0  0  0  0  0
    2.0817   -1.1859    0.0159 H   0  0  0  0  0  0  0  0  0  0  0  0
    1.2002    0.7031   -0.0057 C   0  0  0  0  0  0  0  0  0  0  0  0
    2.0657    1.2029   -0.0209 H   0  0  0  0  0  0  0  0  0  0  0  0
  1  5  1  0
  5  6  2  0
  5  7  1  0
  1  2  1  0
  1  3  1  0
  1  4  1  0
  8 12  1  0
 12 13  2  0
 13 15  1  0
 15 17  2  0
 17 19  1  0
 19 21  2  0
 21 12  1  0
  8  9  1  0
  8 10  1  0
  8 11  1  0
 13 14  1  0
 15 16  1  0
 17 18  1  0
 19 20  1  0
 21 22  1  0
M  CHG  1   7  -1
V    7 [O&-]
M  END
>  <PDB_ID>  (2839) 
pdb2f6q

>  <RESIDUE_NAME>  (2839) 
GLU   PHE

>  <FRAG_NAME>  (2839) 
ACET   MBZ

>  <FRAG_ATOM_NUM>  (2839) 
fragi: 7 fragj: 15

>  <atom.prop.CHAIN_ID>  (2839) 
A A A A A A A Z Z Z Z Z Z Z Z Z Z Z Z Z Z Z

>  <atom.prop.IS_HEAVY_ATOM>  (2839) 
1 0 0 0 1 1 1 1 0 0 0 1 1 0 1 0 1 0 1 0 1 0

>  <DIFUSE_FUNC_ATOM>  (2839) 
n/a

>  <FINAL_SINGLE_POINT_ENERGY>  (2839) 
0

>  <NONCOV_INTER_ENERGY_QM>  (2839) 
0

>  <FF_Energy>  (2839) 
4.42

>  <QM_Energy>  (2839) 
-0.94

>  <source>  (2839) 
ACET_MBZ_03

>  <Index>  (2839) 
11551

$$$$
ACEH-pdb2f6u-A-GLH-1122:MBZ-pdb2f6u-A-PHE-1079
     RDKit          3D

 22 21  0  0  0  0  0  0  0  0999 V2000
    1.7776    3.4985    3.4841 C   0  0  0  0  0  0  0  0  0  0  0  0
    1.9873    2.5771    3.7304 H   0  0  0  0  0  0  0  0  0  0  0  0
    0.8321    3.6409    3.2872 H   0  0  0  0  0  0  0  0  0  0  0  0
    2.0678    4.1541    4.3051 H   0  0  0  0  0  0  0  0  0  0  0  0
    2.5607    3.8262    2.2276 C   0  0  0  0  0  0  0  0  0  0  0  0
    3.2729    2.9372    1.7202 O   0  0  0  0  0  0  0  0  0  0  0  0
    2.4557    4.9879    1.7615 O   0  0  0  0  0  0  0  0  0  0  0  0
    0.0329    2.9277   -0.0366 C   0  0  0  0  0  0  0  0  0  0  0  0
    0.4134    3.2012   -0.9082 H   0  0  0  0  0  0  0  0  0  0  0  0
    0.5980    3.2370    0.7142 H   0  0  0  0  0  0  0  0  0  0  0  0
   -0.9448    3.3989    0.0647 H   0  0  0  0  0  0  0  0  0  0  0  0
    0.0053    1.4133   -0.0006 C   0  0  0  0  0  0  0  0  0  0  0  0
   -1.2023    0.7017    0.0005 C   0  0  0  0  0  0  0  0  0  0  0  0
   -2.0654    1.1864    0.0001 H   0  0  0  0  0  0  0  0  0  0  0  0
   -1.2062   -0.7076    0.0000 C   0  0  0  0  0  0  0  0  0  0  0  0
   -2.0848   -1.1924    0.0021 H   0  0  0  0  0  0  0  0  0  0  0  0
   -0.0052   -1.4038   -0.0015 C   0  0  0  0  0  0  0  0  0  0  0  0
   -0.0018   -2.3997   -0.0043 H   0  0  0  0  0  0  0  0  0  0  0  0
    1.2062   -0.6989   -0.0000 C   0  0  0  0  0  0  0  0  0  0  0  0
    2.0839   -1.1992    0.0015 H   0  0  0  0  0  0  0  0  0  0  0  0
    1.2022    0.6953    0.0016 C   0  0  0  0  0  0  0  0  0  0  0  0
    2.0721    1.1902    0.0034 H   0  0  0  0  0  0  0  0  0  0  0  0
  1  5  1  0
  5  6  2  0
  5  7  1  0
  1  2  1  0
  1  3  1  0
  1  4  1  0
  8 12  1  0
 12 13  2  0
 13 15  1  0
 15 17  2  0
 17 19  1  0
 19 21  2  0
 21 12  1  0
  8  9  1  0
  8 10  1  0
  8 11  1  0
 13 14  1  0
 15 16  1  0
 17 18  1  0
 19 20  1  0
 21 22  1  0
M  CHG  1   7  -1
V    7 [O&-]
M  END
>  <PDB_ID>  (2840) 
pdb2f6u

>  <RESIDUE_NAME>  (2840) 
GLU   PHE

>  <FRAG_NAME>  (2840) 
ACET   MBZ

>  <FRAG_ATOM_NUM>  (2840) 
fragi: 7 fragj: 15

>  <atom.prop.CHAIN_ID>  (2840) 
A A A A A A A Z Z Z Z Z Z Z Z Z Z Z Z Z Z Z

>  <atom.prop.IS_HEAVY_ATOM>  (2840) 
1 0 0 0 1 1 1 1 0 0 0 1 1 0 1 0 1 0 1 0 1 0

>  <DIFUSE_FUNC_ATOM>  (2840) 
n/a

>  <FINAL_SINGLE_POINT_ENERGY>  (2840) 
0

>  <NONCOV_INTER_ENERGY_QM>  (2840) 
0

>  <FF_Energy>  (2840) 
-1.75

>  <QM_Energy>  (2840) 
-7.03

>  <source>  (2840) 
ACET_MBZ_03

>  <Index>  (2840) 
11560

$$$$
ACEH-pdb5g5y-B-ASH-181:MBZ-pdb5g5y-B-PHE-240
     RDKit          3D

 22 21  0  0  0  0  0  0  0  0999 V2000
   -1.4029    5.6881   -3.5490 C   0  0  0  0  0  0  0  0  0  0  0  0
   -0.4648    5.9700   -3.7315 H   0  0  0  0  0  0  0  0  0  0  0  0
   -2.0309    6.4303   -3.7642 H   0  0  0  0  0  0  0  0  0  0  0  0
   -1.6363    4.8472   -4.2020 H   0  0  0  0  0  0  0  0  0  0  0  0
   -1.5285    5.3669   -2.0567 C   0  0  0  0  0  0  0  0  0  0  0  0
   -2.4488    4.6239   -1.7174 O   0  0  0  0  0  0  0  0  0  0  0  0
   -0.7038    5.8734   -1.2307 O   0  0  0  0  0  0  0  0  0  0  0  0
   -0.0082    2.8727    0.0843 C   0  0  0  0  0  0  0  0  0  0  0  0
   -0.6934    3.2191   -0.5330 H   0  0  0  0  0  0  0  0  0  0  0  0
    0.8912    3.2078   -0.1386 H   0  0  0  0  0  0  0  0  0  0  0  0
   -0.2540    3.2345    1.0827 H   0  0  0  0  0  0  0  0  0  0  0  0
    0.0023    1.3887   -0.0010 C   0  0  0  0  0  0  0  0  0  0  0  0
   -1.1936    0.6919    0.0096 C   0  0  0  0  0  0  0  0  0  0  0  0
   -2.0591    1.1815    0.0233 H   0  0  0  0  0  0  0  0  0  0  0  0
   -1.1990   -0.6989    0.0000 C   0  0  0  0  0  0  0  0  0  0  0  0
   -2.0766   -1.1897    0.0100 H   0  0  0  0  0  0  0  0  0  0  0  0
   -0.0033   -1.3857   -0.0213 C   0  0  0  0  0  0  0  0  0  0  0  0
   -0.0014   -2.3873   -0.0524 H   0  0  0  0  0  0  0  0  0  0  0  0
    1.1990   -0.6914   -0.0000 C   0  0  0  0  0  0  0  0  0  0  0  0
    2.0789   -1.1916    0.0080 H   0  0  0  0  0  0  0  0  0  0  0  0
    1.1946    0.6954    0.0127 C   0  0  0  0  0  0  0  0  0  0  0  0
    2.0613    1.1919    0.0309 H   0  0  0  0  0  0  0  0  0  0  0  0
  1  5  1  0
  5  6  2  0
  5  7  1  0
  1  2  1  0
  1  3  1  0
  1  4  1  0
  8 12  1  0
 12 13  2  0
 13 15  1  0
 15 17  2  0
 17 19  1  0
 19 21  2  0
 21 12  1  0
  8  9  1  0
  8 10  1  0
  8 11  1  0
 13 14  1  0
 15 16  1  0
 17 18  1  0
 19 20  1  0
 21 22  1  0
M  CHG  1   7  -1
V    7 [O&-]
M  END
>  <PDB_ID>  (2841) 
pdb5g5y

>  <RESIDUE_NAME>  (2841) 
ASP   PHE

>  <FRAG_NAME>  (2841) 
ACET   MBZ

>  <FRAG_ATOM_NUM>  (2841) 
fragi: 7 fragj: 15

>  <atom.prop.CHAIN_ID>  (2841) 
A A A A A A A Z Z Z Z Z Z Z Z Z Z Z Z Z Z Z

>  <atom.prop.IS_HEAVY_ATOM>  (2841) 
1 0 0 0 1 1 1 1 0 0 0 1 1 0 1 0 1 0 1 0 1 0

>  <DIFUSE_FUNC_ATOM>  (2841) 
n/a

>  <FINAL_SINGLE_POINT_ENERGY>  (2841) 
0

>  <NONCOV_INTER_ENERGY_QM>  (2841) 
0

>  <FF_Energy>  (2841) 
-1.34

>  <QM_Energy>  (2841) 
-6.48

>  <source>  (2841) 
ACET_MBZ_03

>  <Index>  (2841) 
11565

$$$$
ACEH-pdb1el1-B-ASH-91:MBZ-pdb1el1-B-PHE-57
     RDKit          3D

 22 21  0  0  0  0  0  0  0  0999 V2000
    4.4827    0.3060   -0.7450 C   0  0  0  0  0  0  0  0  0  0  0  0
    4.5851   -0.6237   -1.0797 H   0  0  0  0  0  0  0  0  0  0  0  0
    3.5232    0.5232   -0.6083 H   0  0  0  0  0  0  0  0  0  0  0  0
    4.9812    0.3698    0.2222 H   0  0  0  0  0  0  0  0  0  0  0  0
    5.0618    1.2606   -1.7649 C   0  0  0  0  0  0  0  0  0  0  0  0
    6.2928    1.4241   -1.7852 O   0  0  0  0  0  0  0  0  0  0  0  0
    4.2903    1.8431   -2.5584 O   0  0  0  0  0  0  0  0  0  0  0  0
    0.0062    2.9127    0.0019 C   0  0  0  0  0  0  0  0  0  0  0  0
    0.9417    3.2155   -0.0918 H   0  0  0  0  0  0  0  0  0  0  0  0
   -0.3889    3.2194    0.8544 H   0  0  0  0  0  0  0  0  0  0  0  0
   -0.5696    3.3591   -0.8087 H   0  0  0  0  0  0  0  0  0  0  0  0
    0.0002    1.4062   -0.0008 C   0  0  0  0  0  0  0  0  0  0  0  0
   -1.1964    0.7003    0.0011 C   0  0  0  0  0  0  0  0  0  0  0  0
   -2.0635    1.1868    0.0023 H   0  0  0  0  0  0  0  0  0  0  0  0
   -1.2000   -0.6974    0.0000 C   0  0  0  0  0  0  0  0  0  0  0  0
   -2.0770   -1.1891    0.0003 H   0  0  0  0  0  0  0  0  0  0  0  0
    0.0031   -1.3986    0.0000 C   0  0  0  0  0  0  0  0  0  0  0  0
   -0.0048   -2.3958   -0.0002 H   0  0  0  0  0  0  0  0  0  0  0  0
    1.2000   -0.7031    0.0000 C   0  0  0  0  0  0  0  0  0  0  0  0
    2.0842   -1.1956    0.0016 H   0  0  0  0  0  0  0  0  0  0  0  0
    1.1930    0.6926   -0.0003 C   0  0  0  0  0  0  0  0  0  0  0  0
    2.0652    1.1860   -0.0011 H   0  0  0  0  0  0  0  0  0  0  0  0
  1  5  1  0
  5  6  2  0
  5  7  1  0
  1  2  1  0
  1  3  1  0
  1  4  1  0
  8 12  1  0
 12 13  2  0
 13 15  1  0
 15 17  2  0
 17 19  1  0
 19 21  2  0
 21 12  1  0
  8  9  1  0
  8 10  1  0
  8 11  1  0
 13 14  1  0
 15 16  1  0
 17 18  1  0
 19 20  1  0
 21 22  1  0
M  CHG  1   7  -1
V    7 [O&-]
M  END
>  <PDB_ID>  (2842) 
pdb1el1

>  <RESIDUE_NAME>  (2842) 
ASP   PHE

>  <FRAG_NAME>  (2842) 
ACET   MBZ

>  <FRAG_ATOM_NUM>  (2842) 
fragi: 7 fragj: 15

>  <atom.prop.CHAIN_ID>  (2842) 
A A A A A A A Z Z Z Z Z Z Z Z Z Z Z Z Z Z Z

>  <atom.prop.IS_HEAVY_ATOM>  (2842) 
1 0 0 0 1 1 1 1 0 0 0 1 1 0 1 0 1 0 1 0 1 0

>  <DIFUSE_FUNC_ATOM>  (2842) 
n/a

>  <FINAL_SINGLE_POINT_ENERGY>  (2842) 
0

>  <NONCOV_INTER_ENERGY_QM>  (2842) 
0

>  <FF_Energy>  (2842) 
6.6

>  <QM_Energy>  (2842) 
-0.46

>  <source>  (2842) 
ACET_MBZ_03

>  <Index>  (2842) 
11633

$$$$
ACEH-pdb1epw-A-ASH-275:MBZ-pdb1epw-A-PHE-271
     RDKit          3D

 22 21  0  0  0  0  0  0  0  0999 V2000
    4.2118    3.1150   -2.4178 C   0  0  0  0  0  0  0  0  0  0  0  0
    3.9083    3.4218   -1.5268 H   0  0  0  0  0  0  0  0  0  0  0  0
    3.9184    3.7379   -3.1288 H   0  0  0  0  0  0  0  0  0  0  0  0
    5.3016    3.0945   -2.4145 H   0  0  0  0  0  0  0  0  0  0  0  0
    3.6227    1.7448   -2.6919 C   0  0  0  0  0  0  0  0  0  0  0  0
    4.3601    0.8850   -3.2321 O   0  0  0  0  0  0  0  0  0  0  0  0
    2.4364    1.5248   -2.3750 O   0  0  0  0  0  0  0  0  0  0  0  0
    0.0019    2.9027    0.0930 C   0  0  0  0  0  0  0  0  0  0  0  0
   -0.7562    3.2459   -0.4377 H   0  0  0  0  0  0  0  0  0  0  0  0
    0.8661    3.2326   -0.2519 H   0  0  0  0  0  0  0  0  0  0  0  0
   -0.1113    3.2691    1.1133 H   0  0  0  0  0  0  0  0  0  0  0  0
   -0.0003    1.4102    0.0006 C   0  0  0  0  0  0  0  0  0  0  0  0
   -1.2013    0.7078   -0.0013 C   0  0  0  0  0  0  0  0  0  0  0  0
   -2.0662    1.1914   -0.0048 H   0  0  0  0  0  0  0  0  0  0  0  0
   -1.2080   -0.7022   -0.0000 C   0  0  0  0  0  0  0  0  0  0  0  0
   -2.0846   -1.1878    0.0002 H   0  0  0  0  0  0  0  0  0  0  0  0
   -0.0006   -1.4051    0.0029 C   0  0  0  0  0  0  0  0  0  0  0  0
   -0.0071   -2.4010    0.0067 H   0  0  0  0  0  0  0  0  0  0  0  0
    1.2080   -0.7079   -0.0000 C   0  0  0  0  0  0  0  0  0  0  0  0
    2.0862   -1.2010    0.0007 H   0  0  0  0  0  0  0  0  0  0  0  0
    1.2022    0.6972   -0.0022 C   0  0  0  0  0  0  0  0  0  0  0  0
    2.0699    1.1894   -0.0064 H   0  0  0  0  0  0  0  0  0  0  0  0
  1  5  1  0
  5  6  2  0
  5  7  1  0
  1  2  1  0
  1  3  1  0
  1  4  1  0
  8 12  1  0
 12 13  2  0
 13 15  1  0
 15 17  2  0
 17 19  1  0
 19 21  2  0
 21 12  1  0
  8  9  1  0
  8 10  1  0
  8 11  1  0
 13 14  1  0
 15 16  1  0
 17 18  1  0
 19 20  1  0
 21 22  1  0
M  CHG  1   7  -1
V    7 [O&-]
M  END
>  <PDB_ID>  (2843) 
pdb1epw

>  <RESIDUE_NAME>  (2843) 
ASP   PHE

>  <FRAG_NAME>  (2843) 
ACET   MBZ

>  <FRAG_ATOM_NUM>  (2843) 
fragi: 7 fragj: 15

>  <atom.prop.CHAIN_ID>  (2843) 
A A A A A A A Z Z Z Z Z Z Z Z Z Z Z Z Z Z Z

>  <atom.prop.IS_HEAVY_ATOM>  (2843) 
1 0 0 0 1 1 1 1 0 0 0 1 1 0 1 0 1 0 1 0 1 0

>  <DIFUSE_FUNC_ATOM>  (2843) 
n/a

>  <FINAL_SINGLE_POINT_ENERGY>  (2843) 
0

>  <NONCOV_INTER_ENERGY_QM>  (2843) 
0

>  <FF_Energy>  (2843) 
2.71

>  <QM_Energy>  (2843) 
-2.79

>  <source>  (2843) 
ACET_MBZ_03

>  <Index>  (2843) 
11690

$$$$
ACEH-pdb1epw-A-GLH-1190:MBZ-pdb1epw-A-PHE-1185
     RDKit          3D

 22 21  0  0  0  0  0  0  0  0999 V2000
    0.3981    1.4420    3.8957 C   0  0  0  0  0  0  0  0  0  0  0  0
    0.3760    0.5928    3.4061 H   0  0  0  0  0  0  0  0  0  0  0  0
    0.2213    1.3318    4.8538 H   0  0  0  0  0  0  0  0  0  0  0  0
    1.3865    1.8852    3.7742 H   0  0  0  0  0  0  0  0  0  0  0  0
   -0.6898    2.3272    3.3282 C   0  0  0  0  0  0  0  0  0  0  0  0
   -1.6413    1.7913    2.7196 O   0  0  0  0  0  0  0  0  0  0  0  0
   -0.5969    3.5647    3.5059 O   0  0  0  0  0  0  0  0  0  0  0  0
    0.0042    2.9099    0.0488 C   0  0  0  0  0  0  0  0  0  0  0  0
    0.9276    3.2081    0.2429 H   0  0  0  0  0  0  0  0  0  0  0  0
   -0.6208    3.1961    0.7605 H   0  0  0  0  0  0  0  0  0  0  0  0
   -0.3103    3.3886   -0.8786 H   0  0  0  0  0  0  0  0  0  0  0  0
   -0.0001    1.4065    0.0010 C   0  0  0  0  0  0  0  0  0  0  0  0
   -1.1973    0.7007   -0.0026 C   0  0  0  0  0  0  0  0  0  0  0  0
   -2.0643    1.1911   -0.0082 H   0  0  0  0  0  0  0  0  0  0  0  0
   -1.2077   -0.6961   -0.0000 C   0  0  0  0  0  0  0  0  0  0  0  0
   -2.0848   -1.1852    0.0006 H   0  0  0  0  0  0  0  0  0  0  0  0
   -0.0037   -1.4006    0.0032 C   0  0  0  0  0  0  0  0  0  0  0  0
   -0.0118   -2.3973    0.0071 H   0  0  0  0  0  0  0  0  0  0  0  0
    1.2077   -0.7059    0.0000 C   0  0  0  0  0  0  0  0  0  0  0  0
    2.0838   -1.2010   -0.0001 H   0  0  0  0  0  0  0  0  0  0  0  0
    1.2010    0.6955   -0.0015 C   0  0  0  0  0  0  0  0  0  0  0  0
    2.0682    1.1893   -0.0052 H   0  0  0  0  0  0  0  0  0  0  0  0
  1  5  1  0
  5  6  2  0
  5  7  1  0
  1  2  1  0
  1  3  1  0
  1  4  1  0
  8 12  1  0
 12 13  2  0
 13 15  1  0
 15 17  2  0
 17 19  1  0
 19 21  2  0
 21 12  1  0
  8  9  1  0
  8 10  1  0
  8 11  1  0
 13 14  1  0
 15 16  1  0
 17 18  1  0
 19 20  1  0
 21 22  1  0
M  CHG  1   7  -1
V    7 [O&-]
M  END
>  <PDB_ID>  (2844) 
pdb1epw

>  <RESIDUE_NAME>  (2844) 
GLU   PHE

>  <FRAG_NAME>  (2844) 
ACET   MBZ

>  <FRAG_ATOM_NUM>  (2844) 
fragi: 7 fragj: 15

>  <atom.prop.CHAIN_ID>  (2844) 
A A A A A A A Z Z Z Z Z Z Z Z Z Z Z Z Z Z Z

>  <atom.prop.IS_HEAVY_ATOM>  (2844) 
1 0 0 0 1 1 1 1 0 0 0 1 1 0 1 0 1 0 1 0 1 0

>  <DIFUSE_FUNC_ATOM>  (2844) 
n/a

>  <FINAL_SINGLE_POINT_ENERGY>  (2844) 
0

>  <NONCOV_INTER_ENERGY_QM>  (2844) 
0

>  <FF_Energy>  (2844) 
1.58

>  <QM_Energy>  (2844) 
-5.44

>  <source>  (2844) 
ACET_MBZ_03

>  <Index>  (2844) 
11691

$$$$
ACEH-pdb2fel-A-GLH-44:MBZ-pdb2fel-A-PHE-104
     RDKit          3D

 22 21  0  0  0  0  0  0  0  0999 V2000
   -5.7236    3.1734   -0.0139 C   0  0  0  0  0  0  0  0  0  0  0  0
   -6.1058    2.3248   -0.3598 H   0  0  0  0  0  0  0  0  0  0  0  0
   -6.1674    3.9542   -0.4372 H   0  0  0  0  0  0  0  0  0  0  0  0
   -5.9098    3.2164    1.0592 H   0  0  0  0  0  0  0  0  0  0  0  0
   -4.2663    3.2097   -0.4097 C   0  0  0  0  0  0  0  0  0  0  0  0
   -3.4315    3.7739    0.3323 O   0  0  0  0  0  0  0  0  0  0  0  0
   -3.9602    2.6800   -1.4983 O   0  0  0  0  0  0  0  0  0  0  0  0
    0.0126    2.9046   -0.0221 C   0  0  0  0  0  0  0  0  0  0  0  0
    0.6372    3.2133    0.6762 H   0  0  0  0  0  0  0  0  0  0  0  0
   -0.9079    3.2169    0.1484 H   0  0  0  0  0  0  0  0  0  0  0  0
    0.3387    3.3226   -0.9745 H   0  0  0  0  0  0  0  0  0  0  0  0
    0.0023    1.3963   -0.0015 C   0  0  0  0  0  0  0  0  0  0  0  0
   -1.1971    0.6855    0.0042 C   0  0  0  0  0  0  0  0  0  0  0  0
   -2.0609    1.1783    0.0098 H   0  0  0  0  0  0  0  0  0  0  0  0
   -1.1944   -0.6950    0.0000 C   0  0  0  0  0  0  0  0  0  0  0  0
   -2.0723   -1.1948   -0.0040 H   0  0  0  0  0  0  0  0  0  0  0  0
    0.0003   -1.3824    0.0024 C   0  0  0  0  0  0  0  0  0  0  0  0
   -0.0020   -2.3856    0.0056 H   0  0  0  0  0  0  0  0  0  0  0  0
    1.1944   -0.6918   -0.0000 C   0  0  0  0  0  0  0  0  0  0  0  0
    2.0779   -1.1940    0.0032 H   0  0  0  0  0  0  0  0  0  0  0  0
    1.1944    0.6875   -0.0050 C   0  0  0  0  0  0  0  0  0  0  0  0
    2.0635    1.1859   -0.0123 H   0  0  0  0  0  0  0  0  0  0  0  0
  1  5  1  0
  5  6  2  0
  5  7  1  0
  1  2  1  0
  1  3  1  0
  1  4  1  0
  8 12  1  0
 12 13  2  0
 13 15  1  0
 15 17  2  0
 17 19  1  0
 19 21  2  0
 21 12  1  0
  8  9  1  0
  8 10  1  0
  8 11  1  0
 13 14  1  0
 15 16  1  0
 17 18  1  0
 19 20  1  0
 21 22  1  0
M  CHG  1   7  -1
V    7 [O&-]
M  END
>  <PDB_ID>  (2845) 
pdb2fel

>  <RESIDUE_NAME>  (2845) 
GLU   PHE

>  <FRAG_NAME>  (2845) 
ACET   MBZ

>  <FRAG_ATOM_NUM>  (2845) 
fragi: 7 fragj: 15

>  <atom.prop.CHAIN_ID>  (2845) 
A A A A A A A Z Z Z Z Z Z Z Z Z Z Z Z Z Z Z

>  <atom.prop.IS_HEAVY_ATOM>  (2845) 
1 0 0 0 1 1 1 1 0 0 0 1 1 0 1 0 1 0 1 0 1 0

>  <DIFUSE_FUNC_ATOM>  (2845) 
n/a

>  <FINAL_SINGLE_POINT_ENERGY>  (2845) 
0

>  <NONCOV_INTER_ENERGY_QM>  (2845) 
0

>  <FF_Energy>  (2845) 
-2.52

>  <QM_Energy>  (2845) 
-8.21

>  <source>  (2845) 
ACET_MBZ_03

>  <Index>  (2845) 
11693

$$$$
ACEH-pdb2fel-L-GLH-44:MBZ-pdb2fel-L-PHE-104
     RDKit          3D

 22 21  0  0  0  0  0  0  0  0999 V2000
   -5.7948    2.5035   -0.5030 C   0  0  0  0  0  0  0  0  0  0  0  0
   -5.9716    1.5680   -0.7890 H   0  0  0  0  0  0  0  0  0  0  0  0
   -6.3304    3.1399   -1.0468 H   0  0  0  0  0  0  0  0  0  0  0  0
   -6.0970    2.6045    0.5394 H   0  0  0  0  0  0  0  0  0  0  0  0
   -4.3372    2.7925   -0.7760 C   0  0  0  0  0  0  0  0  0  0  0  0
   -3.6201    3.3065    0.1077 O   0  0  0  0  0  0  0  0  0  0  0  0
   -3.9160    2.4765   -1.9057 O   0  0  0  0  0  0  0  0  0  0  0  0
    0.0119    2.8956   -0.0363 C   0  0  0  0  0  0  0  0  0  0  0  0
    0.6190    3.2194    0.6688 H   0  0  0  0  0  0  0  0  0  0  0  0
   -0.9105    3.2159    0.0966 H   0  0  0  0  0  0  0  0  0  0  0  0
    0.3667    3.2898   -0.9886 H   0  0  0  0  0  0  0  0  0  0  0  0
    0.0002    1.3984    0.0064 C   0  0  0  0  0  0  0  0  0  0  0  0
   -1.1950    0.6925    0.0043 C   0  0  0  0  0  0  0  0  0  0  0  0
   -2.0616    1.1815    0.0046 H   0  0  0  0  0  0  0  0  0  0  0  0
   -1.1951   -0.6958   -0.0000 C   0  0  0  0  0  0  0  0  0  0  0  0
   -2.0751   -1.1903   -0.0079 H   0  0  0  0  0  0  0  0  0  0  0  0
   -0.0011   -1.3880    0.0085 C   0  0  0  0  0  0  0  0  0  0  0  0
   -0.0032   -2.3890    0.0197 H   0  0  0  0  0  0  0  0  0  0  0  0
    1.1951   -0.6943   -0.0000 C   0  0  0  0  0  0  0  0  0  0  0  0
    2.0782   -1.1975    0.0097 H   0  0  0  0  0  0  0  0  0  0  0  0
    1.1959    0.6873   -0.0192 C   0  0  0  0  0  0  0  0  0  0  0  0
    2.0631    1.1858   -0.0530 H   0  0  0  0  0  0  0  0  0  0  0  0
  1  5  1  0
  5  6  2  0
  5  7  1  0
  1  2  1  0
  1  3  1  0
  1  4  1  0
  8 12  1  0
 12 13  2  0
 13 15  1  0
 15 17  2  0
 17 19  1  0
 19 21  2  0
 21 12  1  0
  8  9  1  0
  8 10  1  0
  8 11  1  0
 13 14  1  0
 15 16  1  0
 17 18  1  0
 19 20  1  0
 21 22  1  0
M  CHG  1   7  -1
V    7 [O&-]
M  END
>  <PDB_ID>  (2846) 
pdb2fel

>  <RESIDUE_NAME>  (2846) 
GLU   PHE

>  <FRAG_NAME>  (2846) 
ACET   MBZ

>  <FRAG_ATOM_NUM>  (2846) 
fragi: 7 fragj: 15

>  <atom.prop.CHAIN_ID>  (2846) 
A A A A A A A Z Z Z Z Z Z Z Z Z Z Z Z Z Z Z

>  <atom.prop.IS_HEAVY_ATOM>  (2846) 
1 0 0 0 1 1 1 1 0 0 0 1 1 0 1 0 1 0 1 0 1 0

>  <DIFUSE_FUNC_ATOM>  (2846) 
n/a

>  <FINAL_SINGLE_POINT_ENERGY>  (2846) 
0

>  <NONCOV_INTER_ENERGY_QM>  (2846) 
0

>  <FF_Energy>  (2846) 
-2.42

>  <QM_Energy>  (2846) 
-8.08

>  <source>  (2846) 
ACET_MBZ_03

>  <Index>  (2846) 
11715

$$$$
ACEH-pdb3ec7-B-GLH-282:MBZ-pdb3ec7-B-PHE-94
     RDKit          3D

 22 21  0  0  0  0  0  0  0  0999 V2000
    1.3433   -4.7748    2.2544 C   0  0  0  0  0  0  0  0  0  0  0  0
    1.1856   -5.6249    2.7328 H   0  0  0  0  0  0  0  0  0  0  0  0
    1.2941   -4.0021    2.8690 H   0  0  0  0  0  0  0  0  0  0  0  0
    2.3441   -4.8065    1.8234 H   0  0  0  0  0  0  0  0  0  0  0  0
    0.2474   -4.6152    1.2328 C   0  0  0  0  0  0  0  0  0  0  0  0
    0.5417   -4.5003    0.0246 O   0  0  0  0  0  0  0  0  0  0  0  0
   -0.9208   -4.5953    1.6581 O   0  0  0  0  0  0  0  0  0  0  0  0
   -0.0037    2.9999   -0.0022 C   0  0  0  0  0  0  0  0  0  0  0  0
    0.8954    3.2894    0.2675 H   0  0  0  0  0  0  0  0  0  0  0  0
   -0.6967    3.2887    0.6311 H   0  0  0  0  0  0  0  0  0  0  0  0
   -0.2260    3.4384   -0.9750 H   0  0  0  0  0  0  0  0  0  0  0  0
   -0.0027    1.4513   -0.0018 C   0  0  0  0  0  0  0  0  0  0  0  0
   -1.2025    0.7359    0.0077 C   0  0  0  0  0  0  0  0  0  0  0  0
   -2.0762    1.1846    0.0185 H   0  0  0  0  0  0  0  0  0  0  0  0
   -1.2043   -0.7399    0.0000 C   0  0  0  0  0  0  0  0  0  0  0  0
   -2.0885   -1.1935    0.0002 H   0  0  0  0  0  0  0  0  0  0  0  0
   -0.0036   -1.4363   -0.0053 C   0  0  0  0  0  0  0  0  0  0  0  0
   -0.0019   -2.4329   -0.0138 H   0  0  0  0  0  0  0  0  0  0  0  0
    1.2043   -0.7331    0.0000 C   0  0  0  0  0  0  0  0  0  0  0  0
    2.0898   -1.2057    0.0059 H   0  0  0  0  0  0  0  0  0  0  0  0
    1.2089    0.7222   -0.0005 C   0  0  0  0  0  0  0  0  0  0  0  0
    2.0768    1.1889   -0.0008 H   0  0  0  0  0  0  0  0  0  0  0  0
  1  5  1  0
  5  6  2  0
  5  7  1  0
  1  2  1  0
  1  3  1  0
  1  4  1  0
  8 12  1  0
 12 13  2  0
 13 15  1  0
 15 17  2  0
 17 19  1  0
 19 21  2  0
 21 12  1  0
  8  9  1  0
  8 10  1  0
  8 11  1  0
 13 14  1  0
 15 16  1  0
 17 18  1  0
 19 20  1  0
 21 22  1  0
M  CHG  1   7  -1
V    7 [O&-]
M  END
>  <PDB_ID>  (2847) 
pdb3ec7

>  <RESIDUE_NAME>  (2847) 
GLU   PHE

>  <FRAG_NAME>  (2847) 
ACET   MBZ

>  <FRAG_ATOM_NUM>  (2847) 
fragi: 7 fragj: 15

>  <atom.prop.CHAIN_ID>  (2847) 
A A A A A A A Z Z Z Z Z Z Z Z Z Z Z Z Z Z Z

>  <atom.prop.IS_HEAVY_ATOM>  (2847) 
1 0 0 0 1 1 1 1 0 0 0 1 1 0 1 0 1 0 1 0 1 0

>  <DIFUSE_FUNC_ATOM>  (2847) 
n/a

>  <FINAL_SINGLE_POINT_ENERGY>  (2847) 
0

>  <NONCOV_INTER_ENERGY_QM>  (2847) 
0

>  <FF_Energy>  (2847) 
0.71

>  <QM_Energy>  (2847) 
-6.54

>  <source>  (2847) 
ACET_MBZ_03

>  <Index>  (2847) 
11719

$$$$
ACEH-pdb2ffs-A-ASH-138:MBZ-pdb2ffs-A-PHE-110
     RDKit          3D

 22 21  0  0  0  0  0  0  0  0999 V2000
   -0.2322   -0.0337   -3.3123 C   0  0  0  0  0  0  0  0  0  0  0  0
   -0.9851    0.1710   -3.9250 H   0  0  0  0  0  0  0  0  0  0  0  0
   -0.5658   -0.2572   -2.4065 H   0  0  0  0  0  0  0  0  0  0  0  0
    0.3121   -0.8928   -3.7045 H   0  0  0  0  0  0  0  0  0  0  0  0
    0.6434    1.2462   -3.1940 C   0  0  0  0  0  0  0  0  0  0  0  0
    1.8988    1.1311   -3.0001 O   0  0  0  0  0  0  0  0  0  0  0  0
    0.0254    2.3632   -3.3294 O   0  0  0  0  0  0  0  0  0  0  0  0
    0.0273    2.8881   -0.0011 C   0  0  0  0  0  0  0  0  0  0  0  0
   -0.6809    3.2054   -0.6144 H   0  0  0  0  0  0  0  0  0  0  0  0
    0.9225    3.1760   -0.3069 H   0  0  0  0  0  0  0  0  0  0  0  0
   -0.1528    3.3208    0.9830 H   0  0  0  0  0  0  0  0  0  0  0  0
   -0.0004    1.3926   -0.0005 C   0  0  0  0  0  0  0  0  0  0  0  0
   -1.1899    0.7165   -0.0157 C   0  0  0  0  0  0  0  0  0  0  0  0
   -2.0540    1.2090   -0.0392 H   0  0  0  0  0  0  0  0  0  0  0  0
   -1.1977   -0.6663    0.0000 C   0  0  0  0  0  0  0  0  0  0  0  0
   -2.0793   -1.1605    0.0132 H   0  0  0  0  0  0  0  0  0  0  0  0
   -0.0014   -1.3827   -0.0000 C   0  0  0  0  0  0  0  0  0  0  0  0
   -0.0319   -2.3844   -0.0012 H   0  0  0  0  0  0  0  0  0  0  0  0
    1.1977   -0.7161   -0.0000 C   0  0  0  0  0  0  0  0  0  0  0  0
    2.0725   -1.2207   -0.0101 H   0  0  0  0  0  0  0  0  0  0  0  0
    1.1917    0.6561    0.0162 C   0  0  0  0  0  0  0  0  0  0  0  0
    2.0658    1.1611    0.0405 H   0  0  0  0  0  0  0  0  0  0  0  0
  1  5  1  0
  5  6  2  0
  5  7  1  0
  1  2  1  0
  1  3  1  0
  1  4  1  0
  8 12  1  0
 12 13  2  0
 13 15  1  0
 15 17  2  0
 17 19  1  0
 19 21  2  0
 21 12  1  0
  8  9  1  0
  8 10  1  0
  8 11  1  0
 13 14  1  0
 15 16  1  0
 17 18  1  0
 19 20  1  0
 21 22  1  0
M  CHG  1   7  -1
V    7 [O&-]
M  END
>  <PDB_ID>  (2848) 
pdb2ffs

>  <RESIDUE_NAME>  (2848) 
ASP   PHE

>  <FRAG_NAME>  (2848) 
ACET   MBZ

>  <FRAG_ATOM_NUM>  (2848) 
fragi: 7 fragj: 15

>  <atom.prop.CHAIN_ID>  (2848) 
A A A A A A A Z Z Z Z Z Z Z Z Z Z Z Z Z Z Z

>  <atom.prop.IS_HEAVY_ATOM>  (2848) 
1 0 0 0 1 1 1 1 0 0 0 1 1 0 1 0 1 0 1 0 1 0

>  <DIFUSE_FUNC_ATOM>  (2848) 
n/a

>  <FINAL_SINGLE_POINT_ENERGY>  (2848) 
0

>  <NONCOV_INTER_ENERGY_QM>  (2848) 
0

>  <FF_Energy>  (2848) 
3.04

>  <QM_Energy>  (2848) 
-4.22

>  <source>  (2848) 
ACET_MBZ_03

>  <Index>  (2848) 
11736

$$$$
ACEH-pdb2fhx-A-ASH-57:MBZ-pdb2fhx-A-PHE-61
     RDKit          3D

 22 21  0  0  0  0  0  0  0  0999 V2000
   -4.2222    3.3822   -0.2879 C   0  0  0  0  0  0  0  0  0  0  0  0
   -4.7836    3.0945   -1.0537 H   0  0  0  0  0  0  0  0  0  0  0  0
   -3.3502    3.7327   -0.6013 H   0  0  0  0  0  0  0  0  0  0  0  0
   -4.7439    4.1881    0.2283 H   0  0  0  0  0  0  0  0  0  0  0  0
   -3.9773    2.1931    0.6133 C   0  0  0  0  0  0  0  0  0  0  0  0
   -4.2359    1.0563    0.1849 O   0  0  0  0  0  0  0  0  0  0  0  0
   -3.5286    2.3843    1.7588 O   0  0  0  0  0  0  0  0  0  0  0  0
   -0.0123    2.9174   -0.0188 C   0  0  0  0  0  0  0  0  0  0  0  0
   -0.9356    3.2138   -0.2165 H   0  0  0  0  0  0  0  0  0  0  0  0
    0.6185    3.2167   -0.7207 H   0  0  0  0  0  0  0  0  0  0  0  0
    0.2906    3.3863    0.9175 H   0  0  0  0  0  0  0  0  0  0  0  0
   -0.0012    1.4082    0.0065 C   0  0  0  0  0  0  0  0  0  0  0  0
   -1.1950    0.6923   -0.0029 C   0  0  0  0  0  0  0  0  0  0  0  0
   -2.0656    1.1813   -0.0136 H   0  0  0  0  0  0  0  0  0  0  0  0
   -1.2028   -0.7024    0.0000 C   0  0  0  0  0  0  0  0  0  0  0  0
   -2.0806   -1.1921    0.0006 H   0  0  0  0  0  0  0  0  0  0  0  0
   -0.0029   -1.3996    0.0041 C   0  0  0  0  0  0  0  0  0  0  0  0
   -0.0045   -2.3975    0.0093 H   0  0  0  0  0  0  0  0  0  0  0  0
    1.2028   -0.7007   -0.0000 C   0  0  0  0  0  0  0  0  0  0  0  0
    2.0828   -1.1950    0.0039 H   0  0  0  0  0  0  0  0  0  0  0  0
    1.1991    0.7023   -0.0076 C   0  0  0  0  0  0  0  0  0  0  0  0
    2.0652    1.1935   -0.0239 H   0  0  0  0  0  0  0  0  0  0  0  0
  1  5  1  0
  5  6  2  0
  5  7  1  0
  1  2  1  0
  1  3  1  0
  1  4  1  0
  8 12  1  0
 12 13  2  0
 13 15  1  0
 15 17  2  0
 17 19  1  0
 19 21  2  0
 21 12  1  0
  8  9  1  0
  8 10  1  0
  8 11  1  0
 13 14  1  0
 15 16  1  0
 17 18  1  0
 19 20  1  0
 21 22  1  0
M  CHG  1   7  -1
V    7 [O&-]
M  END
>  <PDB_ID>  (2849) 
pdb2fhx

>  <RESIDUE_NAME>  (2849) 
ASP   PHE

>  <FRAG_NAME>  (2849) 
ACET   MBZ

>  <FRAG_ATOM_NUM>  (2849) 
fragi: 7 fragj: 15

>  <atom.prop.CHAIN_ID>  (2849) 
A A A A A A A Z Z Z Z Z Z Z Z Z Z Z Z Z Z Z

>  <atom.prop.IS_HEAVY_ATOM>  (2849) 
1 0 0 0 1 1 1 1 0 0 0 1 1 0 1 0 1 0 1 0 1 0

>  <DIFUSE_FUNC_ATOM>  (2849) 
n/a

>  <FINAL_SINGLE_POINT_ENERGY>  (2849) 
0

>  <NONCOV_INTER_ENERGY_QM>  (2849) 
0

>  <FF_Energy>  (2849) 
4.68

>  <QM_Energy>  (2849) 
-6.07

>  <source>  (2849) 
ACET_MBZ_03

>  <Index>  (2849) 
11767

$$$$
ACEH-pdb6hba-A-GLH-277:MBZ-pdb6hba-A-PHE-224
     RDKit          3D

 22 21  0  0  0  0  0  0  0  0999 V2000
    3.2592    1.1386   -2.6046 C   0  0  0  0  0  0  0  0  0  0  0  0
    3.1468    0.7316   -3.5008 H   0  0  0  0  0  0  0  0  0  0  0  0
    2.7833    0.6124   -1.9140 H   0  0  0  0  0  0  0  0  0  0  0  0
    4.3222    1.1252   -2.3634 H   0  0  0  0  0  0  0  0  0  0  0  0
    2.6233    2.5205   -2.6454 C   0  0  0  0  0  0  0  0  0  0  0  0
    3.3413    3.5163   -2.4218 O   0  0  0  0  0  0  0  0  0  0  0  0
    1.4164    2.6203   -2.9998 O   0  0  0  0  0  0  0  0  0  0  0  0
    0.0104    2.9057   -0.0126 C   0  0  0  0  0  0  0  0  0  0  0  0
   -0.6464    3.2064   -0.6861 H   0  0  0  0  0  0  0  0  0  0  0  0
    0.9258    3.1980   -0.2424 H   0  0  0  0  0  0  0  0  0  0  0  0
   -0.2566    3.3541    0.9443 H   0  0  0  0  0  0  0  0  0  0  0  0
   -0.0010    1.3921   -0.0015 C   0  0  0  0  0  0  0  0  0  0  0  0
   -1.1831    0.7066    0.0068 C   0  0  0  0  0  0  0  0  0  0  0  0
   -2.0528    1.1987    0.0168 H   0  0  0  0  0  0  0  0  0  0  0  0
   -1.1941   -0.6744   -0.0000 C   0  0  0  0  0  0  0  0  0  0  0  0
   -2.0807   -1.1647   -0.0033 H   0  0  0  0  0  0  0  0  0  0  0  0
   -0.0075   -1.3892   -0.0000 C   0  0  0  0  0  0  0  0  0  0  0  0
   -0.0260   -2.3858   -0.0008 H   0  0  0  0  0  0  0  0  0  0  0  0
    1.1941   -0.7066   -0.0000 C   0  0  0  0  0  0  0  0  0  0  0  0
    2.0717   -1.2111    0.0052 H   0  0  0  0  0  0  0  0  0  0  0  0
    1.1916    0.6714   -0.0053 C   0  0  0  0  0  0  0  0  0  0  0  0
    2.0623    1.1721   -0.0128 H   0  0  0  0  0  0  0  0  0  0  0  0
  1  5  1  0
  5  6  2  0
  5  7  1  0
  1  2  1  0
  1  3  1  0
  1  4  1  0
  8 12  1  0
 12 13  2  0
 13 15  1  0
 15 17  2  0
 17 19  1  0
 19 21  2  0
 21 12  1  0
  8  9  1  0
  8 10  1  0
  8 11  1  0
 13 14  1  0
 15 16  1  0
 17 18  1  0
 19 20  1  0
 21 22  1  0
M  CHG  1   7  -1
V    7 [O&-]
M  END
>  <PDB_ID>  (2850) 
pdb6hba

>  <RESIDUE_NAME>  (2850) 
GLU   PHE

>  <FRAG_NAME>  (2850) 
ACET   MBZ

>  <FRAG_ATOM_NUM>  (2850) 
fragi: 7 fragj: 15

>  <atom.prop.CHAIN_ID>  (2850) 
A A A A A A A Z Z Z Z Z Z Z Z Z Z Z Z Z Z Z

>  <atom.prop.IS_HEAVY_ATOM>  (2850) 
1 0 0 0 1 1 1 1 0 0 0 1 1 0 1 0 1 0 1 0 1 0

>  <DIFUSE_FUNC_ATOM>  (2850) 
n/a

>  <FINAL_SINGLE_POINT_ENERGY>  (2850) 
0

>  <NONCOV_INTER_ENERGY_QM>  (2850) 
0

>  <FF_Energy>  (2850) 
1.4

>  <QM_Energy>  (2850) 
-4.19

>  <source>  (2850) 
ACET_MBZ_03

>  <Index>  (2850) 
11780

$$$$
ACEH-pdb6hba-B-GLH-277:MBZ-pdb6hba-B-PHE-224
     RDKit          3D

 22 21  0  0  0  0  0  0  0  0999 V2000
    3.2011    1.1541   -2.6190 C   0  0  0  0  0  0  0  0  0  0  0  0
    3.0653    0.7737   -3.5218 H   0  0  0  0  0  0  0  0  0  0  0  0
    2.7391    0.6137   -1.9307 H   0  0  0  0  0  0  0  0  0  0  0  0
    4.2693    1.1456   -2.4024 H   0  0  0  0  0  0  0  0  0  0  0  0
    2.5466    2.5443   -2.6124 C   0  0  0  0  0  0  0  0  0  0  0  0
    3.2533    3.5698   -2.4609 O   0  0  0  0  0  0  0  0  0  0  0  0
    1.2950    2.5254   -2.9197 O   0  0  0  0  0  0  0  0  0  0  0  0
    0.0009    2.9096   -0.0109 C   0  0  0  0  0  0  0  0  0  0  0  0
   -0.6770    3.2106   -0.6631 H   0  0  0  0  0  0  0  0  0  0  0  0
    0.9068    3.2097   -0.2643 H   0  0  0  0  0  0  0  0  0  0  0  0
   -0.2415    3.3568    0.9531 H   0  0  0  0  0  0  0  0  0  0  0  0
   -0.0018    1.3968   -0.0038 C   0  0  0  0  0  0  0  0  0  0  0  0
   -1.1855    0.6961    0.0046 C   0  0  0  0  0  0  0  0  0  0  0  0
   -2.0570    1.1891    0.0130 H   0  0  0  0  0  0  0  0  0  0  0  0
   -1.1941   -0.6826    0.0000 C   0  0  0  0  0  0  0  0  0  0  0  0
   -2.0773   -1.1761   -0.0043 H   0  0  0  0  0  0  0  0  0  0  0  0
   -0.0040   -1.3884    0.0024 C   0  0  0  0  0  0  0  0  0  0  0  0
   -0.0184   -2.3877    0.0055 H   0  0  0  0  0  0  0  0  0  0  0  0
    1.1941   -0.7042    0.0000 C   0  0  0  0  0  0  0  0  0  0  0  0
    2.0748   -1.2036    0.0017 H   0  0  0  0  0  0  0  0  0  0  0  0
    1.1914    0.6823   -0.0032 C   0  0  0  0  0  0  0  0  0  0  0  0
    2.0621    1.1785   -0.0058 H   0  0  0  0  0  0  0  0  0  0  0  0
  1  5  1  0
  5  6  2  0
  5  7  1  0
  1  2  1  0
  1  3  1  0
  1  4  1  0
  8 12  1  0
 12 13  2  0
 13 15  1  0
 15 17  2  0
 17 19  1  0
 19 21  2  0
 21 12  1  0
  8  9  1  0
  8 10  1  0
  8 11  1  0
 13 14  1  0
 15 16  1  0
 17 18  1  0
 19 20  1  0
 21 22  1  0
M  CHG  1   7  -1
V    7 [O&-]
M  END
>  <PDB_ID>  (2851) 
pdb6hba

>  <RESIDUE_NAME>  (2851) 
GLU   PHE

>  <FRAG_NAME>  (2851) 
ACET   MBZ

>  <FRAG_ATOM_NUM>  (2851) 
fragi: 7 fragj: 15

>  <atom.prop.CHAIN_ID>  (2851) 
A A A A A A A Z Z Z Z Z Z Z Z Z Z Z Z Z Z Z

>  <atom.prop.IS_HEAVY_ATOM>  (2851) 
1 0 0 0 1 1 1 1 0 0 0 1 1 0 1 0 1 0 1 0 1 0

>  <DIFUSE_FUNC_ATOM>  (2851) 
n/a

>  <FINAL_SINGLE_POINT_ENERGY>  (2851) 
0

>  <NONCOV_INTER_ENERGY_QM>  (2851) 
0

>  <FF_Energy>  (2851) 
2.11

>  <QM_Energy>  (2851) 
-4.02

>  <source>  (2851) 
ACET_MBZ_03

>  <Index>  (2851) 
11781

$$$$
ACEH-pdb4fai-B-ASH-294:MBZ-pdb4fai-B-PHE-187
     RDKit          3D

 22 21  0  0  0  0  0  0  0  0999 V2000
    1.8561    0.5593    3.4203 C   0  0  0  0  0  0  0  0  0  0  0  0
    2.7875    0.3211    3.1678 H   0  0  0  0  0  0  0  0  0  0  0  0
    1.2060    0.0873    2.8360 H   0  0  0  0  0  0  0  0  0  0  0  0
    1.6936    0.2121    4.4407 H   0  0  0  0  0  0  0  0  0  0  0  0
    1.6682    2.0491    3.2686 C   0  0  0  0  0  0  0  0  0  0  0  0
    0.7401    2.5818    3.8656 O   0  0  0  0  0  0  0  0  0  0  0  0
    2.4108    2.6809    2.4914 O   0  0  0  0  0  0  0  0  0  0  0  0
    0.0135    2.9007    0.0107 C   0  0  0  0  0  0  0  0  0  0  0  0
    0.9431    3.2060    0.1470 H   0  0  0  0  0  0  0  0  0  0  0  0
   -0.5760    3.2019    0.7450 H   0  0  0  0  0  0  0  0  0  0  0  0
   -0.3519    3.3448   -0.9153 H   0  0  0  0  0  0  0  0  0  0  0  0
    0.0164    1.3913    0.0082 C   0  0  0  0  0  0  0  0  0  0  0  0
   -1.1876    0.7071    0.0045 C   0  0  0  0  0  0  0  0  0  0  0  0
   -2.0462    1.2006    0.0038 H   0  0  0  0  0  0  0  0  0  0  0  0
   -1.1941   -0.6831   -0.0000 C   0  0  0  0  0  0  0  0  0  0  0  0
   -2.0917   -1.1602    0.0040 H   0  0  0  0  0  0  0  0  0  0  0  0
   -0.0354   -1.3670   -0.0074 C   0  0  0  0  0  0  0  0  0  0  0  0
   -0.0414   -2.3852   -0.0194 H   0  0  0  0  0  0  0  0  0  0  0  0
    1.1941   -0.7166    0.0000 C   0  0  0  0  0  0  0  0  0  0  0  0
    2.0521   -1.2349    0.0106 H   0  0  0  0  0  0  0  0  0  0  0  0
    1.2066    0.6684   -0.0053 C   0  0  0  0  0  0  0  0  0  0  0  0
    2.0787    1.1578   -0.0198 H   0  0  0  0  0  0  0  0  0  0  0  0
  1  5  1  0
  5  6  2  0
  5  7  1  0
  1  2  1  0
  1  3  1  0
  1  4  1  0
  8 12  1  0
 12 13  2  0
 13 15  1  0
 15 17  2  0
 17 19  1  0
 19 21  2  0
 21 12  1  0
  8  9  1  0
  8 10  1  0
  8 11  1  0
 13 14  1  0
 15 16  1  0
 17 18  1  0
 19 20  1  0
 21 22  1  0
M  CHG  1   7  -1
V    7 [O&-]
M  END
>  <PDB_ID>  (2852) 
pdb4fai

>  <RESIDUE_NAME>  (2852) 
ASP   PHE

>  <FRAG_NAME>  (2852) 
ACET   MBZ

>  <FRAG_ATOM_NUM>  (2852) 
fragi: 7 fragj: 15

>  <atom.prop.CHAIN_ID>  (2852) 
A A A A A A A Z Z Z Z Z Z Z Z Z Z Z Z Z Z Z

>  <atom.prop.IS_HEAVY_ATOM>  (2852) 
1 0 0 0 1 1 1 1 0 0 0 1 1 0 1 0 1 0 1 0 1 0

>  <DIFUSE_FUNC_ATOM>  (2852) 
n/a

>  <FINAL_SINGLE_POINT_ENERGY>  (2852) 
0

>  <NONCOV_INTER_ENERGY_QM>  (2852) 
0

>  <FF_Energy>  (2852) 
-0.68

>  <QM_Energy>  (2852) 
-6.16

>  <source>  (2852) 
ACET_MBZ_03

>  <Index>  (2852) 
11797

$$$$
ACEH-pdb5gs7-A-GLH-152:MBZ-pdb5gs7-A-PHE-174
     RDKit          3D

 22 21  0  0  0  0  0  0  0  0999 V2000
    0.0902    5.9857   -3.7608 C   0  0  0  0  0  0  0  0  0  0  0  0
   -0.8232    5.8810   -4.1856 H   0  0  0  0  0  0  0  0  0  0  0  0
    0.7030    5.3019   -4.1873 H   0  0  0  0  0  0  0  0  0  0  0  0
    0.4640    6.9748   -4.0258 H   0  0  0  0  0  0  0  0  0  0  0  0
   -0.0463    5.6190   -2.3121 C   0  0  0  0  0  0  0  0  0  0  0  0
   -0.6759    4.4904   -2.0790 O   0  0  0  0  0  0  0  0  0  0  0  0
    0.3460    6.3511   -1.3499 O   0  0  0  0  0  0  0  0  0  0  0  0
    0.0650    2.8857   -0.0585 C   0  0  0  0  0  0  0  0  0  0  0  0
   -0.4788    3.2019   -0.8238 H   0  0  0  0  0  0  0  0  0  0  0  0
    1.0053    3.1854   -0.1414 H   0  0  0  0  0  0  0  0  0  0  0  0
   -0.3468    3.3295    0.8480 H   0  0  0  0  0  0  0  0  0  0  0  0
    0.0451    1.4031   -0.0500 C   0  0  0  0  0  0  0  0  0  0  0  0
   -1.2054    0.6818   -0.0406 C   0  0  0  0  0  0  0  0  0  0  0  0
   -2.0384    1.2206   -0.0669 H   0  0  0  0  0  0  0  0  0  0  0  0
   -1.2057   -0.6454   -0.0000 C   0  0  0  0  0  0  0  0  0  0  0  0
   -2.1105   -1.1578    0.0052 H   0  0  0  0  0  0  0  0  0  0  0  0
   -0.0449   -1.4029    0.0382 C   0  0  0  0  0  0  0  0  0  0  0  0
   -0.0625   -2.3791    0.0891 H   0  0  0  0  0  0  0  0  0  0  0  0
    1.2057   -0.7094    0.0000 C   0  0  0  0  0  0  0  0  0  0  0  0
    2.0569   -1.2288   -0.0621 H   0  0  0  0  0  0  0  0  0  0  0  0
    1.2051    0.6729    0.0524 C   0  0  0  0  0  0  0  0  0  0  0  0
    2.0856    1.1567    0.1689 H   0  0  0  0  0  0  0  0  0  0  0  0
  1  5  1  0
  5  6  2  0
  5  7  1  0
  1  2  1  0
  1  3  1  0
  1  4  1  0
  8 12  1  0
 12 13  2  0
 13 15  1  0
 15 17  2  0
 17 19  1  0
 19 21  2  0
 21 12  1  0
  8  9  1  0
  8 10  1  0
  8 11  1  0
 13 14  1  0
 15 16  1  0
 17 18  1  0
 19 20  1  0
 21 22  1  0
M  CHG  1   7  -1
V    7 [O&-]
M  END
>  <PDB_ID>  (2853) 
pdb5gs7

>  <RESIDUE_NAME>  (2853) 
GLU   PHE

>  <FRAG_NAME>  (2853) 
ACET   MBZ

>  <FRAG_ATOM_NUM>  (2853) 
fragi: 7 fragj: 15

>  <atom.prop.CHAIN_ID>  (2853) 
A A A A A A A Z Z Z Z Z Z Z Z Z Z Z Z Z Z Z

>  <atom.prop.IS_HEAVY_ATOM>  (2853) 
1 0 0 0 1 1 1 1 0 0 0 1 1 0 1 0 1 0 1 0 1 0

>  <DIFUSE_FUNC_ATOM>  (2853) 
n/a

>  <FINAL_SINGLE_POINT_ENERGY>  (2853) 
0

>  <NONCOV_INTER_ENERGY_QM>  (2853) 
0

>  <FF_Energy>  (2853) 
26.64

>  <QM_Energy>  (2853) 
-2.21

>  <source>  (2853) 
ACET_MBZ_03

>  <Index>  (2853) 
11799

$$$$
ACEH-pdb6hjw-B-GLH-142:MBZ-pdb6hjw-B-PHE-159
     RDKit          3D

 22 21  0  0  0  0  0  0  0  0999 V2000
    4.7942    4.4824    1.1163 C   0  0  0  0  0  0  0  0  0  0  0  0
    5.4370    3.7621    0.9351 H   0  0  0  0  0  0  0  0  0  0  0  0
    4.4602    4.4606    2.0398 H   0  0  0  0  0  0  0  0  0  0  0  0
    5.2955    5.4367    0.9545 H   0  0  0  0  0  0  0  0  0  0  0  0
    3.6099    4.2852    0.1954 C   0  0  0  0  0  0  0  0  0  0  0  0
    3.2299    3.1188   -0.0401 O   0  0  0  0  0  0  0  0  0  0  0  0
    3.0631    5.2954   -0.2967 O   0  0  0  0  0  0  0  0  0  0  0  0
   -0.0025    2.8988    0.0048 C   0  0  0  0  0  0  0  0  0  0  0  0
    0.7992    3.2041    0.4958 H   0  0  0  0  0  0  0  0  0  0  0  0
   -0.8336    3.2029    0.4455 H   0  0  0  0  0  0  0  0  0  0  0  0
    0.0275    3.3437   -0.9898 H   0  0  0  0  0  0  0  0  0  0  0  0
   -0.0012    1.3952   -0.0009 C   0  0  0  0  0  0  0  0  0  0  0  0
   -1.1915    0.6883    0.0009 C   0  0  0  0  0  0  0  0  0  0  0  0
   -2.0606    1.1794    0.0018 H   0  0  0  0  0  0  0  0  0  0  0  0
   -1.1952   -0.6940    0.0000 C   0  0  0  0  0  0  0  0  0  0  0  0
   -2.0732   -1.1908    0.0015 H   0  0  0  0  0  0  0  0  0  0  0  0
    0.0009   -1.3856   -0.0010 C   0  0  0  0  0  0  0  0  0  0  0  0
   -0.0030   -2.3875   -0.0025 H   0  0  0  0  0  0  0  0  0  0  0  0
    1.1952   -0.6929   -0.0000 C   0  0  0  0  0  0  0  0  0  0  0  0
    2.0786   -1.1931    0.0009 H   0  0  0  0  0  0  0  0  0  0  0  0
    1.1919    0.6891    0.0009 C   0  0  0  0  0  0  0  0  0  0  0  0
    2.0606    1.1885    0.0021 H   0  0  0  0  0  0  0  0  0  0  0  0
  1  5  1  0
  5  6  2  0
  5  7  1  0
  1  2  1  0
  1  3  1  0
  1  4  1  0
  8 12  1  0
 12 13  2  0
 13 15  1  0
 15 17  2  0
 17 19  1  0
 19 21  2  0
 21 12  1  0
  8  9  1  0
  8 10  1  0
  8 11  1  0
 13 14  1  0
 15 16  1  0
 17 18  1  0
 19 20  1  0
 21 22  1  0
M  CHG  1   7  -1
V    7 [O&-]
M  END
>  <PDB_ID>  (2854) 
pdb6hjw

>  <RESIDUE_NAME>  (2854) 
GLU   PHE

>  <FRAG_NAME>  (2854) 
ACET   MBZ

>  <FRAG_ATOM_NUM>  (2854) 
fragi: 7 fragj: 15

>  <atom.prop.CHAIN_ID>  (2854) 
A A A A A A A Z Z Z Z Z Z Z Z Z Z Z Z Z Z Z

>  <atom.prop.IS_HEAVY_ATOM>  (2854) 
1 0 0 0 1 1 1 1 0 0 0 1 1 0 1 0 1 0 1 0 1 0

>  <DIFUSE_FUNC_ATOM>  (2854) 
n/a

>  <FINAL_SINGLE_POINT_ENERGY>  (2854) 
0

>  <NONCOV_INTER_ENERGY_QM>  (2854) 
0

>  <FF_Energy>  (2854) 
-1.01

>  <QM_Energy>  (2854) 
-8.69

>  <source>  (2854) 
ACET_MBZ_03

>  <Index>  (2854) 
11842

$$$$
ACEH-pdb3ej6-C-ASH-420:MBZ-pdb3ej6-A-PHE-357
     RDKit          3D

 22 21  0  0  0  0  0  0  0  0999 V2000
    0.7346    0.0972   -3.5460 C   0  0  0  0  0  0  0  0  0  0  0  0
    0.5215   -0.2329   -4.4567 H   0  0  0  0  0  0  0  0  0  0  0  0
    0.3210   -0.4833   -2.8567 H   0  0  0  0  0  0  0  0  0  0  0  0
    1.8159    0.0464   -3.4186 H   0  0  0  0  0  0  0  0  0  0  0  0
    0.1924    1.5056   -3.3935 C   0  0  0  0  0  0  0  0  0  0  0  0
    0.9626    2.4122   -3.0083 O   0  0  0  0  0  0  0  0  0  0  0  0
   -1.0130    1.7052   -3.6511 O   0  0  0  0  0  0  0  0  0  0  0  0
   -0.0007    2.9024    0.0041 C   0  0  0  0  0  0  0  0  0  0  0  0
   -0.7902    3.2095   -0.5044 H   0  0  0  0  0  0  0  0  0  0  0  0
    0.8400    3.2097   -0.4131 H   0  0  0  0  0  0  0  0  0  0  0  0
   -0.0566    3.3377    1.0019 H   0  0  0  0  0  0  0  0  0  0  0  0
    0.0002    1.3991    0.0001 C   0  0  0  0  0  0  0  0  0  0  0  0
   -1.1941    0.6916    0.0003 C   0  0  0  0  0  0  0  0  0  0  0  0
   -2.0616    1.1816   -0.0006 H   0  0  0  0  0  0  0  0  0  0  0  0
   -1.1987   -0.6969   -0.0000 C   0  0  0  0  0  0  0  0  0  0  0  0
   -2.0758   -1.1908    0.0022 H   0  0  0  0  0  0  0  0  0  0  0  0
   -0.0003   -1.3906   -0.0010 C   0  0  0  0  0  0  0  0  0  0  0  0
   -0.0029   -2.3899   -0.0029 H   0  0  0  0  0  0  0  0  0  0  0  0
    1.1987   -0.6942    0.0000 C   0  0  0  0  0  0  0  0  0  0  0  0
    2.0806   -1.1939    0.0021 H   0  0  0  0  0  0  0  0  0  0  0  0
    1.1942    0.6909    0.0005 C   0  0  0  0  0  0  0  0  0  0  0  0
    2.0631    1.1893    0.0011 H   0  0  0  0  0  0  0  0  0  0  0  0
  1  5  1  0
  5  6  2  0
  5  7  1  0
  1  2  1  0
  1  3  1  0
  1  4  1  0
  8 12  1  0
 12 13  2  0
 13 15  1  0
 15 17  2  0
 17 19  1  0
 19 21  2  0
 21 12  1  0
  8  9  1  0
  8 10  1  0
  8 11  1  0
 13 14  1  0
 15 16  1  0
 17 18  1  0
 19 20  1  0
 21 22  1  0
M  CHG  1   7  -1
V    7 [O&-]
M  END
>  <PDB_ID>  (2855) 
pdb3ej6

>  <RESIDUE_NAME>  (2855) 
ASP   PHE

>  <FRAG_NAME>  (2855) 
ACET   MBZ

>  <FRAG_ATOM_NUM>  (2855) 
fragi: 7 fragj: 15

>  <atom.prop.CHAIN_ID>  (2855) 
A A A A A A A Z Z Z Z Z Z Z Z Z Z Z Z Z Z Z

>  <atom.prop.IS_HEAVY_ATOM>  (2855) 
1 0 0 0 1 1 1 1 0 0 0 1 1 0 1 0 1 0 1 0 1 0

>  <DIFUSE_FUNC_ATOM>  (2855) 
n/a

>  <FINAL_SINGLE_POINT_ENERGY>  (2855) 
0

>  <NONCOV_INTER_ENERGY_QM>  (2855) 
0

>  <FF_Energy>  (2855) 
1.14

>  <QM_Energy>  (2855) 
-5.49

>  <source>  (2855) 
ACET_MBZ_03

>  <Index>  (2855) 
11897

$$$$
ACEH-pdb3eo7-A-ASH-458:MBZ-pdb3eo7-A-PHE-374
     RDKit          3D

 22 21  0  0  0  0  0  0  0  0999 V2000
    5.1557    3.6463   -1.0788 C   0  0  0  0  0  0  0  0  0  0  0  0
    5.2776    3.9625   -0.1444 H   0  0  0  0  0  0  0  0  0  0  0  0
    5.5613    4.2891   -1.7181 H   0  0  0  0  0  0  0  0  0  0  0  0
    5.6636    2.6878   -1.1860 H   0  0  0  0  0  0  0  0  0  0  0  0
    3.6554    3.5639   -1.3658 C   0  0  0  0  0  0  0  0  0  0  0  0
    2.9566    4.5733   -1.0096 O   0  0  0  0  0  0  0  0  0  0  0  0
    3.1726    2.5261   -1.9222 O   0  0  0  0  0  0  0  0  0  0  0  0
   -0.0230    2.8734   -0.0612 C   0  0  0  0  0  0  0  0  0  0  0  0
    0.8915    3.2092    0.0875 H   0  0  0  0  0  0  0  0  0  0  0  0
   -0.6503    3.1992    0.6264 H   0  0  0  0  0  0  0  0  0  0  0  0
   -0.3614    3.2615   -1.0219 H   0  0  0  0  0  0  0  0  0  0  0  0
    0.0006    1.3926   -0.0201 C   0  0  0  0  0  0  0  0  0  0  0  0
   -1.1923    0.6833   -0.0085 C   0  0  0  0  0  0  0  0  0  0  0  0
   -2.0600    1.1778   -0.0076 H   0  0  0  0  0  0  0  0  0  0  0  0
   -1.1929   -0.6923   -0.0000 C   0  0  0  0  0  0  0  0  0  0  0  0
   -2.0712   -1.1921   -0.0097 H   0  0  0  0  0  0  0  0  0  0  0  0
    0.0002   -1.3817    0.0239 C   0  0  0  0  0  0  0  0  0  0  0  0
   -0.0005   -2.3825    0.0576 H   0  0  0  0  0  0  0  0  0  0  0  0
    1.1929   -0.6871    0.0000 C   0  0  0  0  0  0  0  0  0  0  0  0
    2.0762   -1.1918   -0.0195 H   0  0  0  0  0  0  0  0  0  0  0  0
    1.1916    0.6852    0.0046 C   0  0  0  0  0  0  0  0  0  0  0  0
    2.0608    1.1874    0.0253 H   0  0  0  0  0  0  0  0  0  0  0  0
  1  5  1  0
  5  6  2  0
  5  7  1  0
  1  2  1  0
  1  3  1  0
  1  4  1  0
  8 12  1  0
 12 13  2  0
 13 15  1  0
 15 17  2  0
 17 19  1  0
 19 21  2  0
 21 12  1  0
  8  9  1  0
  8 10  1  0
  8 11  1  0
 13 14  1  0
 15 16  1  0
 17 18  1  0
 19 20  1  0
 21 22  1  0
M  CHG  1   7  -1
V    7 [O&-]
M  END
>  <PDB_ID>  (2856) 
pdb3eo7

>  <RESIDUE_NAME>  (2856) 
ASP   PHE

>  <FRAG_NAME>  (2856) 
ACET   MBZ

>  <FRAG_ATOM_NUM>  (2856) 
fragi: 7 fragj: 15

>  <atom.prop.CHAIN_ID>  (2856) 
A A A A A A A Z Z Z Z Z Z Z Z Z Z Z Z Z Z Z

>  <atom.prop.IS_HEAVY_ATOM>  (2856) 
1 0 0 0 1 1 1 1 0 0 0 1 1 0 1 0 1 0 1 0 1 0

>  <DIFUSE_FUNC_ATOM>  (2856) 
n/a

>  <FINAL_SINGLE_POINT_ENERGY>  (2856) 
0

>  <NONCOV_INTER_ENERGY_QM>  (2856) 
0

>  <FF_Energy>  (2856) 
-1.71

>  <QM_Energy>  (2856) 
-7.08

>  <source>  (2856) 
ACET_MBZ_03

>  <Index>  (2856) 
11944

$$$$
ACEH-pdb3erw-B-GLH-71:MBZ-pdb3erw-B-PHE-75
     RDKit          3D

 22 21  0  0  0  0  0  0  0  0999 V2000
    5.0128   -0.6622    0.0263 C   0  0  0  0  0  0  0  0  0  0  0  0
    4.3116    0.0199   -0.0475 H   0  0  0  0  0  0  0  0  0  0  0  0
    5.3399   -0.9621   -0.8492 H   0  0  0  0  0  0  0  0  0  0  0  0
    5.8503   -0.2304    0.5742 H   0  0  0  0  0  0  0  0  0  0  0  0
    4.4157   -1.8640    0.7317 C   0  0  0  0  0  0  0  0  0  0  0  0
    4.6444   -2.0137    1.9533 O   0  0  0  0  0  0  0  0  0  0  0  0
    3.7120   -2.6585    0.0667 O   0  0  0  0  0  0  0  0  0  0  0  0
   -0.0047    2.8868   -0.0326 C   0  0  0  0  0  0  0  0  0  0  0  0
    0.7300    3.2107    0.5430 H   0  0  0  0  0  0  0  0  0  0  0  0
   -0.8835    3.2005    0.2910 H   0  0  0  0  0  0  0  0  0  0  0  0
    0.1481    3.3006   -1.0293 H   0  0  0  0  0  0  0  0  0  0  0  0
   -0.0004    1.3890   -0.0002 C   0  0  0  0  0  0  0  0  0  0  0  0
   -1.1903    0.6870   -0.0006 C   0  0  0  0  0  0  0  0  0  0  0  0
   -2.0582    1.1823   -0.0025 H   0  0  0  0  0  0  0  0  0  0  0  0
   -1.1983   -0.6908    0.0000 C   0  0  0  0  0  0  0  0  0  0  0  0
   -2.0758   -1.1870    0.0005 H   0  0  0  0  0  0  0  0  0  0  0  0
   -0.0025   -1.3833    0.0020 C   0  0  0  0  0  0  0  0  0  0  0  0
   -0.0038   -2.3836    0.0043 H   0  0  0  0  0  0  0  0  0  0  0  0
    1.1983   -0.6884   -0.0000 C   0  0  0  0  0  0  0  0  0  0  0  0
    2.0782   -1.1934    0.0003 H   0  0  0  0  0  0  0  0  0  0  0  0
    1.1932    0.6865   -0.0012 C   0  0  0  0  0  0  0  0  0  0  0  0
    2.0603    1.1896   -0.0039 H   0  0  0  0  0  0  0  0  0  0  0  0
  1  5  1  0
  5  6  2  0
  5  7  1  0
  1  2  1  0
  1  3  1  0
  1  4  1  0
  8 12  1  0
 12 13  2  0
 13 15  1  0
 15 17  2  0
 17 19  1  0
 19 21  2  0
 21 12  1  0
  8  9  1  0
  8 10  1  0
  8 11  1  0
 13 14  1  0
 15 16  1  0
 17 18  1  0
 19 20  1  0
 21 22  1  0
M  CHG  1   7  -1
V    7 [O&-]
M  END
>  <PDB_ID>  (2857) 
pdb3erw

>  <RESIDUE_NAME>  (2857) 
GLU   PHE

>  <FRAG_NAME>  (2857) 
ACET   MBZ

>  <FRAG_ATOM_NUM>  (2857) 
fragi: 7 fragj: 15

>  <atom.prop.CHAIN_ID>  (2857) 
A A A A A A A Z Z Z Z Z Z Z Z Z Z Z Z Z Z Z

>  <atom.prop.IS_HEAVY_ATOM>  (2857) 
1 0 0 0 1 1 1 1 0 0 0 1 1 0 1 0 1 0 1 0 1 0

>  <DIFUSE_FUNC_ATOM>  (2857) 
n/a

>  <FINAL_SINGLE_POINT_ENERGY>  (2857) 
0

>  <NONCOV_INTER_ENERGY_QM>  (2857) 
0

>  <FF_Energy>  (2857) 
-0.12

>  <QM_Energy>  (2857) 
-5.51

>  <source>  (2857) 
ACET_MBZ_03

>  <Index>  (2857) 
12047

$$$$
ACEH-pdb6i30-A-GLH-247:MBZ-pdb6i30-A-PHE-197
     RDKit          3D

 22 21  0  0  0  0  0  0  0  0999 V2000
    0.2474    0.3107   -3.3991 C   0  0  0  0  0  0  0  0  0  0  0  0
   -0.5958    0.6312   -3.8057 H   0  0  0  0  0  0  0  0  0  0  0  0
    0.1065    0.0240   -2.4632 H   0  0  0  0  0  0  0  0  0  0  0  0
    0.5836   -0.5560   -3.9682 H   0  0  0  0  0  0  0  0  0  0  0  0
    1.2221    1.4954   -3.3715 C   0  0  0  0  0  0  0  0  0  0  0  0
    0.7670    2.6119   -3.0299 O   0  0  0  0  0  0  0  0  0  0  0  0
    2.4271    1.3347   -3.6848 O   0  0  0  0  0  0  0  0  0  0  0  0
    0.0043    2.8994    0.0139 C   0  0  0  0  0  0  0  0  0  0  0  0
   -0.7694    3.2109   -0.5128 H   0  0  0  0  0  0  0  0  0  0  0  0
    0.8579    3.2066   -0.3751 H   0  0  0  0  0  0  0  0  0  0  0  0
   -0.0795    3.3224    1.0151 H   0  0  0  0  0  0  0  0  0  0  0  0
    0.0016    1.3942   -0.0015 C   0  0  0  0  0  0  0  0  0  0  0  0
   -1.1911    0.6870   -0.0002 C   0  0  0  0  0  0  0  0  0  0  0  0
   -2.0586    1.1755   -0.0005 H   0  0  0  0  0  0  0  0  0  0  0  0
   -1.1910   -0.6992   -0.0000 C   0  0  0  0  0  0  0  0  0  0  0  0
   -2.0705   -1.1932    0.0018 H   0  0  0  0  0  0  0  0  0  0  0  0
   -0.0005   -1.3817   -0.0000 C   0  0  0  0  0  0  0  0  0  0  0  0
    0.0025   -2.3859   -0.0001 H   0  0  0  0  0  0  0  0  0  0  0  0
    1.1910   -0.6873    0.0000 C   0  0  0  0  0  0  0  0  0  0  0  0
    2.0757   -1.1910    0.0004 H   0  0  0  0  0  0  0  0  0  0  0  0
    1.1901    0.6870    0.0017 C   0  0  0  0  0  0  0  0  0  0  0  0
    2.0606    1.1868    0.0041 H   0  0  0  0  0  0  0  0  0  0  0  0
  1  5  1  0
  5  6  2  0
  5  7  1  0
  1  2  1  0
  1  3  1  0
  1  4  1  0
  8 12  1  0
 12 13  2  0
 13 15  1  0
 15 17  2  0
 17 19  1  0
 19 21  2  0
 21 12  1  0
  8  9  1  0
  8 10  1  0
  8 11  1  0
 13 14  1  0
 15 16  1  0
 17 18  1  0
 19 20  1  0
 21 22  1  0
M  CHG  1   7  -1
V    7 [O&-]
M  END
>  <PDB_ID>  (2858) 
pdb6i30

>  <RESIDUE_NAME>  (2858) 
GLU   PHE

>  <FRAG_NAME>  (2858) 
ACET   MBZ

>  <FRAG_ATOM_NUM>  (2858) 
fragi: 7 fragj: 15

>  <atom.prop.CHAIN_ID>  (2858) 
A A A A A A A Z Z Z Z Z Z Z Z Z Z Z Z Z Z Z

>  <atom.prop.IS_HEAVY_ATOM>  (2858) 
1 0 0 0 1 1 1 1 0 0 0 1 1 0 1 0 1 0 1 0 1 0

>  <DIFUSE_FUNC_ATOM>  (2858) 
n/a

>  <FINAL_SINGLE_POINT_ENERGY>  (2858) 
0

>  <NONCOV_INTER_ENERGY_QM>  (2858) 
0

>  <FF_Energy>  (2858) 
1.07

>  <QM_Energy>  (2858) 
-5.33

>  <source>  (2858) 
ACET_MBZ_03

>  <Index>  (2858) 
12052

$$$$
ACEH-pdb1f8r-B-ASH-181:MBZ-pdb1f8r-B-PHE-438
     RDKit          3D

 22 21  0  0  0  0  0  0  0  0999 V2000
    3.4704    4.4199    2.1606 C   0  0  0  0  0  0  0  0  0  0  0  0
    2.8147    3.8684    2.6627 H   0  0  0  0  0  0  0  0  0  0  0  0
    3.3901    5.3758    2.4172 H   0  0  0  0  0  0  0  0  0  0  0  0
    4.4717    4.0804    2.4252 H   0  0  0  0  0  0  0  0  0  0  0  0
    3.1635    4.2924    0.6637 C   0  0  0  0  0  0  0  0  0  0  0  0
    3.4603    3.2381    0.0475 O   0  0  0  0  0  0  0  0  0  0  0  0
    2.5954    5.2584    0.1023 O   0  0  0  0  0  0  0  0  0  0  0  0
   -0.0040    2.9109    0.0187 C   0  0  0  0  0  0  0  0  0  0  0  0
    0.8994    3.2160    0.2810 H   0  0  0  0  0  0  0  0  0  0  0  0
   -0.6866    3.2063    0.6712 H   0  0  0  0  0  0  0  0  0  0  0  0
   -0.2430    3.3666   -0.9421 H   0  0  0  0  0  0  0  0  0  0  0  0
    0.0005    1.4056    0.0006 C   0  0  0  0  0  0  0  0  0  0  0  0
   -1.1993    0.6962   -0.0007 C   0  0  0  0  0  0  0  0  0  0  0  0
   -2.0649    1.1882   -0.0032 H   0  0  0  0  0  0  0  0  0  0  0  0
   -1.2065   -0.6967   -0.0000 C   0  0  0  0  0  0  0  0  0  0  0  0
   -2.0825   -1.1897    0.0012 H   0  0  0  0  0  0  0  0  0  0  0  0
   -0.0015   -1.3985    0.0005 C   0  0  0  0  0  0  0  0  0  0  0  0
   -0.0072   -2.3954    0.0010 H   0  0  0  0  0  0  0  0  0  0  0  0
    1.2065   -0.7019    0.0000 C   0  0  0  0  0  0  0  0  0  0  0  0
    2.0846   -1.1985    0.0017 H   0  0  0  0  0  0  0  0  0  0  0  0
    1.2004    0.6953   -0.0004 C   0  0  0  0  0  0  0  0  0  0  0  0
    2.0678    1.1900   -0.0023 H   0  0  0  0  0  0  0  0  0  0  0  0
  1  5  1  0
  5  6  2  0
  5  7  1  0
  1  2  1  0
  1  3  1  0
  1  4  1  0
  8 12  1  0
 12 13  2  0
 13 15  1  0
 15 17  2  0
 17 19  1  0
 19 21  2  0
 21 12  1  0
  8  9  1  0
  8 10  1  0
  8 11  1  0
 13 14  1  0
 15 16  1  0
 17 18  1  0
 19 20  1  0
 21 22  1  0
M  CHG  1   7  -1
V    7 [O&-]
M  END
>  <PDB_ID>  (2859) 
pdb1f8r

>  <RESIDUE_NAME>  (2859) 
ASP   PHE

>  <FRAG_NAME>  (2859) 
ACET   MBZ

>  <FRAG_ATOM_NUM>  (2859) 
fragi: 7 fragj: 15

>  <atom.prop.CHAIN_ID>  (2859) 
A A A A A A A Z Z Z Z Z Z Z Z Z Z Z Z Z Z Z

>  <atom.prop.IS_HEAVY_ATOM>  (2859) 
1 0 0 0 1 1 1 1 0 0 0 1 1 0 1 0 1 0 1 0 1 0

>  <DIFUSE_FUNC_ATOM>  (2859) 
n/a

>  <FINAL_SINGLE_POINT_ENERGY>  (2859) 
0

>  <NONCOV_INTER_ENERGY_QM>  (2859) 
0

>  <FF_Energy>  (2859) 
-1.93

>  <QM_Energy>  (2859) 
-8.48

>  <source>  (2859) 
ACET_MBZ_03

>  <Index>  (2859) 
12067

$$$$
ACEH-pdb1f8r-D-GLH-219:MBZ-pdb1f8r-D-PHE-433
     RDKit          3D

 22 21  0  0  0  0  0  0  0  0999 V2000
    0.1614    5.5370   -3.6129 C   0  0  0  0  0  0  0  0  0  0  0  0
    0.9816    5.5475   -3.0703 H   0  0  0  0  0  0  0  0  0  0  0  0
   -0.6193    5.8624   -3.1103 H   0  0  0  0  0  0  0  0  0  0  0  0
    0.3113    6.1833   -4.4777 H   0  0  0  0  0  0  0  0  0  0  0  0
   -0.1149    4.0848   -3.9904 C   0  0  0  0  0  0  0  0  0  0  0  0
   -0.2813    3.2597   -3.0696 O   0  0  0  0  0  0  0  0  0  0  0  0
   -0.1727    3.7680   -5.1988 O   0  0  0  0  0  0  0  0  0  0  0  0
    0.0174    2.9112   -0.0057 C   0  0  0  0  0  0  0  0  0  0  0  0
    0.4360    3.2083   -0.8518 H   0  0  0  0  0  0  0  0  0  0  0  0
    0.5428    3.2134    0.7771 H   0  0  0  0  0  0  0  0  0  0  0  0
   -0.9677    3.3734    0.0576 H   0  0  0  0  0  0  0  0  0  0  0  0
   -0.0006    1.4040   -0.0004 C   0  0  0  0  0  0  0  0  0  0  0  0
   -1.2004    0.6951    0.0005 C   0  0  0  0  0  0  0  0  0  0  0  0
   -2.0652    1.1865    0.0006 H   0  0  0  0  0  0  0  0  0  0  0  0
   -1.2059   -0.6968    0.0000 C   0  0  0  0  0  0  0  0  0  0  0  0
   -2.0788   -1.1929    0.0018 H   0  0  0  0  0  0  0  0  0  0  0  0
    0.0033   -1.3978   -0.0009 C   0  0  0  0  0  0  0  0  0  0  0  0
   -0.0026   -2.3934   -0.0025 H   0  0  0  0  0  0  0  0  0  0  0  0
    1.2059   -0.6975    0.0000 C   0  0  0  0  0  0  0  0  0  0  0  0
    2.0868   -1.1945    0.0011 H   0  0  0  0  0  0  0  0  0  0  0  0
    1.1977    0.6930    0.0009 C   0  0  0  0  0  0  0  0  0  0  0  0
    2.0660    1.1919    0.0014 H   0  0  0  0  0  0  0  0  0  0  0  0
  1  5  1  0
  5  6  2  0
  5  7  1  0
  1  2  1  0
  1  3  1  0
  1  4  1  0
  8 12  1  0
 12 13  2  0
 13 15  1  0
 15 17  2  0
 17 19  1  0
 19 21  2  0
 21 12  1  0
  8  9  1  0
  8 10  1  0
  8 11  1  0
 13 14  1  0
 15 16  1  0
 17 18  1  0
 19 20  1  0
 21 22  1  0
M  CHG  1   7  -1
V    7 [O&-]
M  END
>  <PDB_ID>  (2860) 
pdb1f8r

>  <RESIDUE_NAME>  (2860) 
GLU   PHE

>  <FRAG_NAME>  (2860) 
ACET   MBZ

>  <FRAG_ATOM_NUM>  (2860) 
fragi: 7 fragj: 15

>  <atom.prop.CHAIN_ID>  (2860) 
A A A A A A A Z Z Z Z Z Z Z Z Z Z Z Z Z Z Z

>  <atom.prop.IS_HEAVY_ATOM>  (2860) 
1 0 0 0 1 1 1 1 0 0 0 1 1 0 1 0 1 0 1 0 1 0

>  <DIFUSE_FUNC_ATOM>  (2860) 
n/a

>  <FINAL_SINGLE_POINT_ENERGY>  (2860) 
0

>  <NONCOV_INTER_ENERGY_QM>  (2860) 
0

>  <FF_Energy>  (2860) 
1.82

>  <QM_Energy>  (2860) 
-3.58

>  <source>  (2860) 
ACET_MBZ_03

>  <Index>  (2860) 
12070

$$$$
ACEH-pdb1f8r-D-ASH-181:MBZ-pdb1f8r-D-PHE-438
     RDKit          3D

 22 21  0  0  0  0  0  0  0  0999 V2000
    3.3883    4.5001    2.1929 C   0  0  0  0  0  0  0  0  0  0  0  0
    2.6973    3.9841    2.6837 H   0  0  0  0  0  0  0  0  0  0  0  0
    3.3086    5.4689    2.3912 H   0  0  0  0  0  0  0  0  0  0  0  0
    4.3680    4.1631    2.5316 H   0  0  0  0  0  0  0  0  0  0  0  0
    3.1759    4.2926    0.6948 C   0  0  0  0  0  0  0  0  0  0  0  0
    3.5304    3.2119    0.1675 O   0  0  0  0  0  0  0  0  0  0  0  0
    2.6400    5.2122    0.0433 O   0  0  0  0  0  0  0  0  0  0  0  0
   -0.0082    2.9105   -0.0196 C   0  0  0  0  0  0  0  0  0  0  0  0
    0.8828    3.2258    0.2685 H   0  0  0  0  0  0  0  0  0  0  0  0
   -0.7170    3.2226    0.5950 H   0  0  0  0  0  0  0  0  0  0  0  0
   -0.2089    3.3411   -1.0005 H   0  0  0  0  0  0  0  0  0  0  0  0
   -0.0017    1.4058   -0.0010 C   0  0  0  0  0  0  0  0  0  0  0  0
   -1.1969    0.6942    0.0009 C   0  0  0  0  0  0  0  0  0  0  0  0
   -2.0654    1.1836    0.0011 H   0  0  0  0  0  0  0  0  0  0  0  0
   -1.2069   -0.7027    0.0000 C   0  0  0  0  0  0  0  0  0  0  0  0
   -2.0811   -1.1931    0.0005 H   0  0  0  0  0  0  0  0  0  0  0  0
    0.0004   -1.4021    0.0008 C   0  0  0  0  0  0  0  0  0  0  0  0
    0.0004   -2.3960    0.0013 H   0  0  0  0  0  0  0  0  0  0  0  0
    1.2069   -0.6949   -0.0000 C   0  0  0  0  0  0  0  0  0  0  0  0
    2.0869   -1.1911    0.0017 H   0  0  0  0  0  0  0  0  0  0  0  0
    1.1981    0.6998   -0.0007 C   0  0  0  0  0  0  0  0  0  0  0  0
    2.0653    1.1974   -0.0020 H   0  0  0  0  0  0  0  0  0  0  0  0
  1  5  1  0
  5  6  2  0
  5  7  1  0
  1  2  1  0
  1  3  1  0
  1  4  1  0
  8 12  1  0
 12 13  2  0
 13 15  1  0
 15 17  2  0
 17 19  1  0
 19 21  2  0
 21 12  1  0
  8  9  1  0
  8 10  1  0
  8 11  1  0
 13 14  1  0
 15 16  1  0
 17 18  1  0
 19 20  1  0
 21 22  1  0
M  CHG  1   7  -1
V    7 [O&-]
M  END
>  <PDB_ID>  (2861) 
pdb1f8r

>  <RESIDUE_NAME>  (2861) 
ASP   PHE

>  <FRAG_NAME>  (2861) 
ACET   MBZ

>  <FRAG_ATOM_NUM>  (2861) 
fragi: 7 fragj: 15

>  <atom.prop.CHAIN_ID>  (2861) 
A A A A A A A Z Z Z Z Z Z Z Z Z Z Z Z Z Z Z

>  <atom.prop.IS_HEAVY_ATOM>  (2861) 
1 0 0 0 1 1 1 1 0 0 0 1 1 0 1 0 1 0 1 0 1 0

>  <DIFUSE_FUNC_ATOM>  (2861) 
n/a

>  <FINAL_SINGLE_POINT_ENERGY>  (2861) 
0

>  <NONCOV_INTER_ENERGY_QM>  (2861) 
0

>  <FF_Energy>  (2861) 
-2.2

>  <QM_Energy>  (2861) 
-8.47

>  <source>  (2861) 
ACET_MBZ_03

>  <Index>  (2861) 
12071

$$$$
ACEH-pdb4fxu-B-GLH-89:MBZ-pdb4fxu-B-PHE-2
     RDKit          3D

 22 21  0  0  0  0  0  0  0  0999 V2000
    4.1656    2.6732   -1.8561 C   0  0  0  0  0  0  0  0  0  0  0  0
    4.1132    2.0704   -1.0655 H   0  0  0  0  0  0  0  0  0  0  0  0
    5.0710    3.0824   -1.9166 H   0  0  0  0  0  0  0  0  0  0  0  0
    4.0059    2.0708   -2.7503 H   0  0  0  0  0  0  0  0  0  0  0  0
    3.1754    3.7921   -1.6403 C   0  0  0  0  0  0  0  0  0  0  0  0
    2.0835    3.7622   -2.2548 O   0  0  0  0  0  0  0  0  0  0  0  0
    3.4920    4.6997   -0.8405 O   0  0  0  0  0  0  0  0  0  0  0  0
   -0.0020    2.9151    0.0335 C   0  0  0  0  0  0  0  0  0  0  0  0
   -0.8834    3.2293   -0.2683 H   0  0  0  0  0  0  0  0  0  0  0  0
    0.7253    3.2387   -0.5437 H   0  0  0  0  0  0  0  0  0  0  0  0
    0.1672    3.3117    1.0346 H   0  0  0  0  0  0  0  0  0  0  0  0
   -0.0006    1.4074   -0.0096 C   0  0  0  0  0  0  0  0  0  0  0  0
   -1.1962    0.6955   -0.0043 C   0  0  0  0  0  0  0  0  0  0  0  0
   -2.0639    1.1796   -0.0050 H   0  0  0  0  0  0  0  0  0  0  0  0
   -1.1961   -0.7025    0.0000 C   0  0  0  0  0  0  0  0  0  0  0  0
   -2.0750   -1.1926    0.0073 H   0  0  0  0  0  0  0  0  0  0  0  0
   -0.0009   -1.3899   -0.0043 C   0  0  0  0  0  0  0  0  0  0  0  0
   -0.0051   -2.3950   -0.0109 H   0  0  0  0  0  0  0  0  0  0  0  0
    1.1961   -0.7047   -0.0000 C   0  0  0  0  0  0  0  0  0  0  0  0
    2.0784   -1.1999   -0.0087 H   0  0  0  0  0  0  0  0  0  0  0  0
    1.1977    0.6942    0.0183 C   0  0  0  0  0  0  0  0  0  0  0  0
    2.0659    1.1842    0.0511 H   0  0  0  0  0  0  0  0  0  0  0  0
  1  5  1  0
  5  6  2  0
  5  7  1  0
  1  2  1  0
  1  3  1  0
  1  4  1  0
  8 12  1  0
 12 13  2  0
 13 15  1  0
 15 17  2  0
 17 19  1  0
 19 21  2  0
 21 12  1  0
  8  9  1  0
  8 10  1  0
  8 11  1  0
 13 14  1  0
 15 16  1  0
 17 18  1  0
 19 20  1  0
 21 22  1  0
M  CHG  1   7  -1
V    7 [O&-]
M  END
>  <PDB_ID>  (2862) 
pdb4fxu

>  <RESIDUE_NAME>  (2862) 
GLU   PHE

>  <FRAG_NAME>  (2862) 
ACET   MBZ

>  <FRAG_ATOM_NUM>  (2862) 
fragi: 7 fragj: 15

>  <atom.prop.CHAIN_ID>  (2862) 
A A A A A A A Z Z Z Z Z Z Z Z Z Z Z Z Z Z Z

>  <atom.prop.IS_HEAVY_ATOM>  (2862) 
1 0 0 0 1 1 1 1 0 0 0 1 1 0 1 0 1 0 1 0 1 0

>  <DIFUSE_FUNC_ATOM>  (2862) 
n/a

>  <FINAL_SINGLE_POINT_ENERGY>  (2862) 
0

>  <NONCOV_INTER_ENERGY_QM>  (2862) 
0

>  <FF_Energy>  (2862) 
-0.18

>  <QM_Energy>  (2862) 
-6.47

>  <source>  (2862) 
ACET_MBZ_03

>  <Index>  (2862) 
12117

$$$$
ACEH-pdb6ibg-C-GLH-126:MBZ-pdb6ibg-C-PHE-76
     RDKit          3D

 22 21  0  0  0  0  0  0  0  0999 V2000
    0.5263    0.0717    3.3749 C   0  0  0  0  0  0  0  0  0  0  0  0
    0.0446    0.1386    2.5037 H   0  0  0  0  0  0  0  0  0  0  0  0
   -0.1071    0.2538    4.1245 H   0  0  0  0  0  0  0  0  0  0  0  0
    0.8978   -0.9475    3.4809 H   0  0  0  0  0  0  0  0  0  0  0  0
    1.5709    1.1876    3.3946 C   0  0  0  0  0  0  0  0  0  0  0  0
    1.1690    2.3846    3.4294 O   0  0  0  0  0  0  0  0  0  0  0  0
    2.7816    0.8727    3.3551 O   0  0  0  0  0  0  0  0  0  0  0  0
    0.0319    2.9156    0.0096 C   0  0  0  0  0  0  0  0  0  0  0  0
    0.6866    3.2135   -0.6846 H   0  0  0  0  0  0  0  0  0  0  0  0
    0.3531    3.1976    0.9136 H   0  0  0  0  0  0  0  0  0  0  0  0
   -0.9112    3.4273   -0.1821 H   0  0  0  0  0  0  0  0  0  0  0  0
    0.0025    1.4035   -0.0115 C   0  0  0  0  0  0  0  0  0  0  0  0
   -1.1911    0.6931    0.0098 C   0  0  0  0  0  0  0  0  0  0  0  0
   -2.0592    1.1825    0.0313 H   0  0  0  0  0  0  0  0  0  0  0  0
   -1.1917   -0.6935   -0.0000 C   0  0  0  0  0  0  0  0  0  0  0  0
   -2.0743   -1.1863   -0.0105 H   0  0  0  0  0  0  0  0  0  0  0  0
   -0.0028   -1.3886    0.0065 C   0  0  0  0  0  0  0  0  0  0  0  0
   -0.0098   -2.3903    0.0155 H   0  0  0  0  0  0  0  0  0  0  0  0
    1.1917   -0.7012    0.0000 C   0  0  0  0  0  0  0  0  0  0  0  0
    2.0751   -1.2000    0.0000 H   0  0  0  0  0  0  0  0  0  0  0  0
    1.1914    0.6866   -0.0048 C   0  0  0  0  0  0  0  0  0  0  0  0
    2.0643    1.1803   -0.0044 H   0  0  0  0  0  0  0  0  0  0  0  0
  1  5  1  0
  5  6  2  0
  5  7  1  0
  1  2  1  0
  1  3  1  0
  1  4  1  0
  8 12  1  0
 12 13  2  0
 13 15  1  0
 15 17  2  0
 17 19  1  0
 19 21  2  0
 21 12  1  0
  8  9  1  0
  8 10  1  0
  8 11  1  0
 13 14  1  0
 15 16  1  0
 17 18  1  0
 19 20  1  0
 21 22  1  0
M  CHG  1   7  -1
V    7 [O&-]
M  END
>  <PDB_ID>  (2863) 
pdb6ibg

>  <RESIDUE_NAME>  (2863) 
GLU   PHE

>  <FRAG_NAME>  (2863) 
ACET   MBZ

>  <FRAG_ATOM_NUM>  (2863) 
fragi: 7 fragj: 15

>  <atom.prop.CHAIN_ID>  (2863) 
A A A A A A A Z Z Z Z Z Z Z Z Z Z Z Z Z Z Z

>  <atom.prop.IS_HEAVY_ATOM>  (2863) 
1 0 0 0 1 1 1 1 0 0 0 1 1 0 1 0 1 0 1 0 1 0

>  <DIFUSE_FUNC_ATOM>  (2863) 
n/a

>  <FINAL_SINGLE_POINT_ENERGY>  (2863) 
0

>  <NONCOV_INTER_ENERGY_QM>  (2863) 
0

>  <FF_Energy>  (2863) 
-0.21

>  <QM_Energy>  (2863) 
-5.6

>  <source>  (2863) 
ACET_MBZ_03

>  <Index>  (2863) 
12140

$$$$
ACEH-pdb6ice-A-GLH-116:MBZ-pdb6ice-A-PHE-113
     RDKit          3D

 22 21  0  0  0  0  0  0  0  0999 V2000
   -2.2402    2.2634   -3.2366 C   0  0  0  0  0  0  0  0  0  0  0  0
   -1.8673    3.1845   -3.1473 H   0  0  0  0  0  0  0  0  0  0  0  0
   -2.6490    1.9808   -2.3702 H   0  0  0  0  0  0  0  0  0  0  0  0
   -3.0331    2.2974   -3.9839 H   0  0  0  0  0  0  0  0  0  0  0  0
   -1.0991    1.3329   -3.5266 C   0  0  0  0  0  0  0  0  0  0  0  0
   -1.0203    0.6382   -4.5278 O   0  0  0  0  0  0  0  0  0  0  0  0
   -0.2417    1.3421   -2.6190 O   0  0  0  0  0  0  0  0  0  0  0  0
    0.0198    2.8913    0.0052 C   0  0  0  0  0  0  0  0  0  0  0  0
    0.8836    3.2021    0.3744 H   0  0  0  0  0  0  0  0  0  0  0  0
   -0.7400    3.2185    0.5491 H   0  0  0  0  0  0  0  0  0  0  0  0
   -0.0831    3.3255   -0.9892 H   0  0  0  0  0  0  0  0  0  0  0  0
    0.0074    1.3961    0.0260 C   0  0  0  0  0  0  0  0  0  0  0  0
   -1.1844    0.7019    0.0216 C   0  0  0  0  0  0  0  0  0  0  0  0
   -2.0522    1.1892    0.0325 H   0  0  0  0  0  0  0  0  0  0  0  0
   -1.1944   -0.6950    0.0000 C   0  0  0  0  0  0  0  0  0  0  0  0
   -2.0736   -1.1831    0.0167 H   0  0  0  0  0  0  0  0  0  0  0  0
    0.0048   -1.4035   -0.0425 C   0  0  0  0  0  0  0  0  0  0  0  0
   -0.0030   -2.3928   -0.1024 H   0  0  0  0  0  0  0  0  0  0  0  0
    1.1944   -0.6986   -0.0000 C   0  0  0  0  0  0  0  0  0  0  0  0
    2.0818   -1.1806    0.0359 H   0  0  0  0  0  0  0  0  0  0  0  0
    1.1722    0.6992   -0.0051 C   0  0  0  0  0  0  0  0  0  0  0  0
    2.0564    1.1882   -0.0336 H   0  0  0  0  0  0  0  0  0  0  0  0
  1  5  1  0
  5  6  2  0
  5  7  1  0
  1  2  1  0
  1  3  1  0
  1  4  1  0
  8 12  1  0
 12 13  2  0
 13 15  1  0
 15 17  2  0
 17 19  1  0
 19 21  2  0
 21 12  1  0
  8  9  1  0
  8 10  1  0
  8 11  1  0
 13 14  1  0
 15 16  1  0
 17 18  1  0
 19 20  1  0
 21 22  1  0
M  CHG  1   7  -1
V    7 [O&-]
M  END
>  <PDB_ID>  (2864) 
pdb6ice

>  <RESIDUE_NAME>  (2864) 
GLU   PHE

>  <FRAG_NAME>  (2864) 
ACET   MBZ

>  <FRAG_ATOM_NUM>  (2864) 
fragi: 7 fragj: 15

>  <atom.prop.CHAIN_ID>  (2864) 
A A A A A A A Z Z Z Z Z Z Z Z Z Z Z Z Z Z Z

>  <atom.prop.IS_HEAVY_ATOM>  (2864) 
1 0 0 0 1 1 1 1 0 0 0 1 1 0 1 0 1 0 1 0 1 0

>  <DIFUSE_FUNC_ATOM>  (2864) 
n/a

>  <FINAL_SINGLE_POINT_ENERGY>  (2864) 
0

>  <NONCOV_INTER_ENERGY_QM>  (2864) 
0

>  <FF_Energy>  (2864) 
10.5

>  <QM_Energy>  (2864) 
1.27

>  <source>  (2864) 
ACET_MBZ_03

>  <Index>  (2864) 
12159

$$$$
ACEH-pdb6ife-B-GLH-186:MBZ-pdb6ife-B-PHE-126
     RDKit          3D

 22 21  0  0  0  0  0  0  0  0999 V2000
   -5.3586   -2.9439    1.0255 C   0  0  0  0  0  0  0  0  0  0  0  0
   -5.5975   -3.8381    1.3684 H   0  0  0  0  0  0  0  0  0  0  0  0
   -6.1610   -2.4074    0.8183 H   0  0  0  0  0  0  0  0  0  0  0  0
   -4.7752   -2.4236    1.7852 H   0  0  0  0  0  0  0  0  0  0  0  0
   -4.6120   -3.1595   -0.3022 C   0  0  0  0  0  0  0  0  0  0  0  0
   -5.2506   -3.6304   -1.2856 O   0  0  0  0  0  0  0  0  0  0  0  0
   -3.3948   -2.8671   -0.3592 O   0  0  0  0  0  0  0  0  0  0  0  0
   -0.0009    2.9079    0.0009 C   0  0  0  0  0  0  0  0  0  0  0  0
   -0.7733    3.2054   -0.5381 H   0  0  0  0  0  0  0  0  0  0  0  0
    0.8529    3.2075   -0.3950 H   0  0  0  0  0  0  0  0  0  0  0  0
   -0.0892    3.3452    0.9955 H   0  0  0  0  0  0  0  0  0  0  0  0
    0.0012    1.3962    0.0027 C   0  0  0  0  0  0  0  0  0  0  0  0
   -1.1962    0.6889   -0.0104 C   0  0  0  0  0  0  0  0  0  0  0  0
   -2.0627    1.1823   -0.0286 H   0  0  0  0  0  0  0  0  0  0  0  0
   -1.2060   -0.7014   -0.0000 C   0  0  0  0  0  0  0  0  0  0  0  0
   -2.0815   -1.1920    0.0083 H   0  0  0  0  0  0  0  0  0  0  0  0
   -0.0059   -1.3907    0.0005 C   0  0  0  0  0  0  0  0  0  0  0  0
    0.0027   -2.3882    0.0004 H   0  0  0  0  0  0  0  0  0  0  0  0
    1.2060   -0.6837   -0.0000 C   0  0  0  0  0  0  0  0  0  0  0  0
    2.0814   -1.1935   -0.0040 H   0  0  0  0  0  0  0  0  0  0  0  0
    1.2010    0.6908    0.0072 C   0  0  0  0  0  0  0  0  0  0  0  0
    2.0657    1.1968    0.0150 H   0  0  0  0  0  0  0  0  0  0  0  0
  1  5  1  0
  5  6  2  0
  5  7  1  0
  1  2  1  0
  1  3  1  0
  1  4  1  0
  8 12  1  0
 12 13  2  0
 13 15  1  0
 15 17  2  0
 17 19  1  0
 19 21  2  0
 21 12  1  0
  8  9  1  0
  8 10  1  0
  8 11  1  0
 13 14  1  0
 15 16  1  0
 17 18  1  0
 19 20  1  0
 21 22  1  0
M  CHG  1   7  -1
V    7 [O&-]
M  END
>  <PDB_ID>  (2865) 
pdb6ife

>  <RESIDUE_NAME>  (2865) 
GLU   PHE

>  <FRAG_NAME>  (2865) 
ACET   MBZ

>  <FRAG_ATOM_NUM>  (2865) 
fragi: 7 fragj: 15

>  <atom.prop.CHAIN_ID>  (2865) 
A A A A A A A Z Z Z Z Z Z Z Z Z Z Z Z Z Z Z

>  <atom.prop.IS_HEAVY_ATOM>  (2865) 
1 0 0 0 1 1 1 1 0 0 0 1 1 0 1 0 1 0 1 0 1 0

>  <DIFUSE_FUNC_ATOM>  (2865) 
n/a

>  <FINAL_SINGLE_POINT_ENERGY>  (2865) 
0

>  <NONCOV_INTER_ENERGY_QM>  (2865) 
0

>  <FF_Energy>  (2865) 
-0.13

>  <QM_Energy>  (2865) 
-5.94

>  <source>  (2865) 
ACET_MBZ_03

>  <Index>  (2865) 
12210

$$$$
ACEH-pdb3ez4-C-ASH-24:MBZ-pdb3ez4-C-PHE-27
     RDKit          3D

 22 21  0  0  0  0  0  0  0  0999 V2000
    5.4723    4.0309    0.3226 C   0  0  0  0  0  0  0  0  0  0  0  0
    6.0283    4.0097   -0.5047 H   0  0  0  0  0  0  0  0  0  0  0  0
    6.0059    3.7102    1.1003 H   0  0  0  0  0  0  0  0  0  0  0  0
    5.1667    5.0603    0.5099 H   0  0  0  0  0  0  0  0  0  0  0  0
    4.2956    3.0897    0.1308 C   0  0  0  0  0  0  0  0  0  0  0  0
    3.9069    2.4254    1.1441 O   0  0  0  0  0  0  0  0  0  0  0  0
    3.7833    2.9623   -1.0385 O   0  0  0  0  0  0  0  0  0  0  0  0
   -0.0193    2.9367    0.0441 C   0  0  0  0  0  0  0  0  0  0  0  0
    0.8598    3.2418    0.3734 H   0  0  0  0  0  0  0  0  0  0  0  0
   -0.7501    3.2158    0.6466 H   0  0  0  0  0  0  0  0  0  0  0  0
   -0.1923    3.3904   -0.9318 H   0  0  0  0  0  0  0  0  0  0  0  0
   -0.0002    1.4251    0.0128 C   0  0  0  0  0  0  0  0  0  0  0  0
   -1.2108    0.6842    0.0136 C   0  0  0  0  0  0  0  0  0  0  0  0
   -2.0781    1.1524    0.0227 H   0  0  0  0  0  0  0  0  0  0  0  0
   -1.2024   -0.7509   -0.0000 C   0  0  0  0  0  0  0  0  0  0  0  0
   -2.0656   -1.2343    0.0068 H   0  0  0  0  0  0  0  0  0  0  0  0
    0.0162   -1.4006   -0.0198 C   0  0  0  0  0  0  0  0  0  0  0  0
    0.0414   -2.4075   -0.0494 H   0  0  0  0  0  0  0  0  0  0  0  0
    1.2024   -0.6848    0.0000 C   0  0  0  0  0  0  0  0  0  0  0  0
    2.0960   -1.1658    0.0214 H   0  0  0  0  0  0  0  0  0  0  0  0
    1.1948    0.7270   -0.0067 C   0  0  0  0  0  0  0  0  0  0  0  0
    2.0643    1.2139   -0.0262 H   0  0  0  0  0  0  0  0  0  0  0  0
  1  5  1  0
  5  6  2  0
  5  7  1  0
  1  2  1  0
  1  3  1  0
  1  4  1  0
  8 12  1  0
 12 13  2  0
 13 15  1  0
 15 17  2  0
 17 19  1  0
 19 21  2  0
 21 12  1  0
  8  9  1  0
  8 10  1  0
  8 11  1  0
 13 14  1  0
 15 16  1  0
 17 18  1  0
 19 20  1  0
 21 22  1  0
M  CHG  1   7  -1
V    7 [O&-]
M  END
>  <PDB_ID>  (2866) 
pdb3ez4

>  <RESIDUE_NAME>  (2866) 
ASP   PHE

>  <FRAG_NAME>  (2866) 
ACET   MBZ

>  <FRAG_ATOM_NUM>  (2866) 
fragi: 7 fragj: 15

>  <atom.prop.CHAIN_ID>  (2866) 
A A A A A A A Z Z Z Z Z Z Z Z Z Z Z Z Z Z Z

>  <atom.prop.IS_HEAVY_ATOM>  (2866) 
1 0 0 0 1 1 1 1 0 0 0 1 1 0 1 0 1 0 1 0 1 0

>  <DIFUSE_FUNC_ATOM>  (2866) 
n/a

>  <FINAL_SINGLE_POINT_ENERGY>  (2866) 
0

>  <NONCOV_INTER_ENERGY_QM>  (2866) 
0

>  <FF_Energy>  (2866) 
-2.61

>  <QM_Energy>  (2866) 
-8.85

>  <source>  (2866) 
ACET_MBZ_03

>  <Index>  (2866) 
12232

$$$$
ACEH-pdb3ez4-F-ASH-24:MBZ-pdb3ez4-F-PHE-27
     RDKit          3D

 22 21  0  0  0  0  0  0  0  0999 V2000
    5.1816    4.2485   -0.0848 C   0  0  0  0  0  0  0  0  0  0  0  0
    5.7130    4.2379   -0.9264 H   0  0  0  0  0  0  0  0  0  0  0  0
    5.7553    3.9950    0.6874 H   0  0  0  0  0  0  0  0  0  0  0  0
    4.8377    5.2700    0.0773 H   0  0  0  0  0  0  0  0  0  0  0  0
    4.0515    3.2540   -0.2049 C   0  0  0  0  0  0  0  0  0  0  0  0
    3.8007    2.5405    0.8349 O   0  0  0  0  0  0  0  0  0  0  0  0
    3.4043    3.1824   -1.3096 O   0  0  0  0  0  0  0  0  0  0  0  0
   -0.0039    2.9076    0.0012 C   0  0  0  0  0  0  0  0  0  0  0  0
    0.8995    3.2225    0.2302 H   0  0  0  0  0  0  0  0  0  0  0  0
   -0.6787    3.2150    0.6480 H   0  0  0  0  0  0  0  0  0  0  0  0
   -0.2632    3.3305   -0.9694 H   0  0  0  0  0  0  0  0  0  0  0  0
    0.0040    1.4050    0.0046 C   0  0  0  0  0  0  0  0  0  0  0  0
   -1.2009    0.6907   -0.0193 C   0  0  0  0  0  0  0  0  0  0  0  0
   -2.0655    1.1728   -0.0516 H   0  0  0  0  0  0  0  0  0  0  0  0
   -1.2023   -0.7196   -0.0000 C   0  0  0  0  0  0  0  0  0  0  0  0
   -2.0724   -1.2069    0.0184 H   0  0  0  0  0  0  0  0  0  0  0  0
    0.0056   -1.3895   -0.0052 C   0  0  0  0  0  0  0  0  0  0  0  0
    0.0181   -2.3936   -0.0136 H   0  0  0  0  0  0  0  0  0  0  0  0
    1.2023   -0.6847    0.0000 C   0  0  0  0  0  0  0  0  0  0  0  0
    2.0859   -1.1815   -0.0098 H   0  0  0  0  0  0  0  0  0  0  0  0
    1.1913    0.6981    0.0200 C   0  0  0  0  0  0  0  0  0  0  0  0
    2.0639    1.1975    0.0450 H   0  0  0  0  0  0  0  0  0  0  0  0
  1  5  1  0
  5  6  2  0
  5  7  1  0
  1  2  1  0
  1  3  1  0
  1  4  1  0
  8 12  1  0
 12 13  2  0
 13 15  1  0
 15 17  2  0
 17 19  1  0
 19 21  2  0
 21 12  1  0
  8  9  1  0
  8 10  1  0
  8 11  1  0
 13 14  1  0
 15 16  1  0
 17 18  1  0
 19 20  1  0
 21 22  1  0
M  CHG  1   7  -1
V    7 [O&-]
M  END
>  <PDB_ID>  (2867) 
pdb3ez4

>  <RESIDUE_NAME>  (2867) 
ASP   PHE

>  <FRAG_NAME>  (2867) 
ACET   MBZ

>  <FRAG_ATOM_NUM>  (2867) 
fragi: 7 fragj: 15

>  <atom.prop.CHAIN_ID>  (2867) 
A A A A A A A Z Z Z Z Z Z Z Z Z Z Z Z Z Z Z

>  <atom.prop.IS_HEAVY_ATOM>  (2867) 
1 0 0 0 1 1 1 1 0 0 0 1 1 0 1 0 1 0 1 0 1 0

>  <DIFUSE_FUNC_ATOM>  (2867) 
n/a

>  <FINAL_SINGLE_POINT_ENERGY>  (2867) 
0

>  <NONCOV_INTER_ENERGY_QM>  (2867) 
0

>  <FF_Energy>  (2867) 
-2.11

>  <QM_Energy>  (2867) 
-9.25

>  <source>  (2867) 
ACET_MBZ_03

>  <Index>  (2867) 
12234

$$$$
ACEH-pdb1fne-A-GLH-21:MBZ-pdb1fne-A-PHE-137
     RDKit          3D

 22 21  0  0  0  0  0  0  0  0999 V2000
   -5.4559    4.5350   -0.1729 C   0  0  0  0  0  0  0  0  0  0  0  0
   -5.6855    5.4923   -0.1629 H   0  0  0  0  0  0  0  0  0  0  0  0
   -5.9800    4.0232    0.4858 H   0  0  0  0  0  0  0  0  0  0  0  0
   -5.6766    4.1424   -1.1655 H   0  0  0  0  0  0  0  0  0  0  0  0
   -4.0009    4.4071    0.1994 C   0  0  0  0  0  0  0  0  0  0  0  0
   -3.5282    3.2620    0.3748 O   0  0  0  0  0  0  0  0  0  0  0  0
   -3.3263    5.4531    0.3145 O   0  0  0  0  0  0  0  0  0  0  0  0
   -0.0056    2.9061    0.0870 C   0  0  0  0  0  0  0  0  0  0  0  0
   -0.8320    3.2380   -0.3337 H   0  0  0  0  0  0  0  0  0  0  0  0
    0.8006    3.2392   -0.3692 H   0  0  0  0  0  0  0  0  0  0  0  0
    0.0165    3.2751    1.1124 H   0  0  0  0  0  0  0  0  0  0  0  0
   -0.0061    1.4045    0.0011 C   0  0  0  0  0  0  0  0  0  0  0  0
   -1.2021    0.6986   -0.0012 C   0  0  0  0  0  0  0  0  0  0  0  0
   -2.0698    1.1819   -0.0055 H   0  0  0  0  0  0  0  0  0  0  0  0
   -1.2053   -0.7037   -0.0000 C   0  0  0  0  0  0  0  0  0  0  0  0
   -2.0739   -1.1991    0.0016 H   0  0  0  0  0  0  0  0  0  0  0  0
    0.0133   -1.3991    0.0008 C   0  0  0  0  0  0  0  0  0  0  0  0
    0.0097   -2.3941    0.0014 H   0  0  0  0  0  0  0  0  0  0  0  0
    1.2053   -0.6925    0.0000 C   0  0  0  0  0  0  0  0  0  0  0  0
    2.0926   -1.1869    0.0011 H   0  0  0  0  0  0  0  0  0  0  0  0
    1.1949    0.6922   -0.0007 C   0  0  0  0  0  0  0  0  0  0  0  0
    2.0613    1.1965   -0.0037 H   0  0  0  0  0  0  0  0  0  0  0  0
  1  5  1  0
  5  6  2  0
  5  7  1  0
  1  2  1  0
  1  3  1  0
  1  4  1  0
  8 12  1  0
 12 13  2  0
 13 15  1  0
 15 17  2  0
 17 19  1  0
 19 21  2  0
 21 12  1  0
  8  9  1  0
  8 10  1  0
  8 11  1  0
 13 14  1  0
 15 16  1  0
 17 18  1  0
 19 20  1  0
 21 22  1  0
M  CHG  1   7  -1
V    7 [O&-]
M  END
>  <PDB_ID>  (2868) 
pdb1fne

>  <RESIDUE_NAME>  (2868) 
GLU   PHE

>  <FRAG_NAME>  (2868) 
ACET   MBZ

>  <FRAG_ATOM_NUM>  (2868) 
fragi: 7 fragj: 15

>  <atom.prop.CHAIN_ID>  (2868) 
A A A A A A A Z Z Z Z Z Z Z Z Z Z Z Z Z Z Z

>  <atom.prop.IS_HEAVY_ATOM>  (2868) 
1 0 0 0 1 1 1 1 0 0 0 1 1 0 1 0 1 0 1 0 1 0

>  <DIFUSE_FUNC_ATOM>  (2868) 
n/a

>  <FINAL_SINGLE_POINT_ENERGY>  (2868) 
0

>  <NONCOV_INTER_ENERGY_QM>  (2868) 
0

>  <FF_Energy>  (2868) 
-2.38

>  <QM_Energy>  (2868) 
-8.04

>  <source>  (2868) 
ACET_MBZ_03

>  <Index>  (2868) 
12238

$$$$
ACEH-pdb1fne-C-GLH-21:MBZ-pdb1fne-C-PHE-137
     RDKit          3D

 22 21  0  0  0  0  0  0  0  0999 V2000
   -5.2735    4.7758   -0.5648 C   0  0  0  0  0  0  0  0  0  0  0  0
   -5.4237    5.7459   -0.6084 H   0  0  0  0  0  0  0  0  0  0  0  0
   -5.8889    4.3303    0.0595 H   0  0  0  0  0  0  0  0  0  0  0  0
   -5.4411    4.3631   -1.5595 H   0  0  0  0  0  0  0  0  0  0  0  0
   -3.8638    4.5485   -0.0642 C   0  0  0  0  0  0  0  0  0  0  0  0
   -3.5130    3.3859    0.2172 O   0  0  0  0  0  0  0  0  0  0  0  0
   -3.1162    5.5361    0.0349 O   0  0  0  0  0  0  0  0  0  0  0  0
    0.0025    2.9001    0.1082 C   0  0  0  0  0  0  0  0  0  0  0  0
   -0.7952    3.2457   -0.3516 H   0  0  0  0  0  0  0  0  0  0  0  0
    0.8366    3.2372   -0.2916 H   0  0  0  0  0  0  0  0  0  0  0  0
   -0.0341    3.2485    1.1403 H   0  0  0  0  0  0  0  0  0  0  0  0
   -0.0013    1.4054    0.0008 C   0  0  0  0  0  0  0  0  0  0  0  0
   -1.1944    0.7046   -0.0019 C   0  0  0  0  0  0  0  0  0  0  0  0
   -2.0628    1.1942   -0.0070 H   0  0  0  0  0  0  0  0  0  0  0  0
   -1.2075   -0.6917   -0.0000 C   0  0  0  0  0  0  0  0  0  0  0  0
   -2.0859   -1.1796    0.0002 H   0  0  0  0  0  0  0  0  0  0  0  0
   -0.0052   -1.4023    0.0033 C   0  0  0  0  0  0  0  0  0  0  0  0
   -0.0146   -2.3959    0.0069 H   0  0  0  0  0  0  0  0  0  0  0  0
    1.2075   -0.7060   -0.0000 C   0  0  0  0  0  0  0  0  0  0  0  0
    2.0821   -1.2041    0.0007 H   0  0  0  0  0  0  0  0  0  0  0  0
    1.2009    0.6900   -0.0021 C   0  0  0  0  0  0  0  0  0  0  0  0
    2.0680    1.1874   -0.0068 H   0  0  0  0  0  0  0  0  0  0  0  0
  1  5  1  0
  5  6  2  0
  5  7  1  0
  1  2  1  0
  1  3  1  0
  1  4  1  0
  8 12  1  0
 12 13  2  0
 13 15  1  0
 15 17  2  0
 17 19  1  0
 19 21  2  0
 21 12  1  0
  8  9  1  0
  8 10  1  0
  8 11  1  0
 13 14  1  0
 15 16  1  0
 17 18  1  0
 19 20  1  0
 21 22  1  0
M  CHG  1   7  -1
V    7 [O&-]
M  END
>  <PDB_ID>  (2869) 
pdb1fne

>  <RESIDUE_NAME>  (2869) 
GLU   PHE

>  <FRAG_NAME>  (2869) 
ACET   MBZ

>  <FRAG_ATOM_NUM>  (2869) 
fragi: 7 fragj: 15

>  <atom.prop.CHAIN_ID>  (2869) 
A A A A A A A Z Z Z Z Z Z Z Z Z Z Z Z Z Z Z

>  <atom.prop.IS_HEAVY_ATOM>  (2869) 
1 0 0 0 1 1 1 1 0 0 0 1 1 0 1 0 1 0 1 0 1 0

>  <DIFUSE_FUNC_ATOM>  (2869) 
n/a

>  <FINAL_SINGLE_POINT_ENERGY>  (2869) 
0

>  <NONCOV_INTER_ENERGY_QM>  (2869) 
0

>  <FF_Energy>  (2869) 
-2.49

>  <QM_Energy>  (2869) 
-8.02

>  <source>  (2869) 
ACET_MBZ_03

>  <Index>  (2869) 
12240

$$$$
ACEH-pdb1fng-A-GLH-21:MBZ-pdb1fng-A-PHE-137
     RDKit          3D

 22 21  0  0  0  0  0  0  0  0999 V2000
    5.3360    4.6689    0.2249 C   0  0  0  0  0  0  0  0  0  0  0  0
    5.5721    5.6222    0.2358 H   0  0  0  0  0  0  0  0  0  0  0  0
    5.8385    4.1676   -0.4547 H   0  0  0  0  0  0  0  0  0  0  0  0
    5.5686    4.2483    1.2032 H   0  0  0  0  0  0  0  0  0  0  0  0
    3.8722    4.5592   -0.1101 C   0  0  0  0  0  0  0  0  0  0  0  0
    3.3759    3.4209   -0.2513 O   0  0  0  0  0  0  0  0  0  0  0  0
    3.2143    5.6129   -0.2268 O   0  0  0  0  0  0  0  0  0  0  0  0
   -0.0009    2.9190   -0.0853 C   0  0  0  0  0  0  0  0  0  0  0  0
    0.8278    3.2492    0.3312 H   0  0  0  0  0  0  0  0  0  0  0  0
   -0.8045    3.2485    0.3791 H   0  0  0  0  0  0  0  0  0  0  0  0
   -0.0310    3.2918   -1.1091 H   0  0  0  0  0  0  0  0  0  0  0  0
    0.0023    1.4103   -0.0004 C   0  0  0  0  0  0  0  0  0  0  0  0
   -1.1978    0.6961   -0.0003 C   0  0  0  0  0  0  0  0  0  0  0  0
   -2.0653    1.1845   -0.0018 H   0  0  0  0  0  0  0  0  0  0  0  0
   -1.2059   -0.7044    0.0000 C   0  0  0  0  0  0  0  0  0  0  0  0
   -2.0843   -1.1916    0.0041 H   0  0  0  0  0  0  0  0  0  0  0  0
   -0.0054   -1.4036   -0.0040 C   0  0  0  0  0  0  0  0  0  0  0  0
   -0.0063   -2.3997   -0.0097 H   0  0  0  0  0  0  0  0  0  0  0  0
    1.2059   -0.7034   -0.0000 C   0  0  0  0  0  0  0  0  0  0  0  0
    2.0836   -1.1962    0.0010 H   0  0  0  0  0  0  0  0  0  0  0  0
    1.2010    0.7050    0.0046 C   0  0  0  0  0  0  0  0  0  0  0  0
    2.0690    1.1939    0.0110 H   0  0  0  0  0  0  0  0  0  0  0  0
  1  5  1  0
  5  6  2  0
  5  7  1  0
  1  2  1  0
  1  3  1  0
  1  4  1  0
  8 12  1  0
 12 13  2  0
 13 15  1  0
 15 17  2  0
 17 19  1  0
 19 21  2  0
 21 12  1  0
  8  9  1  0
  8 10  1  0
  8 11  1  0
 13 14  1  0
 15 16  1  0
 17 18  1  0
 19 20  1  0
 21 22  1  0
M  CHG  1   7  -1
V    7 [O&-]
M  END
>  <PDB_ID>  (2870) 
pdb1fng

>  <RESIDUE_NAME>  (2870) 
GLU   PHE

>  <FRAG_NAME>  (2870) 
ACET   MBZ

>  <FRAG_ATOM_NUM>  (2870) 
fragi: 7 fragj: 15

>  <atom.prop.CHAIN_ID>  (2870) 
A A A A A A A Z Z Z Z Z Z Z Z Z Z Z Z Z Z Z

>  <atom.prop.IS_HEAVY_ATOM>  (2870) 
1 0 0 0 1 1 1 1 0 0 0 1 1 0 1 0 1 0 1 0 1 0

>  <DIFUSE_FUNC_ATOM>  (2870) 
n/a

>  <FINAL_SINGLE_POINT_ENERGY>  (2870) 
0

>  <NONCOV_INTER_ENERGY_QM>  (2870) 
0

>  <FF_Energy>  (2870) 
-2.31

>  <QM_Energy>  (2870) 
-8.18

>  <source>  (2870) 
ACET_MBZ_03

>  <Index>  (2870) 
12243

$$$$
ACEH-pdb1fv1-A-GLH-21:MBZ-pdb1fv1-A-PHE-137
     RDKit          3D

 22 21  0  0  0  0  0  0  0  0999 V2000
   -5.1655    4.7706   -0.9838 C   0  0  0  0  0  0  0  0  0  0  0  0
   -5.2405    5.7387   -1.1349 H   0  0  0  0  0  0  0  0  0  0  0  0
   -5.8426    4.4370   -0.3541 H   0  0  0  0  0  0  0  0  0  0  0  0
   -5.3049    4.2638   -1.9387 H   0  0  0  0  0  0  0  0  0  0  0  0
   -3.7995    4.5072   -0.3678 C   0  0  0  0  0  0  0  0  0  0  0  0
   -3.4554    3.3201   -0.1609 O   0  0  0  0  0  0  0  0  0  0  0  0
   -3.0819    5.4887   -0.0862 O   0  0  0  0  0  0  0  0  0  0  0  0
    0.0047    2.9124    0.0853 C   0  0  0  0  0  0  0  0  0  0  0  0
   -0.7454    3.2503   -0.4590 H   0  0  0  0  0  0  0  0  0  0  0  0
    0.8747    3.2333   -0.2511 H   0  0  0  0  0  0  0  0  0  0  0  0
   -0.1212    3.2868    1.1012 H   0  0  0  0  0  0  0  0  0  0  0  0
   -0.0002    1.4091    0.0008 C   0  0  0  0  0  0  0  0  0  0  0  0
   -1.1982    0.7009   -0.0011 C   0  0  0  0  0  0  0  0  0  0  0  0
   -2.0649    1.1866   -0.0048 H   0  0  0  0  0  0  0  0  0  0  0  0
   -1.2017   -0.6993    0.0000 C   0  0  0  0  0  0  0  0  0  0  0  0
   -2.0785   -1.1899    0.0011 H   0  0  0  0  0  0  0  0  0  0  0  0
    0.0028   -1.4009    0.0016 C   0  0  0  0  0  0  0  0  0  0  0  0
   -0.0053   -2.3980    0.0038 H   0  0  0  0  0  0  0  0  0  0  0  0
    1.2017   -0.7044   -0.0000 C   0  0  0  0  0  0  0  0  0  0  0  0
    2.0852   -1.1962    0.0013 H   0  0  0  0  0  0  0  0  0  0  0  0
    1.1955    0.6947   -0.0013 C   0  0  0  0  0  0  0  0  0  0  0  0
    2.0662    1.1871   -0.0044 H   0  0  0  0  0  0  0  0  0  0  0  0
  1  5  1  0
  5  6  2  0
  5  7  1  0
  1  2  1  0
  1  3  1  0
  1  4  1  0
  8 12  1  0
 12 13  2  0
 13 15  1  0
 15 17  2  0
 17 19  1  0
 19 21  2  0
 21 12  1  0
  8  9  1  0
  8 10  1  0
  8 11  1  0
 13 14  1  0
 15 16  1  0
 17 18  1  0
 19 20  1  0
 21 22  1  0
M  CHG  1   7  -1
V    7 [O&-]
M  END
>  <PDB_ID>  (2871) 
pdb1fv1

>  <RESIDUE_NAME>  (2871) 
GLU   PHE

>  <FRAG_NAME>  (2871) 
ACET   MBZ

>  <FRAG_ATOM_NUM>  (2871) 
fragi: 7 fragj: 15

>  <atom.prop.CHAIN_ID>  (2871) 
A A A A A A A Z Z Z Z Z Z Z Z Z Z Z Z Z Z Z

>  <atom.prop.IS_HEAVY_ATOM>  (2871) 
1 0 0 0 1 1 1 1 0 0 0 1 1 0 1 0 1 0 1 0 1 0

>  <DIFUSE_FUNC_ATOM>  (2871) 
n/a

>  <FINAL_SINGLE_POINT_ENERGY>  (2871) 
0

>  <NONCOV_INTER_ENERGY_QM>  (2871) 
0

>  <FF_Energy>  (2871) 
-2.43

>  <QM_Energy>  (2871) 
-8.34

>  <source>  (2871) 
ACET_MBZ_03

>  <Index>  (2871) 
12356

$$$$
ACEH-pdb3f4k-A-GLH-150:MBZ-pdb3f4k-A-PHE-129
     RDKit          3D

 22 21  0  0  0  0  0  0  0  0999 V2000
   -4.3378    2.3694   -2.9503 C   0  0  0  0  0  0  0  0  0  0  0  0
   -3.9148    2.0485   -3.7823 H   0  0  0  0  0  0  0  0  0  0  0  0
   -5.0579    3.0188   -3.1358 H   0  0  0  0  0  0  0  0  0  0  0  0
   -4.7772    1.5116   -2.4411 H   0  0  0  0  0  0  0  0  0  0  0  0
   -3.2869    3.0656   -2.1368 C   0  0  0  0  0  0  0  0  0  0  0  0
   -3.6599    3.9510   -1.3389 O   0  0  0  0  0  0  0  0  0  0  0  0
   -2.0953    2.7283   -2.2871 O   0  0  0  0  0  0  0  0  0  0  0  0
    0.0001    2.9046    0.0331 C   0  0  0  0  0  0  0  0  0  0  0  0
   -0.7583    3.2259   -0.5153 H   0  0  0  0  0  0  0  0  0  0  0  0
    0.8642    3.2203   -0.3310 H   0  0  0  0  0  0  0  0  0  0  0  0
   -0.1120    3.3253    1.0324 H   0  0  0  0  0  0  0  0  0  0  0  0
   -0.0016    1.4067    0.0010 C   0  0  0  0  0  0  0  0  0  0  0  0
   -1.2002    0.6975   -0.0009 C   0  0  0  0  0  0  0  0  0  0  0  0
   -2.0663    1.1861   -0.0048 H   0  0  0  0  0  0  0  0  0  0  0  0
   -1.2040   -0.6983   -0.0000 C   0  0  0  0  0  0  0  0  0  0  0  0
   -2.0770   -1.1932    0.0009 H   0  0  0  0  0  0  0  0  0  0  0  0
    0.0062   -1.3998    0.0011 C   0  0  0  0  0  0  0  0  0  0  0  0
   -0.0031   -2.3971    0.0025 H   0  0  0  0  0  0  0  0  0  0  0  0
    1.2040   -0.7031    0.0000 C   0  0  0  0  0  0  0  0  0  0  0  0
    2.0876   -1.1937    0.0018 H   0  0  0  0  0  0  0  0  0  0  0  0
    1.1955    0.6971   -0.0012 C   0  0  0  0  0  0  0  0  0  0  0  0
    2.0646    1.1910   -0.0044 H   0  0  0  0  0  0  0  0  0  0  0  0
  1  5  1  0
  5  6  2  0
  5  7  1  0
  1  2  1  0
  1  3  1  0
  1  4  1  0
  8 12  1  0
 12 13  2  0
 13 15  1  0
 15 17  2  0
 17 19  1  0
 19 21  2  0
 21 12  1  0
  8  9  1  0
  8 10  1  0
  8 11  1  0
 13 14  1  0
 15 16  1  0
 17 18  1  0
 19 20  1  0
 21 22  1  0
M  CHG  1   7  -1
V    7 [O&-]
M  END
>  <PDB_ID>  (2872) 
pdb3f4k

>  <RESIDUE_NAME>  (2872) 
GLU   PHE

>  <FRAG_NAME>  (2872) 
ACET   MBZ

>  <FRAG_ATOM_NUM>  (2872) 
fragi: 7 fragj: 15

>  <atom.prop.CHAIN_ID>  (2872) 
A A A A A A A Z Z Z Z Z Z Z Z Z Z Z Z Z Z Z

>  <atom.prop.IS_HEAVY_ATOM>  (2872) 
1 0 0 0 1 1 1 1 0 0 0 1 1 0 1 0 1 0 1 0 1 0

>  <DIFUSE_FUNC_ATOM>  (2872) 
n/a

>  <FINAL_SINGLE_POINT_ENERGY>  (2872) 
0

>  <NONCOV_INTER_ENERGY_QM>  (2872) 
0

>  <FF_Energy>  (2872) 
0.6

>  <QM_Energy>  (2872) 
-7.09

>  <source>  (2872) 
ACET_MBZ_03

>  <Index>  (2872) 
12398

$$$$
ACEH-pdb6int-C-GLH-280:MBZ-pdb6int-C-PHE-277
     RDKit          3D

 22 21  0  0  0  0  0  0  0  0999 V2000
   -5.5194    0.4938    1.7601 C   0  0  0  0  0  0  0  0  0  0  0  0
   -6.3443    0.1749    2.1774 H   0  0  0  0  0  0  0  0  0  0  0  0
   -5.4619    0.2738    0.8087 H   0  0  0  0  0  0  0  0  0  0  0  0
   -5.4775    1.5778    1.8664 H   0  0  0  0  0  0  0  0  0  0  0  0
   -4.3588   -0.1767    2.4599 C   0  0  0  0  0  0  0  0  0  0  0  0
   -4.5115   -0.5976    3.6335 O   0  0  0  0  0  0  0  0  0  0  0  0
   -3.2826   -0.2375    1.8423 O   0  0  0  0  0  0  0  0  0  0  0  0
    0.0393    2.9309    0.0099 C   0  0  0  0  0  0  0  0  0  0  0  0
    0.1177    3.2291   -0.9324 H   0  0  0  0  0  0  0  0  0  0  0  0
    0.8320    3.2075    0.5363 H   0  0  0  0  0  0  0  0  0  0  0  0
   -0.8362    3.4148    0.4429 H   0  0  0  0  0  0  0  0  0  0  0  0
   -0.0012    1.4082    0.0071 C   0  0  0  0  0  0  0  0  0  0  0  0
   -1.1992    0.7058    0.0040 C   0  0  0  0  0  0  0  0  0  0  0  0
   -2.0649    1.1900    0.0032 H   0  0  0  0  0  0  0  0  0  0  0  0
   -1.2037   -0.6969   -0.0000 C   0  0  0  0  0  0  0  0  0  0  0  0
   -2.0771   -1.1881    0.0094 H   0  0  0  0  0  0  0  0  0  0  0  0
    0.0074   -1.3993   -0.0150 C   0  0  0  0  0  0  0  0  0  0  0  0
   -0.0050   -2.3965   -0.0376 H   0  0  0  0  0  0  0  0  0  0  0  0
    1.2037   -0.7061    0.0000 C   0  0  0  0  0  0  0  0  0  0  0  0
    2.0871   -1.1974    0.0097 H   0  0  0  0  0  0  0  0  0  0  0  0
    1.1930    0.6883    0.0039 C   0  0  0  0  0  0  0  0  0  0  0  0
    2.0648    1.1850    0.0037 H   0  0  0  0  0  0  0  0  0  0  0  0
  1  5  1  0
  5  6  2  0
  5  7  1  0
  1  2  1  0
  1  3  1  0
  1  4  1  0
  8 12  1  0
 12 13  2  0
 13 15  1  0
 15 17  2  0
 17 19  1  0
 19 21  2  0
 21 12  1  0
  8  9  1  0
  8 10  1  0
  8 11  1  0
 13 14  1  0
 15 16  1  0
 17 18  1  0
 19 20  1  0
 21 22  1  0
M  CHG  1   7  -1
V    7 [O&-]
M  END
>  <PDB_ID>  (2873) 
pdb6int

>  <RESIDUE_NAME>  (2873) 
GLU   PHE

>  <FRAG_NAME>  (2873) 
ACET   MBZ

>  <FRAG_ATOM_NUM>  (2873) 
fragi: 7 fragj: 15

>  <atom.prop.CHAIN_ID>  (2873) 
A A A A A A A Z Z Z Z Z Z Z Z Z Z Z Z Z Z Z

>  <atom.prop.IS_HEAVY_ATOM>  (2873) 
1 0 0 0 1 1 1 1 0 0 0 1 1 0 1 0 1 0 1 0 1 0

>  <DIFUSE_FUNC_ATOM>  (2873) 
n/a

>  <FINAL_SINGLE_POINT_ENERGY>  (2873) 
0

>  <NONCOV_INTER_ENERGY_QM>  (2873) 
0

>  <FF_Energy>  (2873) 
2.33

>  <QM_Energy>  (2873) 
-3.03

>  <source>  (2873) 
ACET_MBZ_03

>  <Index>  (2873) 
12407

$$$$
ACEH-pdb6ium-A-ASH-503:MBZ-pdb6ium-A-PHE-516
     RDKit          3D

 22 21  0  0  0  0  0  0  0  0999 V2000
    5.0506    4.2767   -0.5666 C   0  0  0  0  0  0  0  0  0  0  0  0
    5.1602    4.4627    0.4034 H   0  0  0  0  0  0  0  0  0  0  0  0
    5.3090    5.0697   -1.1043 H   0  0  0  0  0  0  0  0  0  0  0  0
    5.7007    3.4448   -0.8375 H   0  0  0  0  0  0  0  0  0  0  0  0
    3.5454    3.9979   -0.8263 C   0  0  0  0  0  0  0  0  0  0  0  0
    3.2091    2.9405   -1.4093 O   0  0  0  0  0  0  0  0  0  0  0  0
    2.7523    4.8469   -0.3606 O   0  0  0  0  0  0  0  0  0  0  0  0
   -0.0040    2.9196   -0.0744 C   0  0  0  0  0  0  0  0  0  0  0  0
    0.9058    3.2315    0.1083 H   0  0  0  0  0  0  0  0  0  0  0  0
   -0.6586    3.2455    0.5768 H   0  0  0  0  0  0  0  0  0  0  0  0
   -0.2969    3.2733   -1.0629 H   0  0  0  0  0  0  0  0  0  0  0  0
    0.0044    1.4024   -0.0007 C   0  0  0  0  0  0  0  0  0  0  0  0
   -1.1845    0.7000   -0.0290 C   0  0  0  0  0  0  0  0  0  0  0  0
   -2.0530    1.1930   -0.0726 H   0  0  0  0  0  0  0  0  0  0  0  0
   -1.1943   -0.6834   -0.0000 C   0  0  0  0  0  0  0  0  0  0  0  0
   -2.0856   -1.1684    0.0035 H   0  0  0  0  0  0  0  0  0  0  0  0
   -0.0205   -1.3857    0.0256 C   0  0  0  0  0  0  0  0  0  0  0  0
   -0.0267   -2.3865    0.0615 H   0  0  0  0  0  0  0  0  0  0  0  0
    1.1943   -0.7043   -0.0000 C   0  0  0  0  0  0  0  0  0  0  0  0
    2.0643   -1.2194   -0.0195 H   0  0  0  0  0  0  0  0  0  0  0  0
    1.2006    0.6710    0.0041 C   0  0  0  0  0  0  0  0  0  0  0  0
    2.0706    1.1700    0.0096 H   0  0  0  0  0  0  0  0  0  0  0  0
  1  5  1  0
  5  6  2  0
  5  7  1  0
  1  2  1  0
  1  3  1  0
  1  4  1  0
  8 12  1  0
 12 13  2  0
 13 15  1  0
 15 17  2  0
 17 19  1  0
 19 21  2  0
 21 12  1  0
  8  9  1  0
  8 10  1  0
  8 11  1  0
 13 14  1  0
 15 16  1  0
 17 18  1  0
 19 20  1  0
 21 22  1  0
M  CHG  1   7  -1
V    7 [O&-]
M  END
>  <PDB_ID>  (2874) 
pdb6ium

>  <RESIDUE_NAME>  (2874) 
ASP   PHE

>  <FRAG_NAME>  (2874) 
ACET   MBZ

>  <FRAG_ATOM_NUM>  (2874) 
fragi: 7 fragj: 15

>  <atom.prop.CHAIN_ID>  (2874) 
A A A A A A A Z Z Z Z Z Z Z Z Z Z Z Z Z Z Z

>  <atom.prop.IS_HEAVY_ATOM>  (2874) 
1 0 0 0 1 1 1 1 0 0 0 1 1 0 1 0 1 0 1 0 1 0

>  <DIFUSE_FUNC_ATOM>  (2874) 
n/a

>  <FINAL_SINGLE_POINT_ENERGY>  (2874) 
0

>  <NONCOV_INTER_ENERGY_QM>  (2874) 
0

>  <FF_Energy>  (2874) 
-1.83

>  <QM_Energy>  (2874) 
-8.13

>  <source>  (2874) 
ACET_MBZ_03

>  <Index>  (2874) 
12472

$$$$
ACEH-pdb3fcp-C-GLH-63:MBZ-pdb3fcp-C-PHE-104
     RDKit          3D

 22 21  0  0  0  0  0  0  0  0999 V2000
    2.7191    2.0895    4.0310 C   0  0  0  0  0  0  0  0  0  0  0  0
    2.9473    2.7919    4.6798 H   0  0  0  0  0  0  0  0  0  0  0  0
    3.2926    1.2963    4.1230 H   0  0  0  0  0  0  0  0  0  0  0  0
    1.6861    1.7874    4.2036 H   0  0  0  0  0  0  0  0  0  0  0  0
    2.9465    2.6597    2.6394 C   0  0  0  0  0  0  0  0  0  0  0  0
    2.1996    3.5737    2.2329 O   0  0  0  0  0  0  0  0  0  0  0  0
    3.8834    2.1999    1.9542 O   0  0  0  0  0  0  0  0  0  0  0  0
   -0.0080    2.9091    0.0335 C   0  0  0  0  0  0  0  0  0  0  0  0
    0.4605    3.1986    0.8553 H   0  0  0  0  0  0  0  0  0  0  0  0
   -0.9508    3.2095    0.0333 H   0  0  0  0  0  0  0  0  0  0  0  0
    0.4903    3.3753   -0.8165 H   0  0  0  0  0  0  0  0  0  0  0  0
    0.0001    1.4047    0.0004 C   0  0  0  0  0  0  0  0  0  0  0  0
   -1.1995    0.6929   -0.0010 C   0  0  0  0  0  0  0  0  0  0  0  0
   -2.0655    1.1833   -0.0040 H   0  0  0  0  0  0  0  0  0  0  0  0
   -1.2063   -0.7008    0.0000 C   0  0  0  0  0  0  0  0  0  0  0  0
   -2.0801   -1.1945    0.0014 H   0  0  0  0  0  0  0  0  0  0  0  0
    0.0014   -1.3981    0.0017 C   0  0  0  0  0  0  0  0  0  0  0  0
   -0.0010   -2.3953    0.0036 H   0  0  0  0  0  0  0  0  0  0  0  0
    1.2063   -0.6978    0.0000 C   0  0  0  0  0  0  0  0  0  0  0  0
    2.0865   -1.1917    0.0010 H   0  0  0  0  0  0  0  0  0  0  0  0
    1.1980    0.6992   -0.0010 C   0  0  0  0  0  0  0  0  0  0  0  0
    2.0659    1.1944   -0.0036 H   0  0  0  0  0  0  0  0  0  0  0  0
  1  5  1  0
  5  6  2  0
  5  7  1  0
  1  2  1  0
  1  3  1  0
  1  4  1  0
  8 12  1  0
 12 13  2  0
 13 15  1  0
 15 17  2  0
 17 19  1  0
 19 21  2  0
 21 12  1  0
  8  9  1  0
  8 10  1  0
  8 11  1  0
 13 14  1  0
 15 16  1  0
 17 18  1  0
 19 20  1  0
 21 22  1  0
M  CHG  1   7  -1
V    7 [O&-]
M  END
>  <PDB_ID>  (2875) 
pdb3fcp

>  <RESIDUE_NAME>  (2875) 
GLU   PHE

>  <FRAG_NAME>  (2875) 
ACET   MBZ

>  <FRAG_ATOM_NUM>  (2875) 
fragi: 7 fragj: 15

>  <atom.prop.CHAIN_ID>  (2875) 
A A A A A A A Z Z Z Z Z Z Z Z Z Z Z Z Z Z Z

>  <atom.prop.IS_HEAVY_ATOM>  (2875) 
1 0 0 0 1 1 1 1 0 0 0 1 1 0 1 0 1 0 1 0 1 0

>  <DIFUSE_FUNC_ATOM>  (2875) 
n/a

>  <FINAL_SINGLE_POINT_ENERGY>  (2875) 
0

>  <NONCOV_INTER_ENERGY_QM>  (2875) 
0

>  <FF_Energy>  (2875) 
-0.97

>  <QM_Energy>  (2875) 
-8.06

>  <source>  (2875) 
ACET_MBZ_03

>  <Index>  (2875) 
12524

$$$$
ACEH-pdb3fcp-H-GLH-63:MBZ-pdb3fcp-H-PHE-104
     RDKit          3D

 22 21  0  0  0  0  0  0  0  0999 V2000
    2.5397    2.3272    3.8299 C   0  0  0  0  0  0  0  0  0  0  0  0
    2.7669    3.0504    4.4537 H   0  0  0  0  0  0  0  0  0  0  0  0
    3.0941    1.5275    3.9650 H   0  0  0  0  0  0  0  0  0  0  0  0
    1.4977    2.0523    3.9932 H   0  0  0  0  0  0  0  0  0  0  0  0
    2.8033    2.8365    2.4202 C   0  0  0  0  0  0  0  0  0  0  0  0
    2.1392    3.8035    1.9967 O   0  0  0  0  0  0  0  0  0  0  0  0
    3.6833    2.2735    1.7398 O   0  0  0  0  0  0  0  0  0  0  0  0
   -0.0048    2.9240   -0.0131 C   0  0  0  0  0  0  0  0  0  0  0  0
    0.4545    3.2362    0.8030 H   0  0  0  0  0  0  0  0  0  0  0  0
   -0.9449    3.2244   -0.0391 H   0  0  0  0  0  0  0  0  0  0  0  0
    0.5074    3.3599   -0.8709 H   0  0  0  0  0  0  0  0  0  0  0  0
    0.0003    1.4117   -0.0007 C   0  0  0  0  0  0  0  0  0  0  0  0
   -1.2011    0.6982   -0.0001 C   0  0  0  0  0  0  0  0  0  0  0  0
   -2.0667    1.1877   -0.0014 H   0  0  0  0  0  0  0  0  0  0  0  0
   -1.2089   -0.7001   -0.0000 C   0  0  0  0  0  0  0  0  0  0  0  0
   -2.0823   -1.1931    0.0008 H   0  0  0  0  0  0  0  0  0  0  0  0
    0.0024   -1.4068    0.0007 C   0  0  0  0  0  0  0  0  0  0  0  0
   -0.0038   -2.3998    0.0015 H   0  0  0  0  0  0  0  0  0  0  0  0
    1.2089   -0.7030    0.0000 C   0  0  0  0  0  0  0  0  0  0  0  0
    2.0889   -1.1940    0.0007 H   0  0  0  0  0  0  0  0  0  0  0  0
    1.1985    0.7001    0.0002 C   0  0  0  0  0  0  0  0  0  0  0  0
    2.0676    1.1938    0.0007 H   0  0  0  0  0  0  0  0  0  0  0  0
  1  5  1  0
  5  6  2  0
  5  7  1  0
  1  2  1  0
  1  3  1  0
  1  4  1  0
  8 12  1  0
 12 13  2  0
 13 15  1  0
 15 17  2  0
 17 19  1  0
 19 21  2  0
 21 12  1  0
  8  9  1  0
  8 10  1  0
  8 11  1  0
 13 14  1  0
 15 16  1  0
 17 18  1  0
 19 20  1  0
 21 22  1  0
M  CHG  1   7  -1
V    7 [O&-]
M  END
>  <PDB_ID>  (2876) 
pdb3fcp

>  <RESIDUE_NAME>  (2876) 
GLU   PHE

>  <FRAG_NAME>  (2876) 
ACET   MBZ

>  <FRAG_ATOM_NUM>  (2876) 
fragi: 7 fragj: 15

>  <atom.prop.CHAIN_ID>  (2876) 
A A A A A A A Z Z Z Z Z Z Z Z Z Z Z Z Z Z Z

>  <atom.prop.IS_HEAVY_ATOM>  (2876) 
1 0 0 0 1 1 1 1 0 0 0 1 1 0 1 0 1 0 1 0 1 0

>  <DIFUSE_FUNC_ATOM>  (2876) 
n/a

>  <FINAL_SINGLE_POINT_ENERGY>  (2876) 
0

>  <NONCOV_INTER_ENERGY_QM>  (2876) 
0

>  <FF_Energy>  (2876) 
0.43

>  <QM_Energy>  (2876) 
-8.14

>  <source>  (2876) 
ACET_MBZ_03

>  <Index>  (2876) 
12528

$$$$
ACEH-pdb1g38-A-GLH-45:MBZ-pdb1g38-A-PHE-53
     RDKit          3D

 22 21  0  0  0  0  0  0  0  0999 V2000
    2.9997    3.7462    2.2083 C   0  0  0  0  0  0  0  0  0  0  0  0
    3.7530    3.3757    2.7347 H   0  0  0  0  0  0  0  0  0  0  0  0
    2.1546    3.2740    2.4206 H   0  0  0  0  0  0  0  0  0  0  0  0
    2.8769    4.7888    2.5016 H   0  0  0  0  0  0  0  0  0  0  0  0
    3.3038    3.5098    0.7350 C   0  0  0  0  0  0  0  0  0  0  0  0
    2.7950    4.2477   -0.1319 O   0  0  0  0  0  0  0  0  0  0  0  0
    4.0435    2.5445    0.4374 O   0  0  0  0  0  0  0  0  0  0  0  0
   -0.0002    2.9050   -0.1051 C   0  0  0  0  0  0  0  0  0  0  0  0
    0.8274    3.2417    0.3104 H   0  0  0  0  0  0  0  0  0  0  0  0
   -0.8049    3.2435    0.3514 H   0  0  0  0  0  0  0  0  0  0  0  0
   -0.0259    3.2623   -1.1345 H   0  0  0  0  0  0  0  0  0  0  0  0
    0.0007    1.4061   -0.0019 C   0  0  0  0  0  0  0  0  0  0  0  0
   -1.1992    0.6958    0.0010 C   0  0  0  0  0  0  0  0  0  0  0  0
   -2.0651    1.1819    0.0025 H   0  0  0  0  0  0  0  0  0  0  0  0
   -1.2037   -0.7050   -0.0000 C   0  0  0  0  0  0  0  0  0  0  0  0
   -2.0789   -1.1955    0.0026 H   0  0  0  0  0  0  0  0  0  0  0  0
    0.0011   -1.3993   -0.0020 C   0  0  0  0  0  0  0  0  0  0  0  0
    0.0014   -2.3962   -0.0059 H   0  0  0  0  0  0  0  0  0  0  0  0
    1.2037   -0.6968    0.0000 C   0  0  0  0  0  0  0  0  0  0  0  0
    2.0855   -1.1919    0.0007 H   0  0  0  0  0  0  0  0  0  0  0  0
    1.1973    0.6992    0.0029 C   0  0  0  0  0  0  0  0  0  0  0  0
    2.0654    1.1939    0.0078 H   0  0  0  0  0  0  0  0  0  0  0  0
  1  5  1  0
  5  6  2  0
  5  7  1  0
  1  2  1  0
  1  3  1  0
  1  4  1  0
  8 12  1  0
 12 13  2  0
 13 15  1  0
 15 17  2  0
 17 19  1  0
 19 21  2  0
 21 12  1  0
  8  9  1  0
  8 10  1  0
  8 11  1  0
 13 14  1  0
 15 16  1  0
 17 18  1  0
 19 20  1  0
 21 22  1  0
M  CHG  1   7  -1
V    7 [O&-]
M  END
>  <PDB_ID>  (2877) 
pdb1g38

>  <RESIDUE_NAME>  (2877) 
GLU   PHE

>  <FRAG_NAME>  (2877) 
ACET   MBZ

>  <FRAG_ATOM_NUM>  (2877) 
fragi: 7 fragj: 15

>  <atom.prop.CHAIN_ID>  (2877) 
A A A A A A A Z Z Z Z Z Z Z Z Z Z Z Z Z Z Z

>  <atom.prop.IS_HEAVY_ATOM>  (2877) 
1 0 0 0 1 1 1 1 0 0 0 1 1 0 1 0 1 0 1 0 1 0

>  <DIFUSE_FUNC_ATOM>  (2877) 
n/a

>  <FINAL_SINGLE_POINT_ENERGY>  (2877) 
0

>  <NONCOV_INTER_ENERGY_QM>  (2877) 
0

>  <FF_Energy>  (2877) 
-0.53

>  <QM_Energy>  (2877) 
-7.77

>  <source>  (2877) 
ACET_MBZ_03

>  <Index>  (2877) 
12542

$$$$
ACEH-pdb3ffh-B-GLH-95:MBZ-pdb3ffh-A-PHE-251
     RDKit          3D

 22 21  0  0  0  0  0  0  0  0999 V2000
   -1.0234   -5.7728    0.3595 C   0  0  0  0  0  0  0  0  0  0  0  0
   -1.2667   -6.2680    1.1713 H   0  0  0  0  0  0  0  0  0  0  0  0
   -0.1153   -5.4030    0.4022 H   0  0  0  0  0  0  0  0  0  0  0  0
   -1.0924   -6.4439   -0.4966 H   0  0  0  0  0  0  0  0  0  0  0  0
   -1.9867   -4.5823    0.2552 C   0  0  0  0  0  0  0  0  0  0  0  0
   -2.9824   -4.6889   -0.5064 O   0  0  0  0  0  0  0  0  0  0  0  0
   -1.7390   -3.5342    0.9242 O   0  0  0  0  0  0  0  0  0  0  0  0
   -0.0079    2.8931   -0.0245 C   0  0  0  0  0  0  0  0  0  0  0  0
   -0.8192    3.1921   -0.5288 H   0  0  0  0  0  0  0  0  0  0  0  0
    0.8139    3.2036   -0.5050 H   0  0  0  0  0  0  0  0  0  0  0  0
   -0.0253    3.3938    0.9436 H   0  0  0  0  0  0  0  0  0  0  0  0
    0.0021    1.3988   -0.0072 C   0  0  0  0  0  0  0  0  0  0  0  0
   -1.1980    0.6930   -0.0083 C   0  0  0  0  0  0  0  0  0  0  0  0
   -2.0631    1.1940   -0.0166 H   0  0  0  0  0  0  0  0  0  0  0  0
   -1.2192   -0.6928   -0.0000 C   0  0  0  0  0  0  0  0  0  0  0  0
   -2.0886   -1.1854   -0.0112 H   0  0  0  0  0  0  0  0  0  0  0  0
   -0.0069   -1.3904    0.0247 C   0  0  0  0  0  0  0  0  0  0  0  0
   -0.0120   -2.3899    0.0610 H   0  0  0  0  0  0  0  0  0  0  0  0
    1.2192   -0.7008    0.0000 C   0  0  0  0  0  0  0  0  0  0  0  0
    2.0846   -1.2016   -0.0090 H   0  0  0  0  0  0  0  0  0  0  0  0
    1.2029    0.6922   -0.0093 C   0  0  0  0  0  0  0  0  0  0  0  0
    2.0702    1.1935   -0.0187 H   0  0  0  0  0  0  0  0  0  0  0  0
  1  5  1  0
  5  6  2  0
  5  7  1  0
  1  2  1  0
  1  3  1  0
  1  4  1  0
  8 12  1  0
 12 13  2  0
 13 15  1  0
 15 17  2  0
 17 19  1  0
 19 21  2  0
 21 12  1  0
  8  9  1  0
  8 10  1  0
  8 11  1  0
 13 14  1  0
 15 16  1  0
 17 18  1  0
 19 20  1  0
 21 22  1  0
M  CHG  1   7  -1
V    7 [O&-]
M  END
>  <PDB_ID>  (2878) 
pdb3ffh

>  <RESIDUE_NAME>  (2878) 
GLU   PHE

>  <FRAG_NAME>  (2878) 
ACET   MBZ

>  <FRAG_ATOM_NUM>  (2878) 
fragi: 7 fragj: 15

>  <atom.prop.CHAIN_ID>  (2878) 
A A A A A A A Z Z Z Z Z Z Z Z Z Z Z Z Z Z Z

>  <atom.prop.IS_HEAVY_ATOM>  (2878) 
1 0 0 0 1 1 1 1 0 0 0 1 1 0 1 0 1 0 1 0 1 0

>  <DIFUSE_FUNC_ATOM>  (2878) 
n/a

>  <FINAL_SINGLE_POINT_ENERGY>  (2878) 
0

>  <NONCOV_INTER_ENERGY_QM>  (2878) 
0

>  <FF_Energy>  (2878) 
0.12

>  <QM_Energy>  (2878) 
-5.48

>  <source>  (2878) 
ACET_MBZ_03

>  <Index>  (2878) 
12572

$$$$
ACEH-pdb6j4o-A-GLH-160:MBZ-pdb6j4o-A-PHE-131
     RDKit          3D

 22 21  0  0  0  0  0  0  0  0999 V2000
   -3.8327    3.7116   -1.6600 C   0  0  0  0  0  0  0  0  0  0  0  0
   -2.9190    3.3762   -1.7323 H   0  0  0  0  0  0  0  0  0  0  0  0
   -3.8888    4.6852   -1.6238 H   0  0  0  0  0  0  0  0  0  0  0  0
   -4.4011    3.3608   -2.5215 H   0  0  0  0  0  0  0  0  0  0  0  0
   -4.4165    3.1722   -0.3610 C   0  0  0  0  0  0  0  0  0  0  0  0
   -3.6789    2.5278    0.4140 O   0  0  0  0  0  0  0  0  0  0  0  0
   -5.6192    3.3877   -0.1222 O   0  0  0  0  0  0  0  0  0  0  0  0
   -0.0075    2.8707    0.0136 C   0  0  0  0  0  0  0  0  0  0  0  0
   -0.8147    3.1896   -0.4651 H   0  0  0  0  0  0  0  0  0  0  0  0
    0.8175    3.1936   -0.4291 H   0  0  0  0  0  0  0  0  0  0  0  0
   -0.0305    3.3017    1.0145 H   0  0  0  0  0  0  0  0  0  0  0  0
   -0.0033    1.3922    0.0025 C   0  0  0  0  0  0  0  0  0  0  0  0
   -1.2063    0.6868   -0.0102 C   0  0  0  0  0  0  0  0  0  0  0  0
   -2.0681    1.1870   -0.0276 H   0  0  0  0  0  0  0  0  0  0  0  0
   -1.2139   -0.6904   -0.0000 C   0  0  0  0  0  0  0  0  0  0  0  0
   -2.0790   -1.1962    0.0124 H   0  0  0  0  0  0  0  0  0  0  0  0
    0.0070   -1.3904   -0.0055 C   0  0  0  0  0  0  0  0  0  0  0  0
    0.0004   -2.3868   -0.0137 H   0  0  0  0  0  0  0  0  0  0  0  0
    1.2139   -0.6896   -0.0000 C   0  0  0  0  0  0  0  0  0  0  0  0
    2.0917   -1.1908   -0.0038 H   0  0  0  0  0  0  0  0  0  0  0  0
    1.2026    0.6913    0.0132 C   0  0  0  0  0  0  0  0  0  0  0  0
    2.0635    1.1984    0.0301 H   0  0  0  0  0  0  0  0  0  0  0  0
  1  5  1  0
  5  6  2  0
  5  7  1  0
  1  2  1  0
  1  3  1  0
  1  4  1  0
  8 12  1  0
 12 13  2  0
 13 15  1  0
 15 17  2  0
 17 19  1  0
 19 21  2  0
 21 12  1  0
  8  9  1  0
  8 10  1  0
  8 11  1  0
 13 14  1  0
 15 16  1  0
 17 18  1  0
 19 20  1  0
 21 22  1  0
M  CHG  1   7  -1
V    7 [O&-]
M  END
>  <PDB_ID>  (2879) 
pdb6j4o

>  <RESIDUE_NAME>  (2879) 
GLU   PHE

>  <FRAG_NAME>  (2879) 
ACET   MBZ

>  <FRAG_ATOM_NUM>  (2879) 
fragi: 7 fragj: 15

>  <atom.prop.CHAIN_ID>  (2879) 
A A A A A A A Z Z Z Z Z Z Z Z Z Z Z Z Z Z Z

>  <atom.prop.IS_HEAVY_ATOM>  (2879) 
1 0 0 0 1 1 1 1 0 0 0 1 1 0 1 0 1 0 1 0 1 0

>  <DIFUSE_FUNC_ATOM>  (2879) 
n/a

>  <FINAL_SINGLE_POINT_ENERGY>  (2879) 
0

>  <NONCOV_INTER_ENERGY_QM>  (2879) 
0

>  <FF_Energy>  (2879) 
0.07

>  <QM_Energy>  (2879) 
-7.36

>  <source>  (2879) 
ACET_MBZ_03

>  <Index>  (2879) 
12582

$$$$
ACEH-pdb1ggg-A-GLH-17:MBZ-pdb1ggg-A-PHE-13
     RDKit          3D

 22 21  0  0  0  0  0  0  0  0999 V2000
    3.3101    5.8504    0.7724 C   0  0  0  0  0  0  0  0  0  0  0  0
    2.3273    5.9012    0.7323 H   0  0  0  0  0  0  0  0  0  0  0  0
    3.7353    6.3976    0.0727 H   0  0  0  0  0  0  0  0  0  0  0  0
    3.6265    6.2371    1.7411 H   0  0  0  0  0  0  0  0  0  0  0  0
    3.7099    4.4087    0.5395 C   0  0  0  0  0  0  0  0  0  0  0  0
    4.6716    3.9262    1.1590 O   0  0  0  0  0  0  0  0  0  0  0  0
    3.0711    3.7531   -0.2940 O   0  0  0  0  0  0  0  0  0  0  0  0
    0.0224    2.9392   -0.0693 C   0  0  0  0  0  0  0  0  0  0  0  0
   -0.0242    3.1965   -1.0226 H   0  0  0  0  0  0  0  0  0  0  0  0
    0.8672    3.2445    0.3448 H   0  0  0  0  0  0  0  0  0  0  0  0
   -0.7999    3.4317    0.4497 H   0  0  0  0  0  0  0  0  0  0  0  0
   -0.0010    1.4156   -0.0010 C   0  0  0  0  0  0  0  0  0  0  0  0
   -1.2004    0.7068    0.0020 C   0  0  0  0  0  0  0  0  0  0  0  0
   -2.0662    1.1908    0.0045 H   0  0  0  0  0  0  0  0  0  0  0  0
   -1.2014   -0.6957    0.0000 C   0  0  0  0  0  0  0  0  0  0  0  0
   -2.0774   -1.1881    0.0009 H   0  0  0  0  0  0  0  0  0  0  0  0
    0.0067   -1.4036   -0.0013 C   0  0  0  0  0  0  0  0  0  0  0  0
   -0.0085   -2.3996   -0.0032 H   0  0  0  0  0  0  0  0  0  0  0  0
    1.2014   -0.7113   -0.0000 C   0  0  0  0  0  0  0  0  0  0  0  0
    2.0856   -1.2012    0.0018 H   0  0  0  0  0  0  0  0  0  0  0  0
    1.1947    0.6882    0.0003 C   0  0  0  0  0  0  0  0  0  0  0  0
    2.0676    1.1817    0.0006 H   0  0  0  0  0  0  0  0  0  0  0  0
  1  5  1  0
  5  6  2  0
  5  7  1  0
  1  2  1  0
  1  3  1  0
  1  4  1  0
  8 12  1  0
 12 13  2  0
 13 15  1  0
 15 17  2  0
 17 19  1  0
 19 21  2  0
 21 12  1  0
  8  9  1  0
  8 10  1  0
  8 11  1  0
 13 14  1  0
 15 16  1  0
 17 18  1  0
 19 20  1  0
 21 22  1  0
M  CHG  1   7  -1
V    7 [O&-]
M  END
>  <PDB_ID>  (2880) 
pdb1ggg

>  <RESIDUE_NAME>  (2880) 
GLU   PHE

>  <FRAG_NAME>  (2880) 
ACET   MBZ

>  <FRAG_ATOM_NUM>  (2880) 
fragi: 7 fragj: 15

>  <atom.prop.CHAIN_ID>  (2880) 
A A A A A A A Z Z Z Z Z Z Z Z Z Z Z Z Z Z Z

>  <atom.prop.IS_HEAVY_ATOM>  (2880) 
1 0 0 0 1 1 1 1 0 0 0 1 1 0 1 0 1 0 1 0 1 0

>  <DIFUSE_FUNC_ATOM>  (2880) 
n/a

>  <FINAL_SINGLE_POINT_ENERGY>  (2880) 
0

>  <NONCOV_INTER_ENERGY_QM>  (2880) 
0

>  <FF_Energy>  (2880) 
-1.57

>  <QM_Energy>  (2880) 
-7.12

>  <source>  (2880) 
ACET_MBZ_03

>  <Index>  (2880) 
12689

$$$$
ACEH-pdb2h9a-B-GLH-225:MBZ-pdb2h9a-A-PHE-82
     RDKit          3D

 22 21  0  0  0  0  0  0  0  0999 V2000
    5.5511    1.2296   -0.9611 C   0  0  0  0  0  0  0  0  0  0  0  0
    5.7856    0.2911   -0.9447 H   0  0  0  0  0  0  0  0  0  0  0  0
    6.3009    1.8385   -0.8978 H   0  0  0  0  0  0  0  0  0  0  0  0
    5.0437    1.4259   -1.9055 H   0  0  0  0  0  0  0  0  0  0  0  0
    4.6140    1.5063    0.2130 C   0  0  0  0  0  0  0  0  0  0  0  0
    4.0883    2.6447    0.2473 O   0  0  0  0  0  0  0  0  0  0  0  0
    4.3982    0.6003    1.0628 O   0  0  0  0  0  0  0  0  0  0  0  0
    0.0044    2.8599    0.0783 C   0  0  0  0  0  0  0  0  0  0  0  0
   -0.8030    3.2085   -0.3836 H   0  0  0  0  0  0  0  0  0  0  0  0
    0.8294    3.2023   -0.3560 H   0  0  0  0  0  0  0  0  0  0  0  0
   -0.0117    3.2333    1.1023 H   0  0  0  0  0  0  0  0  0  0  0  0
    0.0004    1.4057    0.0003 C   0  0  0  0  0  0  0  0  0  0  0  0
   -1.2277    0.6917   -0.0067 C   0  0  0  0  0  0  0  0  0  0  0  0
   -2.0792    1.1877   -0.0175 H   0  0  0  0  0  0  0  0  0  0  0  0
   -1.2328   -0.7100   -0.0000 C   0  0  0  0  0  0  0  0  0  0  0  0
   -2.0865   -1.2138    0.0026 H   0  0  0  0  0  0  0  0  0  0  0  0
    0.0132   -1.4086    0.0049 C   0  0  0  0  0  0  0  0  0  0  0  0
    0.0149   -2.3984    0.0114 H   0  0  0  0  0  0  0  0  0  0  0  0
    1.2328   -0.6883    0.0000 C   0  0  0  0  0  0  0  0  0  0  0  0
    2.1079   -1.1829   -0.0028 H   0  0  0  0  0  0  0  0  0  0  0  0
    1.2141    0.7094    0.0015 C   0  0  0  0  0  0  0  0  0  0  0  0
    2.0723    1.2149    0.0033 H   0  0  0  0  0  0  0  0  0  0  0  0
  1  5  1  0
  5  6  2  0
  5  7  1  0
  1  2  1  0
  1  3  1  0
  1  4  1  0
  8 12  1  0
 12 13  2  0
 13 15  1  0
 15 17  2  0
 17 19  1  0
 19 21  2  0
 21 12  1  0
  8  9  1  0
  8 10  1  0
  8 11  1  0
 13 14  1  0
 15 16  1  0
 17 18  1  0
 19 20  1  0
 21 22  1  0
M  CHG  1   7  -1
V    7 [O&-]
M  END
>  <PDB_ID>  (2881) 
pdb2h9a

>  <RESIDUE_NAME>  (2881) 
GLU   PHE

>  <FRAG_NAME>  (2881) 
ACET   MBZ

>  <FRAG_ATOM_NUM>  (2881) 
fragi: 7 fragj: 15

>  <atom.prop.CHAIN_ID>  (2881) 
A A A A A A A Z Z Z Z Z Z Z Z Z Z Z Z Z Z Z

>  <atom.prop.IS_HEAVY_ATOM>  (2881) 
1 0 0 0 1 1 1 1 0 0 0 1 1 0 1 0 1 0 1 0 1 0

>  <DIFUSE_FUNC_ATOM>  (2881) 
n/a

>  <FINAL_SINGLE_POINT_ENERGY>  (2881) 
0

>  <NONCOV_INTER_ENERGY_QM>  (2881) 
0

>  <FF_Energy>  (2881) 
-2.15

>  <QM_Energy>  (2881) 
-8.19

>  <source>  (2881) 
ACET_MBZ_03

>  <Index>  (2881) 
12771

$$$$
ACEH-pdb2he3-A-GLH-34:MBZ-pdb2he3-A-PHE-154
     RDKit          3D

 22 21  0  0  0  0  0  0  0  0999 V2000
   -5.7339    3.2966   -1.0364 C   0  0  0  0  0  0  0  0  0  0  0  0
   -5.7409    4.2687   -1.2153 H   0  0  0  0  0  0  0  0  0  0  0  0
   -6.6529    2.9384   -0.9640 H   0  0  0  0  0  0  0  0  0  0  0  0
   -5.2303    2.7964   -1.8637 H   0  0  0  0  0  0  0  0  0  0  0  0
   -5.0620    3.0879    0.3037 C   0  0  0  0  0  0  0  0  0  0  0  0
   -5.6215    3.5396    1.3046 O   0  0  0  0  0  0  0  0  0  0  0  0
   -3.9668    2.5237    0.3688 O   0  0  0  0  0  0  0  0  0  0  0  0
   -0.0013    2.9233    0.0112 C   0  0  0  0  0  0  0  0  0  0  0  0
    0.8845    3.2153    0.3332 H   0  0  0  0  0  0  0  0  0  0  0  0
   -0.7236    3.2147    0.6167 H   0  0  0  0  0  0  0  0  0  0  0  0
   -0.1741    3.3742   -0.9660 H   0  0  0  0  0  0  0  0  0  0  0  0
   -0.0032    1.4032   -0.0070 C   0  0  0  0  0  0  0  0  0  0  0  0
   -1.2002    0.6952    0.0104 C   0  0  0  0  0  0  0  0  0  0  0  0
   -2.0667    1.1849    0.0295 H   0  0  0  0  0  0  0  0  0  0  0  0
   -1.2070   -0.6997   -0.0000 C   0  0  0  0  0  0  0  0  0  0  0  0
   -2.0762   -1.1958   -0.0121 H   0  0  0  0  0  0  0  0  0  0  0  0
    0.0088   -1.3955    0.0085 C   0  0  0  0  0  0  0  0  0  0  0  0
    0.0033   -2.3927    0.0199 H   0  0  0  0  0  0  0  0  0  0  0  0
    1.2070   -0.6939    0.0000 C   0  0  0  0  0  0  0  0  0  0  0  0
    2.0897   -1.1896    0.0040 H   0  0  0  0  0  0  0  0  0  0  0  0
    1.1946    0.6906   -0.0119 C   0  0  0  0  0  0  0  0  0  0  0  0
    2.0631    1.1944   -0.0251 H   0  0  0  0  0  0  0  0  0  0  0  0
  1  5  1  0
  5  6  2  0
  5  7  1  0
  1  2  1  0
  1  3  1  0
  1  4  1  0
  8 12  1  0
 12 13  2  0
 13 15  1  0
 15 17  2  0
 17 19  1  0
 19 21  2  0
 21 12  1  0
  8  9  1  0
  8 10  1  0
  8 11  1  0
 13 14  1  0
 15 16  1  0
 17 18  1  0
 19 20  1  0
 21 22  1  0
M  CHG  1   7  -1
V    7 [O&-]
M  END
>  <PDB_ID>  (2882) 
pdb2he3

>  <RESIDUE_NAME>  (2882) 
GLU   PHE

>  <FRAG_NAME>  (2882) 
ACET   MBZ

>  <FRAG_ATOM_NUM>  (2882) 
fragi: 7 fragj: 15

>  <atom.prop.CHAIN_ID>  (2882) 
A A A A A A A Z Z Z Z Z Z Z Z Z Z Z Z Z Z Z

>  <atom.prop.IS_HEAVY_ATOM>  (2882) 
1 0 0 0 1 1 1 1 0 0 0 1 1 0 1 0 1 0 1 0 1 0

>  <DIFUSE_FUNC_ATOM>  (2882) 
n/a

>  <FINAL_SINGLE_POINT_ENERGY>  (2882) 
0

>  <NONCOV_INTER_ENERGY_QM>  (2882) 
0

>  <FF_Energy>  (2882) 
-1.73

>  <QM_Energy>  (2882) 
-7.12

>  <source>  (2882) 
ACET_MBZ_03

>  <Index>  (2882) 
12823

$$$$
ACEH-pdb1gvh-A-GLH-135:MBZ-pdb1gvh-A-PHE-131
     RDKit          3D

 22 21  0  0  0  0  0  0  0  0999 V2000
   -4.8061    4.6099   -0.5488 C   0  0  0  0  0  0  0  0  0  0  0  0
   -5.7133    4.4303   -0.1970 H   0  0  0  0  0  0  0  0  0  0  0  0
   -4.6293    4.0831   -1.3670 H   0  0  0  0  0  0  0  0  0  0  0  0
   -4.7405    5.6682   -0.8013 H   0  0  0  0  0  0  0  0  0  0  0  0
   -3.8112    4.1497    0.5093 C   0  0  0  0  0  0  0  0  0  0  0  0
   -3.5305    2.9465    0.5636 O   0  0  0  0  0  0  0  0  0  0  0  0
   -3.3381    4.9893    1.2824 O   0  0  0  0  0  0  0  0  0  0  0  0
    0.0012    2.8943   -0.0260 C   0  0  0  0  0  0  0  0  0  0  0  0
    0.8334    3.1990    0.4045 H   0  0  0  0  0  0  0  0  0  0  0  0
   -0.7980    3.1988    0.4633 H   0  0  0  0  0  0  0  0  0  0  0  0
   -0.0355    3.3046   -1.0352 H   0  0  0  0  0  0  0  0  0  0  0  0
    0.0019    1.3791   -0.0017 C   0  0  0  0  0  0  0  0  0  0  0  0
   -1.2018    0.6950    0.0018 C   0  0  0  0  0  0  0  0  0  0  0  0
   -2.0588    1.1855    0.0037 H   0  0  0  0  0  0  0  0  0  0  0  0
   -1.1962   -0.6899    0.0000 C   0  0  0  0  0  0  0  0  0  0  0  0
   -2.0753   -1.1892   -0.0007 H   0  0  0  0  0  0  0  0  0  0  0  0
   -0.0012   -1.3807    0.0007 C   0  0  0  0  0  0  0  0  0  0  0  0
   -0.0054   -2.3836    0.0011 H   0  0  0  0  0  0  0  0  0  0  0  0
    1.1962   -0.6922    0.0000 C   0  0  0  0  0  0  0  0  0  0  0  0
    2.0778   -1.1978    0.0016 H   0  0  0  0  0  0  0  0  0  0  0  0
    1.2011    0.6886   -0.0008 C   0  0  0  0  0  0  0  0  0  0  0  0
    2.0631    1.1862   -0.0014 H   0  0  0  0  0  0  0  0  0  0  0  0
  1  5  1  0
  5  6  2  0
  5  7  1  0
  1  2  1  0
  1  3  1  0
  1  4  1  0
  8 12  1  0
 12 13  2  0
 13 15  1  0
 15 17  2  0
 17 19  1  0
 19 21  2  0
 21 12  1  0
  8  9  1  0
  8 10  1  0
  8 11  1  0
 13 14  1  0
 15 16  1  0
 17 18  1  0
 19 20  1  0
 21 22  1  0
M  CHG  1   7  -1
V    7 [O&-]
M  END
>  <PDB_ID>  (2883) 
pdb1gvh

>  <RESIDUE_NAME>  (2883) 
GLU   PHE

>  <FRAG_NAME>  (2883) 
ACET   MBZ

>  <FRAG_ATOM_NUM>  (2883) 
fragi: 7 fragj: 15

>  <atom.prop.CHAIN_ID>  (2883) 
A A A A A A A Z Z Z Z Z Z Z Z Z Z Z Z Z Z Z

>  <atom.prop.IS_HEAVY_ATOM>  (2883) 
1 0 0 0 1 1 1 1 0 0 0 1 1 0 1 0 1 0 1 0 1 0

>  <DIFUSE_FUNC_ATOM>  (2883) 
n/a

>  <FINAL_SINGLE_POINT_ENERGY>  (2883) 
0

>  <NONCOV_INTER_ENERGY_QM>  (2883) 
0

>  <FF_Energy>  (2883) 
-2.04

>  <QM_Energy>  (2883) 
-8.49

>  <source>  (2883) 
ACET_MBZ_03

>  <Index>  (2883) 
12838

$$$$
ACEH-pdb1gx1-A-GLH-149:MBZ-pdb1gx1-A-PHE-7
     RDKit          3D

 22 21  0  0  0  0  0  0  0  0999 V2000
   -4.6068    1.2031   -0.6105 C   0  0  0  0  0  0  0  0  0  0  0  0
   -3.7383    1.1244   -0.1539 H   0  0  0  0  0  0  0  0  0  0  0  0
   -5.1271    0.3693   -0.5597 H   0  0  0  0  0  0  0  0  0  0  0  0
   -5.1784    1.9964   -0.1289 H   0  0  0  0  0  0  0  0  0  0  0  0
   -4.3180    1.4676   -2.0905 C   0  0  0  0  0  0  0  0  0  0  0  0
   -4.0088    0.4994   -2.8270 O   0  0  0  0  0  0  0  0  0  0  0  0
   -4.3595    2.6374   -2.5295 O   0  0  0  0  0  0  0  0  0  0  0  0
   -0.0289    2.8969   -0.0166 C   0  0  0  0  0  0  0  0  0  0  0  0
   -0.6703    3.2030   -0.6963 H   0  0  0  0  0  0  0  0  0  0  0  0
    0.8836    3.2186   -0.1930 H   0  0  0  0  0  0  0  0  0  0  0  0
   -0.3446    3.2996    0.9459 H   0  0  0  0  0  0  0  0  0  0  0  0
   -0.0083    1.3931   -0.0353 C   0  0  0  0  0  0  0  0  0  0  0  0
   -1.1980    0.6802   -0.0075 C   0  0  0  0  0  0  0  0  0  0  0  0
   -2.0681    1.1621    0.0064 H   0  0  0  0  0  0  0  0  0  0  0  0
   -1.1895   -0.7098   -0.0000 C   0  0  0  0  0  0  0  0  0  0  0  0
   -2.0518   -1.2176   -0.0050 H   0  0  0  0  0  0  0  0  0  0  0  0
    0.0340   -1.3886    0.0158 C   0  0  0  0  0  0  0  0  0  0  0  0
    0.0290   -2.3898    0.0380 H   0  0  0  0  0  0  0  0  0  0  0  0
    1.1895   -0.6830    0.0000 C   0  0  0  0  0  0  0  0  0  0  0  0
    2.0961   -1.1572   -0.0304 H   0  0  0  0  0  0  0  0  0  0  0  0
    1.1723    0.7081    0.0270 C   0  0  0  0  0  0  0  0  0  0  0  0
    2.0425    1.2036    0.0923 H   0  0  0  0  0  0  0  0  0  0  0  0
  1  5  1  0
  5  6  2  0
  5  7  1  0
  1  2  1  0
  1  3  1  0
  1  4  1  0
  8 12  1  0
 12 13  2  0
 13 15  1  0
 15 17  2  0
 17 19  1  0
 19 21  2  0
 21 12  1  0
  8  9  1  0
  8 10  1  0
  8 11  1  0
 13 14  1  0
 15 16  1  0
 17 18  1  0
 19 20  1  0
 21 22  1  0
M  CHG  1   7  -1
V    7 [O&-]
M  END
>  <PDB_ID>  (2884) 
pdb1gx1

>  <RESIDUE_NAME>  (2884) 
GLU   PHE

>  <FRAG_NAME>  (2884) 
ACET   MBZ

>  <FRAG_ATOM_NUM>  (2884) 
fragi: 7 fragj: 15

>  <atom.prop.CHAIN_ID>  (2884) 
A A A A A A A Z Z Z Z Z Z Z Z Z Z Z Z Z Z Z

>  <atom.prop.IS_HEAVY_ATOM>  (2884) 
1 0 0 0 1 1 1 1 0 0 0 1 1 0 1 0 1 0 1 0 1 0

>  <DIFUSE_FUNC_ATOM>  (2884) 
n/a

>  <FINAL_SINGLE_POINT_ENERGY>  (2884) 
0

>  <NONCOV_INTER_ENERGY_QM>  (2884) 
0

>  <FF_Energy>  (2884) 
7.34

>  <QM_Energy>  (2884) 
-0.95

>  <source>  (2884) 
ACET_MBZ_03

>  <Index>  (2884) 
12866

$$$$
ACEH-pdb1gyc-A-ASH-206:MBZ-pdb1gyc-A-PHE-265
     RDKit          3D

 22 21  0  0  0  0  0  0  0  0999 V2000
    1.1496   -5.4598    1.3660 C   0  0  0  0  0  0  0  0  0  0  0  0
    0.7224   -6.3635    1.3202 H   0  0  0  0  0  0  0  0  0  0  0  0
    0.7839   -4.9590    2.1497 H   0  0  0  0  0  0  0  0  0  0  0  0
    2.2134   -5.6134    1.5476 H   0  0  0  0  0  0  0  0  0  0  0  0
    0.8318   -4.6994    0.1003 C   0  0  0  0  0  0  0  0  0  0  0  0
   -0.3588   -4.7192   -0.3218 O   0  0  0  0  0  0  0  0  0  0  0  0
    1.6868   -4.0732   -0.5449 O   0  0  0  0  0  0  0  0  0  0  0  0
    0.0137    2.9029    0.0077 C   0  0  0  0  0  0  0  0  0  0  0  0
   -0.9073    3.2145   -0.2020 H   0  0  0  0  0  0  0  0  0  0  0  0
    0.6494    3.2021   -0.6960 H   0  0  0  0  0  0  0  0  0  0  0  0
    0.3168    3.3568    0.9512 H   0  0  0  0  0  0  0  0  0  0  0  0
    0.0005    1.4020    0.0042 C   0  0  0  0  0  0  0  0  0  0  0  0
   -1.1842    0.6980   -0.0067 C   0  0  0  0  0  0  0  0  0  0  0  0
   -2.0564    1.1826   -0.0205 H   0  0  0  0  0  0  0  0  0  0  0  0
   -1.1893   -0.6947    0.0000 C   0  0  0  0  0  0  0  0  0  0  0  0
   -2.0734   -1.1812    0.0105 H   0  0  0  0  0  0  0  0  0  0  0  0
   -0.0029   -1.3885   -0.0056 C   0  0  0  0  0  0  0  0  0  0  0  0
   -0.0102   -2.3914   -0.0144 H   0  0  0  0  0  0  0  0  0  0  0  0
    1.1893   -0.7021    0.0000 C   0  0  0  0  0  0  0  0  0  0  0  0
    2.0728   -1.1984   -0.0002 H   0  0  0  0  0  0  0  0  0  0  0  0
    1.1867    0.6852    0.0082 C   0  0  0  0  0  0  0  0  0  0  0  0
    2.0617    1.1786    0.0166 H   0  0  0  0  0  0  0  0  0  0  0  0
  1  5  1  0
  5  6  2  0
  5  7  1  0
  1  2  1  0
  1  3  1  0
  1  4  1  0
  8 12  1  0
 12 13  2  0
 13 15  1  0
 15 17  2  0
 17 19  1  0
 19 21  2  0
 21 12  1  0
  8  9  1  0
  8 10  1  0
  8 11  1  0
 13 14  1  0
 15 16  1  0
 17 18  1  0
 19 20  1  0
 21 22  1  0
M  CHG  1   7  -1
V    7 [O&-]
M  END
>  <PDB_ID>  (2885) 
pdb1gyc

>  <RESIDUE_NAME>  (2885) 
ASP   PHE

>  <FRAG_NAME>  (2885) 
ACET   MBZ

>  <FRAG_ATOM_NUM>  (2885) 
fragi: 7 fragj: 15

>  <atom.prop.CHAIN_ID>  (2885) 
A A A A A A A Z Z Z Z Z Z Z Z Z Z Z Z Z Z Z

>  <atom.prop.IS_HEAVY_ATOM>  (2885) 
1 0 0 0 1 1 1 1 0 0 0 1 1 0 1 0 1 0 1 0 1 0

>  <DIFUSE_FUNC_ATOM>  (2885) 
n/a

>  <FINAL_SINGLE_POINT_ENERGY>  (2885) 
0

>  <NONCOV_INTER_ENERGY_QM>  (2885) 
0

>  <FF_Energy>  (2885) 
-1.28

>  <QM_Energy>  (2885) 
-7.3

>  <source>  (2885) 
ACET_MBZ_03

>  <Index>  (2885) 
12878

$$$$
ACEH-pdb1gz7-C-ASH-337:MBZ-pdb1gz7-C-PHE-415
     RDKit          3D

 22 21  0  0  0  0  0  0  0  0999 V2000
   -0.3011    6.5167    3.6942 C   0  0  0  0  0  0  0  0  0  0  0  0
   -0.1408    7.4950    3.6255 H   0  0  0  0  0  0  0  0  0  0  0  0
    0.5554    6.0339    3.8344 H   0  0  0  0  0  0  0  0  0  0  0  0
   -0.9295    6.3418    4.5673 H   0  0  0  0  0  0  0  0  0  0  0  0
   -0.9339    6.0319    2.4058 C   0  0  0  0  0  0  0  0  0  0  0  0
   -0.9533    4.8024    2.1700 O   0  0  0  0  0  0  0  0  0  0  0  0
   -1.4133    6.8810    1.6294 O   0  0  0  0  0  0  0  0  0  0  0  0
    0.0076    2.9053   -0.0330 C   0  0  0  0  0  0  0  0  0  0  0  0
    0.9007    3.2143    0.2589 H   0  0  0  0  0  0  0  0  0  0  0  0
   -0.7009    3.2287    0.5763 H   0  0  0  0  0  0  0  0  0  0  0  0
   -0.1840    3.3295   -1.0187 H   0  0  0  0  0  0  0  0  0  0  0  0
   -0.0001    1.4026   -0.0012 C   0  0  0  0  0  0  0  0  0  0  0  0
   -1.1984    0.6960    0.0001 C   0  0  0  0  0  0  0  0  0  0  0  0
   -2.0641    1.1862   -0.0003 H   0  0  0  0  0  0  0  0  0  0  0  0
   -1.2038   -0.6956    0.0000 C   0  0  0  0  0  0  0  0  0  0  0  0
   -2.0791   -1.1891    0.0011 H   0  0  0  0  0  0  0  0  0  0  0  0
    0.0006   -1.3960    0.0004 C   0  0  0  0  0  0  0  0  0  0  0  0
   -0.0056   -2.3935    0.0007 H   0  0  0  0  0  0  0  0  0  0  0  0
    1.2038   -0.6990   -0.0000 C   0  0  0  0  0  0  0  0  0  0  0  0
    2.0843   -1.1969    0.0008 H   0  0  0  0  0  0  0  0  0  0  0  0
    1.1979    0.6921    0.0007 C   0  0  0  0  0  0  0  0  0  0  0  0
    2.0655    1.1894    0.0011 H   0  0  0  0  0  0  0  0  0  0  0  0
  1  5  1  0
  5  6  2  0
  5  7  1  0
  1  2  1  0
  1  3  1  0
  1  4  1  0
  8 12  1  0
 12 13  2  0
 13 15  1  0
 15 17  2  0
 17 19  1  0
 19 21  2  0
 21 12  1  0
  8  9  1  0
  8 10  1  0
  8 11  1  0
 13 14  1  0
 15 16  1  0
 17 18  1  0
 19 20  1  0
 21 22  1  0
M  CHG  1   7  -1
V    7 [O&-]
M  END
>  <PDB_ID>  (2886) 
pdb1gz7

>  <RESIDUE_NAME>  (2886) 
ASP   PHE

>  <FRAG_NAME>  (2886) 
ACET   MBZ

>  <FRAG_ATOM_NUM>  (2886) 
fragi: 7 fragj: 15

>  <atom.prop.CHAIN_ID>  (2886) 
A A A A A A A Z Z Z Z Z Z Z Z Z Z Z Z Z Z Z

>  <atom.prop.IS_HEAVY_ATOM>  (2886) 
1 0 0 0 1 1 1 1 0 0 0 1 1 0 1 0 1 0 1 0 1 0

>  <DIFUSE_FUNC_ATOM>  (2886) 
n/a

>  <FINAL_SINGLE_POINT_ENERGY>  (2886) 
0

>  <NONCOV_INTER_ENERGY_QM>  (2886) 
0

>  <FF_Energy>  (2886) 
0.52

>  <QM_Energy>  (2886) 
-5.02

>  <source>  (2886) 
ACET_MBZ_03

>  <Index>  (2886) 
12892

$$$$
ACEH-pdb1h21-B-ASH-177:MBZ-pdb1h21-B-PHE-124
     RDKit          3D

 22 21  0  0  0  0  0  0  0  0999 V2000
   -0.7765    6.6033   -3.4703 C   0  0  0  0  0  0  0  0  0  0  0  0
   -0.1482    6.9231   -4.1763 H   0  0  0  0  0  0  0  0  0  0  0  0
   -1.4181    7.3278   -3.2330 H   0  0  0  0  0  0  0  0  0  0  0  0
   -1.3459    5.7686   -3.8789 H   0  0  0  0  0  0  0  0  0  0  0  0
   -0.0050    6.2158   -2.2667 C   0  0  0  0  0  0  0  0  0  0  0  0
   -0.5029    5.3823   -1.4794 O   0  0  0  0  0  0  0  0  0  0  0  0
    1.1133    6.7283   -2.1081 O   0  0  0  0  0  0  0  0  0  0  0  0
    0.0075    2.8934   -0.0037 C   0  0  0  0  0  0  0  0  0  0  0  0
   -0.7703    3.2092   -0.5278 H   0  0  0  0  0  0  0  0  0  0  0  0
    0.8581    3.2040   -0.4048 H   0  0  0  0  0  0  0  0  0  0  0  0
   -0.0654    3.3374    0.9891 H   0  0  0  0  0  0  0  0  0  0  0  0
    0.0021    1.4063    0.0006 C   0  0  0  0  0  0  0  0  0  0  0  0
   -1.2026    0.7031   -0.0003 C   0  0  0  0  0  0  0  0  0  0  0  0
   -2.0650    1.1915   -0.0023 H   0  0  0  0  0  0  0  0  0  0  0  0
   -1.2106   -0.6992    0.0000 C   0  0  0  0  0  0  0  0  0  0  0  0
   -2.0843   -1.1894    0.0012 H   0  0  0  0  0  0  0  0  0  0  0  0
   -0.0002   -1.4035    0.0007 C   0  0  0  0  0  0  0  0  0  0  0  0
   -0.0071   -2.3986    0.0013 H   0  0  0  0  0  0  0  0  0  0  0  0
    1.2106   -0.7041   -0.0000 C   0  0  0  0  0  0  0  0  0  0  0  0
    2.0876   -1.1981    0.0021 H   0  0  0  0  0  0  0  0  0  0  0  0
    1.2007    0.6974   -0.0010 C   0  0  0  0  0  0  0  0  0  0  0  0
    2.0691    1.1916   -0.0035 H   0  0  0  0  0  0  0  0  0  0  0  0
  1  5  1  0
  5  6  2  0
  5  7  1  0
  1  2  1  0
  1  3  1  0
  1  4  1  0
  8 12  1  0
 12 13  2  0
 13 15  1  0
 15 17  2  0
 17 19  1  0
 19 21  2  0
 21 12  1  0
  8  9  1  0
  8 10  1  0
  8 11  1  0
 13 14  1  0
 15 16  1  0
 17 18  1  0
 19 20  1  0
 21 22  1  0
M  CHG  1   7  -1
V    7 [O&-]
M  END
>  <PDB_ID>  (2887) 
pdb1h21

>  <RESIDUE_NAME>  (2887) 
ASP   PHE

>  <FRAG_NAME>  (2887) 
ACET   MBZ

>  <FRAG_ATOM_NUM>  (2887) 
fragi: 7 fragj: 15

>  <atom.prop.CHAIN_ID>  (2887) 
A A A A A A A Z Z Z Z Z Z Z Z Z Z Z Z Z Z Z

>  <atom.prop.IS_HEAVY_ATOM>  (2887) 
1 0 0 0 1 1 1 1 0 0 0 1 1 0 1 0 1 0 1 0 1 0

>  <DIFUSE_FUNC_ATOM>  (2887) 
n/a

>  <FINAL_SINGLE_POINT_ENERGY>  (2887) 
0

>  <NONCOV_INTER_ENERGY_QM>  (2887) 
0

>  <FF_Energy>  (2887) 
0.17

>  <QM_Energy>  (2887) 
-4.87

>  <source>  (2887) 
ACET_MBZ_03

>  <Index>  (2887) 
12947

$$$$
ACEH-pdb3g3o-A-ASH-284:MBZ-pdb3g3o-A-PHE-523
     RDKit          3D

 22 21  0  0  0  0  0  0  0  0999 V2000
   -1.5137   -5.4710   -0.4287 C   0  0  0  0  0  0  0  0  0  0  0  0
   -2.0153   -4.6369   -0.2594 H   0  0  0  0  0  0  0  0  0  0  0  0
   -1.7650   -6.1798    0.2115 H   0  0  0  0  0  0  0  0  0  0  0  0
   -1.7443   -5.8159   -1.4367 H   0  0  0  0  0  0  0  0  0  0  0  0
   -0.0044   -5.1681   -0.2416 C   0  0  0  0  0  0  0  0  0  0  0  0
    0.3356   -4.3246    0.5949 O   0  0  0  0  0  0  0  0  0  0  0  0
    0.8364   -5.7480   -0.9500 O   0  0  0  0  0  0  0  0  0  0  0  0
   -0.0248    2.9321    0.0030 C   0  0  0  0  0  0  0  0  0  0  0  0
   -0.5073    3.2217   -0.8095 H   0  0  0  0  0  0  0  0  0  0  0  0
    0.9159    3.2346   -0.0088 H   0  0  0  0  0  0  0  0  0  0  0  0
   -0.5156    3.3767    0.8687 H   0  0  0  0  0  0  0  0  0  0  0  0
   -0.0147    1.4116    0.0103 C   0  0  0  0  0  0  0  0  0  0  0  0
   -1.2091    0.6943    0.0018 C   0  0  0  0  0  0  0  0  0  0  0  0
   -2.0781    1.1823   -0.0041 H   0  0  0  0  0  0  0  0  0  0  0  0
   -1.2121   -0.6987    0.0000 C   0  0  0  0  0  0  0  0  0  0  0  0
   -2.0683   -1.2083    0.0031 H   0  0  0  0  0  0  0  0  0  0  0  0
    0.0330   -1.4094   -0.0047 C   0  0  0  0  0  0  0  0  0  0  0  0
    0.0097   -2.4014   -0.0119 H   0  0  0  0  0  0  0  0  0  0  0  0
    1.2121   -0.7061    0.0000 C   0  0  0  0  0  0  0  0  0  0  0  0
    2.1074   -1.1757    0.0102 H   0  0  0  0  0  0  0  0  0  0  0  0
    1.1908    0.7084   -0.0074 C   0  0  0  0  0  0  0  0  0  0  0  0
    2.0567    1.2041   -0.0264 H   0  0  0  0  0  0  0  0  0  0  0  0
  1  5  1  0
  5  6  2  0
  5  7  1  0
  1  2  1  0
  1  3  1  0
  1  4  1  0
  8 12  1  0
 12 13  2  0
 13 15  1  0
 15 17  2  0
 17 19  1  0
 19 21  2  0
 21 12  1  0
  8  9  1  0
  8 10  1  0
  8 11  1  0
 13 14  1  0
 15 16  1  0
 17 18  1  0
 19 20  1  0
 21 22  1  0
M  CHG  1   7  -1
V    7 [O&-]
M  END
>  <PDB_ID>  (2888) 
pdb3g3o

>  <RESIDUE_NAME>  (2888) 
ASP   PHE

>  <FRAG_NAME>  (2888) 
ACET   MBZ

>  <FRAG_ATOM_NUM>  (2888) 
fragi: 7 fragj: 15

>  <atom.prop.CHAIN_ID>  (2888) 
A A A A A A A Z Z Z Z Z Z Z Z Z Z Z Z Z Z Z

>  <atom.prop.IS_HEAVY_ATOM>  (2888) 
1 0 0 0 1 1 1 1 0 0 0 1 1 0 1 0 1 0 1 0 1 0

>  <DIFUSE_FUNC_ATOM>  (2888) 
n/a

>  <FINAL_SINGLE_POINT_ENERGY>  (2888) 
0

>  <NONCOV_INTER_ENERGY_QM>  (2888) 
0

>  <FF_Energy>  (2888) 
3.17

>  <QM_Energy>  (2888) 
-5.16

>  <source>  (2888) 
ACET_MBZ_03

>  <Index>  (2888) 
12978

$$$$
ACEH-pdb5j7o-D-GLH-71:MBZ-pdb5j7o-F-PHE-5
     RDKit          3D

 22 21  0  0  0  0  0  0  0  0999 V2000
   -1.0183    0.3621   -4.6409 C   0  0  0  0  0  0  0  0  0  0  0  0
   -1.5232    0.0743   -5.4294 H   0  0  0  0  0  0  0  0  0  0  0  0
   -0.1013    0.0189   -4.6295 H   0  0  0  0  0  0  0  0  0  0  0  0
   -0.9810    1.4515   -4.6343 H   0  0  0  0  0  0  0  0  0  0  0  0
   -1.7263   -0.1801   -3.4187 C   0  0  0  0  0  0  0  0  0  0  0  0
   -2.3025    0.6359   -2.6711 O   0  0  0  0  0  0  0  0  0  0  0  0
   -1.7131   -1.4116   -3.2078 O   0  0  0  0  0  0  0  0  0  0  0  0
   -0.0025    2.8528   -0.0083 C   0  0  0  0  0  0  0  0  0  0  0  0
   -0.2865    3.1636   -0.9056 H   0  0  0  0  0  0  0  0  0  0  0  0
    0.9113    3.1711    0.2048 H   0  0  0  0  0  0  0  0  0  0  0  0
   -0.6838    3.2856    0.7241 H   0  0  0  0  0  0  0  0  0  0  0  0
    0.0024    1.3755   -0.0034 C   0  0  0  0  0  0  0  0  0  0  0  0
   -1.1869    0.6798    0.0051 C   0  0  0  0  0  0  0  0  0  0  0  0
   -2.0531    1.1801    0.0136 H   0  0  0  0  0  0  0  0  0  0  0  0
   -1.1922   -0.6857   -0.0000 C   0  0  0  0  0  0  0  0  0  0  0  0
   -2.0719   -1.1854   -0.0047 H   0  0  0  0  0  0  0  0  0  0  0  0
   -0.0072   -1.3637    0.0031 C   0  0  0  0  0  0  0  0  0  0  0  0
   -0.0083   -2.3751    0.0076 H   0  0  0  0  0  0  0  0  0  0  0  0
    1.1922   -0.6859   -0.0000 C   0  0  0  0  0  0  0  0  0  0  0  0
    2.0687   -1.1970    0.0028 H   0  0  0  0  0  0  0  0  0  0  0  0
    1.1918    0.6800   -0.0049 C   0  0  0  0  0  0  0  0  0  0  0  0
    2.0586    1.1840   -0.0104 H   0  0  0  0  0  0  0  0  0  0  0  0
  1  5  1  0
  5  6  2  0
  5  7  1  0
  1  2  1  0
  1  3  1  0
  1  4  1  0
  8 12  1  0
 12 13  2  0
 13 15  1  0
 15 17  2  0
 17 19  1  0
 19 21  2  0
 21 12  1  0
  8  9  1  0
  8 10  1  0
  8 11  1  0
 13 14  1  0
 15 16  1  0
 17 18  1  0
 19 20  1  0
 21 22  1  0
M  CHG  1   7  -1
V    7 [O&-]
M  END
>  <PDB_ID>  (2889) 
pdb5j7o

>  <RESIDUE_NAME>  (2889) 
GLU   PHE

>  <FRAG_NAME>  (2889) 
ACET   MBZ

>  <FRAG_ATOM_NUM>  (2889) 
fragi: 7 fragj: 15

>  <atom.prop.CHAIN_ID>  (2889) 
A A A A A A A Z Z Z Z Z Z Z Z Z Z Z Z Z Z Z

>  <atom.prop.IS_HEAVY_ATOM>  (2889) 
1 0 0 0 1 1 1 1 0 0 0 1 1 0 1 0 1 0 1 0 1 0

>  <DIFUSE_FUNC_ATOM>  (2889) 
n/a

>  <FINAL_SINGLE_POINT_ENERGY>  (2889) 
0

>  <NONCOV_INTER_ENERGY_QM>  (2889) 
0

>  <FF_Energy>  (2889) 
2.77

>  <QM_Energy>  (2889) 
-2.77

>  <source>  (2889) 
ACET_MBZ_03

>  <Index>  (2889) 
13002

$$$$
ACEH-pdb2htn-A-GLH-44:MBZ-pdb2htn-A-PHE-32
     RDKit          3D

 22 21  0  0  0  0  0  0  0  0999 V2000
    4.4399   -0.8098    0.2079 C   0  0  0  0  0  0  0  0  0  0  0  0
    4.1080   -0.8484    1.1427 H   0  0  0  0  0  0  0  0  0  0  0  0
    3.6918   -0.6261   -0.4200 H   0  0  0  0  0  0  0  0  0  0  0  0
    5.1597    0.0053    0.1334 H   0  0  0  0  0  0  0  0  0  0  0  0
    4.9932   -2.1659   -0.1331 C   0  0  0  0  0  0  0  0  0  0  0  0
    4.7894   -2.6347   -1.2775 O   0  0  0  0  0  0  0  0  0  0  0  0
    5.6283   -2.7696    0.7592 O   0  0  0  0  0  0  0  0  0  0  0  0
   -0.0050    2.8989    0.0284 C   0  0  0  0  0  0  0  0  0  0  0  0
    0.9047    3.2089   -0.2124 H   0  0  0  0  0  0  0  0  0  0  0  0
   -0.2429    3.1796    0.9488 H   0  0  0  0  0  0  0  0  0  0  0  0
   -0.7123    3.3628   -0.6591 H   0  0  0  0  0  0  0  0  0  0  0  0
   -0.0042    1.3949   -0.0089 C   0  0  0  0  0  0  0  0  0  0  0  0
   -1.1909    0.6807    0.0084 C   0  0  0  0  0  0  0  0  0  0  0  0
   -2.0625    1.1716    0.0260 H   0  0  0  0  0  0  0  0  0  0  0  0
   -1.1902   -0.6952   -0.0000 C   0  0  0  0  0  0  0  0  0  0  0  0
   -2.0693   -1.1958   -0.0071 H   0  0  0  0  0  0  0  0  0  0  0  0
    0.0027   -1.3875    0.0030 C   0  0  0  0  0  0  0  0  0  0  0  0
    0.0019   -2.3867    0.0068 H   0  0  0  0  0  0  0  0  0  0  0  0
    1.1902   -0.6877   -0.0000 C   0  0  0  0  0  0  0  0  0  0  0  0
    2.0790   -1.1875    0.0011 H   0  0  0  0  0  0  0  0  0  0  0  0
    1.1925    0.6949   -0.0024 C   0  0  0  0  0  0  0  0  0  0  0  0
    2.0580    1.1921    0.0001 H   0  0  0  0  0  0  0  0  0  0  0  0
  1  5  1  0
  5  6  2  0
  5  7  1  0
  1  2  1  0
  1  3  1  0
  1  4  1  0
  8 12  1  0
 12 13  2  0
 13 15  1  0
 15 17  2  0
 17 19  1  0
 19 21  2  0
 21 12  1  0
  8  9  1  0
  8 10  1  0
  8 11  1  0
 13 14  1  0
 15 16  1  0
 17 18  1  0
 19 20  1  0
 21 22  1  0
M  CHG  1   7  -1
V    7 [O&-]
M  END
>  <PDB_ID>  (2890) 
pdb2htn

>  <RESIDUE_NAME>  (2890) 
GLU   PHE

>  <FRAG_NAME>  (2890) 
ACET   MBZ

>  <FRAG_ATOM_NUM>  (2890) 
fragi: 7 fragj: 15

>  <atom.prop.CHAIN_ID>  (2890) 
A A A A A A A Z Z Z Z Z Z Z Z Z Z Z Z Z Z Z

>  <atom.prop.IS_HEAVY_ATOM>  (2890) 
1 0 0 0 1 1 1 1 0 0 0 1 1 0 1 0 1 0 1 0 1 0

>  <DIFUSE_FUNC_ATOM>  (2890) 
n/a

>  <FINAL_SINGLE_POINT_ENERGY>  (2890) 
0

>  <NONCOV_INTER_ENERGY_QM>  (2890) 
0

>  <FF_Energy>  (2890) 
5.35

>  <QM_Energy>  (2890) 
-0.73

>  <source>  (2890) 
ACET_MBZ_03

>  <Index>  (2890) 
13007

$$$$
ACEH-pdb2htn-G-GLH-44:MBZ-pdb2htn-G-PHE-32
     RDKit          3D

 22 21  0  0  0  0  0  0  0  0999 V2000
    4.4416   -0.7987    0.2042 C   0  0  0  0  0  0  0  0  0  0  0  0
    4.1118   -0.8368    1.1394 H   0  0  0  0  0  0  0  0  0  0  0  0
    3.6924   -0.6203   -0.4225 H   0  0  0  0  0  0  0  0  0  0  0  0
    5.1608    0.0165    0.1251 H   0  0  0  0  0  0  0  0  0  0  0  0
    4.9972   -2.1593   -0.1340 C   0  0  0  0  0  0  0  0  0  0  0  0
    4.7900   -2.6359   -1.2777 O   0  0  0  0  0  0  0  0  0  0  0  0
    5.6325   -2.7576    0.7591 O   0  0  0  0  0  0  0  0  0  0  0  0
   -0.0094    2.8946    0.0221 C   0  0  0  0  0  0  0  0  0  0  0  0
    0.8997    3.2091   -0.2199 H   0  0  0  0  0  0  0  0  0  0  0  0
   -0.2480    3.1801    0.9417 H   0  0  0  0  0  0  0  0  0  0  0  0
   -0.7182    3.3553   -0.6658 H   0  0  0  0  0  0  0  0  0  0  0  0
   -0.0042    1.3974   -0.0101 C   0  0  0  0  0  0  0  0  0  0  0  0
   -1.1898    0.6819    0.0127 C   0  0  0  0  0  0  0  0  0  0  0  0
   -2.0624    1.1696    0.0374 H   0  0  0  0  0  0  0  0  0  0  0  0
   -1.1898   -0.7011   -0.0000 C   0  0  0  0  0  0  0  0  0  0  0  0
   -2.0673   -1.1986   -0.0094 H   0  0  0  0  0  0  0  0  0  0  0  0
    0.0067   -1.3901    0.0023 C   0  0  0  0  0  0  0  0  0  0  0  0
    0.0087   -2.3884    0.0046 H   0  0  0  0  0  0  0  0  0  0  0  0
    1.1898   -0.6850   -0.0000 C   0  0  0  0  0  0  0  0  0  0  0  0
    2.0817   -1.1813    0.0036 H   0  0  0  0  0  0  0  0  0  0  0  0
    1.1873    0.6970   -0.0048 C   0  0  0  0  0  0  0  0  0  0  0  0
    2.0563    1.1953   -0.0052 H   0  0  0  0  0  0  0  0  0  0  0  0
  1  5  1  0
  5  6  2  0
  5  7  1  0
  1  2  1  0
  1  3  1  0
  1  4  1  0
  8 12  1  0
 12 13  2  0
 13 15  1  0
 15 17  2  0
 17 19  1  0
 19 21  2  0
 21 12  1  0
  8  9  1  0
  8 10  1  0
  8 11  1  0
 13 14  1  0
 15 16  1  0
 17 18  1  0
 19 20  1  0
 21 22  1  0
M  CHG  1   7  -1
V    7 [O&-]
M  END
>  <PDB_ID>  (2891) 
pdb2htn

>  <RESIDUE_NAME>  (2891) 
GLU   PHE

>  <FRAG_NAME>  (2891) 
ACET   MBZ

>  <FRAG_ATOM_NUM>  (2891) 
fragi: 7 fragj: 15

>  <atom.prop.CHAIN_ID>  (2891) 
A A A A A A A Z Z Z Z Z Z Z Z Z Z Z Z Z Z Z

>  <atom.prop.IS_HEAVY_ATOM>  (2891) 
1 0 0 0 1 1 1 1 0 0 0 1 1 0 1 0 1 0 1 0 1 0

>  <DIFUSE_FUNC_ATOM>  (2891) 
n/a

>  <FINAL_SINGLE_POINT_ENERGY>  (2891) 
0

>  <NONCOV_INTER_ENERGY_QM>  (2891) 
0

>  <FF_Energy>  (2891) 
5.41

>  <QM_Energy>  (2891) 
-0.73

>  <source>  (2891) 
ACET_MBZ_03

>  <Index>  (2891) 
13013

$$$$
ACEH-pdb3geu-A-GLH-49:MBZ-pdb3geu-A-PHE-106
     RDKit          3D

 22 21  0  0  0  0  0  0  0  0999 V2000
    0.7273   -2.4898    2.3461 C   0  0  0  0  0  0  0  0  0  0  0  0
    1.3311   -2.4118    1.5664 H   0  0  0  0  0  0  0  0  0  0  0  0
   -0.1534   -2.0810    2.1581 H   0  0  0  0  0  0  0  0  0  0  0  0
    0.5807   -3.5471    2.5669 H   0  0  0  0  0  0  0  0  0  0  0  0
    1.3596   -1.6849    3.4847 C   0  0  0  0  0  0  0  0  0  0  0  0
    1.8413   -0.5639    3.1839 O   0  0  0  0  0  0  0  0  0  0  0  0
    1.3560   -2.1416    4.6549 O   0  0  0  0  0  0  0  0  0  0  0  0
   -0.0118    2.8694   -0.0302 C   0  0  0  0  0  0  0  0  0  0  0  0
   -0.1366    3.1729    0.9067 H   0  0  0  0  0  0  0  0  0  0  0  0
   -0.7681    3.1693   -0.5993 H   0  0  0  0  0  0  0  0  0  0  0  0
    0.9030    3.3206   -0.4147 H   0  0  0  0  0  0  0  0  0  0  0  0
   -0.0103    1.3649   -0.0272 C   0  0  0  0  0  0  0  0  0  0  0  0
   -1.1830    0.6983   -0.0161 C   0  0  0  0  0  0  0  0  0  0  0  0
   -2.0493    1.1994   -0.0209 H   0  0  0  0  0  0  0  0  0  0  0  0
   -1.1735   -0.6377    0.0000 C   0  0  0  0  0  0  0  0  0  0  0  0
   -2.0516   -1.1636    0.0039 H   0  0  0  0  0  0  0  0  0  0  0  0
    0.0246   -1.3523    0.0136 C   0  0  0  0  0  0  0  0  0  0  0  0
   -0.0269   -2.3600    0.0336 H   0  0  0  0  0  0  0  0  0  0  0  0
    1.1735   -0.7035   -0.0000 C   0  0  0  0  0  0  0  0  0  0  0  0
    2.0684   -1.2083   -0.0312 H   0  0  0  0  0  0  0  0  0  0  0  0
    1.1687    0.6303    0.0298 C   0  0  0  0  0  0  0  0  0  0  0  0
    2.0429    1.1483    0.0951 H   0  0  0  0  0  0  0  0  0  0  0  0
  1  5  1  0
  5  6  2  0
  5  7  1  0
  1  2  1  0
  1  3  1  0
  1  4  1  0
  8 12  1  0
 12 13  2  0
 13 15  1  0
 15 17  2  0
 17 19  1  0
 19 21  2  0
 21 12  1  0
  8  9  1  0
  8 10  1  0
  8 11  1  0
 13 14  1  0
 15 16  1  0
 17 18  1  0
 19 20  1  0
 21 22  1  0
M  CHG  1   7  -1
V    7 [O&-]
M  END
>  <PDB_ID>  (2892) 
pdb3geu

>  <RESIDUE_NAME>  (2892) 
GLU   PHE

>  <FRAG_NAME>  (2892) 
ACET   MBZ

>  <FRAG_ATOM_NUM>  (2892) 
fragi: 7 fragj: 15

>  <atom.prop.CHAIN_ID>  (2892) 
A A A A A A A Z Z Z Z Z Z Z Z Z Z Z Z Z Z Z

>  <atom.prop.IS_HEAVY_ATOM>  (2892) 
1 0 0 0 1 1 1 1 0 0 0 1 1 0 1 0 1 0 1 0 1 0

>  <DIFUSE_FUNC_ATOM>  (2892) 
n/a

>  <FINAL_SINGLE_POINT_ENERGY>  (2892) 
0

>  <NONCOV_INTER_ENERGY_QM>  (2892) 
0

>  <FF_Energy>  (2892) 
22.76

>  <QM_Energy>  (2892) 
8.62

>  <source>  (2892) 
ACET_MBZ_03

>  <Index>  (2892) 
13214

$$$$
ACEH-pdb4hvf-B-GLH-35:MBZ-pdb4hvf-B-PHE-61
     RDKit          3D

 22 21  0  0  0  0  0  0  0  0999 V2000
   -3.7174    4.7819   -3.2677 C   0  0  0  0  0  0  0  0  0  0  0  0
   -4.3768    5.4935   -3.2676 H   0  0  0  0  0  0  0  0  0  0  0  0
   -4.0657    3.9098   -3.5129 H   0  0  0  0  0  0  0  0  0  0  0  0
   -2.9022    5.0474   -3.9408 H   0  0  0  0  0  0  0  0  0  0  0  0
   -3.2030    4.6544   -1.7962 C   0  0  0  0  0  0  0  0  0  0  0  0
   -2.8145    5.6831   -1.2150 O   0  0  0  0  0  0  0  0  0  0  0  0
   -3.1826    3.5372   -1.2940 O   0  0  0  0  0  0  0  0  0  0  0  0
    0.0456    2.9179    0.0551 C   0  0  0  0  0  0  0  0  0  0  0  0
   -0.7554    3.2764   -0.3858 H   0  0  0  0  0  0  0  0  0  0  0  0
    0.8776    3.2317   -0.3615 H   0  0  0  0  0  0  0  0  0  0  0  0
    0.0410    3.3043    1.0742 H   0  0  0  0  0  0  0  0  0  0  0  0
    0.0064    1.4364    0.0120 C   0  0  0  0  0  0  0  0  0  0  0  0
   -1.2082    0.7462    0.0072 C   0  0  0  0  0  0  0  0  0  0  0  0
   -2.0653    1.2198    0.0077 H   0  0  0  0  0  0  0  0  0  0  0  0
   -1.2055   -0.6853   -0.0000 C   0  0  0  0  0  0  0  0  0  0  0  0
   -2.1092   -1.1527    0.0144 H   0  0  0  0  0  0  0  0  0  0  0  0
   -0.0350   -1.4221   -0.0239 C   0  0  0  0  0  0  0  0  0  0  0  0
   -0.0682   -2.4198   -0.0590 H   0  0  0  0  0  0  0  0  0  0  0  0
    1.2055   -0.7686    0.0000 C   0  0  0  0  0  0  0  0  0  0  0  0
    2.0660   -1.2612    0.0157 H   0  0  0  0  0  0  0  0  0  0  0  0
    1.2367    0.6933    0.0047 C   0  0  0  0  0  0  0  0  0  0  0  0
    2.0954    1.1528    0.0023 H   0  0  0  0  0  0  0  0  0  0  0  0
  1  5  1  0
  5  6  2  0
  5  7  1  0
  1  2  1  0
  1  3  1  0
  1  4  1  0
  8 12  1  0
 12 13  2  0
 13 15  1  0
 15 17  2  0
 17 19  1  0
 19 21  2  0
 21 12  1  0
  8  9  1  0
  8 10  1  0
  8 11  1  0
 13 14  1  0
 15 16  1  0
 17 18  1  0
 19 20  1  0
 21 22  1  0
M  CHG  1   7  -1
V    7 [O&-]
M  END
>  <PDB_ID>  (2893) 
pdb4hvf

>  <RESIDUE_NAME>  (2893) 
GLU   PHE

>  <FRAG_NAME>  (2893) 
ACET   MBZ

>  <FRAG_ATOM_NUM>  (2893) 
fragi: 7 fragj: 15

>  <atom.prop.CHAIN_ID>  (2893) 
A A A A A A A Z Z Z Z Z Z Z Z Z Z Z Z Z Z Z

>  <atom.prop.IS_HEAVY_ATOM>  (2893) 
1 0 0 0 1 1 1 1 0 0 0 1 1 0 1 0 1 0 1 0 1 0

>  <DIFUSE_FUNC_ATOM>  (2893) 
n/a

>  <FINAL_SINGLE_POINT_ENERGY>  (2893) 
0

>  <NONCOV_INTER_ENERGY_QM>  (2893) 
0

>  <FF_Energy>  (2893) 
-2.05

>  <QM_Energy>  (2893) 
-7.57

>  <source>  (2893) 
ACET_MBZ_03

>  <Index>  (2893) 
13248

$$$$
ACEH-pdb3ghz-B-GLH-149:MBZ-pdb3ghz-B-PHE-7
     RDKit          3D

 22 21  0  0  0  0  0  0  0  0999 V2000
   -4.6327    1.2198   -0.1061 C   0  0  0  0  0  0  0  0  0  0  0  0
   -3.6624    1.4015    0.0369 H   0  0  0  0  0  0  0  0  0  0  0  0
   -4.8788    0.3479    0.3115 H   0  0  0  0  0  0  0  0  0  0  0  0
   -5.2181    2.0170    0.3520 H   0  0  0  0  0  0  0  0  0  0  0  0
   -4.8352    1.0666   -1.5855 C   0  0  0  0  0  0  0  0  0  0  0  0
   -4.5603    1.9915   -2.3612 O   0  0  0  0  0  0  0  0  0  0  0  0
   -5.2510   -0.0229   -1.9675 O   0  0  0  0  0  0  0  0  0  0  0  0
   -0.0307    2.9033    0.0249 C   0  0  0  0  0  0  0  0  0  0  0  0
   -0.6871    3.2124   -0.6440 H   0  0  0  0  0  0  0  0  0  0  0  0
    0.8782    3.2279   -0.1805 H   0  0  0  0  0  0  0  0  0  0  0  0
   -0.3212    3.3066    0.9949 H   0  0  0  0  0  0  0  0  0  0  0  0
   -0.0057    1.4012   -0.0097 C   0  0  0  0  0  0  0  0  0  0  0  0
   -1.1847    0.6982    0.0144 C   0  0  0  0  0  0  0  0  0  0  0  0
   -2.0617    1.1786    0.0416 H   0  0  0  0  0  0  0  0  0  0  0  0
   -1.2006   -0.7094   -0.0000 C   0  0  0  0  0  0  0  0  0  0  0  0
   -2.0812   -1.1858   -0.0033 H   0  0  0  0  0  0  0  0  0  0  0  0
   -0.0087   -1.3964   -0.0071 C   0  0  0  0  0  0  0  0  0  0  0  0
    0.0042   -2.3929   -0.0183 H   0  0  0  0  0  0  0  0  0  0  0  0
    1.2006   -0.6861    0.0000 C   0  0  0  0  0  0  0  0  0  0  0  0
    2.0795   -1.1944    0.0052 H   0  0  0  0  0  0  0  0  0  0  0  0
    1.1991    0.6925    0.0024 C   0  0  0  0  0  0  0  0  0  0  0  0
    2.0612    1.1963    0.0119 H   0  0  0  0  0  0  0  0  0  0  0  0
  1  5  1  0
  5  6  2  0
  5  7  1  0
  1  2  1  0
  1  3  1  0
  1  4  1  0
  8 12  1  0
 12 13  2  0
 13 15  1  0
 15 17  2  0
 17 19  1  0
 19 21  2  0
 21 12  1  0
  8  9  1  0
  8 10  1  0
  8 11  1  0
 13 14  1  0
 15 16  1  0
 17 18  1  0
 19 20  1  0
 21 22  1  0
M  CHG  1   7  -1
V    7 [O&-]
M  END
>  <PDB_ID>  (2894) 
pdb3ghz

>  <RESIDUE_NAME>  (2894) 
GLU   PHE

>  <FRAG_NAME>  (2894) 
ACET   MBZ

>  <FRAG_ATOM_NUM>  (2894) 
fragi: 7 fragj: 15

>  <atom.prop.CHAIN_ID>  (2894) 
A A A A A A A Z Z Z Z Z Z Z Z Z Z Z Z Z Z Z

>  <atom.prop.IS_HEAVY_ATOM>  (2894) 
1 0 0 0 1 1 1 1 0 0 0 1 1 0 1 0 1 0 1 0 1 0

>  <DIFUSE_FUNC_ATOM>  (2894) 
n/a

>  <FINAL_SINGLE_POINT_ENERGY>  (2894) 
0

>  <NONCOV_INTER_ENERGY_QM>  (2894) 
0

>  <FF_Energy>  (2894) 
11.36

>  <QM_Energy>  (2894) 
-0.65

>  <source>  (2894) 
ACET_MBZ_03

>  <Index>  (2894) 
13321

$$$$
ACEH-pdb2icw-A-GLH-21:MBZ-pdb2icw-A-PHE-137
     RDKit          3D

 22 21  0  0  0  0  0  0  0  0999 V2000
    4.9663    5.2671    1.1705 C   0  0  0  0  0  0  0  0  0  0  0  0
    5.1356    6.2333    1.1071 H   0  0  0  0  0  0  0  0  0  0  0  0
    5.6430    4.7377    0.6937 H   0  0  0  0  0  0  0  0  0  0  0  0
    4.9621    4.9764    2.2210 H   0  0  0  0  0  0  0  0  0  0  0  0
    3.6373    4.9978    0.5099 C   0  0  0  0  0  0  0  0  0  0  0  0
    3.3143    3.8013    0.2737 O   0  0  0  0  0  0  0  0  0  0  0  0
    2.9171    5.9921    0.2517 O   0  0  0  0  0  0  0  0  0  0  0  0
    0.0023    2.9193   -0.0892 C   0  0  0  0  0  0  0  0  0  0  0  0
    0.7783    3.2514    0.4181 H   0  0  0  0  0  0  0  0  0  0  0  0
   -0.8490    3.2453    0.2855 H   0  0  0  0  0  0  0  0  0  0  0  0
    0.0845    3.2901   -1.1109 H   0  0  0  0  0  0  0  0  0  0  0  0
    0.0005    1.4113   -0.0015 C   0  0  0  0  0  0  0  0  0  0  0  0
   -1.1965    0.6988    0.0024 C   0  0  0  0  0  0  0  0  0  0  0  0
   -2.0645    1.1863    0.0058 H   0  0  0  0  0  0  0  0  0  0  0  0
   -1.2040   -0.7005    0.0000 C   0  0  0  0  0  0  0  0  0  0  0  0
   -2.0817   -1.1899    0.0013 H   0  0  0  0  0  0  0  0  0  0  0  0
   -0.0004   -1.4050   -0.0023 C   0  0  0  0  0  0  0  0  0  0  0  0
   -0.0061   -2.3990   -0.0062 H   0  0  0  0  0  0  0  0  0  0  0  0
    1.2040   -0.7044    0.0000 C   0  0  0  0  0  0  0  0  0  0  0  0
    2.0851   -1.1954    0.0016 H   0  0  0  0  0  0  0  0  0  0  0  0
    1.1964    0.6998    0.0014 C   0  0  0  0  0  0  0  0  0  0  0  0
    2.0669    1.1902    0.0039 H   0  0  0  0  0  0  0  0  0  0  0  0
  1  5  1  0
  5  6  2  0
  5  7  1  0
  1  2  1  0
  1  3  1  0
  1  4  1  0
  8 12  1  0
 12 13  2  0
 13 15  1  0
 15 17  2  0
 17 19  1  0
 19 21  2  0
 21 12  1  0
  8  9  1  0
  8 10  1  0
  8 11  1  0
 13 14  1  0
 15 16  1  0
 17 18  1  0
 19 20  1  0
 21 22  1  0
M  CHG  1   7  -1
V    7 [O&-]
M  END
>  <PDB_ID>  (2895) 
pdb2icw

>  <RESIDUE_NAME>  (2895) 
GLU   PHE

>  <FRAG_NAME>  (2895) 
ACET   MBZ

>  <FRAG_ATOM_NUM>  (2895) 
fragi: 7 fragj: 15

>  <atom.prop.CHAIN_ID>  (2895) 
A A A A A A A Z Z Z Z Z Z Z Z Z Z Z Z Z Z Z

>  <atom.prop.IS_HEAVY_ATOM>  (2895) 
1 0 0 0 1 1 1 1 0 0 0 1 1 0 1 0 1 0 1 0 1 0

>  <DIFUSE_FUNC_ATOM>  (2895) 
n/a

>  <FINAL_SINGLE_POINT_ENERGY>  (2895) 
0

>  <NONCOV_INTER_ENERGY_QM>  (2895) 
0

>  <FF_Energy>  (2895) 
-2.14

>  <QM_Energy>  (2895) 
-7.38

>  <source>  (2895) 
ACET_MBZ_03

>  <Index>  (2895) 
13348

$$$$
ACEH-pdb2icw-D-GLH-21:MBZ-pdb2icw-D-PHE-137
     RDKit          3D

 22 21  0  0  0  0  0  0  0  0999 V2000
    5.2554    4.8402    0.0405 C   0  0  0  0  0  0  0  0  0  0  0  0
    5.6012    5.7147   -0.2295 H   0  0  0  0  0  0  0  0  0  0  0  0
    5.6695    4.0984   -0.4467 H   0  0  0  0  0  0  0  0  0  0  0  0
    5.4330    4.7054    1.1074 H   0  0  0  0  0  0  0  0  0  0  0  0
    3.7645    4.8220   -0.2924 C   0  0  0  0  0  0  0  0  0  0  0  0
    3.2288    3.7081   -0.5292 O   0  0  0  0  0  0  0  0  0  0  0  0
    3.1371    5.9179   -0.2968 O   0  0  0  0  0  0  0  0  0  0  0  0
   -0.0031    2.9081   -0.0820 C   0  0  0  0  0  0  0  0  0  0  0  0
    0.8581    3.2321    0.2725 H   0  0  0  0  0  0  0  0  0  0  0  0
   -0.7659    3.2371    0.4500 H   0  0  0  0  0  0  0  0  0  0  0  0
   -0.1133    3.2789   -1.1011 H   0  0  0  0  0  0  0  0  0  0  0  0
    0.0012    1.4037   -0.0007 C   0  0  0  0  0  0  0  0  0  0  0  0
   -1.1989    0.6913    0.0014 C   0  0  0  0  0  0  0  0  0  0  0  0
   -2.0654    1.1858    0.0030 H   0  0  0  0  0  0  0  0  0  0  0  0
   -1.2122   -0.7015    0.0000 C   0  0  0  0  0  0  0  0  0  0  0  0
   -2.0860   -1.1921    0.0020 H   0  0  0  0  0  0  0  0  0  0  0  0
   -0.0061   -1.3981   -0.0016 C   0  0  0  0  0  0  0  0  0  0  0  0
   -0.0027   -2.3937   -0.0039 H   0  0  0  0  0  0  0  0  0  0  0  0
    1.2122   -0.6931    0.0000 C   0  0  0  0  0  0  0  0  0  0  0  0
    2.0851   -1.1956    0.0018 H   0  0  0  0  0  0  0  0  0  0  0  0
    1.2038    0.6977    0.0009 C   0  0  0  0  0  0  0  0  0  0  0  0
    2.0682    1.1982    0.0020 H   0  0  0  0  0  0  0  0  0  0  0  0
  1  5  1  0
  5  6  2  0
  5  7  1  0
  1  2  1  0
  1  3  1  0
  1  4  1  0
  8 12  1  0
 12 13  2  0
 13 15  1  0
 15 17  2  0
 17 19  1  0
 19 21  2  0
 21 12  1  0
  8  9  1  0
  8 10  1  0
  8 11  1  0
 13 14  1  0
 15 16  1  0
 17 18  1  0
 19 20  1  0
 21 22  1  0
M  CHG  1   7  -1
V    7 [O&-]
M  END
>  <PDB_ID>  (2896) 
pdb2icw

>  <RESIDUE_NAME>  (2896) 
GLU   PHE

>  <FRAG_NAME>  (2896) 
ACET   MBZ

>  <FRAG_ATOM_NUM>  (2896) 
fragi: 7 fragj: 15

>  <atom.prop.CHAIN_ID>  (2896) 
A A A A A A A Z Z Z Z Z Z Z Z Z Z Z Z Z Z Z

>  <atom.prop.IS_HEAVY_ATOM>  (2896) 
1 0 0 0 1 1 1 1 0 0 0 1 1 0 1 0 1 0 1 0 1 0

>  <DIFUSE_FUNC_ATOM>  (2896) 
n/a

>  <FINAL_SINGLE_POINT_ENERGY>  (2896) 
0

>  <NONCOV_INTER_ENERGY_QM>  (2896) 
0

>  <FF_Energy>  (2896) 
-2.04

>  <QM_Energy>  (2896) 
-7.36

>  <source>  (2896) 
ACET_MBZ_03

>  <Index>  (2896) 
13352

$$$$
ACEH-pdb1hxs-3-GLH-45:MBZ-pdb1hxs-4-PHE-53
     RDKit          3D

 22 21  0  0  0  0  0  0  0  0999 V2000
    4.6071   -0.3966    2.6778 C   0  0  0  0  0  0  0  0  0  0  0  0
    5.2163   -0.8958    3.2570 H   0  0  0  0  0  0  0  0  0  0  0  0
    3.9280    0.1030    3.1706 H   0  0  0  0  0  0  0  0  0  0  0  0
    5.1907    0.3024    2.0787 H   0  0  0  0  0  0  0  0  0  0  0  0
    3.8889   -1.3983    1.7977 C   0  0  0  0  0  0  0  0  0  0  0  0
    2.6753   -1.5060    1.9027 O   0  0  0  0  0  0  0  0  0  0  0  0
    4.5418   -2.0603    0.9935 O   0  0  0  0  0  0  0  0  0  0  0  0
    0.0198    2.9024   -0.0342 C   0  0  0  0  0  0  0  0  0  0  0  0
    0.9615    3.1906   -0.0020 H   0  0  0  0  0  0  0  0  0  0  0  0
   -0.4912    3.2254    0.7434 H   0  0  0  0  0  0  0  0  0  0  0  0
   -0.4333    3.3151   -0.9356 H   0  0  0  0  0  0  0  0  0  0  0  0
    0.0013    1.3887   -0.0009 C   0  0  0  0  0  0  0  0  0  0  0  0
   -1.2118    0.6972    0.0033 C   0  0  0  0  0  0  0  0  0  0  0  0
   -2.0657    1.1865    0.0073 H   0  0  0  0  0  0  0  0  0  0  0  0
   -1.2063   -0.6965   -0.0000 C   0  0  0  0  0  0  0  0  0  0  0  0
   -2.0816   -1.1946    0.0014 H   0  0  0  0  0  0  0  0  0  0  0  0
   -0.0007   -1.3949   -0.0029 C   0  0  0  0  0  0  0  0  0  0  0  0
   -0.0030   -2.3919   -0.0075 H   0  0  0  0  0  0  0  0  0  0  0  0
    1.2063   -0.6940    0.0000 C   0  0  0  0  0  0  0  0  0  0  0  0
    2.0857   -1.1967    0.0028 H   0  0  0  0  0  0  0  0  0  0  0  0
    1.2112    0.6996    0.0005 C   0  0  0  0  0  0  0  0  0  0  0  0
    2.0678    1.1946    0.0012 H   0  0  0  0  0  0  0  0  0  0  0  0
  1  5  1  0
  5  6  2  0
  5  7  1  0
  1  2  1  0
  1  3  1  0
  1  4  1  0
  8 12  1  0
 12 13  2  0
 13 15  1  0
 15 17  2  0
 17 19  1  0
 19 21  2  0
 21 12  1  0
  8  9  1  0
  8 10  1  0
  8 11  1  0
 13 14  1  0
 15 16  1  0
 17 18  1  0
 19 20  1  0
 21 22  1  0
M  CHG  1   7  -1
V    7 [O&-]
M  END
>  <PDB_ID>  (2897) 
pdb1hxs

>  <RESIDUE_NAME>  (2897) 
GLU   PHE

>  <FRAG_NAME>  (2897) 
ACET   MBZ

>  <FRAG_ATOM_NUM>  (2897) 
fragi: 7 fragj: 15

>  <atom.prop.CHAIN_ID>  (2897) 
A A A A A A A Z Z Z Z Z Z Z Z Z Z Z Z Z Z Z

>  <atom.prop.IS_HEAVY_ATOM>  (2897) 
1 0 0 0 1 1 1 1 0 0 0 1 1 0 1 0 1 0 1 0 1 0

>  <DIFUSE_FUNC_ATOM>  (2897) 
n/a

>  <FINAL_SINGLE_POINT_ENERGY>  (2897) 
0

>  <NONCOV_INTER_ENERGY_QM>  (2897) 
0

>  <FF_Energy>  (2897) 
13.32

>  <QM_Energy>  (2897) 
-0.89

>  <source>  (2897) 
ACET_MBZ_03

>  <Index>  (2897) 
13403

$$$$
ACEH-pdb3gr9-D-GLH-194:MBZ-pdb3gr9-D-PHE-185
     RDKit          3D

 22 21  0  0  0  0  0  0  0  0999 V2000
   -5.3410    1.5812   -0.6993 C   0  0  0  0  0  0  0  0  0  0  0  0
   -4.9693    1.2595    0.1472 H   0  0  0  0  0  0  0  0  0  0  0  0
   -6.2074    1.1797   -0.9145 H   0  0  0  0  0  0  0  0  0  0  0  0
   -5.4708    2.6610   -0.6274 H   0  0  0  0  0  0  0  0  0  0  0  0
   -4.3823    1.2295   -1.7917 C   0  0  0  0  0  0  0  0  0  0  0  0
   -3.2019    1.6036   -1.6590 O   0  0  0  0  0  0  0  0  0  0  0  0
   -4.8163    0.6580   -2.8054 O   0  0  0  0  0  0  0  0  0  0  0  0
    0.0271    2.8956    0.0408 C   0  0  0  0  0  0  0  0  0  0  0  0
   -0.5615    3.2369   -0.6761 H   0  0  0  0  0  0  0  0  0  0  0  0
    0.9594    3.2002   -0.0843 H   0  0  0  0  0  0  0  0  0  0  0  0
   -0.3270    3.3250    0.9781 H   0  0  0  0  0  0  0  0  0  0  0  0
    0.0064    1.3967    0.0007 C   0  0  0  0  0  0  0  0  0  0  0  0
   -1.1958    0.7043   -0.0241 C   0  0  0  0  0  0  0  0  0  0  0  0
   -2.0556    1.1985   -0.0606 H   0  0  0  0  0  0  0  0  0  0  0  0
   -1.2046   -0.6839    0.0000 C   0  0  0  0  0  0  0  0  0  0  0  0
   -2.0837   -1.1755    0.0158 H   0  0  0  0  0  0  0  0  0  0  0  0
   -0.0065   -1.3910    0.0045 C   0  0  0  0  0  0  0  0  0  0  0  0
   -0.0200   -2.3902    0.0110 H   0  0  0  0  0  0  0  0  0  0  0  0
    1.2046   -0.7075   -0.0000 C   0  0  0  0  0  0  0  0  0  0  0  0
    2.0771   -1.2076   -0.0153 H   0  0  0  0  0  0  0  0  0  0  0  0
    1.1959    0.6813    0.0188 C   0  0  0  0  0  0  0  0  0  0  0  0
    2.0683    1.1779    0.0453 H   0  0  0  0  0  0  0  0  0  0  0  0
  1  5  1  0
  5  6  2  0
  5  7  1  0
  1  2  1  0
  1  3  1  0
  1  4  1  0
  8 12  1  0
 12 13  2  0
 13 15  1  0
 15 17  2  0
 17 19  1  0
 19 21  2  0
 21 12  1  0
  8  9  1  0
  8 10  1  0
  8 11  1  0
 13 14  1  0
 15 16  1  0
 17 18  1  0
 19 20  1  0
 21 22  1  0
M  CHG  1   7  -1
V    7 [O&-]
M  END
>  <PDB_ID>  (2898) 
pdb3gr9

>  <RESIDUE_NAME>  (2898) 
GLU   PHE

>  <FRAG_NAME>  (2898) 
ACET   MBZ

>  <FRAG_ATOM_NUM>  (2898) 
fragi: 7 fragj: 15

>  <atom.prop.CHAIN_ID>  (2898) 
A A A A A A A Z Z Z Z Z Z Z Z Z Z Z Z Z Z Z

>  <atom.prop.IS_HEAVY_ATOM>  (2898) 
1 0 0 0 1 1 1 1 0 0 0 1 1 0 1 0 1 0 1 0 1 0

>  <DIFUSE_FUNC_ATOM>  (2898) 
n/a

>  <FINAL_SINGLE_POINT_ENERGY>  (2898) 
0

>  <NONCOV_INTER_ENERGY_QM>  (2898) 
0

>  <FF_Energy>  (2898) 
8.13

>  <QM_Energy>  (2898) 
-3.76

>  <source>  (2898) 
ACET_MBZ_03

>  <Index>  (2898) 
13444

$$$$
ACEH-pdb1i3r-C-GLH-21:MBZ-pdb1i3r-C-PHE-137
     RDKit          3D

 22 21  0  0  0  0  0  0  0  0999 V2000
    5.5802    2.5129    1.4638 C   0  0  0  0  0  0  0  0  0  0  0  0
    6.4532    2.3123    1.0577 H   0  0  0  0  0  0  0  0  0  0  0  0
    5.3847    1.9280    2.2308 H   0  0  0  0  0  0  0  0  0  0  0  0
    5.6066    3.5414    1.8238 H   0  0  0  0  0  0  0  0  0  0  0  0
    4.5106    2.2622    0.4080 C   0  0  0  0  0  0  0  0  0  0  0  0
    3.6938    3.1719    0.1550 O   0  0  0  0  0  0  0  0  0  0  0  0
    4.4886    1.1500   -0.1663 O   0  0  0  0  0  0  0  0  0  0  0  0
    0.0012    2.9124   -0.0443 C   0  0  0  0  0  0  0  0  0  0  0  0
    0.7665    3.2292    0.4934 H   0  0  0  0  0  0  0  0  0  0  0  0
   -0.8583    3.2251    0.3267 H   0  0  0  0  0  0  0  0  0  0  0  0
    0.1037    3.3151   -1.0520 H   0  0  0  0  0  0  0  0  0  0  0  0
   -0.0002    1.4041   -0.0001 C   0  0  0  0  0  0  0  0  0  0  0  0
   -1.1904    0.6983   -0.0002 C   0  0  0  0  0  0  0  0  0  0  0  0
   -2.0606    1.1848   -0.0014 H   0  0  0  0  0  0  0  0  0  0  0  0
   -1.1987   -0.6973    0.0000 C   0  0  0  0  0  0  0  0  0  0  0  0
   -2.0800   -1.1840    0.0018 H   0  0  0  0  0  0  0  0  0  0  0  0
   -0.0038   -1.3975   -0.0005 C   0  0  0  0  0  0  0  0  0  0  0  0
   -0.0084   -2.3951   -0.0016 H   0  0  0  0  0  0  0  0  0  0  0  0
    1.1987   -0.7023    0.0000 C   0  0  0  0  0  0  0  0  0  0  0  0
    2.0797   -1.1978    0.0013 H   0  0  0  0  0  0  0  0  0  0  0  0
    1.1945    0.6948    0.0008 C   0  0  0  0  0  0  0  0  0  0  0  0
    2.0643    1.1870    0.0014 H   0  0  0  0  0  0  0  0  0  0  0  0
  1  5  1  0
  5  6  2  0
  5  7  1  0
  1  2  1  0
  1  3  1  0
  1  4  1  0
  8 12  1  0
 12 13  2  0
 13 15  1  0
 15 17  2  0
 17 19  1  0
 19 21  2  0
 21 12  1  0
  8  9  1  0
  8 10  1  0
  8 11  1  0
 13 14  1  0
 15 16  1  0
 17 18  1  0
 19 20  1  0
 21 22  1  0
M  CHG  1   7  -1
V    7 [O&-]
M  END
>  <PDB_ID>  (2899) 
pdb1i3r

>  <RESIDUE_NAME>  (2899) 
GLU   PHE

>  <FRAG_NAME>  (2899) 
ACET   MBZ

>  <FRAG_ATOM_NUM>  (2899) 
fragi: 7 fragj: 15

>  <atom.prop.CHAIN_ID>  (2899) 
A A A A A A A Z Z Z Z Z Z Z Z Z Z Z Z Z Z Z

>  <atom.prop.IS_HEAVY_ATOM>  (2899) 
1 0 0 0 1 1 1 1 0 0 0 1 1 0 1 0 1 0 1 0 1 0

>  <DIFUSE_FUNC_ATOM>  (2899) 
n/a

>  <FINAL_SINGLE_POINT_ENERGY>  (2899) 
0

>  <NONCOV_INTER_ENERGY_QM>  (2899) 
0

>  <FF_Energy>  (2899) 
-2.71

>  <QM_Energy>  (2899) 
-9.31

>  <source>  (2899) 
ACET_MBZ_03

>  <Index>  (2899) 
13487

$$$$
ACEH-pdb6nsd-A-ASH-64:MBZ-pdb6nsd-A-PHE-378
     RDKit          3D

 22 21  0  0  0  0  0  0  0  0999 V2000
   -4.1009    1.1744   -1.9937 C   0  0  0  0  0  0  0  0  0  0  0  0
   -4.7903    0.9690   -1.3175 H   0  0  0  0  0  0  0  0  0  0  0  0
   -3.4093    0.4717   -2.0318 H   0  0  0  0  0  0  0  0  0  0  0  0
   -4.5838    1.2359   -2.9690 H   0  0  0  0  0  0  0  0  0  0  0  0
   -3.4350    2.4940   -1.6246 C   0  0  0  0  0  0  0  0  0  0  0  0
   -2.4787    2.8659   -2.3195 O   0  0  0  0  0  0  0  0  0  0  0  0
   -3.8904    3.1805   -0.6994 O   0  0  0  0  0  0  0  0  0  0  0  0
    0.0048    2.8971   -0.0229 C   0  0  0  0  0  0  0  0  0  0  0  0
   -0.3673    3.1932   -0.8914 H   0  0  0  0  0  0  0  0  0  0  0  0
    0.9386    3.2060    0.0887 H   0  0  0  0  0  0  0  0  0  0  0  0
   -0.5919    3.3554    0.7658 H   0  0  0  0  0  0  0  0  0  0  0  0
    0.0004    1.4023    0.0022 C   0  0  0  0  0  0  0  0  0  0  0  0
   -1.1958    0.6939    0.0011 C   0  0  0  0  0  0  0  0  0  0  0  0
   -2.0631    1.1768    0.0000 H   0  0  0  0  0  0  0  0  0  0  0  0
   -1.1950   -0.7068   -0.0000 C   0  0  0  0  0  0  0  0  0  0  0  0
   -2.0750   -1.1954    0.0003 H   0  0  0  0  0  0  0  0  0  0  0  0
   -0.0015   -1.3894    0.0003 C   0  0  0  0  0  0  0  0  0  0  0  0
    0.0022   -2.3930    0.0005 H   0  0  0  0  0  0  0  0  0  0  0  0
    1.1950   -0.6949    0.0000 C   0  0  0  0  0  0  0  0  0  0  0  0
    2.0784   -1.1939    0.0039 H   0  0  0  0  0  0  0  0  0  0  0  0
    1.1969    0.6949   -0.0037 C   0  0  0  0  0  0  0  0  0  0  0  0
    2.0643    1.1886   -0.0109 H   0  0  0  0  0  0  0  0  0  0  0  0
  1  5  1  0
  5  6  2  0
  5  7  1  0
  1  2  1  0
  1  3  1  0
  1  4  1  0
  8 12  1  0
 12 13  2  0
 13 15  1  0
 15 17  2  0
 17 19  1  0
 19 21  2  0
 21 12  1  0
  8  9  1  0
  8 10  1  0
  8 11  1  0
 13 14  1  0
 15 16  1  0
 17 18  1  0
 19 20  1  0
 21 22  1  0
M  CHG  1   7  -1
V    7 [O&-]
M  END
>  <PDB_ID>  (2900) 
pdb6nsd

>  <RESIDUE_NAME>  (2900) 
ASP   PHE

>  <FRAG_NAME>  (2900) 
ACET   MBZ

>  <FRAG_ATOM_NUM>  (2900) 
fragi: 7 fragj: 15

>  <atom.prop.CHAIN_ID>  (2900) 
A A A A A A A Z Z Z Z Z Z Z Z Z Z Z Z Z Z Z

>  <atom.prop.IS_HEAVY_ATOM>  (2900) 
1 0 0 0 1 1 1 1 0 0 0 1 1 0 1 0 1 0 1 0 1 0

>  <DIFUSE_FUNC_ATOM>  (2900) 
n/a

>  <FINAL_SINGLE_POINT_ENERGY>  (2900) 
0

>  <NONCOV_INTER_ENERGY_QM>  (2900) 
0

>  <FF_Energy>  (2900) 
-0.46

>  <QM_Energy>  (2900) 
-7.66

>  <source>  (2900) 
ACET_MBZ_03

>  <Index>  (2900) 
13498

$$$$
ACEH-pdb6nsd-B-ASH-64:MBZ-pdb6nsd-B-PHE-378
     RDKit          3D

 22 21  0  0  0  0  0  0  0  0999 V2000
   -4.1529    1.1416   -2.0032 C   0  0  0  0  0  0  0  0  0  0  0  0
   -4.8394    0.9169   -1.3292 H   0  0  0  0  0  0  0  0  0  0  0  0
   -3.4483    0.4521   -2.0460 H   0  0  0  0  0  0  0  0  0  0  0  0
   -4.6334    1.2106   -2.9793 H   0  0  0  0  0  0  0  0  0  0  0  0
   -3.5076    2.4679   -1.6103 C   0  0  0  0  0  0  0  0  0  0  0  0
   -2.5621    2.8746   -2.3076 O   0  0  0  0  0  0  0  0  0  0  0  0
   -3.9712    3.1224   -0.6584 O   0  0  0  0  0  0  0  0  0  0  0  0
    0.0018    2.8898   -0.0220 C   0  0  0  0  0  0  0  0  0  0  0  0
   -0.3667    3.1907   -0.8890 H   0  0  0  0  0  0  0  0  0  0  0  0
    0.9315    3.2053    0.1013 H   0  0  0  0  0  0  0  0  0  0  0  0
   -0.6031    3.3395    0.7653 H   0  0  0  0  0  0  0  0  0  0  0  0
    0.0012    1.4014    0.0000 C   0  0  0  0  0  0  0  0  0  0  0  0
   -1.1987    0.6909    0.0014 C   0  0  0  0  0  0  0  0  0  0  0  0
   -2.0649    1.1793    0.0020 H   0  0  0  0  0  0  0  0  0  0  0  0
   -1.2018   -0.7051    0.0000 C   0  0  0  0  0  0  0  0  0  0  0  0
   -2.0769   -1.1967   -0.0018 H   0  0  0  0  0  0  0  0  0  0  0  0
    0.0005   -1.3930    0.0027 C   0  0  0  0  0  0  0  0  0  0  0  0
    0.0032   -2.3934    0.0065 H   0  0  0  0  0  0  0  0  0  0  0  0
    1.2018   -0.6929   -0.0000 C   0  0  0  0  0  0  0  0  0  0  0  0
    2.0836   -1.1899    0.0025 H   0  0  0  0  0  0  0  0  0  0  0  0
    1.1971    0.6987   -0.0041 C   0  0  0  0  0  0  0  0  0  0  0  0
    2.0645    1.1941   -0.0108 H   0  0  0  0  0  0  0  0  0  0  0  0
  1  5  1  0
  5  6  2  0
  5  7  1  0
  1  2  1  0
  1  3  1  0
  1  4  1  0
  8 12  1  0
 12 13  2  0
 13 15  1  0
 15 17  2  0
 17 19  1  0
 19 21  2  0
 21 12  1  0
  8  9  1  0
  8 10  1  0
  8 11  1  0
 13 14  1  0
 15 16  1  0
 17 18  1  0
 19 20  1  0
 21 22  1  0
M  CHG  1   7  -1
V    7 [O&-]
M  END
>  <PDB_ID>  (2901) 
pdb6nsd

>  <RESIDUE_NAME>  (2901) 
ASP   PHE

>  <FRAG_NAME>  (2901) 
ACET   MBZ

>  <FRAG_ATOM_NUM>  (2901) 
fragi: 7 fragj: 15

>  <atom.prop.CHAIN_ID>  (2901) 
A A A A A A A Z Z Z Z Z Z Z Z Z Z Z Z Z Z Z

>  <atom.prop.IS_HEAVY_ATOM>  (2901) 
1 0 0 0 1 1 1 1 0 0 0 1 1 0 1 0 1 0 1 0 1 0

>  <DIFUSE_FUNC_ATOM>  (2901) 
n/a

>  <FINAL_SINGLE_POINT_ENERGY>  (2901) 
0

>  <NONCOV_INTER_ENERGY_QM>  (2901) 
0

>  <FF_Energy>  (2901) 
-0.82

>  <QM_Energy>  (2901) 
-7.64

>  <source>  (2901) 
ACET_MBZ_03

>  <Index>  (2901) 
13502

$$$$
ACEH-pdb5m28-A-GLH-76:MBZ-pdb5m28-A-PHE-273
     RDKit          3D

 22 21  0  0  0  0  0  0  0  0999 V2000
   -0.7206   -1.6127   -2.7758 C   0  0  0  0  0  0  0  0  0  0  0  0
   -0.0165   -1.2430   -3.3303 H   0  0  0  0  0  0  0  0  0  0  0  0
   -0.6957   -1.2104   -1.8941 H   0  0  0  0  0  0  0  0  0  0  0  0
   -1.6846   -1.3975   -3.2368 H   0  0  0  0  0  0  0  0  0  0  0  0
   -0.4660   -3.0917   -2.6226 C   0  0  0  0  0  0  0  0  0  0  0  0
    0.6669   -3.5104   -2.3468 O   0  0  0  0  0  0  0  0  0  0  0  0
   -1.4566   -3.8516   -2.7388 O   0  0  0  0  0  0  0  0  0  0  0  0
   -0.0136    2.8859   -0.0322 C   0  0  0  0  0  0  0  0  0  0  0  0
    0.8125    3.2087    0.3612 H   0  0  0  0  0  0  0  0  0  0  0  0
   -0.7722    3.1974    0.4858 H   0  0  0  0  0  0  0  0  0  0  0  0
   -0.0958    3.2687   -1.0495 H   0  0  0  0  0  0  0  0  0  0  0  0
    0.0002    1.3947    0.0168 C   0  0  0  0  0  0  0  0  0  0  0  0
   -1.1878    0.6784    0.0047 C   0  0  0  0  0  0  0  0  0  0  0  0
   -1.9974    1.1365    0.0011 H   0  0  0  0  0  0  0  0  0  0  0  0
   -1.1918   -0.6955    0.0000 C   0  0  0  0  0  0  0  0  0  0  0  0
   -1.9982   -1.1600    0.0037 H   0  0  0  0  0  0  0  0  0  0  0  0
    0.0008   -1.3815   -0.0125 C   0  0  0  0  0  0  0  0  0  0  0  0
    0.0036   -2.3118    0.0005 H   0  0  0  0  0  0  0  0  0  0  0  0
    1.1918   -0.6864   -0.0000 C   0  0  0  0  0  0  0  0  0  0  0  0
    1.9995   -1.1487   -0.0074 H   0  0  0  0  0  0  0  0  0  0  0  0
    1.1868    0.6903   -0.0090 C   0  0  0  0  0  0  0  0  0  0  0  0
    1.9939    1.1519   -0.0117 H   0  0  0  0  0  0  0  0  0  0  0  0
  1  5  1  0
  5  6  2  0
  5  7  1  0
  1  2  1  0
  1  3  1  0
  1  4  1  0
  8 12  1  0
 12 13  2  0
 13 15  1  0
 15 17  2  0
 17 19  1  0
 19 21  2  0
 21 12  1  0
  8  9  1  0
  8 10  1  0
  8 11  1  0
 13 14  1  0
 15 16  1  0
 17 18  1  0
 19 20  1  0
 21 22  1  0
M  CHG  1   7  -1
V    7 [O&-]
M  END
>  <PDB_ID>  (2902) 
pdb5m28

>  <RESIDUE_NAME>  (2902) 
GLU   PHE

>  <FRAG_NAME>  (2902) 
ACET   MBZ

>  <FRAG_ATOM_NUM>  (2902) 
fragi: 7 fragj: 15

>  <atom.prop.CHAIN_ID>  (2902) 
A A A A A A A Z Z Z Z Z Z Z Z Z Z Z Z Z Z Z

>  <atom.prop.IS_HEAVY_ATOM>  (2902) 
1 0 0 0 1 1 1 1 0 0 0 1 1 0 1 0 1 0 1 0 1 0

>  <DIFUSE_FUNC_ATOM>  (2902) 
n/a

>  <FINAL_SINGLE_POINT_ENERGY>  (2902) 
0

>  <NONCOV_INTER_ENERGY_QM>  (2902) 
0

>  <FF_Energy>  (2902) 
34.78

>  <QM_Energy>  (2902) 
5.94

>  <source>  (2902) 
ACET_MBZ_03

>  <Index>  (2902) 
13570

$$$$
ACEH-pdb6o0d-B-GLH-540:MBZ-pdb6o0d-B-PHE-784
     RDKit          3D

 22 21  0  0  0  0  0  0  0  0999 V2000
   -4.2519    2.7747   -1.3830 C   0  0  0  0  0  0  0  0  0  0  0  0
   -4.2822    2.6470   -2.3568 H   0  0  0  0  0  0  0  0  0  0  0  0
   -3.4080    3.1817   -1.0858 H   0  0  0  0  0  0  0  0  0  0  0  0
   -5.0697    3.4376   -1.1000 H   0  0  0  0  0  0  0  0  0  0  0  0
   -4.3565    1.4098   -0.7362 C   0  0  0  0  0  0  0  0  0  0  0  0
   -4.2429    1.3247    0.5057 O   0  0  0  0  0  0  0  0  0  0  0  0
   -4.5635    0.4208   -1.4711 O   0  0  0  0  0  0  0  0  0  0  0  0
    0.0005    2.9004   -0.0106 C   0  0  0  0  0  0  0  0  0  0  0  0
   -0.7473    3.2003   -0.5852 H   0  0  0  0  0  0  0  0  0  0  0  0
    0.8712    3.2023   -0.3729 H   0  0  0  0  0  0  0  0  0  0  0  0
   -0.1287    3.3575    0.9704 H   0  0  0  0  0  0  0  0  0  0  0  0
    0.0006    1.3966    0.0048 C   0  0  0  0  0  0  0  0  0  0  0  0
   -1.1925    0.6904   -0.0018 C   0  0  0  0  0  0  0  0  0  0  0  0
   -2.0598    1.1824   -0.0085 H   0  0  0  0  0  0  0  0  0  0  0  0
   -1.1975   -0.6943    0.0000 C   0  0  0  0  0  0  0  0  0  0  0  0
   -2.0758   -1.1883    0.0020 H   0  0  0  0  0  0  0  0  0  0  0  0
   -0.0015   -1.3878    0.0001 C   0  0  0  0  0  0  0  0  0  0  0  0
   -0.0048   -2.3880   -0.0005 H   0  0  0  0  0  0  0  0  0  0  0  0
    1.1975   -0.6941   -0.0000 C   0  0  0  0  0  0  0  0  0  0  0  0
    2.0789   -1.1945    0.0039 H   0  0  0  0  0  0  0  0  0  0  0  0
    1.1934    0.6893   -0.0031 C   0  0  0  0  0  0  0  0  0  0  0  0
    2.0625    1.1877   -0.0121 H   0  0  0  0  0  0  0  0  0  0  0  0
  1  5  1  0
  5  6  2  0
  5  7  1  0
  1  2  1  0
  1  3  1  0
  1  4  1  0
  8 12  1  0
 12 13  2  0
 13 15  1  0
 15 17  2  0
 17 19  1  0
 19 21  2  0
 21 12  1  0
  8  9  1  0
  8 10  1  0
  8 11  1  0
 13 14  1  0
 15 16  1  0
 17 18  1  0
 19 20  1  0
 21 22  1  0
M  CHG  1   7  -1
V    7 [O&-]
M  END
>  <PDB_ID>  (2903) 
pdb6o0d

>  <RESIDUE_NAME>  (2903) 
GLU   PHE

>  <FRAG_NAME>  (2903) 
ACET   MBZ

>  <FRAG_ATOM_NUM>  (2903) 
fragi: 7 fragj: 15

>  <atom.prop.CHAIN_ID>  (2903) 
A A A A A A A Z Z Z Z Z Z Z Z Z Z Z Z Z Z Z

>  <atom.prop.IS_HEAVY_ATOM>  (2903) 
1 0 0 0 1 1 1 1 0 0 0 1 1 0 1 0 1 0 1 0 1 0

>  <DIFUSE_FUNC_ATOM>  (2903) 
n/a

>  <FINAL_SINGLE_POINT_ENERGY>  (2903) 
0

>  <NONCOV_INTER_ENERGY_QM>  (2903) 
0

>  <FF_Energy>  (2903) 
0.27

>  <QM_Energy>  (2903) 
-6.43

>  <source>  (2903) 
ACET_MBZ_03

>  <Index>  (2903) 
13589

$$$$
ACEH-pdb2ipk-A-GLH-21:MBZ-pdb2ipk-A-PHE-137
     RDKit          3D

 22 21  0  0  0  0  0  0  0  0999 V2000
    5.2184    4.8191    0.0447 C   0  0  0  0  0  0  0  0  0  0  0  0
    5.3458    5.7943    0.1107 H   0  0  0  0  0  0  0  0  0  0  0  0
    5.7746    4.4242   -0.6670 H   0  0  0  0  0  0  0  0  0  0  0  0
    5.5011    4.3684    0.9960 H   0  0  0  0  0  0  0  0  0  0  0  0
    3.7659    4.5757   -0.3278 C   0  0  0  0  0  0  0  0  0  0  0  0
    3.3626    3.4018   -0.4915 O   0  0  0  0  0  0  0  0  0  0  0  0
    3.0248    5.5681   -0.4632 O   0  0  0  0  0  0  0  0  0  0  0  0
   -0.0003    2.9018   -0.0488 C   0  0  0  0  0  0  0  0  0  0  0  0
    0.8704    3.2203    0.2876 H   0  0  0  0  0  0  0  0  0  0  0  0
   -0.7483    3.2250    0.5066 H   0  0  0  0  0  0  0  0  0  0  0  0
   -0.1357    3.2970   -1.0555 H   0  0  0  0  0  0  0  0  0  0  0  0
    0.0021    1.4013   -0.0008 C   0  0  0  0  0  0  0  0  0  0  0  0
   -1.1939    0.6926   -0.0006 C   0  0  0  0  0  0  0  0  0  0  0  0
   -2.0608    1.1843   -0.0022 H   0  0  0  0  0  0  0  0  0  0  0  0
   -1.2014   -0.6958    0.0000 C   0  0  0  0  0  0  0  0  0  0  0  0
   -2.0803   -1.1872    0.0011 H   0  0  0  0  0  0  0  0  0  0  0  0
   -0.0051   -1.3938    0.0009 C   0  0  0  0  0  0  0  0  0  0  0  0
   -0.0074   -2.3925    0.0016 H   0  0  0  0  0  0  0  0  0  0  0  0
    1.2014   -0.6980    0.0000 C   0  0  0  0  0  0  0  0  0  0  0  0
    2.0793   -1.1973    0.0007 H   0  0  0  0  0  0  0  0  0  0  0  0
    1.1968    0.6938    0.0005 C   0  0  0  0  0  0  0  0  0  0  0  0
    2.0654    1.1891    0.0008 H   0  0  0  0  0  0  0  0  0  0  0  0
  1  5  1  0
  5  6  2  0
  5  7  1  0
  1  2  1  0
  1  3  1  0
  1  4  1  0
  8 12  1  0
 12 13  2  0
 13 15  1  0
 15 17  2  0
 17 19  1  0
 19 21  2  0
 21 12  1  0
  8  9  1  0
  8 10  1  0
  8 11  1  0
 13 14  1  0
 15 16  1  0
 17 18  1  0
 19 20  1  0
 21 22  1  0
M  CHG  1   7  -1
V    7 [O&-]
M  END
>  <PDB_ID>  (2904) 
pdb2ipk

>  <RESIDUE_NAME>  (2904) 
GLU   PHE

>  <FRAG_NAME>  (2904) 
ACET   MBZ

>  <FRAG_ATOM_NUM>  (2904) 
fragi: 7 fragj: 15

>  <atom.prop.CHAIN_ID>  (2904) 
A A A A A A A Z Z Z Z Z Z Z Z Z Z Z Z Z Z Z

>  <atom.prop.IS_HEAVY_ATOM>  (2904) 
1 0 0 0 1 1 1 1 0 0 0 1 1 0 1 0 1 0 1 0 1 0

>  <DIFUSE_FUNC_ATOM>  (2904) 
n/a

>  <FINAL_SINGLE_POINT_ENERGY>  (2904) 
0

>  <NONCOV_INTER_ENERGY_QM>  (2904) 
0

>  <FF_Energy>  (2904) 
-2.34

>  <QM_Energy>  (2904) 
-8.12

>  <source>  (2904) 
ACET_MBZ_03

>  <Index>  (2904) 
13591

$$$$
ACEH-pdb3gyt-A-ASH-660:MBZ-pdb3gyt-A-PHE-529
     RDKit          3D

 22 21  0  0  0  0  0  0  0  0999 V2000
   -0.6182   -0.1483   -3.8227 C   0  0  0  0  0  0  0  0  0  0  0  0
   -1.1476   -0.0138   -4.6553 H   0  0  0  0  0  0  0  0  0  0  0  0
   -1.2247   -0.3361   -3.0564 H   0  0  0  0  0  0  0  0  0  0  0  0
    0.0244   -1.0169   -3.9669 H   0  0  0  0  0  0  0  0  0  0  0  0
    0.1536    1.1312   -3.5281 C   0  0  0  0  0  0  0  0  0  0  0  0
    1.3960    1.0594   -3.4449 O   0  0  0  0  0  0  0  0  0  0  0  0
   -0.4904    2.2418   -3.4216 O   0  0  0  0  0  0  0  0  0  0  0  0
   -0.0630    2.8924    0.0092 C   0  0  0  0  0  0  0  0  0  0  0  0
   -0.8017    3.1726   -0.5843 H   0  0  0  0  0  0  0  0  0  0  0  0
    0.8081    3.2269   -0.3149 H   0  0  0  0  0  0  0  0  0  0  0  0
   -0.2423    3.3145    0.9981 H   0  0  0  0  0  0  0  0  0  0  0  0
   -0.0116    1.3879    0.0005 C   0  0  0  0  0  0  0  0  0  0  0  0
   -1.1928    0.6692   -0.0002 C   0  0  0  0  0  0  0  0  0  0  0  0
   -2.0688    1.1751   -0.0015 H   0  0  0  0  0  0  0  0  0  0  0  0
   -1.2182   -0.6970    0.0000 C   0  0  0  0  0  0  0  0  0  0  0  0
   -2.0846   -1.1994    0.0025 H   0  0  0  0  0  0  0  0  0  0  0  0
   -0.0011   -1.4038   -0.0021 C   0  0  0  0  0  0  0  0  0  0  0  0
    0.0045   -2.3898   -0.0052 H   0  0  0  0  0  0  0  0  0  0  0  0
    1.2182   -0.6794   -0.0000 C   0  0  0  0  0  0  0  0  0  0  0  0
    2.0954   -1.1751    0.0018 H   0  0  0  0  0  0  0  0  0  0  0  0
    1.2055    0.7231    0.0018 C   0  0  0  0  0  0  0  0  0  0  0  0
    2.0561    1.2243    0.0033 H   0  0  0  0  0  0  0  0  0  0  0  0
  1  5  1  0
  5  6  2  0
  5  7  1  0
  1  2  1  0
  1  3  1  0
  1  4  1  0
  8 12  1  0
 12 13  2  0
 13 15  1  0
 15 17  2  0
 17 19  1  0
 19 21  2  0
 21 12  1  0
  8  9  1  0
  8 10  1  0
  8 11  1  0
 13 14  1  0
 15 16  1  0
 17 18  1  0
 19 20  1  0
 21 22  1  0
M  CHG  1   7  -1
V    7 [O&-]
M  END
>  <PDB_ID>  (2905) 
pdb3gyt

>  <RESIDUE_NAME>  (2905) 
ASP   PHE

>  <FRAG_NAME>  (2905) 
ACET   MBZ

>  <FRAG_ATOM_NUM>  (2905) 
fragi: 7 fragj: 15

>  <atom.prop.CHAIN_ID>  (2905) 
A A A A A A A Z Z Z Z Z Z Z Z Z Z Z Z Z Z Z

>  <atom.prop.IS_HEAVY_ATOM>  (2905) 
1 0 0 0 1 1 1 1 0 0 0 1 1 0 1 0 1 0 1 0 1 0

>  <DIFUSE_FUNC_ATOM>  (2905) 
n/a

>  <FINAL_SINGLE_POINT_ENERGY>  (2905) 
0

>  <NONCOV_INTER_ENERGY_QM>  (2905) 
0

>  <FF_Energy>  (2905) 
1.14

>  <QM_Energy>  (2905) 
-4.11

>  <source>  (2905) 
ACET_MBZ_03

>  <Index>  (2905) 
13669

$$$$
ACEH-pdb6od8-A-GLH-523:MBZ-pdb6od8-A-PHE-303
     RDKit          3D

 22 21  0  0  0  0  0  0  0  0999 V2000
   -2.6974    6.0037   -2.1585 C   0  0  0  0  0  0  0  0  0  0  0  0
   -1.8733    6.5049   -2.3517 H   0  0  0  0  0  0  0  0  0  0  0  0
   -3.4613    6.5983   -1.9863 H   0  0  0  0  0  0  0  0  0  0  0  0
   -2.9328    5.3909   -3.0287 H   0  0  0  0  0  0  0  0  0  0  0  0
   -2.4512    5.1931   -0.8803 C   0  0  0  0  0  0  0  0  0  0  0  0
   -2.8752    4.0137   -0.7891 O   0  0  0  0  0  0  0  0  0  0  0  0
   -1.7957    5.7494    0.0161 O   0  0  0  0  0  0  0  0  0  0  0  0
   -0.0082    2.9051   -0.0359 C   0  0  0  0  0  0  0  0  0  0  0  0
   -0.9213    3.2046   -0.2795 H   0  0  0  0  0  0  0  0  0  0  0  0
    0.6529    3.2021   -0.7117 H   0  0  0  0  0  0  0  0  0  0  0  0
    0.2514    3.3874    0.9065 H   0  0  0  0  0  0  0  0  0  0  0  0
    0.0002    1.4053    0.0033 C   0  0  0  0  0  0  0  0  0  0  0  0
   -1.1996    0.6964    0.0037 C   0  0  0  0  0  0  0  0  0  0  0  0
   -2.0657    1.1832    0.0059 H   0  0  0  0  0  0  0  0  0  0  0  0
   -1.2070   -0.7051   -0.0000 C   0  0  0  0  0  0  0  0  0  0  0  0
   -2.0816   -1.1940   -0.0024 H   0  0  0  0  0  0  0  0  0  0  0  0
   -0.0009   -1.3984    0.0014 C   0  0  0  0  0  0  0  0  0  0  0  0
   -0.0009   -2.3968    0.0031 H   0  0  0  0  0  0  0  0  0  0  0  0
    1.2070   -0.6985    0.0000 C   0  0  0  0  0  0  0  0  0  0  0  0
    2.0864   -1.1938    0.0065 H   0  0  0  0  0  0  0  0  0  0  0  0
    1.2003    0.7003   -0.0083 C   0  0  0  0  0  0  0  0  0  0  0  0
    2.0668    1.1948   -0.0236 H   0  0  0  0  0  0  0  0  0  0  0  0
  1  5  1  0
  5  6  2  0
  5  7  1  0
  1  2  1  0
  1  3  1  0
  1  4  1  0
  8 12  1  0
 12 13  2  0
 13 15  1  0
 15 17  2  0
 17 19  1  0
 19 21  2  0
 21 12  1  0
  8  9  1  0
  8 10  1  0
  8 11  1  0
 13 14  1  0
 15 16  1  0
 17 18  1  0
 19 20  1  0
 21 22  1  0
M  CHG  1   7  -1
V    7 [O&-]
M  END
>  <PDB_ID>  (2906) 
pdb6od8

>  <RESIDUE_NAME>  (2906) 
GLU   PHE

>  <FRAG_NAME>  (2906) 
ACET   MBZ

>  <FRAG_ATOM_NUM>  (2906) 
fragi: 7 fragj: 15

>  <atom.prop.CHAIN_ID>  (2906) 
A A A A A A A Z Z Z Z Z Z Z Z Z Z Z Z Z Z Z

>  <atom.prop.IS_HEAVY_ATOM>  (2906) 
1 0 0 0 1 1 1 1 0 0 0 1 1 0 1 0 1 0 1 0 1 0

>  <DIFUSE_FUNC_ATOM>  (2906) 
n/a

>  <FINAL_SINGLE_POINT_ENERGY>  (2906) 
0

>  <NONCOV_INTER_ENERGY_QM>  (2906) 
0

>  <FF_Energy>  (2906) 
0.41

>  <QM_Energy>  (2906) 
-7.76

>  <source>  (2906) 
ACET_MBZ_03

>  <Index>  (2906) 
13677

$$$$
ACEH-pdb2iu8-C-ASH-240:MBZ-pdb2iu8-B-PHE-190
     RDKit          3D

 22 21  0  0  0  0  0  0  0  0999 V2000
   -2.0203    0.3201   -3.2048 C   0  0  0  0  0  0  0  0  0  0  0  0
   -1.3105   -0.2133   -2.7525 H   0  0  0  0  0  0  0  0  0  0  0  0
   -2.0168    0.1293   -4.1833 H   0  0  0  0  0  0  0  0  0  0  0  0
   -2.9829    0.0006   -2.8056 H   0  0  0  0  0  0  0  0  0  0  0  0
   -1.7205    1.8029   -2.9968 C   0  0  0  0  0  0  0  0  0  0  0  0
   -0.5791    2.1945   -3.3000 O   0  0  0  0  0  0  0  0  0  0  0  0
   -2.5919    2.5867   -2.5605 O   0  0  0  0  0  0  0  0  0  0  0  0
   -0.0166    2.9364    0.0078 C   0  0  0  0  0  0  0  0  0  0  0  0
   -0.7678    3.2404   -0.5519 H   0  0  0  0  0  0  0  0  0  0  0  0
    0.8510    3.2486   -0.3403 H   0  0  0  0  0  0  0  0  0  0  0  0
   -0.1490    3.3571    1.0046 H   0  0  0  0  0  0  0  0  0  0  0  0
   -0.0064    1.4175   -0.0149 C   0  0  0  0  0  0  0  0  0  0  0  0
   -1.1962    0.6964    0.0040 C   0  0  0  0  0  0  0  0  0  0  0  0
   -2.0697    1.1801    0.0197 H   0  0  0  0  0  0  0  0  0  0  0  0
   -1.2027   -0.7055   -0.0000 C   0  0  0  0  0  0  0  0  0  0  0  0
   -2.0759   -1.1977   -0.0076 H   0  0  0  0  0  0  0  0  0  0  0  0
    0.0097   -1.4131    0.0091 C   0  0  0  0  0  0  0  0  0  0  0  0
    0.0026   -2.4038    0.0213 H   0  0  0  0  0  0  0  0  0  0  0  0
    1.2027   -0.7046   -0.0000 C   0  0  0  0  0  0  0  0  0  0  0  0
    2.0921   -1.1858   -0.0063 H   0  0  0  0  0  0  0  0  0  0  0  0
    1.1929    0.7092    0.0018 C   0  0  0  0  0  0  0  0  0  0  0  0
    2.0617    1.1972    0.0141 H   0  0  0  0  0  0  0  0  0  0  0  0
  1  5  1  0
  5  6  2  0
  5  7  1  0
  1  2  1  0
  1  3  1  0
  1  4  1  0
  8 12  1  0
 12 13  2  0
 13 15  1  0
 15 17  2  0
 17 19  1  0
 19 21  2  0
 21 12  1  0
  8  9  1  0
  8 10  1  0
  8 11  1  0
 13 14  1  0
 15 16  1  0
 17 18  1  0
 19 20  1  0
 21 22  1  0
M  CHG  1   7  -1
V    7 [O&-]
M  END
>  <PDB_ID>  (2907) 
pdb2iu8

>  <RESIDUE_NAME>  (2907) 
ASP   PHE

>  <FRAG_NAME>  (2907) 
ACET   MBZ

>  <FRAG_ATOM_NUM>  (2907) 
fragi: 7 fragj: 15

>  <atom.prop.CHAIN_ID>  (2907) 
A A A A A A A Z Z Z Z Z Z Z Z Z Z Z Z Z Z Z

>  <atom.prop.IS_HEAVY_ATOM>  (2907) 
1 0 0 0 1 1 1 1 0 0 0 1 1 0 1 0 1 0 1 0 1 0

>  <DIFUSE_FUNC_ATOM>  (2907) 
n/a

>  <FINAL_SINGLE_POINT_ENERGY>  (2907) 
0

>  <NONCOV_INTER_ENERGY_QM>  (2907) 
0

>  <FF_Energy>  (2907) 
0.79

>  <QM_Energy>  (2907) 
-6.47

>  <source>  (2907) 
ACET_MBZ_03

>  <Index>  (2907) 
13682

$$$$
ACEH-pdb2iuk-A-ASH-560:MBZ-pdb2iuk-A-PHE-269
     RDKit          3D

 22 21  0  0  0  0  0  0  0  0999 V2000
    3.9092    1.3822    2.7344 C   0  0  0  0  0  0  0  0  0  0  0  0
    2.9364    1.2806    2.9439 H   0  0  0  0  0  0  0  0  0  0  0  0
    4.4244    1.4637    3.5880 H   0  0  0  0  0  0  0  0  0  0  0  0
    4.2381    0.4730    2.2312 H   0  0  0  0  0  0  0  0  0  0  0  0
    4.0956    2.6837    1.9329 C   0  0  0  0  0  0  0  0  0  0  0  0
    3.5105    2.8147    0.8674 O   0  0  0  0  0  0  0  0  0  0  0  0
    4.8087    3.5969    2.3539 O   0  0  0  0  0  0  0  0  0  0  0  0
   -0.0199    2.8993    0.0657 C   0  0  0  0  0  0  0  0  0  0  0  0
    0.7351    3.1860    0.6211 H   0  0  0  0  0  0  0  0  0  0  0  0
   -0.8873    3.1733    0.4320 H   0  0  0  0  0  0  0  0  0  0  0  0
    0.0912    3.3517   -0.9197 H   0  0  0  0  0  0  0  0  0  0  0  0
   -0.0004    1.3858    0.0019 C   0  0  0  0  0  0  0  0  0  0  0  0
   -1.2118    0.7000   -0.0049 C   0  0  0  0  0  0  0  0  0  0  0  0
   -2.0665    1.1917   -0.0147 H   0  0  0  0  0  0  0  0  0  0  0  0
   -1.2110   -0.6926   -0.0000 C   0  0  0  0  0  0  0  0  0  0  0  0
   -2.0843   -1.1908    0.0012 H   0  0  0  0  0  0  0  0  0  0  0  0
   -0.0017   -1.3896    0.0046 C   0  0  0  0  0  0  0  0  0  0  0  0
   -0.0069   -2.3891    0.0109 H   0  0  0  0  0  0  0  0  0  0  0  0
    1.2110   -0.6959    0.0000 C   0  0  0  0  0  0  0  0  0  0  0  0
    2.0858   -1.2030   -0.0004 H   0  0  0  0  0  0  0  0  0  0  0  0
    1.2138    0.6923   -0.0016 C   0  0  0  0  0  0  0  0  0  0  0  0
    2.0690    1.1923   -0.0062 H   0  0  0  0  0  0  0  0  0  0  0  0
  1  5  1  0
  5  6  2  0
  5  7  1  0
  1  2  1  0
  1  3  1  0
  1  4  1  0
  8 12  1  0
 12 13  2  0
 13 15  1  0
 15 17  2  0
 17 19  1  0
 19 21  2  0
 21 12  1  0
  8  9  1  0
  8 10  1  0
  8 11  1  0
 13 14  1  0
 15 16  1  0
 17 18  1  0
 19 20  1  0
 21 22  1  0
M  CHG  1   7  -1
V    7 [O&-]
M  END
>  <PDB_ID>  (2908) 
pdb2iuk

>  <RESIDUE_NAME>  (2908) 
ASP   PHE

>  <FRAG_NAME>  (2908) 
ACET   MBZ

>  <FRAG_ATOM_NUM>  (2908) 
fragi: 7 fragj: 15

>  <atom.prop.CHAIN_ID>  (2908) 
A A A A A A A Z Z Z Z Z Z Z Z Z Z Z Z Z Z Z

>  <atom.prop.IS_HEAVY_ATOM>  (2908) 
1 0 0 0 1 1 1 1 0 0 0 1 1 0 1 0 1 0 1 0 1 0

>  <DIFUSE_FUNC_ATOM>  (2908) 
n/a

>  <FINAL_SINGLE_POINT_ENERGY>  (2908) 
0

>  <NONCOV_INTER_ENERGY_QM>  (2908) 
0

>  <FF_Energy>  (2908) 
-2.06

>  <QM_Energy>  (2908) 
-7.97

>  <source>  (2908) 
ACET_MBZ_03

>  <Index>  (2908) 
13698

$$$$
ACEH-pdb4ikm-A-ASH-371:MBZ-pdb4ikm-A-PHE-439
     RDKit          3D

 22 21  0  0  0  0  0  0  0  0999 V2000
   -0.1805    2.3707    4.5725 C   0  0  0  0  0  0  0  0  0  0  0  0
   -0.5374    2.4588    5.4956 H   0  0  0  0  0  0  0  0  0  0  0  0
    0.3083    3.1928    4.3075 H   0  0  0  0  0  0  0  0  0  0  0  0
    0.5327    1.5464    4.5714 H   0  0  0  0  0  0  0  0  0  0  0  0
   -1.3245    2.1457    3.6196 C   0  0  0  0  0  0  0  0  0  0  0  0
   -1.2336    1.1861    2.8340 O   0  0  0  0  0  0  0  0  0  0  0  0
   -2.3046    2.9231    3.6460 O   0  0  0  0  0  0  0  0  0  0  0  0
   -0.0016    2.8950    0.0132 C   0  0  0  0  0  0  0  0  0  0  0  0
    0.8265    3.1982    0.4605 H   0  0  0  0  0  0  0  0  0  0  0  0
   -0.8055    3.1959    0.5056 H   0  0  0  0  0  0  0  0  0  0  0  0
   -0.0293    3.3409   -0.9810 H   0  0  0  0  0  0  0  0  0  0  0  0
    0.0004    1.3931    0.0037 C   0  0  0  0  0  0  0  0  0  0  0  0
   -1.1932    0.6800   -0.0031 C   0  0  0  0  0  0  0  0  0  0  0  0
   -2.0611    1.1745   -0.0114 H   0  0  0  0  0  0  0  0  0  0  0  0
   -1.1953   -0.6968   -0.0000 C   0  0  0  0  0  0  0  0  0  0  0  0
   -2.0717   -1.1963    0.0067 H   0  0  0  0  0  0  0  0  0  0  0  0
    0.0008   -1.3827   -0.0045 C   0  0  0  0  0  0  0  0  0  0  0  0
    0.0019   -2.3853   -0.0113 H   0  0  0  0  0  0  0  0  0  0  0  0
    1.1953   -0.6864   -0.0000 C   0  0  0  0  0  0  0  0  0  0  0  0
    2.0795   -1.1881    0.0021 H   0  0  0  0  0  0  0  0  0  0  0  0
    1.1920    0.6928    0.0039 C   0  0  0  0  0  0  0  0  0  0  0  0
    2.0600    1.1920    0.0063 H   0  0  0  0  0  0  0  0  0  0  0  0
  1  5  1  0
  5  6  2  0
  5  7  1  0
  1  2  1  0
  1  3  1  0
  1  4  1  0
  8 12  1  0
 12 13  2  0
 13 15  1  0
 15 17  2  0
 17 19  1  0
 19 21  2  0
 21 12  1  0
  8  9  1  0
  8 10  1  0
  8 11  1  0
 13 14  1  0
 15 16  1  0
 17 18  1  0
 19 20  1  0
 21 22  1  0
M  CHG  1   7  -1
V    7 [O&-]
M  END
>  <PDB_ID>  (2909) 
pdb4ikm

>  <RESIDUE_NAME>  (2909) 
ASP   PHE

>  <FRAG_NAME>  (2909) 
ACET   MBZ

>  <FRAG_ATOM_NUM>  (2909) 
fragi: 7 fragj: 15

>  <atom.prop.CHAIN_ID>  (2909) 
A A A A A A A Z Z Z Z Z Z Z Z Z Z Z Z Z Z Z

>  <atom.prop.IS_HEAVY_ATOM>  (2909) 
1 0 0 0 1 1 1 1 0 0 0 1 1 0 1 0 1 0 1 0 1 0

>  <DIFUSE_FUNC_ATOM>  (2909) 
n/a

>  <FINAL_SINGLE_POINT_ENERGY>  (2909) 
0

>  <NONCOV_INTER_ENERGY_QM>  (2909) 
0

>  <FF_Energy>  (2909) 
4.06

>  <QM_Energy>  (2909) 
-2.14

>  <source>  (2909) 
ACET_MBZ_03

>  <Index>  (2909) 
13706

$$$$
ACEH-pdb4ino-A-GLH-145:MBZ-pdb4ino-A-PHE-123
     RDKit          3D

 22 21  0  0  0  0  0  0  0  0999 V2000
   -5.6487   -0.7225   -0.9731 C   0  0  0  0  0  0  0  0  0  0  0  0
   -5.0604   -1.4790   -1.2259 H   0  0  0  0  0  0  0  0  0  0  0  0
   -6.3023   -0.5276   -1.6918 H   0  0  0  0  0  0  0  0  0  0  0  0
   -6.2052   -1.0146   -0.0826 H   0  0  0  0  0  0  0  0  0  0  0  0
   -4.7607    0.5133   -0.8178 C   0  0  0  0  0  0  0  0  0  0  0  0
   -4.3871    0.8943    0.3169 O   0  0  0  0  0  0  0  0  0  0  0  0
   -4.4157    1.1046   -1.8659 O   0  0  0  0  0  0  0  0  0  0  0  0
   -0.0109    2.9006   -0.0090 C   0  0  0  0  0  0  0  0  0  0  0  0
   -0.7579    3.1979   -0.5841 H   0  0  0  0  0  0  0  0  0  0  0  0
    0.8593    3.2085   -0.3640 H   0  0  0  0  0  0  0  0  0  0  0  0
   -0.1479    3.3479    0.9755 H   0  0  0  0  0  0  0  0  0  0  0  0
   -0.0029    1.3973    0.0017 C   0  0  0  0  0  0  0  0  0  0  0  0
   -1.1947    0.6920   -0.0029 C   0  0  0  0  0  0  0  0  0  0  0  0
   -2.0634    1.1824   -0.0096 H   0  0  0  0  0  0  0  0  0  0  0  0
   -1.2021   -0.6965    0.0000 C   0  0  0  0  0  0  0  0  0  0  0  0
   -2.0754   -1.1918    0.0025 H   0  0  0  0  0  0  0  0  0  0  0  0
    0.0037   -1.3900    0.0014 C   0  0  0  0  0  0  0  0  0  0  0  0
   -0.0027   -2.3905    0.0027 H   0  0  0  0  0  0  0  0  0  0  0  0
    1.2021   -0.6974   -0.0000 C   0  0  0  0  0  0  0  0  0  0  0  0
    2.0836   -1.1914    0.0004 H   0  0  0  0  0  0  0  0  0  0  0  0
    1.1938    0.6947   -0.0002 C   0  0  0  0  0  0  0  0  0  0  0  0
    2.0611    1.1924   -0.0026 H   0  0  0  0  0  0  0  0  0  0  0  0
  1  5  1  0
  5  6  2  0
  5  7  1  0
  1  2  1  0
  1  3  1  0
  1  4  1  0
  8 12  1  0
 12 13  2  0
 13 15  1  0
 15 17  2  0
 17 19  1  0
 19 21  2  0
 21 12  1  0
  8  9  1  0
  8 10  1  0
  8 11  1  0
 13 14  1  0
 15 16  1  0
 17 18  1  0
 19 20  1  0
 21 22  1  0
M  CHG  1   7  -1
V    7 [O&-]
M  END
>  <PDB_ID>  (2910) 
pdb4ino

>  <RESIDUE_NAME>  (2910) 
GLU   PHE

>  <FRAG_NAME>  (2910) 
ACET   MBZ

>  <FRAG_ATOM_NUM>  (2910) 
fragi: 7 fragj: 15

>  <atom.prop.CHAIN_ID>  (2910) 
A A A A A A A Z Z Z Z Z Z Z Z Z Z Z Z Z Z Z

>  <atom.prop.IS_HEAVY_ATOM>  (2910) 
1 0 0 0 1 1 1 1 0 0 0 1 1 0 1 0 1 0 1 0 1 0

>  <DIFUSE_FUNC_ATOM>  (2910) 
n/a

>  <FINAL_SINGLE_POINT_ENERGY>  (2910) 
0

>  <NONCOV_INTER_ENERGY_QM>  (2910) 
0

>  <FF_Energy>  (2910) 
-2.09

>  <QM_Energy>  (2910) 
-7.42

>  <source>  (2910) 
ACET_MBZ_03

>  <Index>  (2910) 
13756

$$$$
ACEH-pdb2iy8-A-ASH-140:MBZ-pdb2iy8-A-PHE-199
     RDKit          3D

 22 21  0  0  0  0  0  0  0  0999 V2000
   -5.8504    3.2033    0.7246 C   0  0  0  0  0  0  0  0  0  0  0  0
   -5.5817    4.0205    0.2234 H   0  0  0  0  0  0  0  0  0  0  0  0
   -6.3155    3.4532    1.5673 H   0  0  0  0  0  0  0  0  0  0  0  0
   -6.5536    2.6465    0.1053 H   0  0  0  0  0  0  0  0  0  0  0  0
   -4.6357    2.4045    1.0506 C   0  0  0  0  0  0  0  0  0  0  0  0
   -4.7868    1.1994    1.3322 O   0  0  0  0  0  0  0  0  0  0  0  0
   -3.5260    2.9722    1.0296 O   0  0  0  0  0  0  0  0  0  0  0  0
   -0.0072    2.9129    0.0627 C   0  0  0  0  0  0  0  0  0  0  0  0
    0.8524    3.2317   -0.3053 H   0  0  0  0  0  0  0  0  0  0  0  0
   -0.1146    3.1720    1.0097 H   0  0  0  0  0  0  0  0  0  0  0  0
   -0.8121    3.3761   -0.5080 H   0  0  0  0  0  0  0  0  0  0  0  0
   -0.0036    1.4002   -0.0036 C   0  0  0  0  0  0  0  0  0  0  0  0
   -1.2078    0.6789    0.0002 C   0  0  0  0  0  0  0  0  0  0  0  0
   -2.0717    1.1711    0.0018 H   0  0  0  0  0  0  0  0  0  0  0  0
   -1.2060   -0.7079   -0.0000 C   0  0  0  0  0  0  0  0  0  0  0  0
   -2.0702   -1.2126   -0.0022 H   0  0  0  0  0  0  0  0  0  0  0  0
    0.0133   -1.3891    0.0050 C   0  0  0  0  0  0  0  0  0  0  0  0
    0.0187   -2.3888    0.0121 H   0  0  0  0  0  0  0  0  0  0  0  0
    1.2060   -0.6806    0.0000 C   0  0  0  0  0  0  0  0  0  0  0  0
    2.0923   -1.1792   -0.0008 H   0  0  0  0  0  0  0  0  0  0  0  0
    1.1980    0.6986   -0.0016 C   0  0  0  0  0  0  0  0  0  0  0  0
    2.0618    1.2042   -0.0020 H   0  0  0  0  0  0  0  0  0  0  0  0
  1  5  1  0
  5  6  2  0
  5  7  1  0
  1  2  1  0
  1  3  1  0
  1  4  1  0
  8 12  1  0
 12 13  2  0
 13 15  1  0
 15 17  2  0
 17 19  1  0
 19 21  2  0
 21 12  1  0
  8  9  1  0
  8 10  1  0
  8 11  1  0
 13 14  1  0
 15 16  1  0
 17 18  1  0
 19 20  1  0
 21 22  1  0
M  CHG  1   7  -1
V    7 [O&-]
M  END
>  <PDB_ID>  (2911) 
pdb2iy8

>  <RESIDUE_NAME>  (2911) 
ASP   PHE

>  <FRAG_NAME>  (2911) 
ACET   MBZ

>  <FRAG_ATOM_NUM>  (2911) 
fragi: 7 fragj: 15

>  <atom.prop.CHAIN_ID>  (2911) 
A A A A A A A Z Z Z Z Z Z Z Z Z Z Z Z Z Z Z

>  <atom.prop.IS_HEAVY_ATOM>  (2911) 
1 0 0 0 1 1 1 1 0 0 0 1 1 0 1 0 1 0 1 0 1 0

>  <DIFUSE_FUNC_ATOM>  (2911) 
n/a

>  <FINAL_SINGLE_POINT_ENERGY>  (2911) 
0

>  <NONCOV_INTER_ENERGY_QM>  (2911) 
0

>  <FF_Energy>  (2911) 
-2.38

>  <QM_Energy>  (2911) 
-7.58

>  <source>  (2911) 
ACET_MBZ_03

>  <Index>  (2911) 
13761

$$$$
ACEH-pdb2iya-A-GLH-422:MBZ-pdb2iya-B-PHE-294
     RDKit          3D

 22 21  0  0  0  0  0  0  0  0999 V2000
   -4.3063    0.3924    2.6855 C   0  0  0  0  0  0  0  0  0  0  0  0
   -4.4515    0.1638    1.7360 H   0  0  0  0  0  0  0  0  0  0  0  0
   -5.0467    0.9391    3.0428 H   0  0  0  0  0  0  0  0  0  0  0  0
   -4.2629   -0.5361    3.2548 H   0  0  0  0  0  0  0  0  0  0  0  0
   -3.0345    1.2489    2.7569 C   0  0  0  0  0  0  0  0  0  0  0  0
   -2.0066    0.8167    3.3449 O   0  0  0  0  0  0  0  0  0  0  0  0
   -3.0681    2.3763    2.2105 O   0  0  0  0  0  0  0  0  0  0  0  0
   -0.0087    2.9356   -0.0053 C   0  0  0  0  0  0  0  0  0  0  0  0
    0.8793    3.2376    0.3048 H   0  0  0  0  0  0  0  0  0  0  0  0
   -0.7242    3.2259    0.6109 H   0  0  0  0  0  0  0  0  0  0  0  0
   -0.1988    3.3773   -0.9834 H   0  0  0  0  0  0  0  0  0  0  0  0
    0.0018    1.4149   -0.0080 C   0  0  0  0  0  0  0  0  0  0  0  0
   -1.1887    0.7066   -0.0071 C   0  0  0  0  0  0  0  0  0  0  0  0
   -2.0623    1.1868   -0.0127 H   0  0  0  0  0  0  0  0  0  0  0  0
   -1.2055   -0.7114    0.0000 C   0  0  0  0  0  0  0  0  0  0  0  0
   -2.0877   -1.1843   -0.0034 H   0  0  0  0  0  0  0  0  0  0  0  0
   -0.0103   -1.4146    0.0137 C   0  0  0  0  0  0  0  0  0  0  0  0
   -0.0079   -2.4081    0.0325 H   0  0  0  0  0  0  0  0  0  0  0  0
    1.2055   -0.7088   -0.0000 C   0  0  0  0  0  0  0  0  0  0  0  0
    2.0826   -1.1947   -0.0097 H   0  0  0  0  0  0  0  0  0  0  0  0
    1.1973    0.7132    0.0014 C   0  0  0  0  0  0  0  0  0  0  0  0
    2.0677    1.1952    0.0088 H   0  0  0  0  0  0  0  0  0  0  0  0
  1  5  1  0
  5  6  2  0
  5  7  1  0
  1  2  1  0
  1  3  1  0
  1  4  1  0
  8 12  1  0
 12 13  2  0
 13 15  1  0
 15 17  2  0
 17 19  1  0
 19 21  2  0
 21 12  1  0
  8  9  1  0
  8 10  1  0
  8 11  1  0
 13 14  1  0
 15 16  1  0
 17 18  1  0
 19 20  1  0
 21 22  1  0
M  CHG  1   7  -1
V    7 [O&-]
M  END
>  <PDB_ID>  (2912) 
pdb2iya

>  <RESIDUE_NAME>  (2912) 
GLU   PHE

>  <FRAG_NAME>  (2912) 
ACET   MBZ

>  <FRAG_ATOM_NUM>  (2912) 
fragi: 7 fragj: 15

>  <atom.prop.CHAIN_ID>  (2912) 
A A A A A A A Z Z Z Z Z Z Z Z Z Z Z Z Z Z Z

>  <atom.prop.IS_HEAVY_ATOM>  (2912) 
1 0 0 0 1 1 1 1 0 0 0 1 1 0 1 0 1 0 1 0 1 0

>  <DIFUSE_FUNC_ATOM>  (2912) 
n/a

>  <FINAL_SINGLE_POINT_ENERGY>  (2912) 
0

>  <NONCOV_INTER_ENERGY_QM>  (2912) 
0

>  <FF_Energy>  (2912) 
0.45

>  <QM_Energy>  (2912) 
-4.77

>  <source>  (2912) 
ACET_MBZ_03

>  <Index>  (2912) 
13765

$$$$
ACEH-pdb4ino-A-ASH-154:MBZ-pdb4ino-A-PHE-143
     RDKit          3D

 22 21  0  0  0  0  0  0  0  0999 V2000
   -1.1001    0.3202    3.6388 C   0  0  0  0  0  0  0  0  0  0  0  0
   -0.7737    0.7887    4.4475 H   0  0  0  0  0  0  0  0  0  0  0  0
   -0.3637    0.1638    2.9962 H   0  0  0  0  0  0  0  0  0  0  0  0
   -1.4961   -0.6481    3.9449 H   0  0  0  0  0  0  0  0  0  0  0  0
   -2.1585    1.1964    2.9629 C   0  0  0  0  0  0  0  0  0  0  0  0
   -3.2162    0.6582    2.5456 O   0  0  0  0  0  0  0  0  0  0  0  0
   -1.9376    2.4295    2.8468 O   0  0  0  0  0  0  0  0  0  0  0  0
   -0.0001    2.9072    0.0224 C   0  0  0  0  0  0  0  0  0  0  0  0
    0.9259    3.2082    0.1983 H   0  0  0  0  0  0  0  0  0  0  0  0
   -0.6163    3.2034    0.7383 H   0  0  0  0  0  0  0  0  0  0  0  0
   -0.3283    3.3644   -0.9110 H   0  0  0  0  0  0  0  0  0  0  0  0
   -0.0018    1.4014    0.0027 C   0  0  0  0  0  0  0  0  0  0  0  0
   -1.1968    0.6950   -0.0061 C   0  0  0  0  0  0  0  0  0  0  0  0
   -2.0637    1.1843   -0.0179 H   0  0  0  0  0  0  0  0  0  0  0  0
   -1.2023   -0.6964   -0.0000 C   0  0  0  0  0  0  0  0  0  0  0  0
   -2.0783   -1.1894    0.0038 H   0  0  0  0  0  0  0  0  0  0  0  0
   -0.0002   -1.3937    0.0024 C   0  0  0  0  0  0  0  0  0  0  0  0
   -0.0067   -2.3931    0.0057 H   0  0  0  0  0  0  0  0  0  0  0  0
    1.2023   -0.7011    0.0000 C   0  0  0  0  0  0  0  0  0  0  0  0
    2.0826   -1.1973   -0.0008 H   0  0  0  0  0  0  0  0  0  0  0  0
    1.1988    0.6947    0.0010 C   0  0  0  0  0  0  0  0  0  0  0  0
    2.0643    1.1899   -0.0003 H   0  0  0  0  0  0  0  0  0  0  0  0
  1  5  1  0
  5  6  2  0
  5  7  1  0
  1  2  1  0
  1  3  1  0
  1  4  1  0
  8 12  1  0
 12 13  2  0
 13 15  1  0
 15 17  2  0
 17 19  1  0
 19 21  2  0
 21 12  1  0
  8  9  1  0
  8 10  1  0
  8 11  1  0
 13 14  1  0
 15 16  1  0
 17 18  1  0
 19 20  1  0
 21 22  1  0
M  CHG  1   7  -1
V    7 [O&-]
M  END
>  <PDB_ID>  (2913) 
pdb4ino

>  <RESIDUE_NAME>  (2913) 
ASP   PHE

>  <FRAG_NAME>  (2913) 
ACET   MBZ

>  <FRAG_ATOM_NUM>  (2913) 
fragi: 7 fragj: 15

>  <atom.prop.CHAIN_ID>  (2913) 
A A A A A A A Z Z Z Z Z Z Z Z Z Z Z Z Z Z Z

>  <atom.prop.IS_HEAVY_ATOM>  (2913) 
1 0 0 0 1 1 1 1 0 0 0 1 1 0 1 0 1 0 1 0 1 0

>  <DIFUSE_FUNC_ATOM>  (2913) 
n/a

>  <FINAL_SINGLE_POINT_ENERGY>  (2913) 
0

>  <NONCOV_INTER_ENERGY_QM>  (2913) 
0

>  <FF_Energy>  (2913) 
-0.75

>  <QM_Energy>  (2913) 
-7.61

>  <source>  (2913) 
ACET_MBZ_03

>  <Index>  (2913) 
13792

$$$$
ACEH-pdb1isf-A-GLH-178:MBZ-pdb1isf-A-PHE-76
     RDKit          3D

 22 21  0  0  0  0  0  0  0  0999 V2000
    5.2498   -0.0236   -1.0529 C   0  0  0  0  0  0  0  0  0  0  0  0
    5.4884   -0.8536   -0.5776 H   0  0  0  0  0  0  0  0  0  0  0  0
    6.0451    0.4332   -1.4132 H   0  0  0  0  0  0  0  0  0  0  0  0
    4.5937   -0.2810   -1.8845 H   0  0  0  0  0  0  0  0  0  0  0  0
    4.6034    0.9069   -0.0518 C   0  0  0  0  0  0  0  0  0  0  0  0
    4.0615    1.9475   -0.4677 O   0  0  0  0  0  0  0  0  0  0  0  0
    4.6444    0.5995    1.1560 O   0  0  0  0  0  0  0  0  0  0  0  0
    0.0040    2.9051    0.0268 C   0  0  0  0  0  0  0  0  0  0  0  0
   -0.6909    3.2254   -0.5983 H   0  0  0  0  0  0  0  0  0  0  0  0
    0.9024    3.2168   -0.2390 H   0  0  0  0  0  0  0  0  0  0  0  0
   -0.2149    3.3262    1.0081 H   0  0  0  0  0  0  0  0  0  0  0  0
    0.0015    1.4032   -0.0004 C   0  0  0  0  0  0  0  0  0  0  0  0
   -1.2036    0.6950    0.0007 C   0  0  0  0  0  0  0  0  0  0  0  0
   -2.0661    1.1865    0.0007 H   0  0  0  0  0  0  0  0  0  0  0  0
   -1.2090   -0.7004    0.0000 C   0  0  0  0  0  0  0  0  0  0  0  0
   -2.0817   -1.1939    0.0005 H   0  0  0  0  0  0  0  0  0  0  0  0
   -0.0004   -1.3965    0.0001 C   0  0  0  0  0  0  0  0  0  0  0  0
   -0.0013   -2.3939   -0.0004 H   0  0  0  0  0  0  0  0  0  0  0  0
    1.2090   -0.6951   -0.0000 C   0  0  0  0  0  0  0  0  0  0  0  0
    2.0862   -1.1964    0.0015 H   0  0  0  0  0  0  0  0  0  0  0  0
    1.2025    0.6938   -0.0004 C   0  0  0  0  0  0  0  0  0  0  0  0
    2.0684    1.1939   -0.0021 H   0  0  0  0  0  0  0  0  0  0  0  0
  1  5  1  0
  5  6  2  0
  5  7  1  0
  1  2  1  0
  1  3  1  0
  1  4  1  0
  8 12  1  0
 12 13  2  0
 13 15  1  0
 15 17  2  0
 17 19  1  0
 19 21  2  0
 21 12  1  0
  8  9  1  0
  8 10  1  0
  8 11  1  0
 13 14  1  0
 15 16  1  0
 17 18  1  0
 19 20  1  0
 21 22  1  0
M  CHG  1   7  -1
V    7 [O&-]
M  END
>  <PDB_ID>  (2914) 
pdb1isf

>  <RESIDUE_NAME>  (2914) 
GLU   PHE

>  <FRAG_NAME>  (2914) 
ACET   MBZ

>  <FRAG_ATOM_NUM>  (2914) 
fragi: 7 fragj: 15

>  <atom.prop.CHAIN_ID>  (2914) 
A A A A A A A Z Z Z Z Z Z Z Z Z Z Z Z Z Z Z

>  <atom.prop.IS_HEAVY_ATOM>  (2914) 
1 0 0 0 1 1 1 1 0 0 0 1 1 0 1 0 1 0 1 0 1 0

>  <DIFUSE_FUNC_ATOM>  (2914) 
n/a

>  <FINAL_SINGLE_POINT_ENERGY>  (2914) 
0

>  <NONCOV_INTER_ENERGY_QM>  (2914) 
0

>  <FF_Energy>  (2914) 
-0.16

>  <QM_Energy>  (2914) 
-7.7

>  <source>  (2914) 
ACET_MBZ_03

>  <Index>  (2914) 
13793

$$$$
ACEH-pdb2j1n-A-ASH-299:MBZ-pdb2j1n-A-PHE-110
     RDKit          3D

 22 21  0  0  0  0  0  0  0  0999 V2000
    4.7570    4.3429    2.1263 C   0  0  0  0  0  0  0  0  0  0  0  0
    3.9448    4.5341    2.6656 H   0  0  0  0  0  0  0  0  0  0  0  0
    5.1625    5.1878    1.7966 H   0  0  0  0  0  0  0  0  0  0  0  0
    5.4827    3.8542    2.7763 H   0  0  0  0  0  0  0  0  0  0  0  0
    4.3759    3.4873    0.9501 C   0  0  0  0  0  0  0  0  0  0  0  0
    3.4537    2.6594    1.1058 O   0  0  0  0  0  0  0  0  0  0  0  0
    5.0274    3.6126   -0.1124 O   0  0  0  0  0  0  0  0  0  0  0  0
   -0.0069    2.9191   -0.0081 C   0  0  0  0  0  0  0  0  0  0  0  0
    0.9222    3.2273    0.1018 H   0  0  0  0  0  0  0  0  0  0  0  0
   -0.5861    3.2246    0.7271 H   0  0  0  0  0  0  0  0  0  0  0  0
   -0.3918    3.3459   -0.9343 H   0  0  0  0  0  0  0  0  0  0  0  0
   -0.0000    1.4032    0.0026 C   0  0  0  0  0  0  0  0  0  0  0  0
   -1.1872    0.6962   -0.0047 C   0  0  0  0  0  0  0  0  0  0  0  0
   -2.0587    1.1841   -0.0146 H   0  0  0  0  0  0  0  0  0  0  0  0
   -1.1958   -0.6954    0.0000 C   0  0  0  0  0  0  0  0  0  0  0  0
   -2.0780   -1.1827    0.0013 H   0  0  0  0  0  0  0  0  0  0  0  0
   -0.0044   -1.3941    0.0043 C   0  0  0  0  0  0  0  0  0  0  0  0
   -0.0100   -2.3932    0.0099 H   0  0  0  0  0  0  0  0  0  0  0  0
    1.1958   -0.7026   -0.0000 C   0  0  0  0  0  0  0  0  0  0  0  0
    2.0769   -1.1977   -0.0002 H   0  0  0  0  0  0  0  0  0  0  0  0
    1.1916    0.6928   -0.0023 C   0  0  0  0  0  0  0  0  0  0  0  0
    2.0633    1.1847   -0.0079 H   0  0  0  0  0  0  0  0  0  0  0  0
  1  5  1  0
  5  6  2  0
  5  7  1  0
  1  2  1  0
  1  3  1  0
  1  4  1  0
  8 12  1  0
 12 13  2  0
 13 15  1  0
 15 17  2  0
 17 19  1  0
 19 21  2  0
 21 12  1  0
  8  9  1  0
  8 10  1  0
  8 11  1  0
 13 14  1  0
 15 16  1  0
 17 18  1  0
 19 20  1  0
 21 22  1  0
M  CHG  1   7  -1
V    7 [O&-]
M  END
>  <PDB_ID>  (2915) 
pdb2j1n

>  <RESIDUE_NAME>  (2915) 
ASP   PHE

>  <FRAG_NAME>  (2915) 
ACET   MBZ

>  <FRAG_ATOM_NUM>  (2915) 
fragi: 7 fragj: 15

>  <atom.prop.CHAIN_ID>  (2915) 
A A A A A A A Z Z Z Z Z Z Z Z Z Z Z Z Z Z Z

>  <atom.prop.IS_HEAVY_ATOM>  (2915) 
1 0 0 0 1 1 1 1 0 0 0 1 1 0 1 0 1 0 1 0 1 0

>  <DIFUSE_FUNC_ATOM>  (2915) 
n/a

>  <FINAL_SINGLE_POINT_ENERGY>  (2915) 
0

>  <NONCOV_INTER_ENERGY_QM>  (2915) 
0

>  <FF_Energy>  (2915) 
-1.47

>  <QM_Energy>  (2915) 
-7.72

>  <source>  (2915) 
ACET_MBZ_03

>  <Index>  (2915) 
13809

$$$$
ACEH-pdb2j1n-B-ASH-299:MBZ-pdb2j1n-B-PHE-110
     RDKit          3D

 22 21  0  0  0  0  0  0  0  0999 V2000
    4.5262    4.8241    2.0256 C   0  0  0  0  0  0  0  0  0  0  0  0
    3.6989    4.9180    2.5645 H   0  0  0  0  0  0  0  0  0  0  0  0
    4.8093    5.7006    1.6594 H   0  0  0  0  0  0  0  0  0  0  0  0
    5.3172    4.4598    2.6810 H   0  0  0  0  0  0  0  0  0  0  0  0
    4.2594    3.8771    0.8808 C   0  0  0  0  0  0  0  0  0  0  0  0
    4.8723    4.0505   -0.1957 O   0  0  0  0  0  0  0  0  0  0  0  0
    3.4728    2.9267    1.0772 O   0  0  0  0  0  0  0  0  0  0  0  0
   -0.0247    2.8827   -0.0451 C   0  0  0  0  0  0  0  0  0  0  0  0
    0.8983    3.2154    0.0056 H   0  0  0  0  0  0  0  0  0  0  0  0
   -0.5832    3.2136    0.6922 H   0  0  0  0  0  0  0  0  0  0  0  0
   -0.4562    3.2565   -0.9735 H   0  0  0  0  0  0  0  0  0  0  0  0
    0.0012    1.3919    0.0072 C   0  0  0  0  0  0  0  0  0  0  0  0
   -1.1923    0.6799    0.0002 C   0  0  0  0  0  0  0  0  0  0  0  0
   -2.0598    1.1721   -0.0055 H   0  0  0  0  0  0  0  0  0  0  0  0
   -1.1929   -0.7005    0.0000 C   0  0  0  0  0  0  0  0  0  0  0  0
   -2.0697   -1.1984   -0.0039 H   0  0  0  0  0  0  0  0  0  0  0  0
    0.0013   -1.3817    0.0064 C   0  0  0  0  0  0  0  0  0  0  0  0
    0.0049   -2.3852    0.0146 H   0  0  0  0  0  0  0  0  0  0  0  0
    1.1929   -0.6854   -0.0000 C   0  0  0  0  0  0  0  0  0  0  0  0
    2.0780   -1.1847    0.0072 H   0  0  0  0  0  0  0  0  0  0  0  0
    1.1899    0.6958   -0.0138 C   0  0  0  0  0  0  0  0  0  0  0  0
    2.0583    1.1929   -0.0399 H   0  0  0  0  0  0  0  0  0  0  0  0
  1  5  1  0
  5  6  2  0
  5  7  1  0
  1  2  1  0
  1  3  1  0
  1  4  1  0
  8 12  1  0
 12 13  2  0
 13 15  1  0
 15 17  2  0
 17 19  1  0
 19 21  2  0
 21 12  1  0
  8  9  1  0
  8 10  1  0
  8 11  1  0
 13 14  1  0
 15 16  1  0
 17 18  1  0
 19 20  1  0
 21 22  1  0
M  CHG  1   7  -1
V    7 [O&-]
M  END
>  <PDB_ID>  (2916) 
pdb2j1n

>  <RESIDUE_NAME>  (2916) 
ASP   PHE

>  <FRAG_NAME>  (2916) 
ACET   MBZ

>  <FRAG_ATOM_NUM>  (2916) 
fragi: 7 fragj: 15

>  <atom.prop.CHAIN_ID>  (2916) 
A A A A A A A Z Z Z Z Z Z Z Z Z Z Z Z Z Z Z

>  <atom.prop.IS_HEAVY_ATOM>  (2916) 
1 0 0 0 1 1 1 1 0 0 0 1 1 0 1 0 1 0 1 0 1 0

>  <DIFUSE_FUNC_ATOM>  (2916) 
n/a

>  <FINAL_SINGLE_POINT_ENERGY>  (2916) 
0

>  <NONCOV_INTER_ENERGY_QM>  (2916) 
0

>  <FF_Energy>  (2916) 
-2.04

>  <QM_Energy>  (2916) 
-7.39

>  <source>  (2916) 
ACET_MBZ_03

>  <Index>  (2916) 
13847

$$$$
ACEH-pdb2j1n-C-ASH-299:MBZ-pdb2j1n-C-PHE-110
     RDKit          3D

 22 21  0  0  0  0  0  0  0  0999 V2000
    4.7807    4.6170    1.7168 C   0  0  0  0  0  0  0  0  0  0  0  0
    4.0037    4.7736    2.3182 H   0  0  0  0  0  0  0  0  0  0  0  0
    5.1370    5.4826    1.3804 H   0  0  0  0  0  0  0  0  0  0  0  0
    5.5649    4.1314    2.2975 H   0  0  0  0  0  0  0  0  0  0  0  0
    4.3229    3.7865    0.5365 C   0  0  0  0  0  0  0  0  0  0  0  0
    3.6079    2.7798    0.7515 O   0  0  0  0  0  0  0  0  0  0  0  0
    4.6954    4.1350   -0.6019 O   0  0  0  0  0  0  0  0  0  0  0  0
   -0.0088    2.9107   -0.0157 C   0  0  0  0  0  0  0  0  0  0  0  0
    0.9233    3.2227    0.0029 H   0  0  0  0  0  0  0  0  0  0  0  0
   -0.5237    3.2263    0.7600 H   0  0  0  0  0  0  0  0  0  0  0  0
   -0.4775    3.3128   -0.9140 H   0  0  0  0  0  0  0  0  0  0  0  0
    0.0008    1.4030    0.0119 C   0  0  0  0  0  0  0  0  0  0  0  0
   -1.1979    0.6913    0.0010 C   0  0  0  0  0  0  0  0  0  0  0  0
   -2.0633    1.1794   -0.0075 H   0  0  0  0  0  0  0  0  0  0  0  0
   -1.1963   -0.7001   -0.0000 C   0  0  0  0  0  0  0  0  0  0  0  0
   -2.0729   -1.1958    0.0064 H   0  0  0  0  0  0  0  0  0  0  0  0
    0.0046   -1.3926   -0.0078 C   0  0  0  0  0  0  0  0  0  0  0  0
   -0.0001   -2.3931   -0.0194 H   0  0  0  0  0  0  0  0  0  0  0  0
    1.1963   -0.6973    0.0000 C   0  0  0  0  0  0  0  0  0  0  0  0
    2.0831   -1.1907    0.0111 H   0  0  0  0  0  0  0  0  0  0  0  0
    1.1925    0.6957   -0.0051 C   0  0  0  0  0  0  0  0  0  0  0  0
    2.0627    1.1890   -0.0216 H   0  0  0  0  0  0  0  0  0  0  0  0
  1  5  1  0
  5  6  2  0
  5  7  1  0
  1  2  1  0
  1  3  1  0
  1  4  1  0
  8 12  1  0
 12 13  2  0
 13 15  1  0
 15 17  2  0
 17 19  1  0
 19 21  2  0
 21 12  1  0
  8  9  1  0
  8 10  1  0
  8 11  1  0
 13 14  1  0
 15 16  1  0
 17 18  1  0
 19 20  1  0
 21 22  1  0
M  CHG  1   7  -1
V    7 [O&-]
M  END
>  <PDB_ID>  (2917) 
pdb2j1n

>  <RESIDUE_NAME>  (2917) 
ASP   PHE

>  <FRAG_NAME>  (2917) 
ACET   MBZ

>  <FRAG_ATOM_NUM>  (2917) 
fragi: 7 fragj: 15

>  <atom.prop.CHAIN_ID>  (2917) 
A A A A A A A Z Z Z Z Z Z Z Z Z Z Z Z Z Z Z

>  <atom.prop.IS_HEAVY_ATOM>  (2917) 
1 0 0 0 1 1 1 1 0 0 0 1 1 0 1 0 1 0 1 0 1 0

>  <DIFUSE_FUNC_ATOM>  (2917) 
n/a

>  <FINAL_SINGLE_POINT_ENERGY>  (2917) 
0

>  <NONCOV_INTER_ENERGY_QM>  (2917) 
0

>  <FF_Energy>  (2917) 
-1.89

>  <QM_Energy>  (2917) 
-7.89

>  <source>  (2917) 
ACET_MBZ_03

>  <Index>  (2917) 
13861

$$$$
ACEH-pdb1j0a-B-ASH-115:MBZ-pdb1j0a-B-PHE-85
     RDKit          3D

 22 21  0  0  0  0  0  0  0  0999 V2000
   -5.1260    3.2665   -0.9604 C   0  0  0  0  0  0  0  0  0  0  0  0
   -5.4801    3.5533   -1.8439 H   0  0  0  0  0  0  0  0  0  0  0  0
   -5.7393    3.5501   -0.2324 H   0  0  0  0  0  0  0  0  0  0  0  0
   -5.0701    2.1780   -0.9537 H   0  0  0  0  0  0  0  0  0  0  0  0
   -3.7690    3.9457   -0.7409 C   0  0  0  0  0  0  0  0  0  0  0  0
   -3.4369    4.8963   -1.4947 O   0  0  0  0  0  0  0  0  0  0  0  0
   -3.0429    3.5537    0.1969 O   0  0  0  0  0  0  0  0  0  0  0  0
   -0.0033    2.9025    0.0767 C   0  0  0  0  0  0  0  0  0  0  0  0
   -0.6417    3.2425   -0.5941 H   0  0  0  0  0  0  0  0  0  0  0  0
    0.9140    3.2208   -0.0985 H   0  0  0  0  0  0  0  0  0  0  0  0
   -0.3082    3.2838    1.0512 H   0  0  0  0  0  0  0  0  0  0  0  0
   -0.0004    1.4038    0.0012 C   0  0  0  0  0  0  0  0  0  0  0  0
   -1.1997    0.6908   -0.0010 C   0  0  0  0  0  0  0  0  0  0  0  0
   -2.0660    1.1831   -0.0043 H   0  0  0  0  0  0  0  0  0  0  0  0
   -1.2069   -0.7003    0.0000 C   0  0  0  0  0  0  0  0  0  0  0  0
   -2.0792   -1.1952    0.0008 H   0  0  0  0  0  0  0  0  0  0  0  0
    0.0019   -1.3970    0.0014 C   0  0  0  0  0  0  0  0  0  0  0  0
   -0.0001   -2.3941    0.0027 H   0  0  0  0  0  0  0  0  0  0  0  0
    1.2069   -0.6950    0.0000 C   0  0  0  0  0  0  0  0  0  0  0  0
    2.0869   -1.1917    0.0013 H   0  0  0  0  0  0  0  0  0  0  0  0
    1.1982    0.6977   -0.0017 C   0  0  0  0  0  0  0  0  0  0  0  0
    2.0652    1.1959   -0.0058 H   0  0  0  0  0  0  0  0  0  0  0  0
  1  5  1  0
  5  6  2  0
  5  7  1  0
  1  2  1  0
  1  3  1  0
  1  4  1  0
  8 12  1  0
 12 13  2  0
 13 15  1  0
 15 17  2  0
 17 19  1  0
 19 21  2  0
 21 12  1  0
  8  9  1  0
  8 10  1  0
  8 11  1  0
 13 14  1  0
 15 16  1  0
 17 18  1  0
 19 20  1  0
 21 22  1  0
M  CHG  1   7  -1
V    7 [O&-]
M  END
>  <PDB_ID>  (2918) 
pdb1j0a

>  <RESIDUE_NAME>  (2918) 
ASP   PHE

>  <FRAG_NAME>  (2918) 
ACET   MBZ

>  <FRAG_ATOM_NUM>  (2918) 
fragi: 7 fragj: 15

>  <atom.prop.CHAIN_ID>  (2918) 
A A A A A A A Z Z Z Z Z Z Z Z Z Z Z Z Z Z Z

>  <atom.prop.IS_HEAVY_ATOM>  (2918) 
1 0 0 0 1 1 1 1 0 0 0 1 1 0 1 0 1 0 1 0 1 0

>  <DIFUSE_FUNC_ATOM>  (2918) 
n/a

>  <FINAL_SINGLE_POINT_ENERGY>  (2918) 
0

>  <NONCOV_INTER_ENERGY_QM>  (2918) 
0

>  <FF_Energy>  (2918) 
-1.77

>  <QM_Energy>  (2918) 
-7.74

>  <source>  (2918) 
ACET_MBZ_03

>  <Index>  (2918) 
13954

$$$$
ACEH-pdb1j0a-C-ASH-115:MBZ-pdb1j0a-C-PHE-85
     RDKit          3D

 22 21  0  0  0  0  0  0  0  0999 V2000
   -4.9423    3.3936   -1.4981 C   0  0  0  0  0  0  0  0  0  0  0  0
   -5.2232    3.7100   -2.3970 H   0  0  0  0  0  0  0  0  0  0  0  0
   -5.6042    3.6684   -0.8108 H   0  0  0  0  0  0  0  0  0  0  0  0
   -4.9173    2.3041   -1.5214 H   0  0  0  0  0  0  0  0  0  0  0  0
   -3.6020    3.9976   -1.1609 C   0  0  0  0  0  0  0  0  0  0  0  0
   -2.8628    3.3983   -0.3489 O   0  0  0  0  0  0  0  0  0  0  0  0
   -3.2948    5.0787   -1.7004 O   0  0  0  0  0  0  0  0  0  0  0  0
    0.0029    2.9011    0.0472 C   0  0  0  0  0  0  0  0  0  0  0  0
   -0.6300    3.2312   -0.6360 H   0  0  0  0  0  0  0  0  0  0  0  0
    0.9224    3.2157   -0.1283 H   0  0  0  0  0  0  0  0  0  0  0  0
   -0.3079    3.3023    1.0119 H   0  0  0  0  0  0  0  0  0  0  0  0
    0.0033    1.4074    0.0011 C   0  0  0  0  0  0  0  0  0  0  0  0
   -1.1976    0.6979   -0.0003 C   0  0  0  0  0  0  0  0  0  0  0  0
   -2.0640    1.1861   -0.0034 H   0  0  0  0  0  0  0  0  0  0  0  0
   -1.2071   -0.7049   -0.0000 C   0  0  0  0  0  0  0  0  0  0  0  0
   -2.0866   -1.1893    0.0010 H   0  0  0  0  0  0  0  0  0  0  0  0
   -0.0098   -1.4023    0.0005 C   0  0  0  0  0  0  0  0  0  0  0  0
   -0.0066   -2.3980    0.0010 H   0  0  0  0  0  0  0  0  0  0  0  0
    1.2071   -0.6995   -0.0000 C   0  0  0  0  0  0  0  0  0  0  0  0
    2.0820   -1.1987    0.0022 H   0  0  0  0  0  0  0  0  0  0  0  0
    1.2041    0.7014   -0.0013 C   0  0  0  0  0  0  0  0  0  0  0  0
    2.0698    1.1936   -0.0049 H   0  0  0  0  0  0  0  0  0  0  0  0
  1  5  1  0
  5  6  2  0
  5  7  1  0
  1  2  1  0
  1  3  1  0
  1  4  1  0
  8 12  1  0
 12 13  2  0
 13 15  1  0
 15 17  2  0
 17 19  1  0
 19 21  2  0
 21 12  1  0
  8  9  1  0
  8 10  1  0
  8 11  1  0
 13 14  1  0
 15 16  1  0
 17 18  1  0
 19 20  1  0
 21 22  1  0
M  CHG  1   7  -1
V    7 [O&-]
M  END
>  <PDB_ID>  (2919) 
pdb1j0a

>  <RESIDUE_NAME>  (2919) 
ASP   PHE

>  <FRAG_NAME>  (2919) 
ACET   MBZ

>  <FRAG_ATOM_NUM>  (2919) 
fragi: 7 fragj: 15

>  <atom.prop.CHAIN_ID>  (2919) 
A A A A A A A Z Z Z Z Z Z Z Z Z Z Z Z Z Z Z

>  <atom.prop.IS_HEAVY_ATOM>  (2919) 
1 0 0 0 1 1 1 1 0 0 0 1 1 0 1 0 1 0 1 0 1 0

>  <DIFUSE_FUNC_ATOM>  (2919) 
n/a

>  <FINAL_SINGLE_POINT_ENERGY>  (2919) 
0

>  <NONCOV_INTER_ENERGY_QM>  (2919) 
0

>  <FF_Energy>  (2919) 
0.51

>  <QM_Energy>  (2919) 
-7.69

>  <source>  (2919) 
ACET_MBZ_03

>  <Index>  (2919) 
13955

$$$$
ACEH-pdb2jif-B-GLH-106:MBZ-pdb2jif-B-PHE-118
     RDKit          3D

 22 21  0  0  0  0  0  0  0  0999 V2000
   -4.5467    4.6047    1.3561 C   0  0  0  0  0  0  0  0  0  0  0  0
   -3.7771    5.2148    1.3824 H   0  0  0  0  0  0  0  0  0  0  0  0
   -4.8303    4.3224    2.2539 H   0  0  0  0  0  0  0  0  0  0  0  0
   -5.3785    5.1115    0.8668 H   0  0  0  0  0  0  0  0  0  0  0  0
   -4.1114    3.3587    0.6080 C   0  0  0  0  0  0  0  0  0  0  0  0
   -3.6490    3.4930   -0.5486 O   0  0  0  0  0  0  0  0  0  0  0  0
   -4.2093    2.2444    1.1861 O   0  0  0  0  0  0  0  0  0  0  0  0
   -0.0074    2.8951    0.0242 C   0  0  0  0  0  0  0  0  0  0  0  0
   -0.6146    3.2142   -0.6864 H   0  0  0  0  0  0  0  0  0  0  0  0
    0.9171    3.2106   -0.1184 H   0  0  0  0  0  0  0  0  0  0  0  0
   -0.3572    3.3099    0.9694 H   0  0  0  0  0  0  0  0  0  0  0  0
   -0.0011    1.3977   -0.0024 C   0  0  0  0  0  0  0  0  0  0  0  0
   -1.1963    0.6886    0.0034 C   0  0  0  0  0  0  0  0  0  0  0  0
   -2.0629    1.1785    0.0086 H   0  0  0  0  0  0  0  0  0  0  0  0
   -1.1972   -0.6981   -0.0000 C   0  0  0  0  0  0  0  0  0  0  0  0
   -2.0734   -1.1948    0.0065 H   0  0  0  0  0  0  0  0  0  0  0  0
    0.0036   -1.3890   -0.0109 C   0  0  0  0  0  0  0  0  0  0  0  0
    0.0033   -2.3885   -0.0271 H   0  0  0  0  0  0  0  0  0  0  0  0
    1.1972   -0.6889   -0.0000 C   0  0  0  0  0  0  0  0  0  0  0  0
    2.0821   -1.1903    0.0018 H   0  0  0  0  0  0  0  0  0  0  0  0
    1.1938    0.6898    0.0100 C   0  0  0  0  0  0  0  0  0  0  0  0
    2.0610    1.1909    0.0256 H   0  0  0  0  0  0  0  0  0  0  0  0
  1  5  1  0
  5  6  2  0
  5  7  1  0
  1  2  1  0
  1  3  1  0
  1  4  1  0
  8 12  1  0
 12 13  2  0
 13 15  1  0
 15 17  2  0
 17 19  1  0
 19 21  2  0
 21 12  1  0
  8  9  1  0
  8 10  1  0
  8 11  1  0
 13 14  1  0
 15 16  1  0
 17 18  1  0
 19 20  1  0
 21 22  1  0
M  CHG  1   7  -1
V    7 [O&-]
M  END
>  <PDB_ID>  (2920) 
pdb2jif

>  <RESIDUE_NAME>  (2920) 
GLU   PHE

>  <FRAG_NAME>  (2920) 
ACET   MBZ

>  <FRAG_ATOM_NUM>  (2920) 
fragi: 7 fragj: 15

>  <atom.prop.CHAIN_ID>  (2920) 
A A A A A A A Z Z Z Z Z Z Z Z Z Z Z Z Z Z Z

>  <atom.prop.IS_HEAVY_ATOM>  (2920) 
1 0 0 0 1 1 1 1 0 0 0 1 1 0 1 0 1 0 1 0 1 0

>  <DIFUSE_FUNC_ATOM>  (2920) 
n/a

>  <FINAL_SINGLE_POINT_ENERGY>  (2920) 
0

>  <NONCOV_INTER_ENERGY_QM>  (2920) 
0

>  <FF_Energy>  (2920) 
-2.88

>  <QM_Energy>  (2920) 
-8.23

>  <source>  (2920) 
ACET_MBZ_03

>  <Index>  (2920) 
14036

$$$$
ACEH-pdb2jk0-F-GLH-182:MBZ-pdb2jk0-F-PHE-165
     RDKit          3D

 22 21  0  0  0  0  0  0  0  0999 V2000
    0.3660    0.7358   -3.3890 C   0  0  0  0  0  0  0  0  0  0  0  0
    0.3423    0.1934   -2.5734 H   0  0  0  0  0  0  0  0  0  0  0  0
    0.4534    0.1967   -4.2021 H   0  0  0  0  0  0  0  0  0  0  0  0
   -0.5726    1.2867   -3.4510 H   0  0  0  0  0  0  0  0  0  0  0  0
    1.5716    1.6521   -3.3057 C   0  0  0  0  0  0  0  0  0  0  0  0
    1.3732    2.8447   -2.9829 O   0  0  0  0  0  0  0  0  0  0  0  0
    2.7120    1.1847   -3.5526 O   0  0  0  0  0  0  0  0  0  0  0  0
   -0.0065    2.9385   -0.0210 C   0  0  0  0  0  0  0  0  0  0  0  0
   -0.9488    3.2336    0.0085 H   0  0  0  0  0  0  0  0  0  0  0  0
    0.4369    3.2292   -0.8549 H   0  0  0  0  0  0  0  0  0  0  0  0
    0.5173    3.3984    0.8171 H   0  0  0  0  0  0  0  0  0  0  0  0
    0.0006    1.4191   -0.0019 C   0  0  0  0  0  0  0  0  0  0  0  0
   -1.2015    0.7034    0.0018 C   0  0  0  0  0  0  0  0  0  0  0  0
   -2.0679    1.1910    0.0047 H   0  0  0  0  0  0  0  0  0  0  0  0
   -1.2102   -0.7009    0.0000 C   0  0  0  0  0  0  0  0  0  0  0  0
   -2.0865   -1.1890   -0.0022 H   0  0  0  0  0  0  0  0  0  0  0  0
   -0.0024   -1.4100    0.0030 C   0  0  0  0  0  0  0  0  0  0  0  0
   -0.0117   -2.4041    0.0062 H   0  0  0  0  0  0  0  0  0  0  0  0
    1.2102   -0.7125    0.0000 C   0  0  0  0  0  0  0  0  0  0  0  0
    2.0873   -1.2021    0.0010 H   0  0  0  0  0  0  0  0  0  0  0  0
    1.2032    0.7009   -0.0029 C   0  0  0  0  0  0  0  0  0  0  0  0
    2.0725    1.1897   -0.0060 H   0  0  0  0  0  0  0  0  0  0  0  0
  1  5  1  0
  5  6  2  0
  5  7  1  0
  1  2  1  0
  1  3  1  0
  1  4  1  0
  8 12  1  0
 12 13  2  0
 13 15  1  0
 15 17  2  0
 17 19  1  0
 19 21  2  0
 21 12  1  0
  8  9  1  0
  8 10  1  0
  8 11  1  0
 13 14  1  0
 15 16  1  0
 17 18  1  0
 19 20  1  0
 21 22  1  0
M  CHG  1   7  -1
V    7 [O&-]
M  END
>  <PDB_ID>  (2921) 
pdb2jk0

>  <RESIDUE_NAME>  (2921) 
GLU   PHE

>  <FRAG_NAME>  (2921) 
ACET   MBZ

>  <FRAG_ATOM_NUM>  (2921) 
fragi: 7 fragj: 15

>  <atom.prop.CHAIN_ID>  (2921) 
A A A A A A A Z Z Z Z Z Z Z Z Z Z Z Z Z Z Z

>  <atom.prop.IS_HEAVY_ATOM>  (2921) 
1 0 0 0 1 1 1 1 0 0 0 1 1 0 1 0 1 0 1 0 1 0

>  <DIFUSE_FUNC_ATOM>  (2921) 
n/a

>  <FINAL_SINGLE_POINT_ENERGY>  (2921) 
0

>  <NONCOV_INTER_ENERGY_QM>  (2921) 
0

>  <FF_Energy>  (2921) 
0.08

>  <QM_Energy>  (2921) 
-6.5

>  <source>  (2921) 
ACET_MBZ_03

>  <Index>  (2921) 
14074

$$$$
ACEH-pdb1j8h-A-GLH-21:MBZ-pdb1j8h-A-PHE-137
     RDKit          3D

 22 21  0  0  0  0  0  0  0  0999 V2000
   -5.1321    4.8302   -1.1295 C   0  0  0  0  0  0  0  0  0  0  0  0
   -5.4585    5.7373   -0.9192 H   0  0  0  0  0  0  0  0  0  0  0  0
   -5.7293    4.1340   -0.7674 H   0  0  0  0  0  0  0  0  0  0  0  0
   -5.0756    4.7188   -2.2124 H   0  0  0  0  0  0  0  0  0  0  0  0
   -3.7908    4.6671   -0.4536 C   0  0  0  0  0  0  0  0  0  0  0  0
   -3.4757    3.5284   -0.0347 O   0  0  0  0  0  0  0  0  0  0  0  0
   -3.0573    5.6757   -0.3507 O   0  0  0  0  0  0  0  0  0  0  0  0
   -0.0054    2.8921    0.0962 C   0  0  0  0  0  0  0  0  0  0  0  0
   -0.7393    3.2372   -0.4674 H   0  0  0  0  0  0  0  0  0  0  0  0
    0.8730    3.2254   -0.2090 H   0  0  0  0  0  0  0  0  0  0  0  0
   -0.1653    3.2589    1.1102 H   0  0  0  0  0  0  0  0  0  0  0  0
   -0.0012    1.4045    0.0025 C   0  0  0  0  0  0  0  0  0  0  0  0
   -1.2005    0.6916    0.0004 C   0  0  0  0  0  0  0  0  0  0  0  0
   -2.0676    1.1792   -0.0024 H   0  0  0  0  0  0  0  0  0  0  0  0
   -1.2058   -0.7082    0.0000 C   0  0  0  0  0  0  0  0  0  0  0  0
   -2.0782   -1.1994    0.0007 H   0  0  0  0  0  0  0  0  0  0  0  0
    0.0031   -1.4013    0.0004 C   0  0  0  0  0  0  0  0  0  0  0  0
    0.0076   -2.3966   -0.0001 H   0  0  0  0  0  0  0  0  0  0  0  0
    1.2058   -0.6909    0.0000 C   0  0  0  0  0  0  0  0  0  0  0  0
    2.0894   -1.1860    0.0039 H   0  0  0  0  0  0  0  0  0  0  0  0
    1.1986    0.7043   -0.0033 C   0  0  0  0  0  0  0  0  0  0  0  0
    2.0643    1.2010   -0.0107 H   0  0  0  0  0  0  0  0  0  0  0  0
  1  5  1  0
  5  6  2  0
  5  7  1  0
  1  2  1  0
  1  3  1  0
  1  4  1  0
  8 12  1  0
 12 13  2  0
 13 15  1  0
 15 17  2  0
 17 19  1  0
 19 21  2  0
 21 12  1  0
  8  9  1  0
  8 10  1  0
  8 11  1  0
 13 14  1  0
 15 16  1  0
 17 18  1  0
 19 20  1  0
 21 22  1  0
M  CHG  1   7  -1
V    7 [O&-]
M  END
>  <PDB_ID>  (2922) 
pdb1j8h

>  <RESIDUE_NAME>  (2922) 
GLU   PHE

>  <FRAG_NAME>  (2922) 
ACET   MBZ

>  <FRAG_ATOM_NUM>  (2922) 
fragi: 7 fragj: 15

>  <atom.prop.CHAIN_ID>  (2922) 
A A A A A A A Z Z Z Z Z Z Z Z Z Z Z Z Z Z Z

>  <atom.prop.IS_HEAVY_ATOM>  (2922) 
1 0 0 0 1 1 1 1 0 0 0 1 1 0 1 0 1 0 1 0 1 0

>  <DIFUSE_FUNC_ATOM>  (2922) 
n/a

>  <FINAL_SINGLE_POINT_ENERGY>  (2922) 
0

>  <NONCOV_INTER_ENERGY_QM>  (2922) 
0

>  <FF_Energy>  (2922) 
-2.37

>  <QM_Energy>  (2922) 
-7.6

>  <source>  (2922) 
ACET_MBZ_03

>  <Index>  (2922) 
14129

$$$$
ACEH-pdb3hlb-A-ASH-255:MBZ-pdb3hlb-B-PHE-259
     RDKit          3D

 22 21  0  0  0  0  0  0  0  0999 V2000
    2.7980   -4.0224    2.4426 C   0  0  0  0  0  0  0  0  0  0  0  0
    3.0553   -4.9664    2.2588 H   0  0  0  0  0  0  0  0  0  0  0  0
    1.8136   -3.9512    2.5645 H   0  0  0  0  0  0  0  0  0  0  0  0
    3.2714   -3.7249    3.3783 H   0  0  0  0  0  0  0  0  0  0  0  0
    3.2122   -3.1637    1.2691 C   0  0  0  0  0  0  0  0  0  0  0  0
    3.9994   -2.2144    1.4569 O   0  0  0  0  0  0  0  0  0  0  0  0
    2.7390   -3.4393    0.1507 O   0  0  0  0  0  0  0  0  0  0  0  0
    0.0046    2.8899    0.0011 C   0  0  0  0  0  0  0  0  0  0  0  0
    0.9099    3.1953    0.2633 H   0  0  0  0  0  0  0  0  0  0  0  0
   -0.6767    3.1979    0.6510 H   0  0  0  0  0  0  0  0  0  0  0  0
   -0.2307    3.3365   -0.9649 H   0  0  0  0  0  0  0  0  0  0  0  0
    0.0005    1.3946   -0.0032 C   0  0  0  0  0  0  0  0  0  0  0  0
   -1.1946    0.6890    0.0015 C   0  0  0  0  0  0  0  0  0  0  0  0
   -2.0611    1.1792    0.0051 H   0  0  0  0  0  0  0  0  0  0  0  0
   -1.1965   -0.6982   -0.0000 C   0  0  0  0  0  0  0  0  0  0  0  0
   -2.0734   -1.1936   -0.0010 H   0  0  0  0  0  0  0  0  0  0  0  0
    0.0018   -1.3873    0.0015 C   0  0  0  0  0  0  0  0  0  0  0  0
    0.0030   -2.3875    0.0037 H   0  0  0  0  0  0  0  0  0  0  0  0
    1.1965   -0.6879    0.0000 C   0  0  0  0  0  0  0  0  0  0  0  0
    2.0808   -1.1897    0.0006 H   0  0  0  0  0  0  0  0  0  0  0  0
    1.1924    0.6899    0.0003 C   0  0  0  0  0  0  0  0  0  0  0  0
    2.0610    1.1905    0.0019 H   0  0  0  0  0  0  0  0  0  0  0  0
  1  5  1  0
  5  6  2  0
  5  7  1  0
  1  2  1  0
  1  3  1  0
  1  4  1  0
  8 12  1  0
 12 13  2  0
 13 15  1  0
 15 17  2  0
 17 19  1  0
 19 21  2  0
 21 12  1  0
  8  9  1  0
  8 10  1  0
  8 11  1  0
 13 14  1  0
 15 16  1  0
 17 18  1  0
 19 20  1  0
 21 22  1  0
M  CHG  1   7  -1
V    7 [O&-]
M  END
>  <PDB_ID>  (2923) 
pdb3hlb

>  <RESIDUE_NAME>  (2923) 
ASP   PHE

>  <FRAG_NAME>  (2923) 
ACET   MBZ

>  <FRAG_ATOM_NUM>  (2923) 
fragi: 7 fragj: 15

>  <atom.prop.CHAIN_ID>  (2923) 
A A A A A A A Z Z Z Z Z Z Z Z Z Z Z Z Z Z Z

>  <atom.prop.IS_HEAVY_ATOM>  (2923) 
1 0 0 0 1 1 1 1 0 0 0 1 1 0 1 0 1 0 1 0 1 0

>  <DIFUSE_FUNC_ATOM>  (2923) 
n/a

>  <FINAL_SINGLE_POINT_ENERGY>  (2923) 
0

>  <NONCOV_INTER_ENERGY_QM>  (2923) 
0

>  <FF_Energy>  (2923) 
-2.12

>  <QM_Energy>  (2923) 
-7.43

>  <source>  (2923) 
ACET_MBZ_03

>  <Index>  (2923) 
14150

$$$$
ACEH-pdb3hm2-C-ASH-28:MBZ-pdb3hm2-C-PHE-96
     RDKit          3D

 22 21  0  0  0  0  0  0  0  0999 V2000
    4.3050    4.4043   -0.8959 C   0  0  0  0  0  0  0  0  0  0  0  0
    3.7541    4.6124   -1.6973 H   0  0  0  0  0  0  0  0  0  0  0  0
    5.2180    4.7852   -0.9967 H   0  0  0  0  0  0  0  0  0  0  0  0
    3.8361    4.8778   -0.0333 H   0  0  0  0  0  0  0  0  0  0  0  0
    4.4285    2.8729   -0.7788 C   0  0  0  0  0  0  0  0  0  0  0  0
    5.1956    2.2774   -1.5749 O   0  0  0  0  0  0  0  0  0  0  0  0
    3.7728    2.2555    0.0863 O   0  0  0  0  0  0  0  0  0  0  0  0
   -0.0147    2.9295    0.0178 C   0  0  0  0  0  0  0  0  0  0  0  0
   -0.6140    3.2338   -0.7013 H   0  0  0  0  0  0  0  0  0  0  0  0
    0.9084    3.2459   -0.1114 H   0  0  0  0  0  0  0  0  0  0  0  0
   -0.3799    3.3534    0.9532 H   0  0  0  0  0  0  0  0  0  0  0  0
    0.0008    1.4163    0.0063 C   0  0  0  0  0  0  0  0  0  0  0  0
   -1.1970    0.6847   -0.0004 C   0  0  0  0  0  0  0  0  0  0  0  0
   -2.0689    1.1714   -0.0070 H   0  0  0  0  0  0  0  0  0  0  0  0
   -1.2071   -0.7210   -0.0000 C   0  0  0  0  0  0  0  0  0  0  0  0
   -2.0804   -1.2065    0.0079 H   0  0  0  0  0  0  0  0  0  0  0  0
   -0.0014   -1.4064   -0.0079 C   0  0  0  0  0  0  0  0  0  0  0  0
    0.0130   -2.4012   -0.0202 H   0  0  0  0  0  0  0  0  0  0  0  0
    1.2071   -0.6888    0.0000 C   0  0  0  0  0  0  0  0  0  0  0  0
    2.0895   -1.1808    0.0061 H   0  0  0  0  0  0  0  0  0  0  0  0
    1.1977    0.7152    0.0021 C   0  0  0  0  0  0  0  0  0  0  0  0
    2.0654    1.2074   -0.0005 H   0  0  0  0  0  0  0  0  0  0  0  0
  1  5  1  0
  5  6  2  0
  5  7  1  0
  1  2  1  0
  1  3  1  0
  1  4  1  0
  8 12  1  0
 12 13  2  0
 13 15  1  0
 15 17  2  0
 17 19  1  0
 19 21  2  0
 21 12  1  0
  8  9  1  0
  8 10  1  0
  8 11  1  0
 13 14  1  0
 15 16  1  0
 17 18  1  0
 19 20  1  0
 21 22  1  0
M  CHG  1   7  -1
V    7 [O&-]
M  END
>  <PDB_ID>  (2924) 
pdb3hm2

>  <RESIDUE_NAME>  (2924) 
ASP   PHE

>  <FRAG_NAME>  (2924) 
ACET   MBZ

>  <FRAG_ATOM_NUM>  (2924) 
fragi: 7 fragj: 15

>  <atom.prop.CHAIN_ID>  (2924) 
A A A A A A A Z Z Z Z Z Z Z Z Z Z Z Z Z Z Z

>  <atom.prop.IS_HEAVY_ATOM>  (2924) 
1 0 0 0 1 1 1 1 0 0 0 1 1 0 1 0 1 0 1 0 1 0

>  <DIFUSE_FUNC_ATOM>  (2924) 
n/a

>  <FINAL_SINGLE_POINT_ENERGY>  (2924) 
0

>  <NONCOV_INTER_ENERGY_QM>  (2924) 
0

>  <FF_Energy>  (2924) 
4.57

>  <QM_Energy>  (2924) 
-7.5

>  <source>  (2924) 
ACET_MBZ_03

>  <Index>  (2924) 
14168

$$$$
ACEH-pdb5nny-A-ASH-127:MBZ-pdb5nny-A-PHE-183
     RDKit          3D

 22 21  0  0  0  0  0  0  0  0999 V2000
   -5.0772    4.2530    0.0559 C   0  0  0  0  0  0  0  0  0  0  0  0
   -4.7230    3.7251    0.8182 H   0  0  0  0  0  0  0  0  0  0  0  0
   -5.7156    3.7132   -0.4772 H   0  0  0  0  0  0  0  0  0  0  0  0
   -5.6137    5.1119    0.4592 H   0  0  0  0  0  0  0  0  0  0  0  0
   -3.9213    4.6630   -0.8328 C   0  0  0  0  0  0  0  0  0  0  0  0
   -2.9845    3.8290   -1.0165 O   0  0  0  0  0  0  0  0  0  0  0  0
   -3.9353    5.8257   -1.3053 O   0  0  0  0  0  0  0  0  0  0  0  0
    0.0194    2.9122   -0.0186 C   0  0  0  0  0  0  0  0  0  0  0  0
   -0.4959    3.2094   -0.8106 H   0  0  0  0  0  0  0  0  0  0  0  0
    0.9666    3.1987   -0.0840 H   0  0  0  0  0  0  0  0  0  0  0  0
   -0.4137    3.3902    0.8600 H   0  0  0  0  0  0  0  0  0  0  0  0
   -0.0047    1.3997    0.0068 C   0  0  0  0  0  0  0  0  0  0  0  0
   -1.1988    0.6980   -0.0163 C   0  0  0  0  0  0  0  0  0  0  0  0
   -2.0655    1.1861   -0.0462 H   0  0  0  0  0  0  0  0  0  0  0  0
   -1.2016   -0.6931    0.0000 C   0  0  0  0  0  0  0  0  0  0  0  0
   -2.0739   -1.1897    0.0138 H   0  0  0  0  0  0  0  0  0  0  0  0
    0.0071   -1.3871   -0.0012 C   0  0  0  0  0  0  0  0  0  0  0  0
   -0.0008   -2.3886   -0.0036 H   0  0  0  0  0  0  0  0  0  0  0  0
    1.2016   -0.6955   -0.0000 C   0  0  0  0  0  0  0  0  0  0  0  0
    2.0840   -1.1982   -0.0055 H   0  0  0  0  0  0  0  0  0  0  0  0
    1.1963    0.6781    0.0108 C   0  0  0  0  0  0  0  0  0  0  0  0
    2.0629    1.1851    0.0216 H   0  0  0  0  0  0  0  0  0  0  0  0
  1  5  1  0
  5  6  2  0
  5  7  1  0
  1  2  1  0
  1  3  1  0
  1  4  1  0
  8 12  1  0
 12 13  2  0
 13 15  1  0
 15 17  2  0
 17 19  1  0
 19 21  2  0
 21 12  1  0
  8  9  1  0
  8 10  1  0
  8 11  1  0
 13 14  1  0
 15 16  1  0
 17 18  1  0
 19 20  1  0
 21 22  1  0
M  CHG  1   7  -1
V    7 [O&-]
M  END
>  <PDB_ID>  (2925) 
pdb5nny

>  <RESIDUE_NAME>  (2925) 
ASP   PHE

>  <FRAG_NAME>  (2925) 
ACET   MBZ

>  <FRAG_ATOM_NUM>  (2925) 
fragi: 7 fragj: 15

>  <atom.prop.CHAIN_ID>  (2925) 
A A A A A A A Z Z Z Z Z Z Z Z Z Z Z Z Z Z Z

>  <atom.prop.IS_HEAVY_ATOM>  (2925) 
1 0 0 0 1 1 1 1 0 0 0 1 1 0 1 0 1 0 1 0 1 0

>  <DIFUSE_FUNC_ATOM>  (2925) 
n/a

>  <FINAL_SINGLE_POINT_ENERGY>  (2925) 
0

>  <NONCOV_INTER_ENERGY_QM>  (2925) 
0

>  <FF_Energy>  (2925) 
-1.6

>  <QM_Energy>  (2925) 
-6.66

>  <source>  (2925) 
ACET_MBZ_03

>  <Index>  (2925) 
14182

$$$$
ACEH-pdb5nq8-A-ASH-227:MBZ-pdb5nq8-A-PHE-286
     RDKit          3D

 22 21  0  0  0  0  0  0  0  0999 V2000
    1.9030   -5.3126   -1.7736 C   0  0  0  0  0  0  0  0  0  0  0  0
    2.4448   -6.1203   -1.5807 H   0  0  0  0  0  0  0  0  0  0  0  0
    2.4280   -4.6498   -2.2892 H   0  0  0  0  0  0  0  0  0  0  0  0
    1.0698   -5.6256   -2.4027 H   0  0  0  0  0  0  0  0  0  0  0  0
    1.4679   -4.6762   -0.4432 C   0  0  0  0  0  0  0  0  0  0  0  0
    2.3762   -4.2985    0.3792 O   0  0  0  0  0  0  0  0  0  0  0  0
    0.2331   -4.5826   -0.2002 O   0  0  0  0  0  0  0  0  0  0  0  0
   -0.0179    2.8886   -0.0348 C   0  0  0  0  0  0  0  0  0  0  0  0
    0.8215    3.2255    0.3532 H   0  0  0  0  0  0  0  0  0  0  0  0
   -0.8083    3.2094    0.4568 H   0  0  0  0  0  0  0  0  0  0  0  0
   -0.0866    3.2690   -1.0540 H   0  0  0  0  0  0  0  0  0  0  0  0
   -0.0004    1.4071    0.0091 C   0  0  0  0  0  0  0  0  0  0  0  0
   -1.2047    0.6908   -0.0009 C   0  0  0  0  0  0  0  0  0  0  0  0
   -2.0686    1.1817   -0.0096 H   0  0  0  0  0  0  0  0  0  0  0  0
   -1.2071   -0.7029   -0.0000 C   0  0  0  0  0  0  0  0  0  0  0  0
   -2.0787   -1.1993   -0.0035 H   0  0  0  0  0  0  0  0  0  0  0  0
    0.0036   -1.3948    0.0075 C   0  0  0  0  0  0  0  0  0  0  0  0
   -0.0027   -2.3967    0.0183 H   0  0  0  0  0  0  0  0  0  0  0  0
    1.2071   -0.7042    0.0000 C   0  0  0  0  0  0  0  0  0  0  0  0
    2.0875   -1.1932    0.0072 H   0  0  0  0  0  0  0  0  0  0  0  0
    1.2015    0.7039   -0.0157 C   0  0  0  0  0  0  0  0  0  0  0  0
    2.0671    1.1937   -0.0461 H   0  0  0  0  0  0  0  0  0  0  0  0
  1  5  1  0
  5  6  2  0
  5  7  1  0
  1  2  1  0
  1  3  1  0
  1  4  1  0
  8 12  1  0
 12 13  2  0
 13 15  1  0
 15 17  2  0
 17 19  1  0
 19 21  2  0
 21 12  1  0
  8  9  1  0
  8 10  1  0
  8 11  1  0
 13 14  1  0
 15 16  1  0
 17 18  1  0
 19 20  1  0
 21 22  1  0
M  CHG  1   7  -1
V    7 [O&-]
M  END
>  <PDB_ID>  (2926) 
pdb5nq8

>  <RESIDUE_NAME>  (2926) 
ASP   PHE

>  <FRAG_NAME>  (2926) 
ACET   MBZ

>  <FRAG_ATOM_NUM>  (2926) 
fragi: 7 fragj: 15

>  <atom.prop.CHAIN_ID>  (2926) 
A A A A A A A Z Z Z Z Z Z Z Z Z Z Z Z Z Z Z

>  <atom.prop.IS_HEAVY_ATOM>  (2926) 
1 0 0 0 1 1 1 1 0 0 0 1 1 0 1 0 1 0 1 0 1 0

>  <DIFUSE_FUNC_ATOM>  (2926) 
n/a

>  <FINAL_SINGLE_POINT_ENERGY>  (2926) 
0

>  <NONCOV_INTER_ENERGY_QM>  (2926) 
0

>  <FF_Energy>  (2926) 
-1.72

>  <QM_Energy>  (2926) 
-7.02

>  <source>  (2926) 
ACET_MBZ_03

>  <Index>  (2926) 
14229

$$$$
ACEH-pdb3hp7-A-ASH-88:MBZ-pdb3hp7-A-PHE-96
     RDKit          3D

 22 21  0  0  0  0  0  0  0  0999 V2000
    3.6420    5.4588   -1.9885 C   0  0  0  0  0  0  0  0  0  0  0  0
    3.5663    5.7658   -1.0370 H   0  0  0  0  0  0  0  0  0  0  0  0
    3.6213    6.2571   -2.5933 H   0  0  0  0  0  0  0  0  0  0  0  0
    4.6034    4.9601   -2.1114 H   0  0  0  0  0  0  0  0  0  0  0  0
    2.4655    4.5858   -2.3056 C   0  0  0  0  0  0  0  0  0  0  0  0
    1.3415    5.1194   -2.3182 O   0  0  0  0  0  0  0  0  0  0  0  0
    2.6440    3.3938   -2.5139 O   0  0  0  0  0  0  0  0  0  0  0  0
    0.0924    2.9103   -0.0369 C   0  0  0  0  0  0  0  0  0  0  0  0
    0.2230    3.1728   -0.9975 H   0  0  0  0  0  0  0  0  0  0  0  0
    0.9076    3.1737    0.4851 H   0  0  0  0  0  0  0  0  0  0  0  0
   -0.7578    3.4681    0.3557 H   0  0  0  0  0  0  0  0  0  0  0  0
    0.0079    1.3982    0.0036 C   0  0  0  0  0  0  0  0  0  0  0  0
   -1.1819    0.6971    0.0074 C   0  0  0  0  0  0  0  0  0  0  0  0
   -2.0488    1.1809    0.0138 H   0  0  0  0  0  0  0  0  0  0  0  0
   -1.1697   -0.6858   -0.0000 C   0  0  0  0  0  0  0  0  0  0  0  0
   -2.0652   -1.1771    0.0044 H   0  0  0  0  0  0  0  0  0  0  0  0
   -0.0064   -1.3692   -0.0108 C   0  0  0  0  0  0  0  0  0  0  0  0
   -0.0143   -2.3798   -0.0273 H   0  0  0  0  0  0  0  0  0  0  0  0
    1.1697   -0.6980   -0.0000 C   0  0  0  0  0  0  0  0  0  0  0  0
    2.0578   -1.2106    0.0103 H   0  0  0  0  0  0  0  0  0  0  0  0
    1.1804    0.6577   -0.0002 C   0  0  0  0  0  0  0  0  0  0  0  0
    2.0632    1.1564   -0.0040 H   0  0  0  0  0  0  0  0  0  0  0  0
  1  5  1  0
  5  6  2  0
  5  7  1  0
  1  2  1  0
  1  3  1  0
  1  4  1  0
  8 12  1  0
 12 13  2  0
 13 15  1  0
 15 17  2  0
 17 19  1  0
 19 21  2  0
 21 12  1  0
  8  9  1  0
  8 10  1  0
  8 11  1  0
 13 14  1  0
 15 16  1  0
 17 18  1  0
 19 20  1  0
 21 22  1  0
M  CHG  1   7  -1
V    7 [O&-]
M  END
>  <PDB_ID>  (2927) 
pdb3hp7

>  <RESIDUE_NAME>  (2927) 
ASP   PHE

>  <FRAG_NAME>  (2927) 
ACET   MBZ

>  <FRAG_ATOM_NUM>  (2927) 
fragi: 7 fragj: 15

>  <atom.prop.CHAIN_ID>  (2927) 
A A A A A A A Z Z Z Z Z Z Z Z Z Z Z Z Z Z Z

>  <atom.prop.IS_HEAVY_ATOM>  (2927) 
1 0 0 0 1 1 1 1 0 0 0 1 1 0 1 0 1 0 1 0 1 0

>  <DIFUSE_FUNC_ATOM>  (2927) 
n/a

>  <FINAL_SINGLE_POINT_ENERGY>  (2927) 
0

>  <NONCOV_INTER_ENERGY_QM>  (2927) 
0

>  <FF_Energy>  (2927) 
-1.2

>  <QM_Energy>  (2927) 
-6.57

>  <source>  (2927) 
ACET_MBZ_03

>  <Index>  (2927) 
14248

$$$$
ACEH-pdb4lo0-A-GLH-46:MBZ-pdb4lo0-A-PHE-27
     RDKit          3D

 22 21  0  0  0  0  0  0  0  0999 V2000
   -1.0739    4.8053    3.4010 C   0  0  0  0  0  0  0  0  0  0  0  0
   -1.0600    5.3431    2.5734 H   0  0  0  0  0  0  0  0  0  0  0  0
   -0.9599    5.3686    4.2027 H   0  0  0  0  0  0  0  0  0  0  0  0
   -2.0432    4.3110    3.4674 H   0  0  0  0  0  0  0  0  0  0  0  0
    0.0935    3.8459    3.3454 C   0  0  0  0  0  0  0  0  0  0  0  0
   -0.1447    2.6065    3.3915 O   0  0  0  0  0  0  0  0  0  0  0  0
    1.2544    4.3413    3.2658 O   0  0  0  0  0  0  0  0  0  0  0  0
    0.0013    2.9200   -0.0017 C   0  0  0  0  0  0  0  0  0  0  0  0
    0.6819    3.2278    0.6385 H   0  0  0  0  0  0  0  0  0  0  0  0
   -0.9026    3.2209    0.2427 H   0  0  0  0  0  0  0  0  0  0  0  0
    0.2421    3.3464   -0.9755 H   0  0  0  0  0  0  0  0  0  0  0  0
    0.0057    1.4005    0.0075 C   0  0  0  0  0  0  0  0  0  0  0  0
   -1.1923    0.6929   -0.0060 C   0  0  0  0  0  0  0  0  0  0  0  0
   -2.0592    1.1787   -0.0218 H   0  0  0  0  0  0  0  0  0  0  0  0
   -1.1994   -0.7090   -0.0000 C   0  0  0  0  0  0  0  0  0  0  0  0
   -2.0792   -1.1928    0.0113 H   0  0  0  0  0  0  0  0  0  0  0  0
   -0.0069   -1.3918   -0.0074 C   0  0  0  0  0  0  0  0  0  0  0  0
    0.0036   -2.3923   -0.0186 H   0  0  0  0  0  0  0  0  0  0  0  0
    1.1994   -0.6886   -0.0000 C   0  0  0  0  0  0  0  0  0  0  0  0
    2.0788   -1.1910    0.0030 H   0  0  0  0  0  0  0  0  0  0  0  0
    1.1935    0.6960    0.0059 C   0  0  0  0  0  0  0  0  0  0  0  0
    2.0653    1.1925    0.0082 H   0  0  0  0  0  0  0  0  0  0  0  0
  1  5  1  0
  5  6  2  0
  5  7  1  0
  1  2  1  0
  1  3  1  0
  1  4  1  0
  8 12  1  0
 12 13  2  0
 13 15  1  0
 15 17  2  0
 17 19  1  0
 19 21  2  0
 21 12  1  0
  8  9  1  0
  8 10  1  0
  8 11  1  0
 13 14  1  0
 15 16  1  0
 17 18  1  0
 19 20  1  0
 21 22  1  0
M  CHG  1   7  -1
V    7 [O&-]
M  END
>  <PDB_ID>  (2928) 
pdb4lo0

>  <RESIDUE_NAME>  (2928) 
GLU   PHE

>  <FRAG_NAME>  (2928) 
ACET   MBZ

>  <FRAG_ATOM_NUM>  (2928) 
fragi: 7 fragj: 15

>  <atom.prop.CHAIN_ID>  (2928) 
A A A A A A A Z Z Z Z Z Z Z Z Z Z Z Z Z Z Z

>  <atom.prop.IS_HEAVY_ATOM>  (2928) 
1 0 0 0 1 1 1 1 0 0 0 1 1 0 1 0 1 0 1 0 1 0

>  <DIFUSE_FUNC_ATOM>  (2928) 
n/a

>  <FINAL_SINGLE_POINT_ENERGY>  (2928) 
0

>  <NONCOV_INTER_ENERGY_QM>  (2928) 
0

>  <FF_Energy>  (2928) 
1.04

>  <QM_Energy>  (2928) 
-4.09

>  <source>  (2928) 
ACET_MBZ_03

>  <Index>  (2928) 
14321

$$$$
ACEH-pdb6rck-C-ASH-299:MBZ-pdb6rck-C-PHE-111
     RDKit          3D

 22 21  0  0  0  0  0  0  0  0999 V2000
    4.8602    4.3386    2.0339 C   0  0  0  0  0  0  0  0  0  0  0  0
    4.0733    4.4090    2.6350 H   0  0  0  0  0  0  0  0  0  0  0  0
    5.1531    5.2398    1.7369 H   0  0  0  0  0  0  0  0  0  0  0  0
    5.6758    3.8937    2.6038 H   0  0  0  0  0  0  0  0  0  0  0  0
    4.4915    3.5177    0.8320 C   0  0  0  0  0  0  0  0  0  0  0  0
    3.6788    2.5874    0.9915 O   0  0  0  0  0  0  0  0  0  0  0  0
    5.0160    3.8067   -0.2662 O   0  0  0  0  0  0  0  0  0  0  0  0
   -0.0276    2.9117   -0.0115 C   0  0  0  0  0  0  0  0  0  0  0  0
    0.9017    3.2335   -0.0116 H   0  0  0  0  0  0  0  0  0  0  0  0
   -0.5286    3.2233    0.7763 H   0  0  0  0  0  0  0  0  0  0  0  0
   -0.5188    3.3129   -0.8980 H   0  0  0  0  0  0  0  0  0  0  0  0
   -0.0035    1.4079    0.0124 C   0  0  0  0  0  0  0  0  0  0  0  0
   -1.1961    0.6898    0.0014 C   0  0  0  0  0  0  0  0  0  0  0  0
   -2.0665    1.1754   -0.0070 H   0  0  0  0  0  0  0  0  0  0  0  0
   -1.1982   -0.7057    0.0000 C   0  0  0  0  0  0  0  0  0  0  0  0
   -2.0707   -1.2010    0.0042 H   0  0  0  0  0  0  0  0  0  0  0  0
    0.0100   -1.3972   -0.0062 C   0  0  0  0  0  0  0  0  0  0  0  0
    0.0033   -2.3979   -0.0162 H   0  0  0  0  0  0  0  0  0  0  0  0
    1.1982   -0.7025   -0.0000 C   0  0  0  0  0  0  0  0  0  0  0  0
    2.0875   -1.1843    0.0118 H   0  0  0  0  0  0  0  0  0  0  0  0
    1.1896    0.7076   -0.0077 C   0  0  0  0  0  0  0  0  0  0  0  0
    2.0600    1.1949   -0.0288 H   0  0  0  0  0  0  0  0  0  0  0  0
  1  5  1  0
  5  6  2  0
  5  7  1  0
  1  2  1  0
  1  3  1  0
  1  4  1  0
  8 12  1  0
 12 13  2  0
 13 15  1  0
 15 17  2  0
 17 19  1  0
 19 21  2  0
 21 12  1  0
  8  9  1  0
  8 10  1  0
  8 11  1  0
 13 14  1  0
 15 16  1  0
 17 18  1  0
 19 20  1  0
 21 22  1  0
M  CHG  1   7  -1
V    7 [O&-]
M  END
>  <PDB_ID>  (2929) 
pdb6rck

>  <RESIDUE_NAME>  (2929) 
ASP   PHE

>  <FRAG_NAME>  (2929) 
ACET   MBZ

>  <FRAG_ATOM_NUM>  (2929) 
fragi: 7 fragj: 15

>  <atom.prop.CHAIN_ID>  (2929) 
A A A A A A A Z Z Z Z Z Z Z Z Z Z Z Z Z Z Z

>  <atom.prop.IS_HEAVY_ATOM>  (2929) 
1 0 0 0 1 1 1 1 0 0 0 1 1 0 1 0 1 0 1 0 1 0

>  <DIFUSE_FUNC_ATOM>  (2929) 
n/a

>  <FINAL_SINGLE_POINT_ENERGY>  (2929) 
0

>  <NONCOV_INTER_ENERGY_QM>  (2929) 
0

>  <FF_Energy>  (2929) 
-1.81

>  <QM_Energy>  (2929) 
-7.35

>  <source>  (2929) 
ACET_MBZ_03

>  <Index>  (2929) 
14340

$$$$
ACEH-pdb6rck-A-ASH-299:MBZ-pdb6rck-A-PHE-111
     RDKit          3D

 22 21  0  0  0  0  0  0  0  0999 V2000
    5.3719    3.9512    1.4883 C   0  0  0  0  0  0  0  0  0  0  0  0
    4.6798    4.1490    2.1734 H   0  0  0  0  0  0  0  0  0  0  0  0
    5.7458    4.7943    1.1197 H   0  0  0  0  0  0  0  0  0  0  0  0
    6.1823    3.4103    1.9771 H   0  0  0  0  0  0  0  0  0  0  0  0
    4.7426    3.1620    0.3695 C   0  0  0  0  0  0  0  0  0  0  0  0
    3.8017    2.3951    0.6557 O   0  0  0  0  0  0  0  0  0  0  0  0
    5.1843    3.3177   -0.7937 O   0  0  0  0  0  0  0  0  0  0  0  0
   -0.0026    2.9294   -0.0106 C   0  0  0  0  0  0  0  0  0  0  0  0
    0.9350    3.2296   -0.0197 H   0  0  0  0  0  0  0  0  0  0  0  0
   -0.4806    3.2364    0.7932 H   0  0  0  0  0  0  0  0  0  0  0  0
   -0.5021    3.3520   -0.8823 H   0  0  0  0  0  0  0  0  0  0  0  0
   -0.0004    1.4099    0.0052 C   0  0  0  0  0  0  0  0  0  0  0  0
   -1.1923    0.7018   -0.0065 C   0  0  0  0  0  0  0  0  0  0  0  0
   -2.0624    1.1837   -0.0206 H   0  0  0  0  0  0  0  0  0  0  0  0
   -1.1961   -0.7023    0.0000 C   0  0  0  0  0  0  0  0  0  0  0  0
   -2.0762   -1.1888    0.0051 H   0  0  0  0  0  0  0  0  0  0  0  0
    0.0022   -1.4017    0.0009 C   0  0  0  0  0  0  0  0  0  0  0  0
   -0.0023   -2.3986    0.0018 H   0  0  0  0  0  0  0  0  0  0  0  0
    1.1961   -0.7021   -0.0000 C   0  0  0  0  0  0  0  0  0  0  0  0
    2.0818   -1.1938    0.0006 H   0  0  0  0  0  0  0  0  0  0  0  0
    1.1904    0.6944    0.0004 C   0  0  0  0  0  0  0  0  0  0  0  0
    2.0629    1.1861   -0.0037 H   0  0  0  0  0  0  0  0  0  0  0  0
  1  5  1  0
  5  6  2  0
  5  7  1  0
  1  2  1  0
  1  3  1  0
  1  4  1  0
  8 12  1  0
 12 13  2  0
 13 15  1  0
 15 17  2  0
 17 19  1  0
 19 21  2  0
 21 12  1  0
  8  9  1  0
  8 10  1  0
  8 11  1  0
 13 14  1  0
 15 16  1  0
 17 18  1  0
 19 20  1  0
 21 22  1  0
M  CHG  1   7  -1
V    7 [O&-]
M  END
>  <PDB_ID>  (2930) 
pdb6rck

>  <RESIDUE_NAME>  (2930) 
ASP   PHE

>  <FRAG_NAME>  (2930) 
ACET   MBZ

>  <FRAG_ATOM_NUM>  (2930) 
fragi: 7 fragj: 15

>  <atom.prop.CHAIN_ID>  (2930) 
A A A A A A A Z Z Z Z Z Z Z Z Z Z Z Z Z Z Z

>  <atom.prop.IS_HEAVY_ATOM>  (2930) 
1 0 0 0 1 1 1 1 0 0 0 1 1 0 1 0 1 0 1 0 1 0

>  <DIFUSE_FUNC_ATOM>  (2930) 
n/a

>  <FINAL_SINGLE_POINT_ENERGY>  (2930) 
0

>  <NONCOV_INTER_ENERGY_QM>  (2930) 
0

>  <FF_Energy>  (2930) 
-0.93

>  <QM_Energy>  (2930) 
-7.63

>  <source>  (2930) 
ACET_MBZ_03

>  <Index>  (2930) 
14346

$$$$
ACEH-pdb4lrr-A-GLH-58:MBZ-pdb4lrr-A-PHE-176
     RDKit          3D

 22 21  0  0  0  0  0  0  0  0999 V2000
   -3.5472   -5.2276    0.4114 C   0  0  0  0  0  0  0  0  0  0  0  0
   -4.4000   -5.3062   -0.0741 H   0  0  0  0  0  0  0  0  0  0  0  0
   -3.4918   -5.8613    1.1635 H   0  0  0  0  0  0  0  0  0  0  0  0
   -2.7343   -5.4410   -0.2826 H   0  0  0  0  0  0  0  0  0  0  0  0
   -3.4667   -3.8406    0.9750 C   0  0  0  0  0  0  0  0  0  0  0  0
   -3.4365   -3.7246    2.2179 O   0  0  0  0  0  0  0  0  0  0  0  0
   -3.4280   -2.8792    0.1752 O   0  0  0  0  0  0  0  0  0  0  0  0
    0.0122    2.8845    0.0459 C   0  0  0  0  0  0  0  0  0  0  0  0
    0.8977    3.1793    0.3837 H   0  0  0  0  0  0  0  0  0  0  0  0
   -0.7126    3.1858    0.6531 H   0  0  0  0  0  0  0  0  0  0  0  0
   -0.1483    3.3573   -0.9230 H   0  0  0  0  0  0  0  0  0  0  0  0
   -0.0009    1.4015    0.0043 C   0  0  0  0  0  0  0  0  0  0  0  0
   -1.2077    0.6937    0.0094 C   0  0  0  0  0  0  0  0  0  0  0  0
   -2.0681    1.1874    0.0186 H   0  0  0  0  0  0  0  0  0  0  0  0
   -1.2083   -0.6935    0.0000 C   0  0  0  0  0  0  0  0  0  0  0  0
   -2.0805   -1.1930    0.0104 H   0  0  0  0  0  0  0  0  0  0  0  0
   -0.0014   -1.3850   -0.0226 C   0  0  0  0  0  0  0  0  0  0  0  0
   -0.0080   -2.3885   -0.0558 H   0  0  0  0  0  0  0  0  0  0  0  0
    1.2083   -0.6998    0.0000 C   0  0  0  0  0  0  0  0  0  0  0  0
    2.0819   -1.2075    0.0114 H   0  0  0  0  0  0  0  0  0  0  0  0
    1.2099    0.6831    0.0090 C   0  0  0  0  0  0  0  0  0  0  0  0
    2.0708    1.1859    0.0184 H   0  0  0  0  0  0  0  0  0  0  0  0
  1  5  1  0
  5  6  2  0
  5  7  1  0
  1  2  1  0
  1  3  1  0
  1  4  1  0
  8 12  1  0
 12 13  2  0
 13 15  1  0
 15 17  2  0
 17 19  1  0
 19 21  2  0
 21 12  1  0
  8  9  1  0
  8 10  1  0
  8 11  1  0
 13 14  1  0
 15 16  1  0
 17 18  1  0
 19 20  1  0
 21 22  1  0
M  CHG  1   7  -1
V    7 [O&-]
M  END
>  <PDB_ID>  (2931) 
pdb4lrr

>  <RESIDUE_NAME>  (2931) 
GLU   PHE

>  <FRAG_NAME>  (2931) 
ACET   MBZ

>  <FRAG_ATOM_NUM>  (2931) 
fragi: 7 fragj: 15

>  <atom.prop.CHAIN_ID>  (2931) 
A A A A A A A Z Z Z Z Z Z Z Z Z Z Z Z Z Z Z

>  <atom.prop.IS_HEAVY_ATOM>  (2931) 
1 0 0 0 1 1 1 1 0 0 0 1 1 0 1 0 1 0 1 0 1 0

>  <DIFUSE_FUNC_ATOM>  (2931) 
n/a

>  <FINAL_SINGLE_POINT_ENERGY>  (2931) 
0

>  <NONCOV_INTER_ENERGY_QM>  (2931) 
0

>  <FF_Energy>  (2931) 
-0.3

>  <QM_Energy>  (2931) 
-6.14

>  <source>  (2931) 
ACET_MBZ_03

>  <Index>  (2931) 
14373

$$$$
ACEH-pdb5o81-C-GLH-225:MBZ-pdb5o81-C-PHE-221
     RDKit          3D

 22 21  0  0  0  0  0  0  0  0999 V2000
    5.2498   -0.0814   -2.1282 C   0  0  0  0  0  0  0  0  0  0  0  0
    5.0652   -0.9853   -1.7952 H   0  0  0  0  0  0  0  0  0  0  0  0
    6.1731    0.2018   -1.9601 H   0  0  0  0  0  0  0  0  0  0  0  0
    5.0782   -0.0723   -3.2045 H   0  0  0  0  0  0  0  0  0  0  0  0
    4.3352    0.8739   -1.4053 C   0  0  0  0  0  0  0  0  0  0  0  0
    3.5374    1.5340   -2.0907 O   0  0  0  0  0  0  0  0  0  0  0  0
    4.4088    0.9779   -0.1609 O   0  0  0  0  0  0  0  0  0  0  0  0
   -0.0032    2.9142   -0.0280 C   0  0  0  0  0  0  0  0  0  0  0  0
    0.8396    3.2309    0.3779 H   0  0  0  0  0  0  0  0  0  0  0  0
   -0.7899    3.2250    0.4827 H   0  0  0  0  0  0  0  0  0  0  0  0
   -0.0693    3.3412   -1.0288 H   0  0  0  0  0  0  0  0  0  0  0  0
    0.0040    1.4028   -0.0001 C   0  0  0  0  0  0  0  0  0  0  0  0
   -1.1920    0.6782    0.0055 C   0  0  0  0  0  0  0  0  0  0  0  0
   -2.0605    1.1712    0.0123 H   0  0  0  0  0  0  0  0  0  0  0  0
   -1.1944   -0.7048   -0.0000 C   0  0  0  0  0  0  0  0  0  0  0  0
   -2.0767   -1.1979   -0.0019 H   0  0  0  0  0  0  0  0  0  0  0  0
   -0.0070   -1.3928   -0.0009 C   0  0  0  0  0  0  0  0  0  0  0  0
    0.0034   -2.3909   -0.0027 H   0  0  0  0  0  0  0  0  0  0  0  0
    1.1944   -0.6856   -0.0000 C   0  0  0  0  0  0  0  0  0  0  0  0
    2.0773   -1.1873    0.0060 H   0  0  0  0  0  0  0  0  0  0  0  0
    1.1950    0.7022   -0.0045 C   0  0  0  0  0  0  0  0  0  0  0  0
    2.0642    1.1951   -0.0112 H   0  0  0  0  0  0  0  0  0  0  0  0
  1  5  1  0
  5  6  2  0
  5  7  1  0
  1  2  1  0
  1  3  1  0
  1  4  1  0
  8 12  1  0
 12 13  2  0
 13 15  1  0
 15 17  2  0
 17 19  1  0
 19 21  2  0
 21 12  1  0
  8  9  1  0
  8 10  1  0
  8 11  1  0
 13 14  1  0
 15 16  1  0
 17 18  1  0
 19 20  1  0
 21 22  1  0
M  CHG  1   7  -1
V    7 [O&-]
M  END
>  <PDB_ID>  (2932) 
pdb5o81

>  <RESIDUE_NAME>  (2932) 
GLU   PHE

>  <FRAG_NAME>  (2932) 
ACET   MBZ

>  <FRAG_ATOM_NUM>  (2932) 
fragi: 7 fragj: 15

>  <atom.prop.CHAIN_ID>  (2932) 
A A A A A A A Z Z Z Z Z Z Z Z Z Z Z Z Z Z Z

>  <atom.prop.IS_HEAVY_ATOM>  (2932) 
1 0 0 0 1 1 1 1 0 0 0 1 1 0 1 0 1 0 1 0 1 0

>  <DIFUSE_FUNC_ATOM>  (2932) 
n/a

>  <FINAL_SINGLE_POINT_ENERGY>  (2932) 
0

>  <NONCOV_INTER_ENERGY_QM>  (2932) 
0

>  <FF_Energy>  (2932) 
-1.24

>  <QM_Energy>  (2932) 
-7.68

>  <source>  (2932) 
ACET_MBZ_03

>  <Index>  (2932) 
14423

$$$$
ACEH-pdb5o79-B-ASH-297:MBZ-pdb5o79-B-PHE-111
     RDKit          3D

 22 21  0  0  0  0  0  0  0  0999 V2000
    4.9125    4.7783    1.3263 C   0  0  0  0  0  0  0  0  0  0  0  0
    4.1952    4.9557    1.9849 H   0  0  0  0  0  0  0  0  0  0  0  0
    5.2272    5.6173    0.9070 H   0  0  0  0  0  0  0  0  0  0  0  0
    5.7541    4.3441    1.8661 H   0  0  0  0  0  0  0  0  0  0  0  0
    4.3983    3.8498    0.2649 C   0  0  0  0  0  0  0  0  0  0  0  0
    3.4868    3.0184    0.5842 O   0  0  0  0  0  0  0  0  0  0  0  0
    4.9436    3.9163   -0.8812 O   0  0  0  0  0  0  0  0  0  0  0  0
   -0.0323    2.8940   -0.0263 C   0  0  0  0  0  0  0  0  0  0  0  0
    0.8929    3.2224   -0.0919 H   0  0  0  0  0  0  0  0  0  0  0  0
   -0.4859    3.2197    0.7836 H   0  0  0  0  0  0  0  0  0  0  0  0
   -0.5772    3.2913   -0.8826 H   0  0  0  0  0  0  0  0  0  0  0  0
   -0.0113    1.4037    0.0028 C   0  0  0  0  0  0  0  0  0  0  0  0
   -1.1914    0.6796    0.0154 C   0  0  0  0  0  0  0  0  0  0  0  0
   -2.0682    1.1649    0.0351 H   0  0  0  0  0  0  0  0  0  0  0  0
   -1.1872   -0.7017    0.0000 C   0  0  0  0  0  0  0  0  0  0  0  0
   -2.0594   -1.2055   -0.0021 H   0  0  0  0  0  0  0  0  0  0  0  0
    0.0172   -1.3863   -0.0105 C   0  0  0  0  0  0  0  0  0  0  0  0
    0.0131   -2.3879   -0.0259 H   0  0  0  0  0  0  0  0  0  0  0  0
    1.1872   -0.6872   -0.0000 C   0  0  0  0  0  0  0  0  0  0  0  0
    2.0849   -1.1806    0.0155 H   0  0  0  0  0  0  0  0  0  0  0  0
    1.1856    0.6919   -0.0076 C   0  0  0  0  0  0  0  0  0  0  0  0
    2.0523    1.1926   -0.0221 H   0  0  0  0  0  0  0  0  0  0  0  0
  1  5  1  0
  5  6  2  0
  5  7  1  0
  1  2  1  0
  1  3  1  0
  1  4  1  0
  8 12  1  0
 12 13  2  0
 13 15  1  0
 15 17  2  0
 17 19  1  0
 19 21  2  0
 21 12  1  0
  8  9  1  0
  8 10  1  0
  8 11  1  0
 13 14  1  0
 15 16  1  0
 17 18  1  0
 19 20  1  0
 21 22  1  0
M  CHG  1   7  -1
V    7 [O&-]
M  END
>  <PDB_ID>  (2933) 
pdb5o79

>  <RESIDUE_NAME>  (2933) 
ASP   PHE

>  <FRAG_NAME>  (2933) 
ACET   MBZ

>  <FRAG_ATOM_NUM>  (2933) 
fragi: 7 fragj: 15

>  <atom.prop.CHAIN_ID>  (2933) 
A A A A A A A Z Z Z Z Z Z Z Z Z Z Z Z Z Z Z

>  <atom.prop.IS_HEAVY_ATOM>  (2933) 
1 0 0 0 1 1 1 1 0 0 0 1 1 0 1 0 1 0 1 0 1 0

>  <DIFUSE_FUNC_ATOM>  (2933) 
n/a

>  <FINAL_SINGLE_POINT_ENERGY>  (2933) 
0

>  <NONCOV_INTER_ENERGY_QM>  (2933) 
0

>  <FF_Energy>  (2933) 
-1.96

>  <QM_Energy>  (2933) 
-7.92

>  <source>  (2933) 
ACET_MBZ_03

>  <Index>  (2933) 
14434

$$$$
ACEH-pdb5o79-C-ASH-297:MBZ-pdb5o79-C-PHE-111
     RDKit          3D

 22 21  0  0  0  0  0  0  0  0999 V2000
    4.9685    4.5809    1.5855 C   0  0  0  0  0  0  0  0  0  0  0  0
    4.2304    4.7517    2.2268 H   0  0  0  0  0  0  0  0  0  0  0  0
    5.2878    5.4311    1.1862 H   0  0  0  0  0  0  0  0  0  0  0  0
    5.7962    4.1258    2.1295 H   0  0  0  0  0  0  0  0  0  0  0  0
    4.4674    3.6859    0.4935 C   0  0  0  0  0  0  0  0  0  0  0  0
    3.5028    2.9250    0.7372 O   0  0  0  0  0  0  0  0  0  0  0  0
    5.0690    3.7486   -0.5970 O   0  0  0  0  0  0  0  0  0  0  0  0
   -0.0033    2.9203   -0.0055 C   0  0  0  0  0  0  0  0  0  0  0  0
    0.9274    3.2317    0.0020 H   0  0  0  0  0  0  0  0  0  0  0  0
   -0.5114    3.2319    0.7754 H   0  0  0  0  0  0  0  0  0  0  0  0
   -0.4811    3.3303   -0.8953 H   0  0  0  0  0  0  0  0  0  0  0  0
    0.0093    1.4006    0.0176 C   0  0  0  0  0  0  0  0  0  0  0  0
   -1.1884    0.6926   -0.0017 C   0  0  0  0  0  0  0  0  0  0  0  0
   -2.0535    1.1837   -0.0179 H   0  0  0  0  0  0  0  0  0  0  0  0
   -1.1869   -0.6917   -0.0000 C   0  0  0  0  0  0  0  0  0  0  0  0
   -2.0713   -1.1871    0.0167 H   0  0  0  0  0  0  0  0  0  0  0  0
    0.0020   -1.3937   -0.0190 C   0  0  0  0  0  0  0  0  0  0  0  0
   -0.0073   -2.3905   -0.0463 H   0  0  0  0  0  0  0  0  0  0  0  0
    1.1869   -0.6989    0.0000 C   0  0  0  0  0  0  0  0  0  0  0  0
    2.0755   -1.1884    0.0130 H   0  0  0  0  0  0  0  0  0  0  0  0
    1.1771    0.6911    0.0031 C   0  0  0  0  0  0  0  0  0  0  0  0
    2.0614    1.1797   -0.0060 H   0  0  0  0  0  0  0  0  0  0  0  0
  1  5  1  0
  5  6  2  0
  5  7  1  0
  1  2  1  0
  1  3  1  0
  1  4  1  0
  8 12  1  0
 12 13  2  0
 13 15  1  0
 15 17  2  0
 17 19  1  0
 19 21  2  0
 21 12  1  0
  8  9  1  0
  8 10  1  0
  8 11  1  0
 13 14  1  0
 15 16  1  0
 17 18  1  0
 19 20  1  0
 21 22  1  0
M  CHG  1   7  -1
V    7 [O&-]
M  END
>  <PDB_ID>  (2934) 
pdb5o79

>  <RESIDUE_NAME>  (2934) 
ASP   PHE

>  <FRAG_NAME>  (2934) 
ACET   MBZ

>  <FRAG_ATOM_NUM>  (2934) 
fragi: 7 fragj: 15

>  <atom.prop.CHAIN_ID>  (2934) 
A A A A A A A Z Z Z Z Z Z Z Z Z Z Z Z Z Z Z

>  <atom.prop.IS_HEAVY_ATOM>  (2934) 
1 0 0 0 1 1 1 1 0 0 0 1 1 0 1 0 1 0 1 0 1 0

>  <DIFUSE_FUNC_ATOM>  (2934) 
n/a

>  <FINAL_SINGLE_POINT_ENERGY>  (2934) 
0

>  <NONCOV_INTER_ENERGY_QM>  (2934) 
0

>  <FF_Energy>  (2934) 
-1.94

>  <QM_Energy>  (2934) 
-7.82

>  <source>  (2934) 
ACET_MBZ_03

>  <Index>  (2934) 
14453

$$$$
ACEH-pdb5o9c-D-ASH-307:MBZ-pdb5o9c-D-PHE-111
     RDKit          3D

 22 21  0  0  0  0  0  0  0  0999 V2000
    4.7355    4.4468    1.9275 C   0  0  0  0  0  0  0  0  0  0  0  0
    3.9106    4.3768    2.4724 H   0  0  0  0  0  0  0  0  0  0  0  0
    4.9484    5.3948    1.7303 H   0  0  0  0  0  0  0  0  0  0  0  0
    5.5579    4.0343    2.5119 H   0  0  0  0  0  0  0  0  0  0  0  0
    4.5329    3.7055    0.6286 C   0  0  0  0  0  0  0  0  0  0  0  0
    5.2933    3.9740   -0.3278 O   0  0  0  0  0  0  0  0  0  0  0  0
    3.6572    2.8071    0.5925 O   0  0  0  0  0  0  0  0  0  0  0  0
   -0.0048    2.9146   -0.0243 C   0  0  0  0  0  0  0  0  0  0  0  0
    0.9286    3.2228    0.0373 H   0  0  0  0  0  0  0  0  0  0  0  0
   -0.5488    3.2307    0.7330 H   0  0  0  0  0  0  0  0  0  0  0  0
   -0.4333    3.3218   -0.9401 H   0  0  0  0  0  0  0  0  0  0  0  0
    0.0006    1.4049    0.0062 C   0  0  0  0  0  0  0  0  0  0  0  0
   -1.2018    0.6933   -0.0058 C   0  0  0  0  0  0  0  0  0  0  0  0
   -2.0662    1.1833   -0.0199 H   0  0  0  0  0  0  0  0  0  0  0  0
   -1.2080   -0.7036    0.0000 C   0  0  0  0  0  0  0  0  0  0  0  0
   -2.0788   -1.1973    0.0044 H   0  0  0  0  0  0  0  0  0  0  0  0
    0.0037   -1.3988    0.0018 C   0  0  0  0  0  0  0  0  0  0  0  0
    0.0041   -2.3944    0.0035 H   0  0  0  0  0  0  0  0  0  0  0  0
    1.2080   -0.6925   -0.0000 C   0  0  0  0  0  0  0  0  0  0  0  0
    2.0888   -1.1899    0.0019 H   0  0  0  0  0  0  0  0  0  0  0  0
    1.1975    0.6967   -0.0022 C   0  0  0  0  0  0  0  0  0  0  0  0
    2.0655    1.1969   -0.0109 H   0  0  0  0  0  0  0  0  0  0  0  0
  1  5  1  0
  5  6  2  0
  5  7  1  0
  1  2  1  0
  1  3  1  0
  1  4  1  0
  8 12  1  0
 12 13  2  0
 13 15  1  0
 15 17  2  0
 17 19  1  0
 19 21  2  0
 21 12  1  0
  8  9  1  0
  8 10  1  0
  8 11  1  0
 13 14  1  0
 15 16  1  0
 17 18  1  0
 19 20  1  0
 21 22  1  0
M  CHG  1   7  -1
V    7 [O&-]
M  END
>  <PDB_ID>  (2935) 
pdb5o9c

>  <RESIDUE_NAME>  (2935) 
ASP   PHE

>  <FRAG_NAME>  (2935) 
ACET   MBZ

>  <FRAG_ATOM_NUM>  (2935) 
fragi: 7 fragj: 15

>  <atom.prop.CHAIN_ID>  (2935) 
A A A A A A A Z Z Z Z Z Z Z Z Z Z Z Z Z Z Z

>  <atom.prop.IS_HEAVY_ATOM>  (2935) 
1 0 0 0 1 1 1 1 0 0 0 1 1 0 1 0 1 0 1 0 1 0

>  <DIFUSE_FUNC_ATOM>  (2935) 
n/a

>  <FINAL_SINGLE_POINT_ENERGY>  (2935) 
0

>  <NONCOV_INTER_ENERGY_QM>  (2935) 
0

>  <FF_Energy>  (2935) 
-1.9

>  <QM_Energy>  (2935) 
-7.81

>  <source>  (2935) 
ACET_MBZ_03

>  <Index>  (2935) 
14456

$$$$
ACEH-pdb2odf-D-GLH-225:MBZ-pdb2odf-D-PHE-156
     RDKit          3D

 22 21  0  0  0  0  0  0  0  0999 V2000
   -4.3162    1.7201    2.7340 C   0  0  0  0  0  0  0  0  0  0  0  0
   -5.2461    1.9830    2.9093 H   0  0  0  0  0  0  0  0  0  0  0  0
   -3.8154    1.5406    3.5598 H   0  0  0  0  0  0  0  0  0  0  0  0
   -4.3272    0.8088    2.1358 H   0  0  0  0  0  0  0  0  0  0  0  0
   -3.6323    2.9017    2.0326 C   0  0  0  0  0  0  0  0  0  0  0  0
   -3.1844    3.8325    2.7322 O   0  0  0  0  0  0  0  0  0  0  0  0
   -3.5560    2.9368    0.7815 O   0  0  0  0  0  0  0  0  0  0  0  0
    0.0067    2.9146    0.0285 C   0  0  0  0  0  0  0  0  0  0  0  0
    0.8564    3.2041    0.4555 H   0  0  0  0  0  0  0  0  0  0  0  0
   -0.7725    3.2110    0.5713 H   0  0  0  0  0  0  0  0  0  0  0  0
   -0.0597    3.4093   -0.9405 H   0  0  0  0  0  0  0  0  0  0  0  0
   -0.0030    1.4063   -0.0092 C   0  0  0  0  0  0  0  0  0  0  0  0
   -1.1919    0.6970    0.0127 C   0  0  0  0  0  0  0  0  0  0  0  0
   -2.0632    1.1864    0.0367 H   0  0  0  0  0  0  0  0  0  0  0  0
   -1.2002   -0.6933    0.0000 C   0  0  0  0  0  0  0  0  0  0  0  0
   -2.0754   -1.1883   -0.0075 H   0  0  0  0  0  0  0  0  0  0  0  0
    0.0072   -1.4030   -0.0002 C   0  0  0  0  0  0  0  0  0  0  0  0
   -0.0041   -2.3949   -0.0007 H   0  0  0  0  0  0  0  0  0  0  0  0
    1.2002   -0.7003   -0.0000 C   0  0  0  0  0  0  0  0  0  0  0  0
    2.0866   -1.1903    0.0044 H   0  0  0  0  0  0  0  0  0  0  0  0
    1.1877    0.6933   -0.0034 C   0  0  0  0  0  0  0  0  0  0  0  0
    2.0610    1.1904   -0.0020 H   0  0  0  0  0  0  0  0  0  0  0  0
  1  5  1  0
  5  6  2  0
  5  7  1  0
  1  2  1  0
  1  3  1  0
  1  4  1  0
  8 12  1  0
 12 13  2  0
 13 15  1  0
 15 17  2  0
 17 19  1  0
 19 21  2  0
 21 12  1  0
  8  9  1  0
  8 10  1  0
  8 11  1  0
 13 14  1  0
 15 16  1  0
 17 18  1  0
 19 20  1  0
 21 22  1  0
M  CHG  1   7  -1
V    7 [O&-]
M  END
>  <PDB_ID>  (2936) 
pdb2odf

>  <RESIDUE_NAME>  (2936) 
GLU   PHE

>  <FRAG_NAME>  (2936) 
ACET   MBZ

>  <FRAG_ATOM_NUM>  (2936) 
fragi: 7 fragj: 15

>  <atom.prop.CHAIN_ID>  (2936) 
A A A A A A A Z Z Z Z Z Z Z Z Z Z Z Z Z Z Z

>  <atom.prop.IS_HEAVY_ATOM>  (2936) 
1 0 0 0 1 1 1 1 0 0 0 1 1 0 1 0 1 0 1 0 1 0

>  <DIFUSE_FUNC_ATOM>  (2936) 
n/a

>  <FINAL_SINGLE_POINT_ENERGY>  (2936) 
0

>  <NONCOV_INTER_ENERGY_QM>  (2936) 
0

>  <FF_Energy>  (2936) 
-2.35

>  <QM_Energy>  (2936) 
-8.22

>  <source>  (2936) 
ACET_MBZ_03

>  <Index>  (2936) 
14472

$$$$
ACEH-pdb2odf-E-GLH-225:MBZ-pdb2odf-E-PHE-156
     RDKit          3D

 22 21  0  0  0  0  0  0  0  0999 V2000
   -4.7787    1.5322    2.1652 C   0  0  0  0  0  0  0  0  0  0  0  0
   -5.7439    1.7264    2.1292 H   0  0  0  0  0  0  0  0  0  0  0  0
   -4.4647    1.4039    3.0910 H   0  0  0  0  0  0  0  0  0  0  0  0
   -4.5953    0.6123    1.6100 H   0  0  0  0  0  0  0  0  0  0  0  0
   -4.0481    2.7315    1.5972 C   0  0  0  0  0  0  0  0  0  0  0  0
   -3.7420    3.6508    2.3923 O   0  0  0  0  0  0  0  0  0  0  0  0
   -3.7796    2.7669    0.3737 O   0  0  0  0  0  0  0  0  0  0  0  0
   -0.0093    2.9062    0.0444 C   0  0  0  0  0  0  0  0  0  0  0  0
    0.8150    3.1989    0.5130 H   0  0  0  0  0  0  0  0  0  0  0  0
   -0.8179    3.1962    0.5411 H   0  0  0  0  0  0  0  0  0  0  0  0
   -0.0272    3.3903   -0.9320 H   0  0  0  0  0  0  0  0  0  0  0  0
   -0.0077    1.4004    0.0019 C   0  0  0  0  0  0  0  0  0  0  0  0
   -1.1974    0.6894    0.0011 C   0  0  0  0  0  0  0  0  0  0  0  0
   -2.0679    1.1776    0.0000 H   0  0  0  0  0  0  0  0  0  0  0  0
   -1.1996   -0.6979   -0.0000 C   0  0  0  0  0  0  0  0  0  0  0  0
   -2.0691   -1.1990   -0.0008 H   0  0  0  0  0  0  0  0  0  0  0  0
    0.0141   -1.3929    0.0020 C   0  0  0  0  0  0  0  0  0  0  0  0
    0.0072   -2.3903    0.0043 H   0  0  0  0  0  0  0  0  0  0  0  0
    1.1996   -0.6918   -0.0000 C   0  0  0  0  0  0  0  0  0  0  0  0
    2.0894   -1.1852    0.0041 H   0  0  0  0  0  0  0  0  0  0  0  0
    1.1911    0.6927   -0.0049 C   0  0  0  0  0  0  0  0  0  0  0  0
    2.0571    1.1944   -0.0143 H   0  0  0  0  0  0  0  0  0  0  0  0
  1  5  1  0
  5  6  2  0
  5  7  1  0
  1  2  1  0
  1  3  1  0
  1  4  1  0
  8 12  1  0
 12 13  2  0
 13 15  1  0
 15 17  2  0
 17 19  1  0
 19 21  2  0
 21 12  1  0
  8  9  1  0
  8 10  1  0
  8 11  1  0
 13 14  1  0
 15 16  1  0
 17 18  1  0
 19 20  1  0
 21 22  1  0
M  CHG  1   7  -1
V    7 [O&-]
M  END
>  <PDB_ID>  (2937) 
pdb2odf

>  <RESIDUE_NAME>  (2937) 
GLU   PHE

>  <FRAG_NAME>  (2937) 
ACET   MBZ

>  <FRAG_ATOM_NUM>  (2937) 
fragi: 7 fragj: 15

>  <atom.prop.CHAIN_ID>  (2937) 
A A A A A A A Z Z Z Z Z Z Z Z Z Z Z Z Z Z Z

>  <atom.prop.IS_HEAVY_ATOM>  (2937) 
1 0 0 0 1 1 1 1 0 0 0 1 1 0 1 0 1 0 1 0 1 0

>  <DIFUSE_FUNC_ATOM>  (2937) 
n/a

>  <FINAL_SINGLE_POINT_ENERGY>  (2937) 
0

>  <NONCOV_INTER_ENERGY_QM>  (2937) 
0

>  <FF_Energy>  (2937) 
-2.2

>  <QM_Energy>  (2937) 
-7.92

>  <source>  (2937) 
ACET_MBZ_03

>  <Index>  (2937) 
14473

$$$$
ACEH-pdb2odf-G-GLH-225:MBZ-pdb2odf-G-PHE-156
     RDKit          3D

 22 21  0  0  0  0  0  0  0  0999 V2000
   -4.1667    1.5528    2.9705 C   0  0  0  0  0  0  0  0  0  0  0  0
   -5.0839    1.7175    3.2836 H   0  0  0  0  0  0  0  0  0  0  0  0
   -3.5312    1.4561    3.7150 H   0  0  0  0  0  0  0  0  0  0  0  0
   -4.1639    0.6270    2.3952 H   0  0  0  0  0  0  0  0  0  0  0  0
   -3.7389    2.7364    2.1500 C   0  0  0  0  0  0  0  0  0  0  0  0
   -3.5106    3.7979    2.7474 O   0  0  0  0  0  0  0  0  0  0  0  0
   -3.6595    2.6301    0.9052 O   0  0  0  0  0  0  0  0  0  0  0  0
   -0.0080    2.9126    0.0303 C   0  0  0  0  0  0  0  0  0  0  0  0
    0.8798    3.2125    0.3512 H   0  0  0  0  0  0  0  0  0  0  0  0
   -0.7256    3.2002    0.6491 H   0  0  0  0  0  0  0  0  0  0  0  0
   -0.1910    3.3828   -0.9359 H   0  0  0  0  0  0  0  0  0  0  0  0
   -0.0021    1.4017    0.0001 C   0  0  0  0  0  0  0  0  0  0  0  0
   -1.1941    0.6843    0.0007 C   0  0  0  0  0  0  0  0  0  0  0  0
   -2.0641    1.1701    0.0002 H   0  0  0  0  0  0  0  0  0  0  0  0
   -1.1943   -0.7073    0.0000 C   0  0  0  0  0  0  0  0  0  0  0  0
   -2.0674   -1.2034    0.0031 H   0  0  0  0  0  0  0  0  0  0  0  0
    0.0107   -1.3944   -0.0034 C   0  0  0  0  0  0  0  0  0  0  0  0
    0.0130   -2.3930   -0.0091 H   0  0  0  0  0  0  0  0  0  0  0  0
    1.1943   -0.6875   -0.0000 C   0  0  0  0  0  0  0  0  0  0  0  0
    2.0864   -1.1767    0.0023 H   0  0  0  0  0  0  0  0  0  0  0  0
    1.1855    0.7032    0.0026 C   0  0  0  0  0  0  0  0  0  0  0  0
    2.0568    1.1978    0.0057 H   0  0  0  0  0  0  0  0  0  0  0  0
  1  5  1  0
  5  6  2  0
  5  7  1  0
  1  2  1  0
  1  3  1  0
  1  4  1  0
  8 12  1  0
 12 13  2  0
 13 15  1  0
 15 17  2  0
 17 19  1  0
 19 21  2  0
 21 12  1  0
  8  9  1  0
  8 10  1  0
  8 11  1  0
 13 14  1  0
 15 16  1  0
 17 18  1  0
 19 20  1  0
 21 22  1  0
M  CHG  1   7  -1
V    7 [O&-]
M  END
>  <PDB_ID>  (2938) 
pdb2odf

>  <RESIDUE_NAME>  (2938) 
GLU   PHE

>  <FRAG_NAME>  (2938) 
ACET   MBZ

>  <FRAG_ATOM_NUM>  (2938) 
fragi: 7 fragj: 15

>  <atom.prop.CHAIN_ID>  (2938) 
A A A A A A A Z Z Z Z Z Z Z Z Z Z Z Z Z Z Z

>  <atom.prop.IS_HEAVY_ATOM>  (2938) 
1 0 0 0 1 1 1 1 0 0 0 1 1 0 1 0 1 0 1 0 1 0

>  <DIFUSE_FUNC_ATOM>  (2938) 
n/a

>  <FINAL_SINGLE_POINT_ENERGY>  (2938) 
0

>  <NONCOV_INTER_ENERGY_QM>  (2938) 
0

>  <FF_Energy>  (2938) 
-1.98

>  <QM_Energy>  (2938) 
-7.75

>  <source>  (2938) 
ACET_MBZ_03

>  <Index>  (2938) 
14476

$$$$
ACEH-pdb5o9c-B-ASH-307:MBZ-pdb5o9c-B-PHE-111
     RDKit          3D

 22 21  0  0  0  0  0  0  0  0999 V2000
    4.7646    4.6206    1.5940 C   0  0  0  0  0  0  0  0  0  0  0  0
    3.9610    4.5817    2.1697 H   0  0  0  0  0  0  0  0  0  0  0  0
    4.9730    5.5519    1.3349 H   0  0  0  0  0  0  0  0  0  0  0  0
    5.6086    4.2257    2.1596 H   0  0  0  0  0  0  0  0  0  0  0  0
    4.5038    3.8111    0.3385 C   0  0  0  0  0  0  0  0  0  0  0  0
    5.2200    4.0368   -0.6637 O   0  0  0  0  0  0  0  0  0  0  0  0
    3.6456    2.8982    0.3858 O   0  0  0  0  0  0  0  0  0  0  0  0
   -0.0098    2.8992   -0.0133 C   0  0  0  0  0  0  0  0  0  0  0  0
    0.9243    3.2115   -0.0198 H   0  0  0  0  0  0  0  0  0  0  0  0
   -0.4981    3.2131    0.7824 H   0  0  0  0  0  0  0  0  0  0  0  0
   -0.5055    3.3112   -0.8923 H   0  0  0  0  0  0  0  0  0  0  0  0
   -0.0001    1.3966    0.0063 C   0  0  0  0  0  0  0  0  0  0  0  0
   -1.2014    0.6852   -0.0088 C   0  0  0  0  0  0  0  0  0  0  0  0
   -2.0656    1.1836   -0.0275 H   0  0  0  0  0  0  0  0  0  0  0  0
   -1.2099   -0.6966   -0.0000 C   0  0  0  0  0  0  0  0  0  0  0  0
   -2.0796   -1.1964    0.0052 H   0  0  0  0  0  0  0  0  0  0  0  0
    0.0011   -1.3914    0.0035 C   0  0  0  0  0  0  0  0  0  0  0  0
    0.0008   -2.3883    0.0085 H   0  0  0  0  0  0  0  0  0  0  0  0
    1.2099   -0.6886   -0.0000 C   0  0  0  0  0  0  0  0  0  0  0  0
    2.0874   -1.1905    0.0001 H   0  0  0  0  0  0  0  0  0  0  0  0
    1.2003    0.6949   -0.0010 C   0  0  0  0  0  0  0  0  0  0  0  0
    2.0651    1.1979   -0.0077 H   0  0  0  0  0  0  0  0  0  0  0  0
  1  5  1  0
  5  6  2  0
  5  7  1  0
  1  2  1  0
  1  3  1  0
  1  4  1  0
  8 12  1  0
 12 13  2  0
 13 15  1  0
 15 17  2  0
 17 19  1  0
 19 21  2  0
 21 12  1  0
  8  9  1  0
  8 10  1  0
  8 11  1  0
 13 14  1  0
 15 16  1  0
 17 18  1  0
 19 20  1  0
 21 22  1  0
M  CHG  1   7  -1
V    7 [O&-]
M  END
>  <PDB_ID>  (2939) 
pdb5o9c

>  <RESIDUE_NAME>  (2939) 
ASP   PHE

>  <FRAG_NAME>  (2939) 
ACET   MBZ

>  <FRAG_ATOM_NUM>  (2939) 
fragi: 7 fragj: 15

>  <atom.prop.CHAIN_ID>  (2939) 
A A A A A A A Z Z Z Z Z Z Z Z Z Z Z Z Z Z Z

>  <atom.prop.IS_HEAVY_ATOM>  (2939) 
1 0 0 0 1 1 1 1 0 0 0 1 1 0 1 0 1 0 1 0 1 0

>  <DIFUSE_FUNC_ATOM>  (2939) 
n/a

>  <FINAL_SINGLE_POINT_ENERGY>  (2939) 
0

>  <NONCOV_INTER_ENERGY_QM>  (2939) 
0

>  <FF_Energy>  (2939) 
-1.97

>  <QM_Energy>  (2939) 
-7.89

>  <source>  (2939) 
ACET_MBZ_03

>  <Index>  (2939) 
14489

$$$$
ACEH-pdb3i16-A-GLH-58:MBZ-pdb3i16-A-PHE-61
     RDKit          3D

 22 21  0  0  0  0  0  0  0  0999 V2000
    4.9179   -0.1213   -3.0078 C   0  0  0  0  0  0  0  0  0  0  0  0
    5.4648   -0.5960   -3.6751 H   0  0  0  0  0  0  0  0  0  0  0  0
    5.4699    0.2826   -2.2986 H   0  0  0  0  0  0  0  0  0  0  0  0
    4.3372    0.6567   -3.5035 H   0  0  0  0  0  0  0  0  0  0  0  0
    4.0444   -1.2053   -2.3111 C   0  0  0  0  0  0  0  0  0  0  0  0
    4.1922   -2.3870   -2.4570 O   0  0  0  0  0  0  0  0  0  0  0  0
    3.1713   -0.6680   -1.5976 O   0  0  0  0  0  0  0  0  0  0  0  0
    0.0049    2.9104    0.0223 C   0  0  0  0  0  0  0  0  0  0  0  0
    0.8401    3.2168   -0.4016 H   0  0  0  0  0  0  0  0  0  0  0  0
   -0.0494    3.1866    0.9678 H   0  0  0  0  0  0  0  0  0  0  0  0
   -0.8353    3.3522   -0.5134 H   0  0  0  0  0  0  0  0  0  0  0  0
    0.0048    1.3945   -0.0115 C   0  0  0  0  0  0  0  0  0  0  0  0
   -1.1955    0.6692    0.0169 C   0  0  0  0  0  0  0  0  0  0  0  0
   -2.0598    1.1619    0.0486 H   0  0  0  0  0  0  0  0  0  0  0  0
   -1.1872   -0.7067    0.0000 C   0  0  0  0  0  0  0  0  0  0  0  0
   -2.0658   -1.2084   -0.0091 H   0  0  0  0  0  0  0  0  0  0  0  0
    0.0005   -1.3752   -0.0025 C   0  0  0  0  0  0  0  0  0  0  0  0
    0.0116   -2.3832   -0.0064 H   0  0  0  0  0  0  0  0  0  0  0  0
    1.1872   -0.6784    0.0000 C   0  0  0  0  0  0  0  0  0  0  0  0
    2.0752   -1.1819    0.0053 H   0  0  0  0  0  0  0  0  0  0  0  0
    1.1902    0.6967   -0.0029 C   0  0  0  0  0  0  0  0  0  0  0  0
    2.0601    1.1928    0.0006 H   0  0  0  0  0  0  0  0  0  0  0  0
  1  5  1  0
  5  6  2  0
  5  7  1  0
  1  2  1  0
  1  3  1  0
  1  4  1  0
  8 12  1  0
 12 13  2  0
 13 15  1  0
 15 17  2  0
 17 19  1  0
 19 21  2  0
 21 12  1  0
  8  9  1  0
  8 10  1  0
  8 11  1  0
 13 14  1  0
 15 16  1  0
 17 18  1  0
 19 20  1  0
 21 22  1  0
M  CHG  1   7  -1
V    7 [O&-]
M  END
>  <PDB_ID>  (2940) 
pdb3i16

>  <RESIDUE_NAME>  (2940) 
GLU   PHE

>  <FRAG_NAME>  (2940) 
ACET   MBZ

>  <FRAG_ATOM_NUM>  (2940) 
fragi: 7 fragj: 15

>  <atom.prop.CHAIN_ID>  (2940) 
A A A A A A A Z Z Z Z Z Z Z Z Z Z Z Z Z Z Z

>  <atom.prop.IS_HEAVY_ATOM>  (2940) 
1 0 0 0 1 1 1 1 0 0 0 1 1 0 1 0 1 0 1 0 1 0

>  <DIFUSE_FUNC_ATOM>  (2940) 
n/a

>  <FINAL_SINGLE_POINT_ENERGY>  (2940) 
0

>  <NONCOV_INTER_ENERGY_QM>  (2940) 
0

>  <FF_Energy>  (2940) 
13.22

>  <QM_Energy>  (2940) 
-0.99

>  <source>  (2940) 
ACET_MBZ_03

>  <Index>  (2940) 
14541

$$$$
ACEH-pdb3i4w-A-GLH-334:MBZ-pdb3i4w-A-PHE-400
     RDKit          3D

 22 21  0  0  0  0  0  0  0  0999 V2000
    1.0370    1.2304    3.6579 C   0  0  0  0  0  0  0  0  0  0  0  0
    1.5258    1.2564    4.5149 H   0  0  0  0  0  0  0  0  0  0  0  0
    1.6519    1.1673    2.8892 H   0  0  0  0  0  0  0  0  0  0  0  0
    0.4022    0.3444    3.6582 H   0  0  0  0  0  0  0  0  0  0  0  0
    0.2625    2.5009    3.5271 C   0  0  0  0  0  0  0  0  0  0  0  0
   -0.9782    2.5717    3.5705 O   0  0  0  0  0  0  0  0  0  0  0  0
    0.9540    3.5668    3.3920 O   0  0  0  0  0  0  0  0  0  0  0  0
    0.0478    2.8497    0.0668 C   0  0  0  0  0  0  0  0  0  0  0  0
    0.9859    3.1451    0.1812 H   0  0  0  0  0  0  0  0  0  0  0  0
   -0.5163    3.1453    0.8247 H   0  0  0  0  0  0  0  0  0  0  0  0
   -0.3389    3.3232   -0.8356 H   0  0  0  0  0  0  0  0  0  0  0  0
    0.0195    1.3801    0.0011 C   0  0  0  0  0  0  0  0  0  0  0  0
   -1.1840    0.6962    0.0279 C   0  0  0  0  0  0  0  0  0  0  0  0
   -2.0393    1.2069    0.0667 H   0  0  0  0  0  0  0  0  0  0  0  0
   -1.1971   -0.6632    0.0000 C   0  0  0  0  0  0  0  0  0  0  0  0
   -2.0835   -1.1617    0.0098 H   0  0  0  0  0  0  0  0  0  0  0  0
   -0.0142   -1.3779   -0.0393 C   0  0  0  0  0  0  0  0  0  0  0  0
   -0.0288   -2.3724   -0.0955 H   0  0  0  0  0  0  0  0  0  0  0  0
    1.1971   -0.6941   -0.0000 C   0  0  0  0  0  0  0  0  0  0  0  0
    2.0653   -1.2078    0.0219 H   0  0  0  0  0  0  0  0  0  0  0  0
    1.1787    0.6588    0.0103 C   0  0  0  0  0  0  0  0  0  0  0  0
    2.0671    1.1663    0.0254 H   0  0  0  0  0  0  0  0  0  0  0  0
  1  5  1  0
  5  6  2  0
  5  7  1  0
  1  2  1  0
  1  3  1  0
  1  4  1  0
  8 12  1  0
 12 13  2  0
 13 15  1  0
 15 17  2  0
 17 19  1  0
 19 21  2  0
 21 12  1  0
  8  9  1  0
  8 10  1  0
  8 11  1  0
 13 14  1  0
 15 16  1  0
 17 18  1  0
 19 20  1  0
 21 22  1  0
M  CHG  1   7  -1
V    7 [O&-]
M  END
>  <PDB_ID>  (2941) 
pdb3i4w

>  <RESIDUE_NAME>  (2941) 
GLU   PHE

>  <FRAG_NAME>  (2941) 
ACET   MBZ

>  <FRAG_ATOM_NUM>  (2941) 
fragi: 7 fragj: 15

>  <atom.prop.CHAIN_ID>  (2941) 
A A A A A A A Z Z Z Z Z Z Z Z Z Z Z Z Z Z Z

>  <atom.prop.IS_HEAVY_ATOM>  (2941) 
1 0 0 0 1 1 1 1 0 0 0 1 1 0 1 0 1 0 1 0 1 0

>  <DIFUSE_FUNC_ATOM>  (2941) 
n/a

>  <FINAL_SINGLE_POINT_ENERGY>  (2941) 
0

>  <NONCOV_INTER_ENERGY_QM>  (2941) 
0

>  <FF_Energy>  (2941) 
-0.78

>  <QM_Energy>  (2941) 
-5.79

>  <source>  (2941) 
ACET_MBZ_03

>  <Index>  (2941) 
14687

$$$$
ACEH-pdb2oqx-A-GLH-395:MBZ-pdb2oqx-A-PHE-399
     RDKit          3D

 22 21  0  0  0  0  0  0  0  0999 V2000
    3.6630    4.7353   -1.5632 C   0  0  0  0  0  0  0  0  0  0  0  0
    4.2313    5.5404   -1.5297 H   0  0  0  0  0  0  0  0  0  0  0  0
    3.1912    4.6567   -2.4255 H   0  0  0  0  0  0  0  0  0  0  0  0
    4.3046    3.8621   -1.4452 H   0  0  0  0  0  0  0  0  0  0  0  0
    2.6089    4.8730   -0.4758 C   0  0  0  0  0  0  0  0  0  0  0  0
    2.9035    4.5777    0.7048 O   0  0  0  0  0  0  0  0  0  0  0  0
    1.4807    5.2982   -0.8085 O   0  0  0  0  0  0  0  0  0  0  0  0
    0.0049    2.9083   -0.0315 C   0  0  0  0  0  0  0  0  0  0  0  0
   -0.4235    3.2003   -0.8747 H   0  0  0  0  0  0  0  0  0  0  0  0
    0.9456    3.2113    0.0146 H   0  0  0  0  0  0  0  0  0  0  0  0
   -0.5340    3.3752    0.7929 H   0  0  0  0  0  0  0  0  0  0  0  0
   -0.0026    1.4055    0.0002 C   0  0  0  0  0  0  0  0  0  0  0  0
   -1.2004    0.6982    0.0007 C   0  0  0  0  0  0  0  0  0  0  0  0
   -2.0668    1.1857    0.0010 H   0  0  0  0  0  0  0  0  0  0  0  0
   -1.2050   -0.6987    0.0000 C   0  0  0  0  0  0  0  0  0  0  0  0
   -2.0781   -1.1924    0.0028 H   0  0  0  0  0  0  0  0  0  0  0  0
    0.0044   -1.3984   -0.0023 C   0  0  0  0  0  0  0  0  0  0  0  0
   -0.0025   -2.3954   -0.0062 H   0  0  0  0  0  0  0  0  0  0  0  0
    1.2050   -0.7003    0.0000 C   0  0  0  0  0  0  0  0  0  0  0  0
    2.0868   -1.1955    0.0015 H   0  0  0  0  0  0  0  0  0  0  0  0
    1.1986    0.6936    0.0014 C   0  0  0  0  0  0  0  0  0  0  0  0
    2.0659    1.1912    0.0025 H   0  0  0  0  0  0  0  0  0  0  0  0
  1  5  1  0
  5  6  2  0
  5  7  1  0
  1  2  1  0
  1  3  1  0
  1  4  1  0
  8 12  1  0
 12 13  2  0
 13 15  1  0
 15 17  2  0
 17 19  1  0
 19 21  2  0
 21 12  1  0
  8  9  1  0
  8 10  1  0
  8 11  1  0
 13 14  1  0
 15 16  1  0
 17 18  1  0
 19 20  1  0
 21 22  1  0
M  CHG  1   7  -1
V    7 [O&-]
M  END
>  <PDB_ID>  (2942) 
pdb2oqx

>  <RESIDUE_NAME>  (2942) 
GLU   PHE

>  <FRAG_NAME>  (2942) 
ACET   MBZ

>  <FRAG_ATOM_NUM>  (2942) 
fragi: 7 fragj: 15

>  <atom.prop.CHAIN_ID>  (2942) 
A A A A A A A Z Z Z Z Z Z Z Z Z Z Z Z Z Z Z

>  <atom.prop.IS_HEAVY_ATOM>  (2942) 
1 0 0 0 1 1 1 1 0 0 0 1 1 0 1 0 1 0 1 0 1 0

>  <DIFUSE_FUNC_ATOM>  (2942) 
n/a

>  <FINAL_SINGLE_POINT_ENERGY>  (2942) 
0

>  <NONCOV_INTER_ENERGY_QM>  (2942) 
0

>  <FF_Energy>  (2942) 
1.9

>  <QM_Energy>  (2942) 
-5.55

>  <source>  (2942) 
ACET_MBZ_03

>  <Index>  (2942) 
14706

$$$$
ACEH-pdb1k9x-C-GLH-370:MBZ-pdb1k9x-C-PHE-420
     RDKit          3D

 22 21  0  0  0  0  0  0  0  0999 V2000
   -5.9120    2.5120   -0.3518 C   0  0  0  0  0  0  0  0  0  0  0  0
   -6.6043    2.0342    0.1597 H   0  0  0  0  0  0  0  0  0  0  0  0
   -5.6094    1.9965   -1.1336 H   0  0  0  0  0  0  0  0  0  0  0  0
   -6.3285    3.4576   -0.6990 H   0  0  0  0  0  0  0  0  0  0  0  0
   -4.7219    2.7003    0.5572 C   0  0  0  0  0  0  0  0  0  0  0  0
   -4.6704    3.7154    1.2783 O   0  0  0  0  0  0  0  0  0  0  0  0
   -3.8399    1.8234    0.5588 O   0  0  0  0  0  0  0  0  0  0  0  0
    0.0091    2.9108   -0.0127 C   0  0  0  0  0  0  0  0  0  0  0  0
   -0.9146    3.2224    0.1489 H   0  0  0  0  0  0  0  0  0  0  0  0
    0.3437    3.2093   -0.8931 H   0  0  0  0  0  0  0  0  0  0  0  0
    0.6461    3.3570    0.7510 H   0  0  0  0  0  0  0  0  0  0  0  0
    0.0047    1.4052    0.0003 C   0  0  0  0  0  0  0  0  0  0  0  0
   -1.2008    0.6959   -0.0012 C   0  0  0  0  0  0  0  0  0  0  0  0
   -2.0634    1.1899   -0.0044 H   0  0  0  0  0  0  0  0  0  0  0  0
   -1.2103   -0.6972   -0.0000 C   0  0  0  0  0  0  0  0  0  0  0  0
   -2.0870   -1.1880    0.0017 H   0  0  0  0  0  0  0  0  0  0  0  0
   -0.0072   -1.3982    0.0004 C   0  0  0  0  0  0  0  0  0  0  0  0
   -0.0090   -2.3945    0.0004 H   0  0  0  0  0  0  0  0  0  0  0  0
    1.2103   -0.7001    0.0000 C   0  0  0  0  0  0  0  0  0  0  0  0
    2.0827   -1.2007    0.0004 H   0  0  0  0  0  0  0  0  0  0  0  0
    1.2033    0.6944    0.0004 C   0  0  0  0  0  0  0  0  0  0  0  0
    2.0716    1.1905    0.0000 H   0  0  0  0  0  0  0  0  0  0  0  0
  1  5  1  0
  5  6  2  0
  5  7  1  0
  1  2  1  0
  1  3  1  0
  1  4  1  0
  8 12  1  0
 12 13  2  0
 13 15  1  0
 15 17  2  0
 17 19  1  0
 19 21  2  0
 21 12  1  0
  8  9  1  0
  8 10  1  0
  8 11  1  0
 13 14  1  0
 15 16  1  0
 17 18  1  0
 19 20  1  0
 21 22  1  0
M  CHG  1   7  -1
V    7 [O&-]
M  END
>  <PDB_ID>  (2943) 
pdb1k9x

>  <RESIDUE_NAME>  (2943) 
GLU   PHE

>  <FRAG_NAME>  (2943) 
ACET   MBZ

>  <FRAG_ATOM_NUM>  (2943) 
fragi: 7 fragj: 15

>  <atom.prop.CHAIN_ID>  (2943) 
A A A A A A A Z Z Z Z Z Z Z Z Z Z Z Z Z Z Z

>  <atom.prop.IS_HEAVY_ATOM>  (2943) 
1 0 0 0 1 1 1 1 0 0 0 1 1 0 1 0 1 0 1 0 1 0

>  <DIFUSE_FUNC_ATOM>  (2943) 
n/a

>  <FINAL_SINGLE_POINT_ENERGY>  (2943) 
0

>  <NONCOV_INTER_ENERGY_QM>  (2943) 
0

>  <FF_Energy>  (2943) 
7.28

>  <QM_Energy>  (2943) 
-6.96

>  <source>  (2943) 
ACET_MBZ_03

>  <Index>  (2943) 
14733

$$$$
ACEH-pdb2ory-A-GLH-277:MBZ-pdb2ory-B-PHE-105
     RDKit          3D

 22 21  0  0  0  0  0  0  0  0999 V2000
   -0.7371   -4.2507    1.1576 C   0  0  0  0  0  0  0  0  0  0  0  0
   -0.0106   -4.2470    1.8217 H   0  0  0  0  0  0  0  0  0  0  0  0
   -0.9088   -3.3520    0.7949 H   0  0  0  0  0  0  0  0  0  0  0  0
   -0.4305   -4.8928    0.3319 H   0  0  0  0  0  0  0  0  0  0  0  0
   -2.0206   -4.7050    1.8824 C   0  0  0  0  0  0  0  0  0  0  0  0
   -3.0158   -5.0630    1.2034 O   0  0  0  0  0  0  0  0  0  0  0  0
   -2.0420   -4.6798    3.1396 O   0  0  0  0  0  0  0  0  0  0  0  0
    0.0147    2.9056   -0.0685 C   0  0  0  0  0  0  0  0  0  0  0  0
   -0.1401    3.1711   -1.0096 H   0  0  0  0  0  0  0  0  0  0  0  0
    0.8990    3.2176    0.2495 H   0  0  0  0  0  0  0  0  0  0  0  0
   -0.7463    3.3914    0.5422 H   0  0  0  0  0  0  0  0  0  0  0  0
   -0.0003    1.3996   -0.0009 C   0  0  0  0  0  0  0  0  0  0  0  0
   -1.1965    0.6993    0.0008 C   0  0  0  0  0  0  0  0  0  0  0  0
   -2.0615    1.1910    0.0011 H   0  0  0  0  0  0  0  0  0  0  0  0
   -1.2028   -0.6889    0.0000 C   0  0  0  0  0  0  0  0  0  0  0  0
   -2.0768   -1.1848    0.0021 H   0  0  0  0  0  0  0  0  0  0  0  0
    0.0041   -1.3919   -0.0015 C   0  0  0  0  0  0  0  0  0  0  0  0
   -0.0104   -2.3917   -0.0039 H   0  0  0  0  0  0  0  0  0  0  0  0
    1.2028   -0.7046   -0.0000 C   0  0  0  0  0  0  0  0  0  0  0  0
    2.0831   -1.1986    0.0014 H   0  0  0  0  0  0  0  0  0  0  0  0
    1.1927    0.6866    0.0017 C   0  0  0  0  0  0  0  0  0  0  0  0
    2.0643    1.1842    0.0041 H   0  0  0  0  0  0  0  0  0  0  0  0
  1  5  1  0
  5  6  2  0
  5  7  1  0
  1  2  1  0
  1  3  1  0
  1  4  1  0
  8 12  1  0
 12 13  2  0
 13 15  1  0
 15 17  2  0
 17 19  1  0
 19 21  2  0
 21 12  1  0
  8  9  1  0
  8 10  1  0
  8 11  1  0
 13 14  1  0
 15 16  1  0
 17 18  1  0
 19 20  1  0
 21 22  1  0
M  CHG  1   7  -1
V    7 [O&-]
M  END
>  <PDB_ID>  (2944) 
pdb2ory

>  <RESIDUE_NAME>  (2944) 
GLU   PHE

>  <FRAG_NAME>  (2944) 
ACET   MBZ

>  <FRAG_ATOM_NUM>  (2944) 
fragi: 7 fragj: 15

>  <atom.prop.CHAIN_ID>  (2944) 
A A A A A A A Z Z Z Z Z Z Z Z Z Z Z Z Z Z Z

>  <atom.prop.IS_HEAVY_ATOM>  (2944) 
1 0 0 0 1 1 1 1 0 0 0 1 1 0 1 0 1 0 1 0 1 0

>  <DIFUSE_FUNC_ATOM>  (2944) 
n/a

>  <FINAL_SINGLE_POINT_ENERGY>  (2944) 
0

>  <NONCOV_INTER_ENERGY_QM>  (2944) 
0

>  <FF_Energy>  (2944) 
26.99

>  <QM_Energy>  (2944) 
3.75

>  <source>  (2944) 
ACET_MBZ_03

>  <Index>  (2944) 
14737

$$$$
ACEH-pdb1kit-A-GLH-616:MBZ-pdb1kit-A-PHE-638
     RDKit          3D

 22 21  0  0  0  0  0  0  0  0999 V2000
    4.7856    3.4103    0.8658 C   0  0  0  0  0  0  0  0  0  0  0  0
    5.6289    3.4734    1.3448 H   0  0  0  0  0  0  0  0  0  0  0  0
    4.2855    4.2432    0.8257 H   0  0  0  0  0  0  0  0  0  0  0  0
    5.0064    3.1038   -0.1567 H   0  0  0  0  0  0  0  0  0  0  0  0
    3.9029    2.3721    1.6082 C   0  0  0  0  0  0  0  0  0  0  0  0
    4.3610    1.2278    1.8112 O   0  0  0  0  0  0  0  0  0  0  0  0
    2.7475    2.7023    1.9721 O   0  0  0  0  0  0  0  0  0  0  0  0
    0.0065    2.9142   -0.0109 C   0  0  0  0  0  0  0  0  0  0  0  0
    0.8608    3.2229    0.3787 H   0  0  0  0  0  0  0  0  0  0  0  0
   -0.7656    3.2292    0.5199 H   0  0  0  0  0  0  0  0  0  0  0  0
   -0.0791    3.3388   -1.0110 H   0  0  0  0  0  0  0  0  0  0  0  0
    0.0034    1.4107    0.0120 C   0  0  0  0  0  0  0  0  0  0  0  0
   -1.1945    0.6920    0.0178 C   0  0  0  0  0  0  0  0  0  0  0  0
   -2.0641    1.1756    0.0334 H   0  0  0  0  0  0  0  0  0  0  0  0
   -1.1997   -0.7143   -0.0000 C   0  0  0  0  0  0  0  0  0  0  0  0
   -2.0778   -1.1992   -0.0089 H   0  0  0  0  0  0  0  0  0  0  0  0
   -0.0003   -1.4049   -0.0033 C   0  0  0  0  0  0  0  0  0  0  0  0
    0.0039   -2.4021   -0.0084 H   0  0  0  0  0  0  0  0  0  0  0  0
    1.1997   -0.7000   -0.0000 C   0  0  0  0  0  0  0  0  0  0  0  0
    2.0846   -1.1822    0.0227 H   0  0  0  0  0  0  0  0  0  0  0  0
    1.1914    0.7165   -0.0265 C   0  0  0  0  0  0  0  0  0  0  0  0
    2.0629    1.1977   -0.0740 H   0  0  0  0  0  0  0  0  0  0  0  0
  1  5  1  0
  5  6  2  0
  5  7  1  0
  1  2  1  0
  1  3  1  0
  1  4  1  0
  8 12  1  0
 12 13  2  0
 13 15  1  0
 15 17  2  0
 17 19  1  0
 19 21  2  0
 21 12  1  0
  8  9  1  0
  8 10  1  0
  8 11  1  0
 13 14  1  0
 15 16  1  0
 17 18  1  0
 19 20  1  0
 21 22  1  0
M  CHG  1   7  -1
V    7 [O&-]
M  END
>  <PDB_ID>  (2945) 
pdb1kit

>  <RESIDUE_NAME>  (2945) 
GLU   PHE

>  <FRAG_NAME>  (2945) 
ACET   MBZ

>  <FRAG_ATOM_NUM>  (2945) 
fragi: 7 fragj: 15

>  <atom.prop.CHAIN_ID>  (2945) 
A A A A A A A Z Z Z Z Z Z Z Z Z Z Z Z Z Z Z

>  <atom.prop.IS_HEAVY_ATOM>  (2945) 
1 0 0 0 1 1 1 1 0 0 0 1 1 0 1 0 1 0 1 0 1 0

>  <DIFUSE_FUNC_ATOM>  (2945) 
n/a

>  <FINAL_SINGLE_POINT_ENERGY>  (2945) 
0

>  <NONCOV_INTER_ENERGY_QM>  (2945) 
0

>  <FF_Energy>  (2945) 
-0.89

>  <QM_Energy>  (2945) 
-6.81

>  <source>  (2945) 
ACET_MBZ_03

>  <Index>  (2945) 
14847

$$$$
ACEH-pdb3idf-A-ASH-9:MBZ-pdb3idf-A-PHE-114
     RDKit          3D

 22 21  0  0  0  0  0  0  0  0999 V2000
    5.2299    4.2796   -0.1038 C   0  0  0  0  0  0  0  0  0  0  0  0
    6.0190    3.9066    0.3689 H   0  0  0  0  0  0  0  0  0  0  0  0
    4.8860    5.0820    0.3657 H   0  0  0  0  0  0  0  0  0  0  0  0
    5.5486    4.5844   -1.1006 H   0  0  0  0  0  0  0  0  0  0  0  0
    4.1213    3.2105   -0.1176 C   0  0  0  0  0  0  0  0  0  0  0  0
    3.1108    3.3910   -0.8401 O   0  0  0  0  0  0  0  0  0  0  0  0
    4.2508    2.1866    0.6017 O   0  0  0  0  0  0  0  0  0  0  0  0
   -0.0076    2.9172    0.0117 C   0  0  0  0  0  0  0  0  0  0  0  0
   -0.8587    3.2228   -0.3847 H   0  0  0  0  0  0  0  0  0  0  0  0
    0.7695    3.2307   -0.5100 H   0  0  0  0  0  0  0  0  0  0  0  0
    0.0667    3.3566    1.0066 H   0  0  0  0  0  0  0  0  0  0  0  0
   -0.0010    1.4062    0.0017 C   0  0  0  0  0  0  0  0  0  0  0  0
   -1.1958    0.6906   -0.0003 C   0  0  0  0  0  0  0  0  0  0  0  0
   -2.0654    1.1802   -0.0028 H   0  0  0  0  0  0  0  0  0  0  0  0
   -1.2047   -0.7038   -0.0000 C   0  0  0  0  0  0  0  0  0  0  0  0
   -2.0792   -1.1949    0.0059 H   0  0  0  0  0  0  0  0  0  0  0  0
    0.0003   -1.3991   -0.0058 C   0  0  0  0  0  0  0  0  0  0  0  0
    0.0012   -2.3953   -0.0142 H   0  0  0  0  0  0  0  0  0  0  0  0
    1.2047   -0.6942   -0.0000 C   0  0  0  0  0  0  0  0  0  0  0  0
    2.0859   -1.1900    0.0023 H   0  0  0  0  0  0  0  0  0  0  0  0
    1.1965    0.7003    0.0045 C   0  0  0  0  0  0  0  0  0  0  0  0
    2.0644    1.1971    0.0084 H   0  0  0  0  0  0  0  0  0  0  0  0
  1  5  1  0
  5  6  2  0
  5  7  1  0
  1  2  1  0
  1  3  1  0
  1  4  1  0
  8 12  1  0
 12 13  2  0
 13 15  1  0
 15 17  2  0
 17 19  1  0
 19 21  2  0
 21 12  1  0
  8  9  1  0
  8 10  1  0
  8 11  1  0
 13 14  1  0
 15 16  1  0
 17 18  1  0
 19 20  1  0
 21 22  1  0
M  CHG  1   7  -1
V    7 [O&-]
M  END
>  <PDB_ID>  (2946) 
pdb3idf

>  <RESIDUE_NAME>  (2946) 
ASP   PHE

>  <FRAG_NAME>  (2946) 
ACET   MBZ

>  <FRAG_ATOM_NUM>  (2946) 
fragi: 7 fragj: 15

>  <atom.prop.CHAIN_ID>  (2946) 
A A A A A A A Z Z Z Z Z Z Z Z Z Z Z Z Z Z Z

>  <atom.prop.IS_HEAVY_ATOM>  (2946) 
1 0 0 0 1 1 1 1 0 0 0 1 1 0 1 0 1 0 1 0 1 0

>  <DIFUSE_FUNC_ATOM>  (2946) 
n/a

>  <FINAL_SINGLE_POINT_ENERGY>  (2946) 
0

>  <NONCOV_INTER_ENERGY_QM>  (2946) 
0

>  <FF_Energy>  (2946) 
-2.19

>  <QM_Energy>  (2946) 
-10.01

>  <source>  (2946) 
ACET_MBZ_03

>  <Index>  (2946) 
14853

$$$$
ACEH-pdb2p3x-A-GLH-235:MBZ-pdb2p3x-A-PHE-113
     RDKit          3D

 22 21  0  0  0  0  0  0  0  0999 V2000
    0.0774   -0.2759   -3.4805 C   0  0  0  0  0  0  0  0  0  0  0  0
   -0.4126   -0.7892   -4.1679 H   0  0  0  0  0  0  0  0  0  0  0  0
    0.0232   -0.7140   -2.5959 H   0  0  0  0  0  0  0  0  0  0  0  0
    1.1228   -0.1843   -3.7751 H   0  0  0  0  0  0  0  0  0  0  0  0
   -0.6354    1.0689   -3.3466 C   0  0  0  0  0  0  0  0  0  0  0  0
   -1.8649    1.0206   -3.1166 O   0  0  0  0  0  0  0  0  0  0  0  0
    0.0062    2.1635   -3.4580 O   0  0  0  0  0  0  0  0  0  0  0  0
    0.0003    2.8959   -0.0825 C   0  0  0  0  0  0  0  0  0  0  0  0
   -0.6534    3.1860   -0.7713 H   0  0  0  0  0  0  0  0  0  0  0  0
    0.9155    3.1995   -0.3174 H   0  0  0  0  0  0  0  0  0  0  0  0
   -0.2726    3.3959    0.8468 H   0  0  0  0  0  0  0  0  0  0  0  0
   -0.0095    1.4229   -0.0047 C   0  0  0  0  0  0  0  0  0  0  0  0
   -1.2195    0.7152   -0.0048 C   0  0  0  0  0  0  0  0  0  0  0  0
   -2.0833    1.1793   -0.0094 H   0  0  0  0  0  0  0  0  0  0  0  0
   -1.2186   -0.7339   -0.0000 C   0  0  0  0  0  0  0  0  0  0  0  0
   -2.0706   -1.2185   -0.0201 H   0  0  0  0  0  0  0  0  0  0  0  0
    0.0314   -1.4090    0.0358 C   0  0  0  0  0  0  0  0  0  0  0  0
    0.0315   -2.4083    0.0875 H   0  0  0  0  0  0  0  0  0  0  0  0
    1.2186   -0.6999   -0.0000 C   0  0  0  0  0  0  0  0  0  0  0  0
    2.1097   -1.1788   -0.0065 H   0  0  0  0  0  0  0  0  0  0  0  0
    1.1976    0.7047   -0.0262 C   0  0  0  0  0  0  0  0  0  0  0  0
    2.0636    1.2054   -0.0613 H   0  0  0  0  0  0  0  0  0  0  0  0
  1  5  1  0
  5  6  2  0
  5  7  1  0
  1  2  1  0
  1  3  1  0
  1  4  1  0
  8 12  1  0
 12 13  2  0
 13 15  1  0
 15 17  2  0
 17 19  1  0
 19 21  2  0
 21 12  1  0
  8  9  1  0
  8 10  1  0
  8 11  1  0
 13 14  1  0
 15 16  1  0
 17 18  1  0
 19 20  1  0
 21 22  1  0
M  CHG  1   7  -1
V    7 [O&-]
M  END
>  <PDB_ID>  (2947) 
pdb2p3x

>  <RESIDUE_NAME>  (2947) 
GLU   PHE

>  <FRAG_NAME>  (2947) 
ACET   MBZ

>  <FRAG_ATOM_NUM>  (2947) 
fragi: 7 fragj: 15

>  <atom.prop.CHAIN_ID>  (2947) 
A A A A A A A Z Z Z Z Z Z Z Z Z Z Z Z Z Z Z

>  <atom.prop.IS_HEAVY_ATOM>  (2947) 
1 0 0 0 1 1 1 1 0 0 0 1 1 0 1 0 1 0 1 0 1 0

>  <DIFUSE_FUNC_ATOM>  (2947) 
n/a

>  <FINAL_SINGLE_POINT_ENERGY>  (2947) 
0

>  <NONCOV_INTER_ENERGY_QM>  (2947) 
0

>  <FF_Energy>  (2947) 
1.34

>  <QM_Energy>  (2947) 
-5.03

>  <source>  (2947) 
ACET_MBZ_03

>  <Index>  (2947) 
14912

$$$$
ACEH-pdb1krm-A-ASH-293:MBZ-pdb1krm-A-PHE-58
     RDKit          3D

 22 21  0  0  0  0  0  0  0  0999 V2000
   -2.2260   -4.7584   -0.6872 C   0  0  0  0  0  0  0  0  0  0  0  0
   -2.6799   -3.9580   -1.0955 H   0  0  0  0  0  0  0  0  0  0  0  0
   -2.6049   -4.9016    0.2336 H   0  0  0  0  0  0  0  0  0  0  0  0
   -2.4825   -5.6288   -1.2911 H   0  0  0  0  0  0  0  0  0  0  0  0
   -0.7735   -4.4925   -0.5806 C   0  0  0  0  0  0  0  0  0  0  0  0
   -0.2610   -4.5975    0.5295 O   0  0  0  0  0  0  0  0  0  0  0  0
   -0.1578   -4.1366   -1.5883 O   0  0  0  0  0  0  0  0  0  0  0  0
    0.0360    2.9234    0.1431 C   0  0  0  0  0  0  0  0  0  0  0  0
   -0.6473    3.2935   -0.4630 H   0  0  0  0  0  0  0  0  0  0  0  0
    0.9424    3.2295   -0.0966 H   0  0  0  0  0  0  0  0  0  0  0  0
   -0.1794    3.2965    1.1443 H   0  0  0  0  0  0  0  0  0  0  0  0
    0.0042    1.4030    0.0143 C   0  0  0  0  0  0  0  0  0  0  0  0
   -1.2174    0.7068   -0.0359 C   0  0  0  0  0  0  0  0  0  0  0  0
   -2.0667    1.1949   -0.0968 H   0  0  0  0  0  0  0  0  0  0  0  0
   -1.2169   -0.6990   -0.0000 C   0  0  0  0  0  0  0  0  0  0  0  0
   -2.0893   -1.1920    0.0053 H   0  0  0  0  0  0  0  0  0  0  0  0
   -0.0041   -1.3950    0.0300 C   0  0  0  0  0  0  0  0  0  0  0  0
   -0.0111   -2.3952    0.0730 H   0  0  0  0  0  0  0  0  0  0  0  0
    1.2169   -0.7073    0.0000 C   0  0  0  0  0  0  0  0  0  0  0  0
    2.0868   -1.2104   -0.0138 H   0  0  0  0  0  0  0  0  0  0  0  0
    1.2174    0.6916   -0.0085 C   0  0  0  0  0  0  0  0  0  0  0  0
    2.0769    1.1879   -0.0315 H   0  0  0  0  0  0  0  0  0  0  0  0
  1  5  1  0
  5  6  2  0
  5  7  1  0
  1  2  1  0
  1  3  1  0
  1  4  1  0
  8 12  1  0
 12 13  2  0
 13 15  1  0
 15 17  2  0
 17 19  1  0
 19 21  2  0
 21 12  1  0
  8  9  1  0
  8 10  1  0
  8 11  1  0
 13 14  1  0
 15 16  1  0
 17 18  1  0
 19 20  1  0
 21 22  1  0
M  CHG  1   7  -1
V    7 [O&-]
M  END
>  <PDB_ID>  (2948) 
pdb1krm

>  <RESIDUE_NAME>  (2948) 
ASP   PHE

>  <FRAG_NAME>  (2948) 
ACET   MBZ

>  <FRAG_ATOM_NUM>  (2948) 
fragi: 7 fragj: 15

>  <atom.prop.CHAIN_ID>  (2948) 
A A A A A A A Z Z Z Z Z Z Z Z Z Z Z Z Z Z Z

>  <atom.prop.IS_HEAVY_ATOM>  (2948) 
1 0 0 0 1 1 1 1 0 0 0 1 1 0 1 0 1 0 1 0 1 0

>  <DIFUSE_FUNC_ATOM>  (2948) 
n/a

>  <FINAL_SINGLE_POINT_ENERGY>  (2948) 
0

>  <NONCOV_INTER_ENERGY_QM>  (2948) 
0

>  <FF_Energy>  (2948) 
2.0

>  <QM_Energy>  (2948) 
-5.38

>  <source>  (2948) 
ACET_MBZ_03

>  <Index>  (2948) 
14930

$$$$
ACEH-pdb3ijt-A-ASH-73:MBZ-pdb3ijt-A-PHE-84
     RDKit          3D

 22 21  0  0  0  0  0  0  0  0999 V2000
    0.3960    6.2882   -3.6840 C   0  0  0  0  0  0  0  0  0  0  0  0
   -0.3613    6.8324   -4.0320 H   0  0  0  0  0  0  0  0  0  0  0  0
    1.0661    6.1331   -4.4021 H   0  0  0  0  0  0  0  0  0  0  0  0
    0.8804    6.8581   -2.8911 H   0  0  0  0  0  0  0  0  0  0  0  0
   -0.1325    4.9586   -3.2101 C   0  0  0  0  0  0  0  0  0  0  0  0
   -1.2774    4.9178   -2.7253 O   0  0  0  0  0  0  0  0  0  0  0  0
    0.5830    3.9451   -3.3390 O   0  0  0  0  0  0  0  0  0  0  0  0
    0.0187    2.8857    0.0067 C   0  0  0  0  0  0  0  0  0  0  0  0
   -0.9019    3.2059    0.1709 H   0  0  0  0  0  0  0  0  0  0  0  0
    0.3591    3.2006   -0.8663 H   0  0  0  0  0  0  0  0  0  0  0  0
    0.6596    3.3022    0.7838 H   0  0  0  0  0  0  0  0  0  0  0  0
    0.0020    1.3979   -0.0061 C   0  0  0  0  0  0  0  0  0  0  0  0
   -1.2000    0.7036    0.0081 C   0  0  0  0  0  0  0  0  0  0  0  0
   -2.0611    1.1966    0.0231 H   0  0  0  0  0  0  0  0  0  0  0  0
   -1.2063   -0.6871   -0.0000 C   0  0  0  0  0  0  0  0  0  0  0  0
   -2.0825   -1.1810   -0.0033 H   0  0  0  0  0  0  0  0  0  0  0  0
   -0.0010   -1.3924   -0.0015 C   0  0  0  0  0  0  0  0  0  0  0  0
   -0.0133   -2.3909   -0.0039 H   0  0  0  0  0  0  0  0  0  0  0  0
    1.2063   -0.7039   -0.0000 C   0  0  0  0  0  0  0  0  0  0  0  0
    2.0820   -1.2049    0.0031 H   0  0  0  0  0  0  0  0  0  0  0  0
    1.1989    0.6819   -0.0004 C   0  0  0  0  0  0  0  0  0  0  0  0
    2.0681    1.1821    0.0027 H   0  0  0  0  0  0  0  0  0  0  0  0
  1  5  1  0
  5  6  2  0
  5  7  1  0
  1  2  1  0
  1  3  1  0
  1  4  1  0
  8 12  1  0
 12 13  2  0
 13 15  1  0
 15 17  2  0
 17 19  1  0
 19 21  2  0
 21 12  1  0
  8  9  1  0
  8 10  1  0
  8 11  1  0
 13 14  1  0
 15 16  1  0
 17 18  1  0
 19 20  1  0
 21 22  1  0
M  CHG  1   7  -1
V    7 [O&-]
M  END
>  <PDB_ID>  (2949) 
pdb3ijt

>  <RESIDUE_NAME>  (2949) 
ASP   PHE

>  <FRAG_NAME>  (2949) 
ACET   MBZ

>  <FRAG_ATOM_NUM>  (2949) 
fragi: 7 fragj: 15

>  <atom.prop.CHAIN_ID>  (2949) 
A A A A A A A Z Z Z Z Z Z Z Z Z Z Z Z Z Z Z

>  <atom.prop.IS_HEAVY_ATOM>  (2949) 
1 0 0 0 1 1 1 1 0 0 0 1 1 0 1 0 1 0 1 0 1 0

>  <DIFUSE_FUNC_ATOM>  (2949) 
n/a

>  <FINAL_SINGLE_POINT_ENERGY>  (2949) 
0

>  <NONCOV_INTER_ENERGY_QM>  (2949) 
0

>  <FF_Energy>  (2949) 
-0.3

>  <QM_Energy>  (2949) 
-5.52

>  <source>  (2949) 
ACET_MBZ_03

>  <Index>  (2949) 
14959

$$$$
ACEH-pdb2p62-B-GLH-66:MBZ-pdb2p62-B-PHE-44
     RDKit          3D

 22 21  0  0  0  0  0  0  0  0999 V2000
    0.2451   -2.4851   -4.5806 C   0  0  0  0  0  0  0  0  0  0  0  0
    1.0392   -2.4302   -5.1508 H   0  0  0  0  0  0  0  0  0  0  0  0
   -0.5323   -2.0312   -4.9657 H   0  0  0  0  0  0  0  0  0  0  0  0
   -0.0034   -3.5363   -4.4351 H   0  0  0  0  0  0  0  0  0  0  0  0
    0.5740   -1.7940   -3.2684 C   0  0  0  0  0  0  0  0  0  0  0  0
   -0.0687   -0.7681   -2.9483 O   0  0  0  0  0  0  0  0  0  0  0  0
    1.4797   -2.2806   -2.5557 O   0  0  0  0  0  0  0  0  0  0  0  0
   -0.0039    2.8940   -0.0147 C   0  0  0  0  0  0  0  0  0  0  0  0
    0.8733    3.2015   -0.3508 H   0  0  0  0  0  0  0  0  0  0  0  0
   -0.1691    3.2103    0.9075 H   0  0  0  0  0  0  0  0  0  0  0  0
   -0.7760    3.3178   -0.6569 H   0  0  0  0  0  0  0  0  0  0  0  0
   -0.0003    1.3997   -0.0015 C   0  0  0  0  0  0  0  0  0  0  0  0
   -1.1972    0.6885    0.0022 C   0  0  0  0  0  0  0  0  0  0  0  0
   -2.0645    1.1813    0.0052 H   0  0  0  0  0  0  0  0  0  0  0  0
   -1.2033   -0.6989    0.0000 C   0  0  0  0  0  0  0  0  0  0  0  0
   -2.0787   -1.1939   -0.0003 H   0  0  0  0  0  0  0  0  0  0  0  0
   -0.0000   -1.3937    0.0001 C   0  0  0  0  0  0  0  0  0  0  0  0
   -0.0006   -2.3913    0.0004 H   0  0  0  0  0  0  0  0  0  0  0  0
    1.2033   -0.6930   -0.0000 C   0  0  0  0  0  0  0  0  0  0  0  0
    2.0836   -1.1909    0.0017 H   0  0  0  0  0  0  0  0  0  0  0  0
    1.1976    0.6974   -0.0008 C   0  0  0  0  0  0  0  0  0  0  0  0
    2.0639    1.1949   -0.0021 H   0  0  0  0  0  0  0  0  0  0  0  0
  1  5  1  0
  5  6  2  0
  5  7  1  0
  1  2  1  0
  1  3  1  0
  1  4  1  0
  8 12  1  0
 12 13  2  0
 13 15  1  0
 15 17  2  0
 17 19  1  0
 19 21  2  0
 21 12  1  0
  8  9  1  0
  8 10  1  0
  8 11  1  0
 13 14  1  0
 15 16  1  0
 17 18  1  0
 19 20  1  0
 21 22  1  0
M  CHG  1   7  -1
V    7 [O&-]
M  END
>  <PDB_ID>  (2950) 
pdb2p62

>  <RESIDUE_NAME>  (2950) 
GLU   PHE

>  <FRAG_NAME>  (2950) 
ACET   MBZ

>  <FRAG_ATOM_NUM>  (2950) 
fragi: 7 fragj: 15

>  <atom.prop.CHAIN_ID>  (2950) 
A A A A A A A Z Z Z Z Z Z Z Z Z Z Z Z Z Z Z

>  <atom.prop.IS_HEAVY_ATOM>  (2950) 
1 0 0 0 1 1 1 1 0 0 0 1 1 0 1 0 1 0 1 0 1 0

>  <DIFUSE_FUNC_ATOM>  (2950) 
n/a

>  <FINAL_SINGLE_POINT_ENERGY>  (2950) 
0

>  <NONCOV_INTER_ENERGY_QM>  (2950) 
0

>  <FF_Energy>  (2950) 
6.19

>  <QM_Energy>  (2950) 
0.69

>  <source>  (2950) 
ACET_MBZ_03

>  <Index>  (2950) 
14962

$$$$
ACEH-pdb1ktd-C-GLH-21:MBZ-pdb1ktd-C-PHE-137
     RDKit          3D

 22 21  0  0  0  0  0  0  0  0999 V2000
    5.2849    4.8481    0.0079 C   0  0  0  0  0  0  0  0  0  0  0  0
    5.4191    5.8100    0.1743 H   0  0  0  0  0  0  0  0  0  0  0  0
    5.8099    4.5328   -0.7647 H   0  0  0  0  0  0  0  0  0  0  0  0
    5.6163    4.3015    0.8908 H   0  0  0  0  0  0  0  0  0  0  0  0
    3.8070    4.6457   -0.3330 C   0  0  0  0  0  0  0  0  0  0  0  0
    3.3990    3.4920   -0.6209 O   0  0  0  0  0  0  0  0  0  0  0  0
    3.0573    5.6496   -0.3210 O   0  0  0  0  0  0  0  0  0  0  0  0
    0.0024    2.9161   -0.1220 C   0  0  0  0  0  0  0  0  0  0  0  0
    0.8600    3.2455    0.2268 H   0  0  0  0  0  0  0  0  0  0  0  0
   -0.7652    3.2614    0.3852 H   0  0  0  0  0  0  0  0  0  0  0  0
   -0.0952    3.2543   -1.1536 H   0  0  0  0  0  0  0  0  0  0  0  0
   -0.0004    1.4097   -0.0015 C   0  0  0  0  0  0  0  0  0  0  0  0
   -1.1991    0.6992    0.0006 C   0  0  0  0  0  0  0  0  0  0  0  0
   -2.0658    1.1857    0.0008 H   0  0  0  0  0  0  0  0  0  0  0  0
   -1.2023   -0.6990    0.0000 C   0  0  0  0  0  0  0  0  0  0  0  0
   -2.0776   -1.1917    0.0026 H   0  0  0  0  0  0  0  0  0  0  0  0
    0.0050   -1.4038   -0.0025 C   0  0  0  0  0  0  0  0  0  0  0  0
   -0.0040   -2.3983   -0.0068 H   0  0  0  0  0  0  0  0  0  0  0  0
    1.2023   -0.7035   -0.0000 C   0  0  0  0  0  0  0  0  0  0  0  0
    2.0874   -1.1937    0.0006 H   0  0  0  0  0  0  0  0  0  0  0  0
    1.1945    0.6974    0.0034 C   0  0  0  0  0  0  0  0  0  0  0  0
    2.0650    1.1895    0.0090 H   0  0  0  0  0  0  0  0  0  0  0  0
  1  5  1  0
  5  6  2  0
  5  7  1  0
  1  2  1  0
  1  3  1  0
  1  4  1  0
  8 12  1  0
 12 13  2  0
 13 15  1  0
 15 17  2  0
 17 19  1  0
 19 21  2  0
 21 12  1  0
  8  9  1  0
  8 10  1  0
  8 11  1  0
 13 14  1  0
 15 16  1  0
 17 18  1  0
 19 20  1  0
 21 22  1  0
M  CHG  1   7  -1
V    7 [O&-]
M  END
>  <PDB_ID>  (2951) 
pdb1ktd

>  <RESIDUE_NAME>  (2951) 
GLU   PHE

>  <FRAG_NAME>  (2951) 
ACET   MBZ

>  <FRAG_ATOM_NUM>  (2951) 
fragi: 7 fragj: 15

>  <atom.prop.CHAIN_ID>  (2951) 
A A A A A A A Z Z Z Z Z Z Z Z Z Z Z Z Z Z Z

>  <atom.prop.IS_HEAVY_ATOM>  (2951) 
1 0 0 0 1 1 1 1 0 0 0 1 1 0 1 0 1 0 1 0 1 0

>  <DIFUSE_FUNC_ATOM>  (2951) 
n/a

>  <FINAL_SINGLE_POINT_ENERGY>  (2951) 
0

>  <NONCOV_INTER_ENERGY_QM>  (2951) 
0

>  <FF_Energy>  (2951) 
-2.32

>  <QM_Energy>  (2951) 
-7.69

>  <source>  (2951) 
ACET_MBZ_03

>  <Index>  (2951) 
14966

$$$$
ACEH-pdb2pb0-B-GLH-113:MBZ-pdb2pb0-B-PHE-147
     RDKit          3D

 22 21  0  0  0  0  0  0  0  0999 V2000
    4.6481    4.1195    2.0394 C   0  0  0  0  0  0  0  0  0  0  0  0
    4.1090    4.1520    2.8649 H   0  0  0  0  0  0  0  0  0  0  0  0
    5.1090    4.9753    1.8727 H   0  0  0  0  0  0  0  0  0  0  0  0
    5.4029    3.3419    2.1565 H   0  0  0  0  0  0  0  0  0  0  0  0
    3.6894    3.8850    0.8770 C   0  0  0  0  0  0  0  0  0  0  0  0
    3.9116    2.9727    0.0488 O   0  0  0  0  0  0  0  0  0  0  0  0
    2.7015    4.6332    0.7878 O   0  0  0  0  0  0  0  0  0  0  0  0
    0.0266    2.9205   -0.0152 C   0  0  0  0  0  0  0  0  0  0  0  0
    0.1438    3.2064   -0.9565 H   0  0  0  0  0  0  0  0  0  0  0  0
    0.7896    3.2181    0.5437 H   0  0  0  0  0  0  0  0  0  0  0  0
   -0.8733    3.4010    0.3689 H   0  0  0  0  0  0  0  0  0  0  0  0
   -0.0011    1.4069    0.0080 C   0  0  0  0  0  0  0  0  0  0  0  0
   -1.1994    0.6965   -0.0083 C   0  0  0  0  0  0  0  0  0  0  0  0
   -2.0659    1.1852   -0.0277 H   0  0  0  0  0  0  0  0  0  0  0  0
   -1.2046   -0.6984    0.0000 C   0  0  0  0  0  0  0  0  0  0  0  0
   -2.0780   -1.1925    0.0075 H   0  0  0  0  0  0  0  0  0  0  0  0
    0.0036   -1.3975   -0.0008 C   0  0  0  0  0  0  0  0  0  0  0  0
   -0.0022   -2.3947   -0.0024 H   0  0  0  0  0  0  0  0  0  0  0  0
    1.2046   -0.6991    0.0000 C   0  0  0  0  0  0  0  0  0  0  0  0
    2.0863   -1.1952    0.0018 H   0  0  0  0  0  0  0  0  0  0  0  0
    1.1969    0.6916    0.0011 C   0  0  0  0  0  0  0  0  0  0  0  0
    2.0657    1.1907   -0.0041 H   0  0  0  0  0  0  0  0  0  0  0  0
  1  5  1  0
  5  6  2  0
  5  7  1  0
  1  2  1  0
  1  3  1  0
  1  4  1  0
  8 12  1  0
 12 13  2  0
 13 15  1  0
 15 17  2  0
 17 19  1  0
 19 21  2  0
 21 12  1  0
  8  9  1  0
  8 10  1  0
  8 11  1  0
 13 14  1  0
 15 16  1  0
 17 18  1  0
 19 20  1  0
 21 22  1  0
M  CHG  1   7  -1
V    7 [O&-]
M  END
>  <PDB_ID>  (2952) 
pdb2pb0

>  <RESIDUE_NAME>  (2952) 
GLU   PHE

>  <FRAG_NAME>  (2952) 
ACET   MBZ

>  <FRAG_ATOM_NUM>  (2952) 
fragi: 7 fragj: 15

>  <atom.prop.CHAIN_ID>  (2952) 
A A A A A A A Z Z Z Z Z Z Z Z Z Z Z Z Z Z Z

>  <atom.prop.IS_HEAVY_ATOM>  (2952) 
1 0 0 0 1 1 1 1 0 0 0 1 1 0 1 0 1 0 1 0 1 0

>  <DIFUSE_FUNC_ATOM>  (2952) 
n/a

>  <FINAL_SINGLE_POINT_ENERGY>  (2952) 
0

>  <NONCOV_INTER_ENERGY_QM>  (2952) 
0

>  <FF_Energy>  (2952) 
-2.4

>  <QM_Energy>  (2952) 
-8.82

>  <source>  (2952) 
ACET_MBZ_03

>  <Index>  (2952) 
15077

$$$$
ACEH-pdb1l7j-A-ASH-243:MBZ-pdb1l7j-A-PHE-279
     RDKit          3D

 22 21  0  0  0  0  0  0  0  0999 V2000
   -3.8713    1.6456   -2.5129 C   0  0  0  0  0  0  0  0  0  0  0  0
   -4.1405    0.9254   -1.8891 H   0  0  0  0  0  0  0  0  0  0  0  0
   -4.4653    1.6744   -3.3033 H   0  0  0  0  0  0  0  0  0  0  0  0
   -3.9818    2.5930   -1.9854 H   0  0  0  0  0  0  0  0  0  0  0  0
   -2.4484    1.4055   -2.9667 C   0  0  0  0  0  0  0  0  0  0  0  0
   -1.5347    2.1613   -2.7102 O   0  0  0  0  0  0  0  0  0  0  0  0
   -2.2681    0.2997   -3.6395 O   0  0  0  0  0  0  0  0  0  0  0  0
   -0.0334    2.9062    0.0342 C   0  0  0  0  0  0  0  0  0  0  0  0
   -0.4510    3.2303   -0.7819 H   0  0  0  0  0  0  0  0  0  0  0  0
    0.8705    3.2373    0.1769 H   0  0  0  0  0  0  0  0  0  0  0  0
   -0.6424    3.2484    0.8709 H   0  0  0  0  0  0  0  0  0  0  0  0
    0.0000    1.4130    0.0000 C   0  0  0  0  0  0  0  0  0  0  0  0
   -1.1954    0.7010    0.0041 C   0  0  0  0  0  0  0  0  0  0  0  0
   -2.0644    1.1893    0.0083 H   0  0  0  0  0  0  0  0  0  0  0  0
   -1.2024   -0.6950   -0.0000 C   0  0  0  0  0  0  0  0  0  0  0  0
   -2.0860   -1.1829    0.0103 H   0  0  0  0  0  0  0  0  0  0  0  0
   -0.0081   -1.4057   -0.0158 C   0  0  0  0  0  0  0  0  0  0  0  0
   -0.0141   -2.3983   -0.0383 H   0  0  0  0  0  0  0  0  0  0  0  0
    1.2024   -0.7062    0.0000 C   0  0  0  0  0  0  0  0  0  0  0  0
    2.0804   -1.2059    0.0050 H   0  0  0  0  0  0  0  0  0  0  0  0
    1.2035    0.6928    0.0117 C   0  0  0  0  0  0  0  0  0  0  0  0
    2.0699    1.1857    0.0273 H   0  0  0  0  0  0  0  0  0  0  0  0
  1  5  1  0
  5  6  2  0
  5  7  1  0
  1  2  1  0
  1  3  1  0
  1  4  1  0
  8 12  1  0
 12 13  2  0
 13 15  1  0
 15 17  2  0
 17 19  1  0
 19 21  2  0
 21 12  1  0
  8  9  1  0
  8 10  1  0
  8 11  1  0
 13 14  1  0
 15 16  1  0
 17 18  1  0
 19 20  1  0
 21 22  1  0
M  CHG  1   7  -1
V    7 [O&-]
M  END
>  <PDB_ID>  (2953) 
pdb1l7j

>  <RESIDUE_NAME>  (2953) 
ASP   PHE

>  <FRAG_NAME>  (2953) 
ACET   MBZ

>  <FRAG_ATOM_NUM>  (2953) 
fragi: 7 fragj: 15

>  <atom.prop.CHAIN_ID>  (2953) 
A A A A A A A Z Z Z Z Z Z Z Z Z Z Z Z Z Z Z

>  <atom.prop.IS_HEAVY_ATOM>  (2953) 
1 0 0 0 1 1 1 1 0 0 0 1 1 0 1 0 1 0 1 0 1 0

>  <DIFUSE_FUNC_ATOM>  (2953) 
n/a

>  <FINAL_SINGLE_POINT_ENERGY>  (2953) 
0

>  <NONCOV_INTER_ENERGY_QM>  (2953) 
0

>  <FF_Energy>  (2953) 
2.85

>  <QM_Energy>  (2953) 
-3.77

>  <source>  (2953) 
ACET_MBZ_03

>  <Index>  (2953) 
15098

$$$$
ACEH-pdb4mps-A-ASH-255:MBZ-pdb4mps-A-PHE-274
     RDKit          3D

 22 21  0  0  0  0  0  0  0  0999 V2000
   -3.6909   -1.8951    2.5167 C   0  0  0  0  0  0  0  0  0  0  0  0
   -4.1384   -2.5679    1.9347 H   0  0  0  0  0  0  0  0  0  0  0  0
   -4.0885   -0.9955    2.3704 H   0  0  0  0  0  0  0  0  0  0  0  0
   -3.8757   -2.1768    3.5533 H   0  0  0  0  0  0  0  0  0  0  0  0
   -2.2288   -1.8489    2.1813 C   0  0  0  0  0  0  0  0  0  0  0  0
   -1.6802   -2.9087    1.7949 O   0  0  0  0  0  0  0  0  0  0  0  0
   -1.6354   -0.7553    2.3169 O   0  0  0  0  0  0  0  0  0  0  0  0
   -0.0002    2.8952   -0.1074 C   0  0  0  0  0  0  0  0  0  0  0  0
    0.8816    3.2230    0.1898 H   0  0  0  0  0  0  0  0  0  0  0  0
   -0.7291    3.2423    0.4597 H   0  0  0  0  0  0  0  0  0  0  0  0
   -0.1662    3.2513   -1.1242 H   0  0  0  0  0  0  0  0  0  0  0  0
   -0.0004    1.3984   -0.0016 C   0  0  0  0  0  0  0  0  0  0  0  0
   -1.1962    0.6924    0.0007 C   0  0  0  0  0  0  0  0  0  0  0  0
   -2.0635    1.1853    0.0020 H   0  0  0  0  0  0  0  0  0  0  0  0
   -1.2043   -0.6956    0.0000 C   0  0  0  0  0  0  0  0  0  0  0  0
   -2.0791   -1.1906    0.0018 H   0  0  0  0  0  0  0  0  0  0  0  0
   -0.0003   -1.3932   -0.0017 C   0  0  0  0  0  0  0  0  0  0  0  0
   -0.0035   -2.3902   -0.0048 H   0  0  0  0  0  0  0  0  0  0  0  0
    1.2043   -0.6943   -0.0000 C   0  0  0  0  0  0  0  0  0  0  0  0
    2.0832   -1.1946    0.0011 H   0  0  0  0  0  0  0  0  0  0  0  0
    1.1969    0.6923    0.0026 C   0  0  0  0  0  0  0  0  0  0  0  0
    2.0643    1.1922    0.0070 H   0  0  0  0  0  0  0  0  0  0  0  0
  1  5  1  0
  5  6  2  0
  5  7  1  0
  1  2  1  0
  1  3  1  0
  1  4  1  0
  8 12  1  0
 12 13  2  0
 13 15  1  0
 15 17  2  0
 17 19  1  0
 19 21  2  0
 21 12  1  0
  8  9  1  0
  8 10  1  0
  8 11  1  0
 13 14  1  0
 15 16  1  0
 17 18  1  0
 19 20  1  0
 21 22  1  0
M  CHG  1   7  -1
V    7 [O&-]
M  END
>  <PDB_ID>  (2954) 
pdb4mps

>  <RESIDUE_NAME>  (2954) 
ASP   PHE

>  <FRAG_NAME>  (2954) 
ACET   MBZ

>  <FRAG_ATOM_NUM>  (2954) 
fragi: 7 fragj: 15

>  <atom.prop.CHAIN_ID>  (2954) 
A A A A A A A Z Z Z Z Z Z Z Z Z Z Z Z Z Z Z

>  <atom.prop.IS_HEAVY_ATOM>  (2954) 
1 0 0 0 1 1 1 1 0 0 0 1 1 0 1 0 1 0 1 0 1 0

>  <DIFUSE_FUNC_ATOM>  (2954) 
n/a

>  <FINAL_SINGLE_POINT_ENERGY>  (2954) 
0

>  <NONCOV_INTER_ENERGY_QM>  (2954) 
0

>  <FF_Energy>  (2954) 
37.92

>  <QM_Energy>  (2954) 
7.69

>  <source>  (2954) 
ACET_MBZ_03

>  <Index>  (2954) 
15109

$$$$
ACEH-pdb2pd0-A-GLH-191:MBZ-pdb2pd0-B-PHE-160
     RDKit          3D

 22 21  0  0  0  0  0  0  0  0999 V2000
   -1.8130    2.0194   -2.9681 C   0  0  0  0  0  0  0  0  0  0  0  0
   -1.4409    1.7283   -2.0975 H   0  0  0  0  0  0  0  0  0  0  0  0
   -1.3296    2.8118   -3.3144 H   0  0  0  0  0  0  0  0  0  0  0  0
   -1.7510    1.2033   -3.6880 H   0  0  0  0  0  0  0  0  0  0  0  0
   -3.2482    2.4844   -2.6863 C   0  0  0  0  0  0  0  0  0  0  0  0
   -4.1785    2.0908   -3.4767 O   0  0  0  0  0  0  0  0  0  0  0  0
   -3.4190    3.2563   -1.6632 O   0  0  0  0  0  0  0  0  0  0  0  0
    0.0147    2.9264    0.0124 C   0  0  0  0  0  0  0  0  0  0  0  0
   -0.8218    3.2472   -0.4008 H   0  0  0  0  0  0  0  0  0  0  0  0
    0.8092    3.2362   -0.4840 H   0  0  0  0  0  0  0  0  0  0  0  0
    0.0688    3.3618    1.0102 H   0  0  0  0  0  0  0  0  0  0  0  0
    0.0032    1.4155   -0.0060 C   0  0  0  0  0  0  0  0  0  0  0  0
   -1.1973    0.7151    0.0011 C   0  0  0  0  0  0  0  0  0  0  0  0
   -2.0625    1.1955    0.0058 H   0  0  0  0  0  0  0  0  0  0  0  0
   -1.2043   -0.7000   -0.0000 C   0  0  0  0  0  0  0  0  0  0  0  0
   -2.0850   -1.1813    0.0006 H   0  0  0  0  0  0  0  0  0  0  0  0
   -0.0016   -1.4108   -0.0006 C   0  0  0  0  0  0  0  0  0  0  0  0
   -0.0107   -2.4037   -0.0021 H   0  0  0  0  0  0  0  0  0  0  0  0
    1.2043   -0.7103    0.0000 C   0  0  0  0  0  0  0  0  0  0  0  0
    2.0835   -1.2028   -0.0023 H   0  0  0  0  0  0  0  0  0  0  0  0
    1.1958    0.6905    0.0055 C   0  0  0  0  0  0  0  0  0  0  0  0
    2.0698    1.1830    0.0172 H   0  0  0  0  0  0  0  0  0  0  0  0
  1  5  1  0
  5  6  2  0
  5  7  1  0
  1  2  1  0
  1  3  1  0
  1  4  1  0
  8 12  1  0
 12 13  2  0
 13 15  1  0
 15 17  2  0
 17 19  1  0
 19 21  2  0
 21 12  1  0
  8  9  1  0
  8 10  1  0
  8 11  1  0
 13 14  1  0
 15 16  1  0
 17 18  1  0
 19 20  1  0
 21 22  1  0
M  CHG  1   7  -1
V    7 [O&-]
M  END
>  <PDB_ID>  (2955) 
pdb2pd0

>  <RESIDUE_NAME>  (2955) 
GLU   PHE

>  <FRAG_NAME>  (2955) 
ACET   MBZ

>  <FRAG_ATOM_NUM>  (2955) 
fragi: 7 fragj: 15

>  <atom.prop.CHAIN_ID>  (2955) 
A A A A A A A Z Z Z Z Z Z Z Z Z Z Z Z Z Z Z

>  <atom.prop.IS_HEAVY_ATOM>  (2955) 
1 0 0 0 1 1 1 1 0 0 0 1 1 0 1 0 1 0 1 0 1 0

>  <DIFUSE_FUNC_ATOM>  (2955) 
n/a

>  <FINAL_SINGLE_POINT_ENERGY>  (2955) 
0

>  <NONCOV_INTER_ENERGY_QM>  (2955) 
0

>  <FF_Energy>  (2955) 
0.91

>  <QM_Energy>  (2955) 
-4.49

>  <source>  (2955) 
ACET_MBZ_03

>  <Index>  (2955) 
15110

$$$$
ACEH-pdb1lbe-A-GLH-179:MBZ-pdb1lbe-A-PHE-175
     RDKit          3D

 22 21  0  0  0  0  0  0  0  0999 V2000
   -4.6187    2.9043    2.3541 C   0  0  0  0  0  0  0  0  0  0  0  0
   -5.5802    2.6681    2.3765 H   0  0  0  0  0  0  0  0  0  0  0  0
   -4.4106    3.6094    3.0178 H   0  0  0  0  0  0  0  0  0  0  0  0
   -4.0269    2.0163    2.5763 H   0  0  0  0  0  0  0  0  0  0  0  0
   -4.3347    3.4787    0.9938 C   0  0  0  0  0  0  0  0  0  0  0  0
   -5.1252    4.3492    0.5802 O   0  0  0  0  0  0  0  0  0  0  0  0
   -3.3485    3.1089    0.3173 O   0  0  0  0  0  0  0  0  0  0  0  0
   -0.0037    2.9238    0.0802 C   0  0  0  0  0  0  0  0  0  0  0  0
   -0.6466    3.2600   -0.5829 H   0  0  0  0  0  0  0  0  0  0  0  0
    0.9112    3.2388   -0.0954 H   0  0  0  0  0  0  0  0  0  0  0  0
   -0.3054    3.2943    1.0599 H   0  0  0  0  0  0  0  0  0  0  0  0
    0.0000    1.4149    0.0012 C   0  0  0  0  0  0  0  0  0  0  0  0
   -1.1952    0.7079   -0.0035 C   0  0  0  0  0  0  0  0  0  0  0  0
   -2.0656    1.1916   -0.0104 H   0  0  0  0  0  0  0  0  0  0  0  0
   -1.2096   -0.7033   -0.0000 C   0  0  0  0  0  0  0  0  0  0  0  0
   -2.0908   -1.1806    0.0014 H   0  0  0  0  0  0  0  0  0  0  0  0
   -0.0126   -1.4090    0.0031 C   0  0  0  0  0  0  0  0  0  0  0  0
   -0.0124   -2.4020    0.0069 H   0  0  0  0  0  0  0  0  0  0  0  0
    1.2096   -0.7065    0.0000 C   0  0  0  0  0  0  0  0  0  0  0  0
    2.0819   -1.2073   -0.0004 H   0  0  0  0  0  0  0  0  0  0  0  0
    1.2078    0.6959   -0.0008 C   0  0  0  0  0  0  0  0  0  0  0  0
    2.0727    1.1900   -0.0036 H   0  0  0  0  0  0  0  0  0  0  0  0
  1  5  1  0
  5  6  2  0
  5  7  1  0
  1  2  1  0
  1  3  1  0
  1  4  1  0
  8 12  1  0
 12 13  2  0
 13 15  1  0
 15 17  2  0
 17 19  1  0
 19 21  2  0
 21 12  1  0
  8  9  1  0
  8 10  1  0
  8 11  1  0
 13 14  1  0
 15 16  1  0
 17 18  1  0
 19 20  1  0
 21 22  1  0
M  CHG  1   7  -1
V    7 [O&-]
M  END
>  <PDB_ID>  (2956) 
pdb1lbe

>  <RESIDUE_NAME>  (2956) 
GLU   PHE

>  <FRAG_NAME>  (2956) 
ACET   MBZ

>  <FRAG_ATOM_NUM>  (2956) 
fragi: 7 fragj: 15

>  <atom.prop.CHAIN_ID>  (2956) 
A A A A A A A Z Z Z Z Z Z Z Z Z Z Z Z Z Z Z

>  <atom.prop.IS_HEAVY_ATOM>  (2956) 
1 0 0 0 1 1 1 1 0 0 0 1 1 0 1 0 1 0 1 0 1 0

>  <DIFUSE_FUNC_ATOM>  (2956) 
n/a

>  <FINAL_SINGLE_POINT_ENERGY>  (2956) 
0

>  <NONCOV_INTER_ENERGY_QM>  (2956) 
0

>  <FF_Energy>  (2956) 
-1.65

>  <QM_Energy>  (2956) 
-7.82

>  <source>  (2956) 
ACET_MBZ_03

>  <Index>  (2956) 
15119

$$$$
ACEH-pdb3iwk-H-GLH-96:MBZ-pdb3iwk-H-PHE-165
     RDKit          3D

 22 21  0  0  0  0  0  0  0  0999 V2000
    3.1263    6.2747   -1.9957 C   0  0  0  0  0  0  0  0  0  0  0  0
    3.5598    6.2720   -1.1128 H   0  0  0  0  0  0  0  0  0  0  0  0
    2.9652    7.1871   -2.3261 H   0  0  0  0  0  0  0  0  0  0  0  0
    3.7889    5.7705   -2.6992 H   0  0  0  0  0  0  0  0  0  0  0  0
    1.7652    5.5961   -1.8421 C   0  0  0  0  0  0  0  0  0  0  0  0
    1.2911    5.4714   -0.6877 O   0  0  0  0  0  0  0  0  0  0  0  0
    1.1641    5.1926   -2.8658 O   0  0  0  0  0  0  0  0  0  0  0  0
    0.0218    2.9147    0.0012 C   0  0  0  0  0  0  0  0  0  0  0  0
    0.2490    3.2104   -0.9167 H   0  0  0  0  0  0  0  0  0  0  0  0
    0.7087    3.2132    0.6497 H   0  0  0  0  0  0  0  0  0  0  0  0
   -0.9232    3.3822    0.2778 H   0  0  0  0  0  0  0  0  0  0  0  0
    0.0009    1.4068    0.0105 C   0  0  0  0  0  0  0  0  0  0  0  0
   -1.1935    0.6984   -0.0062 C   0  0  0  0  0  0  0  0  0  0  0  0
   -2.0616    1.1837   -0.0246 H   0  0  0  0  0  0  0  0  0  0  0  0
   -1.1984   -0.7003    0.0000 C   0  0  0  0  0  0  0  0  0  0  0  0
   -2.0781   -1.1886    0.0072 H   0  0  0  0  0  0  0  0  0  0  0  0
   -0.0021   -1.3959   -0.0021 C   0  0  0  0  0  0  0  0  0  0  0  0
   -0.0052   -2.3956   -0.0053 H   0  0  0  0  0  0  0  0  0  0  0  0
    1.1984   -0.7016   -0.0000 C   0  0  0  0  0  0  0  0  0  0  0  0
    2.0801   -1.1981    0.0043 H   0  0  0  0  0  0  0  0  0  0  0  0
    1.1947    0.6927   -0.0022 C   0  0  0  0  0  0  0  0  0  0  0  0
    2.0658    1.1866   -0.0138 H   0  0  0  0  0  0  0  0  0  0  0  0
  1  5  1  0
  5  6  2  0
  5  7  1  0
  1  2  1  0
  1  3  1  0
  1  4  1  0
  8 12  1  0
 12 13  2  0
 13 15  1  0
 15 17  2  0
 17 19  1  0
 19 21  2  0
 21 12  1  0
  8  9  1  0
  8 10  1  0
  8 11  1  0
 13 14  1  0
 15 16  1  0
 17 18  1  0
 19 20  1  0
 21 22  1  0
M  CHG  1   7  -1
V    7 [O&-]
M  END
>  <PDB_ID>  (2957) 
pdb3iwk

>  <RESIDUE_NAME>  (2957) 
GLU   PHE

>  <FRAG_NAME>  (2957) 
ACET   MBZ

>  <FRAG_ATOM_NUM>  (2957) 
fragi: 7 fragj: 15

>  <atom.prop.CHAIN_ID>  (2957) 
A A A A A A A Z Z Z Z Z Z Z Z Z Z Z Z Z Z Z

>  <atom.prop.IS_HEAVY_ATOM>  (2957) 
1 0 0 0 1 1 1 1 0 0 0 1 1 0 1 0 1 0 1 0 1 0

>  <DIFUSE_FUNC_ATOM>  (2957) 
n/a

>  <FINAL_SINGLE_POINT_ENERGY>  (2957) 
0

>  <NONCOV_INTER_ENERGY_QM>  (2957) 
0

>  <FF_Energy>  (2957) 
-0.14

>  <QM_Energy>  (2957) 
-5.54

>  <source>  (2957) 
ACET_MBZ_03

>  <Index>  (2957) 
15191

$$$$
ACEH-pdb5tea-B-GLH-70:MBZ-pdb5tea-B-PHE-59
     RDKit          3D

 22 21  0  0  0  0  0  0  0  0999 V2000
    2.3449    1.5813    4.1869 C   0  0  0  0  0  0  0  0  0  0  0  0
    3.3051    1.3217    4.0763 H   0  0  0  0  0  0  0  0  0  0  0  0
    2.1346    1.6624    5.1625 H   0  0  0  0  0  0  0  0  0  0  0  0
    2.2165    2.5661    3.7378 H   0  0  0  0  0  0  0  0  0  0  0  0
    1.5046    0.4761    3.6289 C   0  0  0  0  0  0  0  0  0  0  0  0
    0.7036    0.6239    2.7163 O   0  0  0  0  0  0  0  0  0  0  0  0
    1.7041   -0.6113    4.2069 O   0  0  0  0  0  0  0  0  0  0  0  0
   -0.0048    2.9121    0.0137 C   0  0  0  0  0  0  0  0  0  0  0  0
    0.8600    3.2153    0.3890 H   0  0  0  0  0  0  0  0  0  0  0  0
   -0.7623    3.2060    0.5799 H   0  0  0  0  0  0  0  0  0  0  0  0
   -0.1225    3.3729   -0.9671 H   0  0  0  0  0  0  0  0  0  0  0  0
    0.0015    1.4045   -0.0053 C   0  0  0  0  0  0  0  0  0  0  0  0
   -1.1959    0.6875   -0.0028 C   0  0  0  0  0  0  0  0  0  0  0  0
   -2.0628    1.1771   -0.0045 H   0  0  0  0  0  0  0  0  0  0  0  0
   -1.1966   -0.7018   -0.0000 C   0  0  0  0  0  0  0  0  0  0  0  0
   -2.0760   -1.1956    0.0021 H   0  0  0  0  0  0  0  0  0  0  0  0
   -0.0013   -1.3935    0.0012 C   0  0  0  0  0  0  0  0  0  0  0  0
   -0.0024   -2.3934    0.0025 H   0  0  0  0  0  0  0  0  0  0  0  0
    1.1966   -0.6973    0.0000 C   0  0  0  0  0  0  0  0  0  0  0  0
    2.0800   -1.1920   -0.0042 H   0  0  0  0  0  0  0  0  0  0  0  0
    1.1957    0.7005    0.0068 C   0  0  0  0  0  0  0  0  0  0  0  0
    2.0647    1.1913    0.0194 H   0  0  0  0  0  0  0  0  0  0  0  0
  1  5  1  0
  5  6  2  0
  5  7  1  0
  1  2  1  0
  1  3  1  0
  1  4  1  0
  8 12  1  0
 12 13  2  0
 13 15  1  0
 15 17  2  0
 17 19  1  0
 19 21  2  0
 21 12  1  0
  8  9  1  0
  8 10  1  0
  8 11  1  0
 13 14  1  0
 15 16  1  0
 17 18  1  0
 19 20  1  0
 21 22  1  0
M  CHG  1   7  -1
V    7 [O&-]
M  END
>  <PDB_ID>  (2958) 
pdb5tea

>  <RESIDUE_NAME>  (2958) 
GLU   PHE

>  <FRAG_NAME>  (2958) 
ACET   MBZ

>  <FRAG_ATOM_NUM>  (2958) 
fragi: 7 fragj: 15

>  <atom.prop.CHAIN_ID>  (2958) 
A A A A A A A Z Z Z Z Z Z Z Z Z Z Z Z Z Z Z

>  <atom.prop.IS_HEAVY_ATOM>  (2958) 
1 0 0 0 1 1 1 1 0 0 0 1 1 0 1 0 1 0 1 0 1 0

>  <DIFUSE_FUNC_ATOM>  (2958) 
n/a

>  <FINAL_SINGLE_POINT_ENERGY>  (2958) 
0

>  <NONCOV_INTER_ENERGY_QM>  (2958) 
0

>  <FF_Energy>  (2958) 
8.94

>  <QM_Energy>  (2958) 
2.3

>  <source>  (2958) 
ACET_MBZ_03

>  <Index>  (2958) 
15215

$$$$
ACEH-pdb3jq0-A-GLH-137:MBZ-pdb3jq0-A-PHE-210
     RDKit          3D

 22 21  0  0  0  0  0  0  0  0999 V2000
    5.2964    5.1718    0.0117 C   0  0  0  0  0  0  0  0  0  0  0  0
    4.6771    5.8488    0.3657 H   0  0  0  0  0  0  0  0  0  0  0  0
    5.8188    5.5080   -0.7505 H   0  0  0  0  0  0  0  0  0  0  0  0
    5.9880    4.8914    0.8062 H   0  0  0  0  0  0  0  0  0  0  0  0
    4.4816    4.0066   -0.4664 C   0  0  0  0  0  0  0  0  0  0  0  0
    5.0747    2.9918   -0.8149 O   0  0  0  0  0  0  0  0  0  0  0  0
    3.2093    4.0919   -0.5527 O   0  0  0  0  0  0  0  0  0  0  0  0
    0.0245    2.9204   -0.0195 C   0  0  0  0  0  0  0  0  0  0  0  0
   -0.5317    3.2385   -0.7652 H   0  0  0  0  0  0  0  0  0  0  0  0
    0.9604    3.2092   -0.1023 H   0  0  0  0  0  0  0  0  0  0  0  0
   -0.3747    3.3529    0.8979 H   0  0  0  0  0  0  0  0  0  0  0  0
   -0.0033    1.4070   -0.0236 C   0  0  0  0  0  0  0  0  0  0  0  0
   -1.1962    0.6828   -0.0018 C   0  0  0  0  0  0  0  0  0  0  0  0
   -2.0659    1.1605    0.0114 H   0  0  0  0  0  0  0  0  0  0  0  0
   -1.1764   -0.7086   -0.0000 C   0  0  0  0  0  0  0  0  0  0  0  0
   -2.0491   -1.2140   -0.0297 H   0  0  0  0  0  0  0  0  0  0  0  0
    0.0263   -1.3844    0.0441 C   0  0  0  0  0  0  0  0  0  0  0  0
    0.0213   -2.3870    0.1082 H   0  0  0  0  0  0  0  0  0  0  0  0
    1.1764   -0.6893    0.0000 C   0  0  0  0  0  0  0  0  0  0  0  0
    2.0839   -1.1733   -0.0187 H   0  0  0  0  0  0  0  0  0  0  0  0
    1.1731    0.6925   -0.0187 C   0  0  0  0  0  0  0  0  0  0  0  0
    2.0519    1.1856   -0.0299 H   0  0  0  0  0  0  0  0  0  0  0  0
  1  5  1  0
  5  6  2  0
  5  7  1  0
  1  2  1  0
  1  3  1  0
  1  4  1  0
  8 12  1  0
 12 13  2  0
 13 15  1  0
 15 17  2  0
 17 19  1  0
 19 21  2  0
 21 12  1  0
  8  9  1  0
  8 10  1  0
  8 11  1  0
 13 14  1  0
 15 16  1  0
 17 18  1  0
 19 20  1  0
 21 22  1  0
M  CHG  1   7  -1
V    7 [O&-]
M  END
>  <PDB_ID>  (2959) 
pdb3jq0

>  <RESIDUE_NAME>  (2959) 
GLU   PHE

>  <FRAG_NAME>  (2959) 
ACET   MBZ

>  <FRAG_ATOM_NUM>  (2959) 
fragi: 7 fragj: 15

>  <atom.prop.CHAIN_ID>  (2959) 
A A A A A A A Z Z Z Z Z Z Z Z Z Z Z Z Z Z Z

>  <atom.prop.IS_HEAVY_ATOM>  (2959) 
1 0 0 0 1 1 1 1 0 0 0 1 1 0 1 0 1 0 1 0 1 0

>  <DIFUSE_FUNC_ATOM>  (2959) 
n/a

>  <FINAL_SINGLE_POINT_ENERGY>  (2959) 
0

>  <NONCOV_INTER_ENERGY_QM>  (2959) 
0

>  <FF_Energy>  (2959) 
-2.08

>  <QM_Energy>  (2959) 
-7.44

>  <source>  (2959) 
ACET_MBZ_03

>  <Index>  (2959) 
15273

$$$$
ACEH-pdb4n0q-A-GLH-248:MBZ-pdb4n0q-A-PHE-297
     RDKit          3D

 22 21  0  0  0  0  0  0  0  0999 V2000
   -2.1062   -3.8669    0.5195 C   0  0  0  0  0  0  0  0  0  0  0  0
   -1.1600   -3.5557    0.4456 H   0  0  0  0  0  0  0  0  0  0  0  0
   -2.7151   -3.0773    0.5734 H   0  0  0  0  0  0  0  0  0  0  0  0
   -2.3504   -4.4198   -0.3875 H   0  0  0  0  0  0  0  0  0  0  0  0
   -2.2339   -4.6260    1.8083 C   0  0  0  0  0  0  0  0  0  0  0  0
   -2.3816   -5.8788    1.8308 O   0  0  0  0  0  0  0  0  0  0  0  0
   -2.1226   -3.9081    2.8257 O   0  0  0  0  0  0  0  0  0  0  0  0
    0.0298    2.9017    0.0030 C   0  0  0  0  0  0  0  0  0  0  0  0
    0.6537    3.1904   -0.7126 H   0  0  0  0  0  0  0  0  0  0  0  0
    0.3575    3.1922    0.8935 H   0  0  0  0  0  0  0  0  0  0  0  0
   -0.9340    3.3786   -0.1753 H   0  0  0  0  0  0  0  0  0  0  0  0
   -0.0019    1.3895   -0.0014 C   0  0  0  0  0  0  0  0  0  0  0  0
   -1.1835    0.6833    0.0051 C   0  0  0  0  0  0  0  0  0  0  0  0
   -2.0565    1.1751    0.0121 H   0  0  0  0  0  0  0  0  0  0  0  0
   -1.1873   -0.6931    0.0000 C   0  0  0  0  0  0  0  0  0  0  0  0
   -2.0644   -1.1922   -0.0026 H   0  0  0  0  0  0  0  0  0  0  0  0
    0.0083   -1.3811    0.0007 C   0  0  0  0  0  0  0  0  0  0  0  0
    0.0046   -2.3824    0.0012 H   0  0  0  0  0  0  0  0  0  0  0  0
    1.1873   -0.6859   -0.0000 C   0  0  0  0  0  0  0  0  0  0  0  0
    2.0778   -1.1812    0.0044 H   0  0  0  0  0  0  0  0  0  0  0  0
    1.1771    0.6873   -0.0044 C   0  0  0  0  0  0  0  0  0  0  0  0
    2.0526    1.1882   -0.0108 H   0  0  0  0  0  0  0  0  0  0  0  0
  1  5  1  0
  5  6  2  0
  5  7  1  0
  1  2  1  0
  1  3  1  0
  1  4  1  0
  8 12  1  0
 12 13  2  0
 13 15  1  0
 15 17  2  0
 17 19  1  0
 19 21  2  0
 21 12  1  0
  8  9  1  0
  8 10  1  0
  8 11  1  0
 13 14  1  0
 15 16  1  0
 17 18  1  0
 19 20  1  0
 21 22  1  0
M  CHG  1   7  -1
V    7 [O&-]
M  END
>  <PDB_ID>  (2960) 
pdb4n0q

>  <RESIDUE_NAME>  (2960) 
GLU   PHE

>  <FRAG_NAME>  (2960) 
ACET   MBZ

>  <FRAG_ATOM_NUM>  (2960) 
fragi: 7 fragj: 15

>  <atom.prop.CHAIN_ID>  (2960) 
A A A A A A A Z Z Z Z Z Z Z Z Z Z Z Z Z Z Z

>  <atom.prop.IS_HEAVY_ATOM>  (2960) 
1 0 0 0 1 1 1 1 0 0 0 1 1 0 1 0 1 0 1 0 1 0

>  <DIFUSE_FUNC_ATOM>  (2960) 
n/a

>  <FINAL_SINGLE_POINT_ENERGY>  (2960) 
0

>  <NONCOV_INTER_ENERGY_QM>  (2960) 
0

>  <FF_Energy>  (2960) 
7.1

>  <QM_Energy>  (2960) 
1.17

>  <source>  (2960) 
ACET_MBZ_03

>  <Index>  (2960) 
15340

$$$$
ACEH-pdb5ts5-A-ASH-181:MBZ-pdb5ts5-A-PHE-438
     RDKit          3D

 22 21  0  0  0  0  0  0  0  0999 V2000
    3.2986    4.2241    2.6277 C   0  0  0  0  0  0  0  0  0  0  0  0
    2.7149    3.5466    3.0599 H   0  0  0  0  0  0  0  0  0  0  0  0
    3.0776    5.1343    2.9580 H   0  0  0  0  0  0  0  0  0  0  0  0
    4.3290    4.0063    2.9086 H   0  0  0  0  0  0  0  0  0  0  0  0
    3.0728    4.1787    1.1275 C   0  0  0  0  0  0  0  0  0  0  0  0
    3.2671    3.1008    0.5265 O   0  0  0  0  0  0  0  0  0  0  0  0
    2.6785    5.2162    0.5520 O   0  0  0  0  0  0  0  0  0  0  0  0
   -0.0014    2.8993    0.0012 C   0  0  0  0  0  0  0  0  0  0  0  0
    0.9037    3.2051    0.2539 H   0  0  0  0  0  0  0  0  0  0  0  0
   -0.6796    3.2037    0.6523 H   0  0  0  0  0  0  0  0  0  0  0  0
   -0.2452    3.3400   -0.9655 H   0  0  0  0  0  0  0  0  0  0  0  0
   -0.0001    1.3954   -0.0006 C   0  0  0  0  0  0  0  0  0  0  0  0
   -1.1916    0.6894    0.0014 C   0  0  0  0  0  0  0  0  0  0  0  0
   -2.0602    1.1809    0.0030 H   0  0  0  0  0  0  0  0  0  0  0  0
   -1.1948   -0.6939    0.0000 C   0  0  0  0  0  0  0  0  0  0  0  0
   -2.0737   -1.1894    0.0004 H   0  0  0  0  0  0  0  0  0  0  0  0
   -0.0002   -1.3855   -0.0005 C   0  0  0  0  0  0  0  0  0  0  0  0
   -0.0037   -2.3873   -0.0017 H   0  0  0  0  0  0  0  0  0  0  0  0
    1.1948   -0.6938   -0.0000 C   0  0  0  0  0  0  0  0  0  0  0  0
    2.0774   -1.1942    0.0023 H   0  0  0  0  0  0  0  0  0  0  0  0
    1.1919    0.6885   -0.0003 C   0  0  0  0  0  0  0  0  0  0  0  0
    2.0615    1.1867   -0.0011 H   0  0  0  0  0  0  0  0  0  0  0  0
  1  5  1  0
  5  6  2  0
  5  7  1  0
  1  2  1  0
  1  3  1  0
  1  4  1  0
  8 12  1  0
 12 13  2  0
 13 15  1  0
 15 17  2  0
 17 19  1  0
 19 21  2  0
 21 12  1  0
  8  9  1  0
  8 10  1  0
  8 11  1  0
 13 14  1  0
 15 16  1  0
 17 18  1  0
 19 20  1  0
 21 22  1  0
M  CHG  1   7  -1
V    7 [O&-]
M  END
>  <PDB_ID>  (2961) 
pdb5ts5

>  <RESIDUE_NAME>  (2961) 
ASP   PHE

>  <FRAG_NAME>  (2961) 
ACET   MBZ

>  <FRAG_ATOM_NUM>  (2961) 
fragi: 7 fragj: 15

>  <atom.prop.CHAIN_ID>  (2961) 
A A A A A A A Z Z Z Z Z Z Z Z Z Z Z Z Z Z Z

>  <atom.prop.IS_HEAVY_ATOM>  (2961) 
1 0 0 0 1 1 1 1 0 0 0 1 1 0 1 0 1 0 1 0 1 0

>  <DIFUSE_FUNC_ATOM>  (2961) 
n/a

>  <FINAL_SINGLE_POINT_ENERGY>  (2961) 
0

>  <NONCOV_INTER_ENERGY_QM>  (2961) 
0

>  <FF_Energy>  (2961) 
-0.91

>  <QM_Energy>  (2961) 
-8.78

>  <source>  (2961) 
ACET_MBZ_03

>  <Index>  (2961) 
15360

$$$$
ACEH-pdb5ts5-D-ASH-181:MBZ-pdb5ts5-D-PHE-438
     RDKit          3D

 22 21  0  0  0  0  0  0  0  0999 V2000
    3.3059    4.1794    2.5899 C   0  0  0  0  0  0  0  0  0  0  0  0
    2.6871    3.5416    3.0363 H   0  0  0  0  0  0  0  0  0  0  0  0
    3.1147    5.1097    2.8849 H   0  0  0  0  0  0  0  0  0  0  0  0
    4.3216    3.9317    2.8984 H   0  0  0  0  0  0  0  0  0  0  0  0
    3.1033    4.0889    1.0909 C   0  0  0  0  0  0  0  0  0  0  0  0
    3.2583    2.9820    0.5322 O   0  0  0  0  0  0  0  0  0  0  0  0
    2.7693    5.1219    0.4751 O   0  0  0  0  0  0  0  0  0  0  0  0
    0.0014    2.9036    0.0016 C   0  0  0  0  0  0  0  0  0  0  0  0
    0.9082    3.2072    0.2516 H   0  0  0  0  0  0  0  0  0  0  0  0
   -0.6734    3.2078    0.6576 H   0  0  0  0  0  0  0  0  0  0  0  0
   -0.2459    3.3479   -0.9625 H   0  0  0  0  0  0  0  0  0  0  0  0
    0.0001    1.3978   -0.0019 C   0  0  0  0  0  0  0  0  0  0  0  0
   -1.1920    0.6902    0.0015 C   0  0  0  0  0  0  0  0  0  0  0  0
   -2.0606    1.1810    0.0041 H   0  0  0  0  0  0  0  0  0  0  0  0
   -1.1952   -0.6944    0.0000 C   0  0  0  0  0  0  0  0  0  0  0  0
   -2.0741   -1.1890    0.0007 H   0  0  0  0  0  0  0  0  0  0  0  0
   -0.0000   -1.3879   -0.0003 C   0  0  0  0  0  0  0  0  0  0  0  0
   -0.0047   -2.3888   -0.0017 H   0  0  0  0  0  0  0  0  0  0  0  0
    1.1952   -0.6956   -0.0000 C   0  0  0  0  0  0  0  0  0  0  0  0
    2.0783   -1.1945    0.0007 H   0  0  0  0  0  0  0  0  0  0  0  0
    1.1919    0.6899    0.0008 C   0  0  0  0  0  0  0  0  0  0  0  0
    2.0623    1.1869    0.0025 H   0  0  0  0  0  0  0  0  0  0  0  0
  1  5  1  0
  5  6  2  0
  5  7  1  0
  1  2  1  0
  1  3  1  0
  1  4  1  0
  8 12  1  0
 12 13  2  0
 13 15  1  0
 15 17  2  0
 17 19  1  0
 19 21  2  0
 21 12  1  0
  8  9  1  0
  8 10  1  0
  8 11  1  0
 13 14  1  0
 15 16  1  0
 17 18  1  0
 19 20  1  0
 21 22  1  0
M  CHG  1   7  -1
V    7 [O&-]
M  END
>  <PDB_ID>  (2962) 
pdb5ts5

>  <RESIDUE_NAME>  (2962) 
ASP   PHE

>  <FRAG_NAME>  (2962) 
ACET   MBZ

>  <FRAG_ATOM_NUM>  (2962) 
fragi: 7 fragj: 15

>  <atom.prop.CHAIN_ID>  (2962) 
A A A A A A A Z Z Z Z Z Z Z Z Z Z Z Z Z Z Z

>  <atom.prop.IS_HEAVY_ATOM>  (2962) 
1 0 0 0 1 1 1 1 0 0 0 1 1 0 1 0 1 0 1 0 1 0

>  <DIFUSE_FUNC_ATOM>  (2962) 
n/a

>  <FINAL_SINGLE_POINT_ENERGY>  (2962) 
0

>  <NONCOV_INTER_ENERGY_QM>  (2962) 
0

>  <FF_Energy>  (2962) 
0.13

>  <QM_Energy>  (2962) 
-8.76

>  <source>  (2962) 
ACET_MBZ_03

>  <Index>  (2962) 
15362

$$$$
ACEH-pdb3lyf-A-GLH-27:MBZ-pdb3lyf-A-PHE-176
     RDKit          3D

 22 21  0  0  0  0  0  0  0  0999 V2000
    3.8046   -3.1418    0.5076 C   0  0  0  0  0  0  0  0  0  0  0  0
    3.0657   -2.5005    0.3686 H   0  0  0  0  0  0  0  0  0  0  0  0
    4.6799   -2.7340    0.2964 H   0  0  0  0  0  0  0  0  0  0  0  0
    3.8073   -3.4382    1.5565 H   0  0  0  0  0  0  0  0  0  0  0  0
    3.5945   -4.2945   -0.4784 C   0  0  0  0  0  0  0  0  0  0  0  0
    4.5531   -4.6045   -1.2461 O   0  0  0  0  0  0  0  0  0  0  0  0
    2.4632   -4.8434   -0.5156 O   0  0  0  0  0  0  0  0  0  0  0  0
    0.0428    2.9096   -0.0800 C   0  0  0  0  0  0  0  0  0  0  0  0
   -0.5789    3.1787   -0.8095 H   0  0  0  0  0  0  0  0  0  0  0  0
    0.9748    3.1754   -0.3077 H   0  0  0  0  0  0  0  0  0  0  0  0
   -0.2463    3.4519    0.8203 H   0  0  0  0  0  0  0  0  0  0  0  0
    0.0067    1.4029    0.0222 C   0  0  0  0  0  0  0  0  0  0  0  0
   -1.1899    0.7024   -0.0063 C   0  0  0  0  0  0  0  0  0  0  0  0
   -2.0549    1.1997   -0.0332 H   0  0  0  0  0  0  0  0  0  0  0  0
   -1.2020   -0.6800   -0.0000 C   0  0  0  0  0  0  0  0  0  0  0  0
   -2.0870   -1.1714    0.0105 H   0  0  0  0  0  0  0  0  0  0  0  0
   -0.0102   -1.4019   -0.0062 C   0  0  0  0  0  0  0  0  0  0  0  0
   -0.0216   -2.3906   -0.0154 H   0  0  0  0  0  0  0  0  0  0  0  0
    1.2020   -0.7023    0.0000 C   0  0  0  0  0  0  0  0  0  0  0  0
    2.0764   -1.2066    0.0127 H   0  0  0  0  0  0  0  0  0  0  0  0
    1.1933    0.6790   -0.0098 C   0  0  0  0  0  0  0  0  0  0  0  0
    2.0682    1.1785   -0.0414 H   0  0  0  0  0  0  0  0  0  0  0  0
  1  5  1  0
  5  6  2  0
  5  7  1  0
  1  2  1  0
  1  3  1  0
  1  4  1  0
  8 12  1  0
 12 13  2  0
 13 15  1  0
 15 17  2  0
 17 19  1  0
 19 21  2  0
 21 12  1  0
  8  9  1  0
  8 10  1  0
  8 11  1  0
 13 14  1  0
 15 16  1  0
 17 18  1  0
 19 20  1  0
 21 22  1  0
M  CHG  1   7  -1
V    7 [O&-]
M  END
>  <PDB_ID>  (2963) 
pdb3lyf

>  <RESIDUE_NAME>  (2963) 
GLU   PHE

>  <FRAG_NAME>  (2963) 
ACET   MBZ

>  <FRAG_ATOM_NUM>  (2963) 
fragi: 7 fragj: 15

>  <atom.prop.CHAIN_ID>  (2963) 
A A A A A A A Z Z Z Z Z Z Z Z Z Z Z Z Z Z Z

>  <atom.prop.IS_HEAVY_ATOM>  (2963) 
1 0 0 0 1 1 1 1 0 0 0 1 1 0 1 0 1 0 1 0 1 0

>  <DIFUSE_FUNC_ATOM>  (2963) 
n/a

>  <FINAL_SINGLE_POINT_ENERGY>  (2963) 
0

>  <NONCOV_INTER_ENERGY_QM>  (2963) 
0

>  <FF_Energy>  (2963) 
6.64

>  <QM_Energy>  (2963) 
-0.96

>  <source>  (2963) 
ACET_MBZ_03

>  <Index>  (2963) 
15441

$$$$
ACEH-pdb1m3u-B-ASH-26:MBZ-pdb1m3u-B-PHE-29
     RDKit          3D

 22 21  0  0  0  0  0  0  0  0999 V2000
   -5.4919    4.2626    0.2914 C   0  0  0  0  0  0  0  0  0  0  0  0
   -5.9580    4.2224    1.1641 H   0  0  0  0  0  0  0  0  0  0  0  0
   -6.1097    4.0491   -0.4520 H   0  0  0  0  0  0  0  0  0  0  0  0
   -5.1431    5.2853    0.1489 H   0  0  0  0  0  0  0  0  0  0  0  0
   -4.3520    3.2514    0.2931 C   0  0  0  0  0  0  0  0  0  0  0  0
   -3.6485    3.1873    1.3175 O   0  0  0  0  0  0  0  0  0  0  0  0
   -4.0673    2.4192   -0.6432 O   0  0  0  0  0  0  0  0  0  0  0  0
    0.0067    2.9068    0.0344 C   0  0  0  0  0  0  0  0  0  0  0  0
   -0.8910    3.2121   -0.2042 H   0  0  0  0  0  0  0  0  0  0  0  0
    0.6992    3.2305   -0.5761 H   0  0  0  0  0  0  0  0  0  0  0  0
    0.2354    3.2832    1.0314 H   0  0  0  0  0  0  0  0  0  0  0  0
    0.0120    1.3837   -0.0183 C   0  0  0  0  0  0  0  0  0  0  0  0
   -1.1699    0.6836    0.0089 C   0  0  0  0  0  0  0  0  0  0  0  0
   -2.0396    1.1973    0.0351 H   0  0  0  0  0  0  0  0  0  0  0  0
   -1.1926   -0.6657   -0.0000 C   0  0  0  0  0  0  0  0  0  0  0  0
   -2.0916   -1.1542   -0.0075 H   0  0  0  0  0  0  0  0  0  0  0  0
   -0.0361   -1.3786    0.0031 C   0  0  0  0  0  0  0  0  0  0  0  0
   -0.0434   -2.3775    0.0068 H   0  0  0  0  0  0  0  0  0  0  0  0
    1.1926   -0.7012    0.0000 C   0  0  0  0  0  0  0  0  0  0  0  0
    2.0546   -1.2174   -0.0054 H   0  0  0  0  0  0  0  0  0  0  0  0
    1.1940    0.6782    0.0063 C   0  0  0  0  0  0  0  0  0  0  0  0
    2.0676    1.1715    0.0283 H   0  0  0  0  0  0  0  0  0  0  0  0
  1  5  1  0
  5  6  2  0
  5  7  1  0
  1  2  1  0
  1  3  1  0
  1  4  1  0
  8 12  1  0
 12 13  2  0
 13 15  1  0
 15 17  2  0
 17 19  1  0
 19 21  2  0
 21 12  1  0
  8  9  1  0
  8 10  1  0
  8 11  1  0
 13 14  1  0
 15 16  1  0
 17 18  1  0
 19 20  1  0
 21 22  1  0
M  CHG  1   7  -1
V    7 [O&-]
M  END
>  <PDB_ID>  (2964) 
pdb1m3u

>  <RESIDUE_NAME>  (2964) 
ASP   PHE

>  <FRAG_NAME>  (2964) 
ACET   MBZ

>  <FRAG_ATOM_NUM>  (2964) 
fragi: 7 fragj: 15

>  <atom.prop.CHAIN_ID>  (2964) 
A A A A A A A Z Z Z Z Z Z Z Z Z Z Z Z Z Z Z

>  <atom.prop.IS_HEAVY_ATOM>  (2964) 
1 0 0 0 1 1 1 1 0 0 0 1 1 0 1 0 1 0 1 0 1 0

>  <DIFUSE_FUNC_ATOM>  (2964) 
n/a

>  <FINAL_SINGLE_POINT_ENERGY>  (2964) 
0

>  <NONCOV_INTER_ENERGY_QM>  (2964) 
0

>  <FF_Energy>  (2964) 
-2.81

>  <QM_Energy>  (2964) 
-8.87

>  <source>  (2964) 
ACET_MBZ_03

>  <Index>  (2964) 
15448

$$$$
ACEH-pdb1m3u-F-ASH-26:MBZ-pdb1m3u-F-PHE-29
     RDKit          3D

 22 21  0  0  0  0  0  0  0  0999 V2000
   -5.5621    4.1966   -0.0244 C   0  0  0  0  0  0  0  0  0  0  0  0
   -6.0409    4.1641    0.8472 H   0  0  0  0  0  0  0  0  0  0  0  0
   -6.1712    3.9264   -0.7622 H   0  0  0  0  0  0  0  0  0  0  0  0
   -5.2498    5.2258   -0.2013 H   0  0  0  0  0  0  0  0  0  0  0  0
   -4.3963    3.2188    0.0259 C   0  0  0  0  0  0  0  0  0  0  0  0
   -3.6921    3.1960    1.0572 O   0  0  0  0  0  0  0  0  0  0  0  0
   -4.1541    2.3897   -0.8950 O   0  0  0  0  0  0  0  0  0  0  0  0
   -0.0181    2.9067    0.0096 C   0  0  0  0  0  0  0  0  0  0  0  0
   -0.9058    3.2080   -0.2950 H   0  0  0  0  0  0  0  0  0  0  0  0
    0.7015    3.2270   -0.5839 H   0  0  0  0  0  0  0  0  0  0  0  0
    0.1557    3.3140    1.0057 H   0  0  0  0  0  0  0  0  0  0  0  0
   -0.0056    1.4019   -0.0193 C   0  0  0  0  0  0  0  0  0  0  0  0
   -1.2107    0.6907    0.0045 C   0  0  0  0  0  0  0  0  0  0  0  0
   -2.0722    1.1884    0.0233 H   0  0  0  0  0  0  0  0  0  0  0  0
   -1.2163   -0.6932   -0.0000 C   0  0  0  0  0  0  0  0  0  0  0  0
   -2.0823   -1.1975    0.0040 H   0  0  0  0  0  0  0  0  0  0  0  0
    0.0061   -1.3994   -0.0087 C   0  0  0  0  0  0  0  0  0  0  0  0
   -0.0029   -2.3930   -0.0214 H   0  0  0  0  0  0  0  0  0  0  0  0
    1.2163   -0.6986    0.0000 C   0  0  0  0  0  0  0  0  0  0  0  0
    2.0936   -1.1961   -0.0093 H   0  0  0  0  0  0  0  0  0  0  0  0
    1.2102    0.6985    0.0236 C   0  0  0  0  0  0  0  0  0  0  0  0
    2.0662    1.1992    0.0704 H   0  0  0  0  0  0  0  0  0  0  0  0
  1  5  1  0
  5  6  2  0
  5  7  1  0
  1  2  1  0
  1  3  1  0
  1  4  1  0
  8 12  1  0
 12 13  2  0
 13 15  1  0
 15 17  2  0
 17 19  1  0
 19 21  2  0
 21 12  1  0
  8  9  1  0
  8 10  1  0
  8 11  1  0
 13 14  1  0
 15 16  1  0
 17 18  1  0
 19 20  1  0
 21 22  1  0
M  CHG  1   7  -1
V    7 [O&-]
M  END
>  <PDB_ID>  (2965) 
pdb1m3u

>  <RESIDUE_NAME>  (2965) 
ASP   PHE

>  <FRAG_NAME>  (2965) 
ACET   MBZ

>  <FRAG_ATOM_NUM>  (2965) 
fragi: 7 fragj: 15

>  <atom.prop.CHAIN_ID>  (2965) 
A A A A A A A Z Z Z Z Z Z Z Z Z Z Z Z Z Z Z

>  <atom.prop.IS_HEAVY_ATOM>  (2965) 
1 0 0 0 1 1 1 1 0 0 0 1 1 0 1 0 1 0 1 0 1 0

>  <DIFUSE_FUNC_ATOM>  (2965) 
n/a

>  <FINAL_SINGLE_POINT_ENERGY>  (2965) 
0

>  <NONCOV_INTER_ENERGY_QM>  (2965) 
0

>  <FF_Energy>  (2965) 
-2.86

>  <QM_Energy>  (2965) 
-8.89

>  <source>  (2965) 
ACET_MBZ_03

>  <Index>  (2965) 
15451

$$$$
ACEH-pdb1m7x-A-GLH-247:MBZ-pdb1m7x-A-PHE-567
     RDKit          3D

 22 21  0  0  0  0  0  0  0  0999 V2000
   -4.3705    1.6142   -1.3646 C   0  0  0  0  0  0  0  0  0  0  0  0
   -4.0875    0.7715   -0.9450 H   0  0  0  0  0  0  0  0  0  0  0  0
   -5.3007    1.5802   -1.6808 H   0  0  0  0  0  0  0  0  0  0  0  0
   -4.2919    2.4070   -0.6207 H   0  0  0  0  0  0  0  0  0  0  0  0
   -3.4831    1.8502   -2.5698 C   0  0  0  0  0  0  0  0  0  0  0  0
   -2.4935    2.6026   -2.4414 O   0  0  0  0  0  0  0  0  0  0  0  0
   -3.7739    1.2792   -3.6403 O   0  0  0  0  0  0  0  0  0  0  0  0
    0.0022    2.9242   -0.0700 C   0  0  0  0  0  0  0  0  0  0  0  0
   -0.4078    3.1873   -0.9306 H   0  0  0  0  0  0  0  0  0  0  0  0
    0.9416    3.2270   -0.0117 H   0  0  0  0  0  0  0  0  0  0  0  0
   -0.5568    3.4094    0.7301 H   0  0  0  0  0  0  0  0  0  0  0  0
   -0.0003    1.4102   -0.0015 C   0  0  0  0  0  0  0  0  0  0  0  0
   -1.2012    0.6949    0.0020 C   0  0  0  0  0  0  0  0  0  0  0  0
   -2.0681    1.1805    0.0046 H   0  0  0  0  0  0  0  0  0  0  0  0
   -1.2063   -0.7093    0.0000 C   0  0  0  0  0  0  0  0  0  0  0  0
   -2.0800   -1.1987    0.0015 H   0  0  0  0  0  0  0  0  0  0  0  0
    0.0014   -1.4021   -0.0019 C   0  0  0  0  0  0  0  0  0  0  0  0
    0.0049   -2.3986   -0.0050 H   0  0  0  0  0  0  0  0  0  0  0  0
    1.2063   -0.6946   -0.0000 C   0  0  0  0  0  0  0  0  0  0  0  0
    2.0878   -1.1904    0.0014 H   0  0  0  0  0  0  0  0  0  0  0  0
    1.2002    0.7009    0.0014 C   0  0  0  0  0  0  0  0  0  0  0  0
    2.0668    1.1976    0.0036 H   0  0  0  0  0  0  0  0  0  0  0  0
  1  5  1  0
  5  6  2  0
  5  7  1  0
  1  2  1  0
  1  3  1  0
  1  4  1  0
  8 12  1  0
 12 13  2  0
 13 15  1  0
 15 17  2  0
 17 19  1  0
 19 21  2  0
 21 12  1  0
  8  9  1  0
  8 10  1  0
  8 11  1  0
 13 14  1  0
 15 16  1  0
 17 18  1  0
 19 20  1  0
 21 22  1  0
M  CHG  1   7  -1
V    7 [O&-]
M  END
>  <PDB_ID>  (2966) 
pdb1m7x

>  <RESIDUE_NAME>  (2966) 
GLU   PHE

>  <FRAG_NAME>  (2966) 
ACET   MBZ

>  <FRAG_ATOM_NUM>  (2966) 
fragi: 7 fragj: 15

>  <atom.prop.CHAIN_ID>  (2966) 
A A A A A A A Z Z Z Z Z Z Z Z Z Z Z Z Z Z Z

>  <atom.prop.IS_HEAVY_ATOM>  (2966) 
1 0 0 0 1 1 1 1 0 0 0 1 1 0 1 0 1 0 1 0 1 0

>  <DIFUSE_FUNC_ATOM>  (2966) 
n/a

>  <FINAL_SINGLE_POINT_ENERGY>  (2966) 
0

>  <NONCOV_INTER_ENERGY_QM>  (2966) 
0

>  <FF_Energy>  (2966) 
-0.11

>  <QM_Energy>  (2966) 
-5.49

>  <source>  (2966) 
ACET_MBZ_03

>  <Index>  (2966) 
15518

$$$$
ACEH-pdb5u8e-A-GLH-225:MBZ-pdb5u8e-A-PHE-270
     RDKit          3D

 22 21  0  0  0  0  0  0  0  0999 V2000
    3.8524    1.5130   -1.7539 C   0  0  0  0  0  0  0  0  0  0  0  0
    3.7739    2.4867   -1.6348 H   0  0  0  0  0  0  0  0  0  0  0  0
    3.0125    1.0459   -1.5428 H   0  0  0  0  0  0  0  0  0  0  0  0
    4.1058    1.3143   -2.7953 H   0  0  0  0  0  0  0  0  0  0  0  0
    4.9072    1.0175   -0.7661 C   0  0  0  0  0  0  0  0  0  0  0  0
    5.7338    0.1570   -1.1562 O   0  0  0  0  0  0  0  0  0  0  0  0
    4.8977    1.4885    0.4020 O   0  0  0  0  0  0  0  0  0  0  0  0
    0.0244    2.8966   -0.0238 C   0  0  0  0  0  0  0  0  0  0  0  0
   -0.6352    3.1989   -0.7016 H   0  0  0  0  0  0  0  0  0  0  0  0
    0.9398    3.1897   -0.2707 H   0  0  0  0  0  0  0  0  0  0  0  0
   -0.2307    3.3793    0.9196 H   0  0  0  0  0  0  0  0  0  0  0  0
    0.0068    1.3965    0.0090 C   0  0  0  0  0  0  0  0  0  0  0  0
   -1.1840    0.6974   -0.0109 C   0  0  0  0  0  0  0  0  0  0  0  0
   -2.0526    1.1835   -0.0346 H   0  0  0  0  0  0  0  0  0  0  0  0
   -1.1901   -0.6977    0.0000 C   0  0  0  0  0  0  0  0  0  0  0  0
   -2.0764   -1.1813    0.0111 H   0  0  0  0  0  0  0  0  0  0  0  0
   -0.0080   -1.3919   -0.0030 C   0  0  0  0  0  0  0  0  0  0  0  0
   -0.0061   -2.3904   -0.0076 H   0  0  0  0  0  0  0  0  0  0  0  0
    1.1901   -0.6942    0.0000 C   0  0  0  0  0  0  0  0  0  0  0  0
    2.0726   -1.1943    0.0003 H   0  0  0  0  0  0  0  0  0  0  0  0
    1.1852    0.6899    0.0048 C   0  0  0  0  0  0  0  0  0  0  0  0
    2.0629    1.1829    0.0043 H   0  0  0  0  0  0  0  0  0  0  0  0
  1  5  1  0
  5  6  2  0
  5  7  1  0
  1  2  1  0
  1  3  1  0
  1  4  1  0
  8 12  1  0
 12 13  2  0
 13 15  1  0
 15 17  2  0
 17 19  1  0
 19 21  2  0
 21 12  1  0
  8  9  1  0
  8 10  1  0
  8 11  1  0
 13 14  1  0
 15 16  1  0
 17 18  1  0
 19 20  1  0
 21 22  1  0
M  CHG  1   7  -1
V    7 [O&-]
M  END
>  <PDB_ID>  (2967) 
pdb5u8e

>  <RESIDUE_NAME>  (2967) 
GLU   PHE

>  <FRAG_NAME>  (2967) 
ACET   MBZ

>  <FRAG_ATOM_NUM>  (2967) 
fragi: 7 fragj: 15

>  <atom.prop.CHAIN_ID>  (2967) 
A A A A A A A Z Z Z Z Z Z Z Z Z Z Z Z Z Z Z

>  <atom.prop.IS_HEAVY_ATOM>  (2967) 
1 0 0 0 1 1 1 1 0 0 0 1 1 0 1 0 1 0 1 0 1 0

>  <DIFUSE_FUNC_ATOM>  (2967) 
n/a

>  <FINAL_SINGLE_POINT_ENERGY>  (2967) 
0

>  <NONCOV_INTER_ENERGY_QM>  (2967) 
0

>  <FF_Energy>  (2967) 
2.39

>  <QM_Energy>  (2967) 
-2.76

>  <source>  (2967) 
ACET_MBZ_03

>  <Index>  (2967) 
15592

$$$$
ACEH-pdb4nqr-C-GLH-208:MBZ-pdb4nqr-C-PHE-204
     RDKit          3D

 22 21  0  0  0  0  0  0  0  0999 V2000
   -2.5566   -2.4124    3.1925 C   0  0  0  0  0  0  0  0  0  0  0  0
   -2.7841   -3.0614    3.8932 H   0  0  0  0  0  0  0  0  0  0  0  0
   -3.3460   -2.1122    2.6902 H   0  0  0  0  0  0  0  0  0  0  0  0
   -2.0975   -1.5437    3.6645 H   0  0  0  0  0  0  0  0  0  0  0  0
   -1.6265   -3.0973    2.2182 C   0  0  0  0  0  0  0  0  0  0  0  0
   -0.5482   -3.5444    2.6620 O   0  0  0  0  0  0  0  0  0  0  0  0
   -1.9663   -3.1757    1.0149 O   0  0  0  0  0  0  0  0  0  0  0  0
    0.0289    2.8938    0.0167 C   0  0  0  0  0  0  0  0  0  0  0  0
   -0.7203    3.2220   -0.5378 H   0  0  0  0  0  0  0  0  0  0  0  0
    0.9008    3.1896   -0.3429 H   0  0  0  0  0  0  0  0  0  0  0  0
   -0.0819    3.3203    1.0136 H   0  0  0  0  0  0  0  0  0  0  0  0
    0.0011    1.3929   -0.0040 C   0  0  0  0  0  0  0  0  0  0  0  0
   -1.1941    0.6930   -0.0084 C   0  0  0  0  0  0  0  0  0  0  0  0
   -2.0596    1.1807   -0.0191 H   0  0  0  0  0  0  0  0  0  0  0  0
   -1.1951   -0.6979   -0.0000 C   0  0  0  0  0  0  0  0  0  0  0  0
   -2.0724   -1.1917   -0.0026 H   0  0  0  0  0  0  0  0  0  0  0  0
    0.0027   -1.3854    0.0141 C   0  0  0  0  0  0  0  0  0  0  0  0
    0.0035   -2.3868    0.0340 H   0  0  0  0  0  0  0  0  0  0  0  0
    1.1951   -0.6875    0.0000 C   0  0  0  0  0  0  0  0  0  0  0  0
    2.0794   -1.1910   -0.0078 H   0  0  0  0  0  0  0  0  0  0  0  0
    1.1903    0.6850   -0.0016 C   0  0  0  0  0  0  0  0  0  0  0  0
    2.0607    1.1872   -0.0019 H   0  0  0  0  0  0  0  0  0  0  0  0
  1  5  1  0
  5  6  2  0
  5  7  1  0
  1  2  1  0
  1  3  1  0
  1  4  1  0
  8 12  1  0
 12 13  2  0
 13 15  1  0
 15 17  2  0
 17 19  1  0
 19 21  2  0
 21 12  1  0
  8  9  1  0
  8 10  1  0
  8 11  1  0
 13 14  1  0
 15 16  1  0
 17 18  1  0
 19 20  1  0
 21 22  1  0
M  CHG  1   7  -1
V    7 [O&-]
M  END
>  <PDB_ID>  (2968) 
pdb4nqr

>  <RESIDUE_NAME>  (2968) 
GLU   PHE

>  <FRAG_NAME>  (2968) 
ACET   MBZ

>  <FRAG_ATOM_NUM>  (2968) 
fragi: 7 fragj: 15

>  <atom.prop.CHAIN_ID>  (2968) 
A A A A A A A Z Z Z Z Z Z Z Z Z Z Z Z Z Z Z

>  <atom.prop.IS_HEAVY_ATOM>  (2968) 
1 0 0 0 1 1 1 1 0 0 0 1 1 0 1 0 1 0 1 0 1 0

>  <DIFUSE_FUNC_ATOM>  (2968) 
n/a

>  <FINAL_SINGLE_POINT_ENERGY>  (2968) 
0

>  <NONCOV_INTER_ENERGY_QM>  (2968) 
0

>  <FF_Energy>  (2968) 
3.33

>  <QM_Energy>  (2968) 
-4.53

>  <source>  (2968) 
ACET_MBZ_03

>  <Index>  (2968) 
15682

$$$$
ACEH-pdb4nqr-D-GLH-208:MBZ-pdb4nqr-D-PHE-204
     RDKit          3D

 22 21  0  0  0  0  0  0  0  0999 V2000
   -2.5177   -2.4352    3.1430 C   0  0  0  0  0  0  0  0  0  0  0  0
   -2.7656   -3.0878    3.8388 H   0  0  0  0  0  0  0  0  0  0  0  0
   -3.3034   -2.1145    2.6425 H   0  0  0  0  0  0  0  0  0  0  0  0
   -2.0402   -1.5815    3.6240 H   0  0  0  0  0  0  0  0  0  0  0  0
   -1.6100   -3.1427    2.1602 C   0  0  0  0  0  0  0  0  0  0  0  0
   -1.9877   -3.2537    0.9672 O   0  0  0  0  0  0  0  0  0  0  0  0
   -0.5155   -3.5806    2.5835 O   0  0  0  0  0  0  0  0  0  0  0  0
    0.0234    2.8906    0.0319 C   0  0  0  0  0  0  0  0  0  0  0  0
   -0.7274    3.2219   -0.5186 H   0  0  0  0  0  0  0  0  0  0  0  0
    0.8932    3.1944   -0.3263 H   0  0  0  0  0  0  0  0  0  0  0  0
   -0.0880    3.3110    1.0314 H   0  0  0  0  0  0  0  0  0  0  0  0
    0.0017    1.3919    0.0003 C   0  0  0  0  0  0  0  0  0  0  0  0
   -1.1944    0.6806   -0.0009 C   0  0  0  0  0  0  0  0  0  0  0  0
   -2.0604    1.1749   -0.0034 H   0  0  0  0  0  0  0  0  0  0  0  0
   -1.1963   -0.6980   -0.0000 C   0  0  0  0  0  0  0  0  0  0  0  0
   -2.0734   -1.1957    0.0001 H   0  0  0  0  0  0  0  0  0  0  0  0
   -0.0021   -1.3810    0.0031 C   0  0  0  0  0  0  0  0  0  0  0  0
    0.0034   -2.3834    0.0070 H   0  0  0  0  0  0  0  0  0  0  0  0
    1.1963   -0.6833    0.0000 C   0  0  0  0  0  0  0  0  0  0  0  0
    2.0783   -1.1905    0.0006 H   0  0  0  0  0  0  0  0  0  0  0  0
    1.1948    0.6897   -0.0024 C   0  0  0  0  0  0  0  0  0  0  0  0
    2.0620    1.1926   -0.0072 H   0  0  0  0  0  0  0  0  0  0  0  0
  1  5  1  0
  5  6  2  0
  5  7  1  0
  1  2  1  0
  1  3  1  0
  1  4  1  0
  8 12  1  0
 12 13  2  0
 13 15  1  0
 15 17  2  0
 17 19  1  0
 19 21  2  0
 21 12  1  0
  8  9  1  0
  8 10  1  0
  8 11  1  0
 13 14  1  0
 15 16  1  0
 17 18  1  0
 19 20  1  0
 21 22  1  0
M  CHG  1   7  -1
V    7 [O&-]
M  END
>  <PDB_ID>  (2969) 
pdb4nqr

>  <RESIDUE_NAME>  (2969) 
GLU   PHE

>  <FRAG_NAME>  (2969) 
ACET   MBZ

>  <FRAG_ATOM_NUM>  (2969) 
fragi: 7 fragj: 15

>  <atom.prop.CHAIN_ID>  (2969) 
A A A A A A A Z Z Z Z Z Z Z Z Z Z Z Z Z Z Z

>  <atom.prop.IS_HEAVY_ATOM>  (2969) 
1 0 0 0 1 1 1 1 0 0 0 1 1 0 1 0 1 0 1 0 1 0

>  <DIFUSE_FUNC_ATOM>  (2969) 
n/a

>  <FINAL_SINGLE_POINT_ENERGY>  (2969) 
0

>  <NONCOV_INTER_ENERGY_QM>  (2969) 
0

>  <FF_Energy>  (2969) 
1.92

>  <QM_Energy>  (2969) 
-5.1

>  <source>  (2969) 
ACET_MBZ_03

>  <Index>  (2969) 
15686

$$$$
ACEH-pdb1mt3-A-GLH-85:MBZ-pdb1mt3-A-PHE-64
     RDKit          3D

 22 21  0  0  0  0  0  0  0  0999 V2000
   -4.5959    4.0054    1.5711 C   0  0  0  0  0  0  0  0  0  0  0  0
   -5.1991    4.6075    1.0744 H   0  0  0  0  0  0  0  0  0  0  0  0
   -4.3601    4.3740    2.4559 H   0  0  0  0  0  0  0  0  0  0  0  0
   -5.1052    3.0530    1.7181 H   0  0  0  0  0  0  0  0  0  0  0  0
   -3.3295    3.8708    0.7803 C   0  0  0  0  0  0  0  0  0  0  0  0
   -3.4176    3.6191   -0.4347 O   0  0  0  0  0  0  0  0  0  0  0  0
   -2.2457    4.0214    1.3767 O   0  0  0  0  0  0  0  0  0  0  0  0
   -0.0127    2.8979    0.1108 C   0  0  0  0  0  0  0  0  0  0  0  0
    0.7857    3.1731    0.6306 H   0  0  0  0  0  0  0  0  0  0  0  0
   -0.8458    3.1693    0.5760 H   0  0  0  0  0  0  0  0  0  0  0  0
    0.0181    3.4175   -0.8468 H   0  0  0  0  0  0  0  0  0  0  0  0
   -0.0058    1.4064    0.0024 C   0  0  0  0  0  0  0  0  0  0  0  0
   -1.2035    0.6970   -0.0026 C   0  0  0  0  0  0  0  0  0  0  0  0
   -2.0706    1.1859   -0.0094 H   0  0  0  0  0  0  0  0  0  0  0  0
   -1.2101   -0.6986    0.0000 C   0  0  0  0  0  0  0  0  0  0  0  0
   -2.0782   -1.1959    0.0013 H   0  0  0  0  0  0  0  0  0  0  0  0
    0.0089   -1.3994    0.0027 C   0  0  0  0  0  0  0  0  0  0  0  0
   -0.0010   -2.3959    0.0058 H   0  0  0  0  0  0  0  0  0  0  0  0
    1.2101   -0.7024    0.0000 C   0  0  0  0  0  0  0  0  0  0  0  0
    2.0919   -1.1931    0.0012 H   0  0  0  0  0  0  0  0  0  0  0  0
    1.2005    0.6970   -0.0025 C   0  0  0  0  0  0  0  0  0  0  0  0
    2.0646    1.1956   -0.0089 H   0  0  0  0  0  0  0  0  0  0  0  0
  1  5  1  0
  5  6  2  0
  5  7  1  0
  1  2  1  0
  1  3  1  0
  1  4  1  0
  8 12  1  0
 12 13  2  0
 13 15  1  0
 15 17  2  0
 17 19  1  0
 19 21  2  0
 21 12  1  0
  8  9  1  0
  8 10  1  0
  8 11  1  0
 13 14  1  0
 15 16  1  0
 17 18  1  0
 19 20  1  0
 21 22  1  0
M  CHG  1   7  -1
V    7 [O&-]
M  END
>  <PDB_ID>  (2970) 
pdb1mt3

>  <RESIDUE_NAME>  (2970) 
GLU   PHE

>  <FRAG_NAME>  (2970) 
ACET   MBZ

>  <FRAG_ATOM_NUM>  (2970) 
fragi: 7 fragj: 15

>  <atom.prop.CHAIN_ID>  (2970) 
A A A A A A A Z Z Z Z Z Z Z Z Z Z Z Z Z Z Z

>  <atom.prop.IS_HEAVY_ATOM>  (2970) 
1 0 0 0 1 1 1 1 0 0 0 1 1 0 1 0 1 0 1 0 1 0

>  <DIFUSE_FUNC_ATOM>  (2970) 
n/a

>  <FINAL_SINGLE_POINT_ENERGY>  (2970) 
0

>  <NONCOV_INTER_ENERGY_QM>  (2970) 
0

>  <FF_Energy>  (2970) 
21.61

>  <QM_Energy>  (2970) 
-5.53

>  <source>  (2970) 
ACET_MBZ_03

>  <Index>  (2970) 
15712

$$$$
ACEH-pdb3mkv-H-GLH-336:MBZ-pdb3mkv-H-PHE-321
     RDKit          3D

 22 21  0  0  0  0  0  0  0  0999 V2000
   -1.9658   -1.9877    2.3513 C   0  0  0  0  0  0  0  0  0  0  0  0
   -1.2356   -1.3767    2.5937 H   0  0  0  0  0  0  0  0  0  0  0  0
   -2.5641   -1.6040    1.6732 H   0  0  0  0  0  0  0  0  0  0  0  0
   -1.5303   -2.9026    1.9495 H   0  0  0  0  0  0  0  0  0  0  0  0
   -2.7867   -2.2371    3.5971 C   0  0  0  0  0  0  0  0  0  0  0  0
   -2.7612   -3.3769    4.1172 O   0  0  0  0  0  0  0  0  0  0  0  0
   -3.4583   -1.2888    4.0661 O   0  0  0  0  0  0  0  0  0  0  0  0
   -0.0017    2.9003    0.0000 C   0  0  0  0  0  0  0  0  0  0  0  0
   -0.6617    3.2048   -0.6703 H   0  0  0  0  0  0  0  0  0  0  0  0
    0.9100    3.2078   -0.2259 H   0  0  0  0  0  0  0  0  0  0  0  0
   -0.2731    3.3435    0.9582 H   0  0  0  0  0  0  0  0  0  0  0  0
    0.0005    1.3967    0.0020 C   0  0  0  0  0  0  0  0  0  0  0  0
   -1.1931    0.6895   -0.0025 C   0  0  0  0  0  0  0  0  0  0  0  0
   -2.0608    1.1795   -0.0093 H   0  0  0  0  0  0  0  0  0  0  0  0
   -1.1977   -0.6987   -0.0000 C   0  0  0  0  0  0  0  0  0  0  0  0
   -2.0752   -1.1916    0.0034 H   0  0  0  0  0  0  0  0  0  0  0  0
   -0.0005   -1.3887   -0.0006 C   0  0  0  0  0  0  0  0  0  0  0  0
    0.0008   -2.3887   -0.0022 H   0  0  0  0  0  0  0  0  0  0  0  0
    1.1977   -0.6897   -0.0000 C   0  0  0  0  0  0  0  0  0  0  0  0
    2.0799   -1.1910    0.0015 H   0  0  0  0  0  0  0  0  0  0  0  0
    1.1931    0.6910    0.0011 C   0  0  0  0  0  0  0  0  0  0  0  0
    2.0619    1.1910   -0.0002 H   0  0  0  0  0  0  0  0  0  0  0  0
  1  5  1  0
  5  6  2  0
  5  7  1  0
  1  2  1  0
  1  3  1  0
  1  4  1  0
  8 12  1  0
 12 13  2  0
 13 15  1  0
 15 17  2  0
 17 19  1  0
 19 21  2  0
 21 12  1  0
  8  9  1  0
  8 10  1  0
  8 11  1  0
 13 14  1  0
 15 16  1  0
 17 18  1  0
 19 20  1  0
 21 22  1  0
M  CHG  1   7  -1
V    7 [O&-]
M  END
>  <PDB_ID>  (2971) 
pdb3mkv

>  <RESIDUE_NAME>  (2971) 
GLU   PHE

>  <FRAG_NAME>  (2971) 
ACET   MBZ

>  <FRAG_ATOM_NUM>  (2971) 
fragi: 7 fragj: 15

>  <atom.prop.CHAIN_ID>  (2971) 
A A A A A A A Z Z Z Z Z Z Z Z Z Z Z Z Z Z Z

>  <atom.prop.IS_HEAVY_ATOM>  (2971) 
1 0 0 0 1 1 1 1 0 0 0 1 1 0 1 0 1 0 1 0 1 0

>  <DIFUSE_FUNC_ATOM>  (2971) 
n/a

>  <FINAL_SINGLE_POINT_ENERGY>  (2971) 
0

>  <NONCOV_INTER_ENERGY_QM>  (2971) 
0

>  <FF_Energy>  (2971) 
12.25

>  <QM_Energy>  (2971) 
4.69

>  <source>  (2971) 
ACET_MBZ_03

>  <Index>  (2971) 
15737

$$$$
ACEH-pdb2q7e-A-GLH-425:MBZ-pdb2q7e-A-PHE-342
     RDKit          3D

 22 21  0  0  0  0  0  0  0  0999 V2000
    1.8370    7.2173    0.8867 C   0  0  0  0  0  0  0  0  0  0  0  0
    0.8848    7.4783    0.8699 H   0  0  0  0  0  0  0  0  0  0  0  0
    2.4097    7.9046    0.4693 H   0  0  0  0  0  0  0  0  0  0  0  0
    2.1382    7.1186    1.9295 H   0  0  0  0  0  0  0  0  0  0  0  0
    1.9804    5.9416    0.0744 C   0  0  0  0  0  0  0  0  0  0  0  0
    1.6367    5.9868   -1.1210 O   0  0  0  0  0  0  0  0  0  0  0  0
    2.4282    4.8923    0.6213 O   0  0  0  0  0  0  0  0  0  0  0  0
   -0.0248    2.9098    0.0147 C   0  0  0  0  0  0  0  0  0  0  0  0
    0.8618    3.2193    0.3326 H   0  0  0  0  0  0  0  0  0  0  0  0
   -0.7430    3.1977    0.6349 H   0  0  0  0  0  0  0  0  0  0  0  0
   -0.2124    3.3856   -0.9479 H   0  0  0  0  0  0  0  0  0  0  0  0
   -0.0102    1.4011   -0.0133 C   0  0  0  0  0  0  0  0  0  0  0  0
   -1.1893    0.6824    0.0161 C   0  0  0  0  0  0  0  0  0  0  0  0
   -2.0654    1.1664    0.0487 H   0  0  0  0  0  0  0  0  0  0  0  0
   -1.1875   -0.7010   -0.0000 C   0  0  0  0  0  0  0  0  0  0  0  0
   -2.0655   -1.1977   -0.0111 H   0  0  0  0  0  0  0  0  0  0  0  0
    0.0059   -1.3846    0.0017 C   0  0  0  0  0  0  0  0  0  0  0  0
   -0.0003   -2.3911    0.0039 H   0  0  0  0  0  0  0  0  0  0  0  0
    1.1875   -0.7002   -0.0000 C   0  0  0  0  0  0  0  0  0  0  0  0
    2.0792   -1.1892    0.0031 H   0  0  0  0  0  0  0  0  0  0  0  0
    1.1936    0.7023   -0.0045 C   0  0  0  0  0  0  0  0  0  0  0  0
    2.0563    1.1909   -0.0022 H   0  0  0  0  0  0  0  0  0  0  0  0
  1  5  1  0
  5  6  2  0
  5  7  1  0
  1  2  1  0
  1  3  1  0
  1  4  1  0
  8 12  1  0
 12 13  2  0
 13 15  1  0
 15 17  2  0
 17 19  1  0
 19 21  2  0
 21 12  1  0
  8  9  1  0
  8 10  1  0
  8 11  1  0
 13 14  1  0
 15 16  1  0
 17 18  1  0
 19 20  1  0
 21 22  1  0
M  CHG  1   7  -1
V    7 [O&-]
M  END
>  <PDB_ID>  (2972) 
pdb2q7e

>  <RESIDUE_NAME>  (2972) 
GLU   PHE

>  <FRAG_NAME>  (2972) 
ACET   MBZ

>  <FRAG_ATOM_NUM>  (2972) 
fragi: 7 fragj: 15

>  <atom.prop.CHAIN_ID>  (2972) 
A A A A A A A Z Z Z Z Z Z Z Z Z Z Z Z Z Z Z

>  <atom.prop.IS_HEAVY_ATOM>  (2972) 
1 0 0 0 1 1 1 1 0 0 0 1 1 0 1 0 1 0 1 0 1 0

>  <DIFUSE_FUNC_ATOM>  (2972) 
n/a

>  <FINAL_SINGLE_POINT_ENERGY>  (2972) 
0

>  <NONCOV_INTER_ENERGY_QM>  (2972) 
0

>  <FF_Energy>  (2972) 
-1.07

>  <QM_Energy>  (2972) 
-6.63

>  <source>  (2972) 
ACET_MBZ_03

>  <Index>  (2972) 
15744

$$$$
ACEH-pdb5uwz-A-GLH-35:MBZ-pdb5uwz-A-PHE-88
     RDKit          3D

 22 21  0  0  0  0  0  0  0  0999 V2000
   -1.1206    2.1947    5.0683 C   0  0  0  0  0  0  0  0  0  0  0  0
   -1.2638    2.9937    5.6260 H   0  0  0  0  0  0  0  0  0  0  0  0
   -0.2241    1.8086    5.2001 H   0  0  0  0  0  0  0  0  0  0  0  0
   -1.8622    1.4458    5.3463 H   0  0  0  0  0  0  0  0  0  0  0  0
   -1.2095    2.6421    3.6022 C   0  0  0  0  0  0  0  0  0  0  0  0
   -2.2039    2.3091    2.9393 O   0  0  0  0  0  0  0  0  0  0  0  0
   -0.2727    3.3547    3.1575 O   0  0  0  0  0  0  0  0  0  0  0  0
    0.0519    2.8624    0.0297 C   0  0  0  0  0  0  0  0  0  0  0  0
    0.9242    3.1498    0.4050 H   0  0  0  0  0  0  0  0  0  0  0  0
   -0.6986    3.1962    0.5865 H   0  0  0  0  0  0  0  0  0  0  0  0
   -0.0451    3.3284   -0.9508 H   0  0  0  0  0  0  0  0  0  0  0  0
    0.0074    1.3830    0.0082 C   0  0  0  0  0  0  0  0  0  0  0  0
   -1.1992    0.7011   -0.0074 C   0  0  0  0  0  0  0  0  0  0  0  0
   -2.0552    1.1892   -0.0251 H   0  0  0  0  0  0  0  0  0  0  0  0
   -1.1934   -0.6903    0.0000 C   0  0  0  0  0  0  0  0  0  0  0  0
   -2.0652   -1.1898    0.0195 H   0  0  0  0  0  0  0  0  0  0  0  0
    0.0121   -1.3730   -0.0175 C   0  0  0  0  0  0  0  0  0  0  0  0
    0.0050   -2.3794   -0.0437 H   0  0  0  0  0  0  0  0  0  0  0  0
    1.1934   -0.6864   -0.0000 C   0  0  0  0  0  0  0  0  0  0  0  0
    2.0796   -1.1915    0.0013 H   0  0  0  0  0  0  0  0  0  0  0  0
    1.1797    0.6655    0.0167 C   0  0  0  0  0  0  0  0  0  0  0  0
    2.0597    1.1766    0.0350 H   0  0  0  0  0  0  0  0  0  0  0  0
  1  5  1  0
  5  6  2  0
  5  7  1  0
  1  2  1  0
  1  3  1  0
  1  4  1  0
  8 12  1  0
 12 13  2  0
 13 15  1  0
 15 17  2  0
 17 19  1  0
 19 21  2  0
 21 12  1  0
  8  9  1  0
  8 10  1  0
  8 11  1  0
 13 14  1  0
 15 16  1  0
 17 18  1  0
 19 20  1  0
 21 22  1  0
M  CHG  1   7  -1
V    7 [O&-]
M  END
>  <PDB_ID>  (2973) 
pdb5uwz

>  <RESIDUE_NAME>  (2973) 
GLU   PHE

>  <FRAG_NAME>  (2973) 
ACET   MBZ

>  <FRAG_ATOM_NUM>  (2973) 
fragi: 7 fragj: 15

>  <atom.prop.CHAIN_ID>  (2973) 
A A A A A A A Z Z Z Z Z Z Z Z Z Z Z Z Z Z Z

>  <atom.prop.IS_HEAVY_ATOM>  (2973) 
1 0 0 0 1 1 1 1 0 0 0 1 1 0 1 0 1 0 1 0 1 0

>  <DIFUSE_FUNC_ATOM>  (2973) 
n/a

>  <FINAL_SINGLE_POINT_ENERGY>  (2973) 
0

>  <NONCOV_INTER_ENERGY_QM>  (2973) 
0

>  <FF_Energy>  (2973) 
0.53

>  <QM_Energy>  (2973) 
-5.83

>  <source>  (2973) 
ACET_MBZ_03

>  <Index>  (2973) 
15747

$$$$
ACEH-pdb2qf9-B-GLH-177:MBZ-pdb2qf9-B-PHE-46
     RDKit          3D

 22 21  0  0  0  0  0  0  0  0999 V2000
    4.9101    1.6632   -1.6448 C   0  0  0  0  0  0  0  0  0  0  0  0
    4.1535    1.5508   -2.2669 H   0  0  0  0  0  0  0  0  0  0  0  0
    4.9682    0.9198   -1.0008 H   0  0  0  0  0  0  0  0  0  0  0  0
    5.8292    1.6774   -2.2306 H   0  0  0  0  0  0  0  0  0  0  0  0
    4.6830    2.9315   -0.8657 C   0  0  0  0  0  0  0  0  0  0  0  0
    5.5714    3.8025   -0.8796 O   0  0  0  0  0  0  0  0  0  0  0  0
    3.6105    3.0406   -0.2329 O   0  0  0  0  0  0  0  0  0  0  0  0
   -0.0083    2.9184    0.0189 C   0  0  0  0  0  0  0  0  0  0  0  0
   -0.6170    3.2362   -0.6892 H   0  0  0  0  0  0  0  0  0  0  0  0
    0.9157    3.2313   -0.1242 H   0  0  0  0  0  0  0  0  0  0  0  0
   -0.3559    3.3289    0.9669 H   0  0  0  0  0  0  0  0  0  0  0  0
   -0.0027    1.4172   -0.0093 C   0  0  0  0  0  0  0  0  0  0  0  0
   -1.1969    0.7086    0.0039 C   0  0  0  0  0  0  0  0  0  0  0  0
   -2.0668    1.1867    0.0144 H   0  0  0  0  0  0  0  0  0  0  0  0
   -1.2023   -0.7050    0.0000 C   0  0  0  0  0  0  0  0  0  0  0  0
   -2.0814   -1.1886   -0.0034 H   0  0  0  0  0  0  0  0  0  0  0  0
    0.0009   -1.4100    0.0023 C   0  0  0  0  0  0  0  0  0  0  0  0
   -0.0119   -2.4081    0.0054 H   0  0  0  0  0  0  0  0  0  0  0  0
    1.2023   -0.7201   -0.0000 C   0  0  0  0  0  0  0  0  0  0  0  0
    2.0854   -1.1991   -0.0019 H   0  0  0  0  0  0  0  0  0  0  0  0
    1.1987    0.7094    0.0032 C   0  0  0  0  0  0  0  0  0  0  0  0
    2.0673    1.1884    0.0137 H   0  0  0  0  0  0  0  0  0  0  0  0
  1  5  1  0
  5  6  2  0
  5  7  1  0
  1  2  1  0
  1  3  1  0
  1  4  1  0
  8 12  1  0
 12 13  2  0
 13 15  1  0
 15 17  2  0
 17 19  1  0
 19 21  2  0
 21 12  1  0
  8  9  1  0
  8 10  1  0
  8 11  1  0
 13 14  1  0
 15 16  1  0
 17 18  1  0
 19 20  1  0
 21 22  1  0
M  CHG  1   7  -1
V    7 [O&-]
M  END
>  <PDB_ID>  (2974) 
pdb2qf9

>  <RESIDUE_NAME>  (2974) 
GLU   PHE

>  <FRAG_NAME>  (2974) 
ACET   MBZ

>  <FRAG_ATOM_NUM>  (2974) 
fragi: 7 fragj: 15

>  <atom.prop.CHAIN_ID>  (2974) 
A A A A A A A Z Z Z Z Z Z Z Z Z Z Z Z Z Z Z

>  <atom.prop.IS_HEAVY_ATOM>  (2974) 
1 0 0 0 1 1 1 1 0 0 0 1 1 0 1 0 1 0 1 0 1 0

>  <DIFUSE_FUNC_ATOM>  (2974) 
n/a

>  <FINAL_SINGLE_POINT_ENERGY>  (2974) 
0

>  <NONCOV_INTER_ENERGY_QM>  (2974) 
0

>  <FF_Energy>  (2974) 
-2.42

>  <QM_Energy>  (2974) 
-7.99

>  <source>  (2974) 
ACET_MBZ_03

>  <Index>  (2974) 
15824

$$$$
ACEH-pdb5v4l-B-ASH-175:MBZ-pdb5v4l-B-PHE-251
     RDKit          3D

 22 21  0  0  0  0  0  0  0  0999 V2000
   -3.7210    2.9389   -2.4505 C   0  0  0  0  0  0  0  0  0  0  0  0
   -4.3959    2.2113   -2.4960 H   0  0  0  0  0  0  0  0  0  0  0  0
   -2.8444    2.6217   -2.7923 H   0  0  0  0  0  0  0  0  0  0  0  0
   -4.0590    3.7508   -3.0943 H   0  0  0  0  0  0  0  0  0  0  0  0
   -3.5622    3.3717   -1.0165 C   0  0  0  0  0  0  0  0  0  0  0  0
   -4.0276    2.6397   -0.1210 O   0  0  0  0  0  0  0  0  0  0  0  0
   -2.9805    4.4484   -0.7828 O   0  0  0  0  0  0  0  0  0  0  0  0
    0.0178    2.9322   -0.0249 C   0  0  0  0  0  0  0  0  0  0  0  0
   -0.4394    3.2284   -0.8480 H   0  0  0  0  0  0  0  0  0  0  0  0
    0.9611    3.2241   -0.0082 H   0  0  0  0  0  0  0  0  0  0  0  0
   -0.4871    3.4001    0.8202 H   0  0  0  0  0  0  0  0  0  0  0  0
    0.0007    1.4102   -0.0049 C   0  0  0  0  0  0  0  0  0  0  0  0
   -1.1918    0.7099   -0.0056 C   0  0  0  0  0  0  0  0  0  0  0  0
   -2.0603    1.1916   -0.0118 H   0  0  0  0  0  0  0  0  0  0  0  0
   -1.1961   -0.6951   -0.0000 C   0  0  0  0  0  0  0  0  0  0  0  0
   -2.0795   -1.1795   -0.0044 H   0  0  0  0  0  0  0  0  0  0  0  0
   -0.0023   -1.4003    0.0127 C   0  0  0  0  0  0  0  0  0  0  0  0
   -0.0149   -2.3984    0.0308 H   0  0  0  0  0  0  0  0  0  0  0  0
    1.1961   -0.7127    0.0000 C   0  0  0  0  0  0  0  0  0  0  0  0
    2.0782   -1.2052   -0.0068 H   0  0  0  0  0  0  0  0  0  0  0  0
    1.1934    0.6879   -0.0022 C   0  0  0  0  0  0  0  0  0  0  0  0
    2.0669    1.1780   -0.0030 H   0  0  0  0  0  0  0  0  0  0  0  0
  1  5  1  0
  5  6  2  0
  5  7  1  0
  1  2  1  0
  1  3  1  0
  1  4  1  0
  8 12  1  0
 12 13  2  0
 13 15  1  0
 15 17  2  0
 17 19  1  0
 19 21  2  0
 21 12  1  0
  8  9  1  0
  8 10  1  0
  8 11  1  0
 13 14  1  0
 15 16  1  0
 17 18  1  0
 19 20  1  0
 21 22  1  0
M  CHG  1   7  -1
V    7 [O&-]
M  END
>  <PDB_ID>  (2975) 
pdb5v4l

>  <RESIDUE_NAME>  (2975) 
ASP   PHE

>  <FRAG_NAME>  (2975) 
ACET   MBZ

>  <FRAG_ATOM_NUM>  (2975) 
fragi: 7 fragj: 15

>  <atom.prop.CHAIN_ID>  (2975) 
A A A A A A A Z Z Z Z Z Z Z Z Z Z Z Z Z Z Z

>  <atom.prop.IS_HEAVY_ATOM>  (2975) 
1 0 0 0 1 1 1 1 0 0 0 1 1 0 1 0 1 0 1 0 1 0

>  <DIFUSE_FUNC_ATOM>  (2975) 
n/a

>  <FINAL_SINGLE_POINT_ENERGY>  (2975) 
0

>  <NONCOV_INTER_ENERGY_QM>  (2975) 
0

>  <FF_Energy>  (2975) 
-2.9

>  <QM_Energy>  (2975) 
-8.28

>  <source>  (2975) 
ACET_MBZ_03

>  <Index>  (2975) 
15832

$$$$
ACEH-pdb2vtf-A-GLH-318:MBZ-pdb2vtf-A-PHE-81
     RDKit          3D

 22 21  0  0  0  0  0  0  0  0999 V2000
   -6.1150    1.8874    1.5259 C   0  0  0  0  0  0  0  0  0  0  0  0
   -6.5151    1.5620    0.6923 H   0  0  0  0  0  0  0  0  0  0  0  0
   -6.4263    2.7847    1.7703 H   0  0  0  0  0  0  0  0  0  0  0  0
   -6.3925    1.2010    2.3258 H   0  0  0  0  0  0  0  0  0  0  0  0
   -4.6134    1.9597    1.3210 C   0  0  0  0  0  0  0  0  0  0  0  0
   -3.8405    1.9902    2.3198 O   0  0  0  0  0  0  0  0  0  0  0  0
   -4.2078    1.9676    0.1476 O   0  0  0  0  0  0  0  0  0  0  0  0
   -0.0036    2.9143   -0.0116 C   0  0  0  0  0  0  0  0  0  0  0  0
   -0.5239    3.2191   -0.7929 H   0  0  0  0  0  0  0  0  0  0  0  0
    0.9334    3.2214   -0.0540 H   0  0  0  0  0  0  0  0  0  0  0  0
   -0.4534    3.3621    0.8745 H   0  0  0  0  0  0  0  0  0  0  0  0
   -0.0076    1.4097    0.0007 C   0  0  0  0  0  0  0  0  0  0  0  0
   -1.2054    0.7028   -0.0191 C   0  0  0  0  0  0  0  0  0  0  0  0
   -2.0727    1.1802   -0.0480 H   0  0  0  0  0  0  0  0  0  0  0  0
   -1.2091   -0.7140    0.0000 C   0  0  0  0  0  0  0  0  0  0  0  0
   -2.0762   -1.2024    0.0112 H   0  0  0  0  0  0  0  0  0  0  0  0
    0.0117   -1.4040    0.0050 C   0  0  0  0  0  0  0  0  0  0  0  0
    0.0104   -2.4022    0.0116 H   0  0  0  0  0  0  0  0  0  0  0  0
    1.2091   -0.7004   -0.0000 C   0  0  0  0  0  0  0  0  0  0  0  0
    2.0945   -1.1872   -0.0117 H   0  0  0  0  0  0  0  0  0  0  0  0
    1.2013    0.7059    0.0134 C   0  0  0  0  0  0  0  0  0  0  0  0
    2.0636    1.1998    0.0314 H   0  0  0  0  0  0  0  0  0  0  0  0
  1  5  1  0
  5  6  2  0
  5  7  1  0
  1  2  1  0
  1  3  1  0
  1  4  1  0
  8 12  1  0
 12 13  2  0
 13 15  1  0
 15 17  2  0
 17 19  1  0
 19 21  2  0
 21 12  1  0
  8  9  1  0
  8 10  1  0
  8 11  1  0
 13 14  1  0
 15 16  1  0
 17 18  1  0
 19 20  1  0
 21 22  1  0
M  CHG  1   7  -1
V    7 [O&-]
M  END
>  <PDB_ID>  (2976) 
pdb2vtf

>  <RESIDUE_NAME>  (2976) 
GLU   PHE

>  <FRAG_NAME>  (2976) 
ACET   MBZ

>  <FRAG_ATOM_NUM>  (2976) 
fragi: 7 fragj: 15

>  <atom.prop.CHAIN_ID>  (2976) 
A A A A A A A Z Z Z Z Z Z Z Z Z Z Z Z Z Z Z

>  <atom.prop.IS_HEAVY_ATOM>  (2976) 
1 0 0 0 1 1 1 1 0 0 0 1 1 0 1 0 1 0 1 0 1 0

>  <DIFUSE_FUNC_ATOM>  (2976) 
n/a

>  <FINAL_SINGLE_POINT_ENERGY>  (2976) 
0

>  <NONCOV_INTER_ENERGY_QM>  (2976) 
0

>  <FF_Energy>  (2976) 
-1.26

>  <QM_Energy>  (2976) 
-7.35

>  <source>  (2976) 
ACET_MBZ_03

>  <Index>  (2976) 
15886

$$$$
ACEH-pdb2vtf-B-GLH-318:MBZ-pdb2vtf-B-PHE-81
     RDKit          3D

 22 21  0  0  0  0  0  0  0  0999 V2000
   -6.0075    1.9332    1.5854 C   0  0  0  0  0  0  0  0  0  0  0  0
   -6.4116    1.5410    0.7754 H   0  0  0  0  0  0  0  0  0  0  0  0
   -6.3457    2.8449    1.7545 H   0  0  0  0  0  0  0  0  0  0  0  0
   -6.2952    1.3103    2.4323 H   0  0  0  0  0  0  0  0  0  0  0  0
   -4.5014    2.0359    1.3485 C   0  0  0  0  0  0  0  0  0  0  0  0
   -4.1093    2.0872    0.1617 O   0  0  0  0  0  0  0  0  0  0  0  0
   -3.7097    2.0914    2.3240 O   0  0  0  0  0  0  0  0  0  0  0  0
   -0.0092    2.9063   -0.0109 C   0  0  0  0  0  0  0  0  0  0  0  0
   -0.5309    3.2040   -0.7946 H   0  0  0  0  0  0  0  0  0  0  0  0
    0.9270    3.2171   -0.0598 H   0  0  0  0  0  0  0  0  0  0  0  0
   -0.4599    3.3510    0.8764 H   0  0  0  0  0  0  0  0  0  0  0  0
   -0.0008    1.3995   -0.0012 C   0  0  0  0  0  0  0  0  0  0  0  0
   -1.1945    0.6890   -0.0017 C   0  0  0  0  0  0  0  0  0  0  0  0
   -2.0629    1.1781   -0.0039 H   0  0  0  0  0  0  0  0  0  0  0  0
   -1.1998   -0.7025    0.0000 C   0  0  0  0  0  0  0  0  0  0  0  0
   -2.0741   -1.1965   -0.0033 H   0  0  0  0  0  0  0  0  0  0  0  0
    0.0046   -1.3932    0.0085 C   0  0  0  0  0  0  0  0  0  0  0  0
    0.0049   -2.3915    0.0202 H   0  0  0  0  0  0  0  0  0  0  0  0
    1.1998   -0.6911   -0.0000 C   0  0  0  0  0  0  0  0  0  0  0  0
    2.0852   -1.1853   -0.0003 H   0  0  0  0  0  0  0  0  0  0  0  0
    1.1906    0.6984   -0.0056 C   0  0  0  0  0  0  0  0  0  0  0  0
    2.0607    1.1958   -0.0140 H   0  0  0  0  0  0  0  0  0  0  0  0
  1  5  1  0
  5  6  2  0
  5  7  1  0
  1  2  1  0
  1  3  1  0
  1  4  1  0
  8 12  1  0
 12 13  2  0
 13 15  1  0
 15 17  2  0
 17 19  1  0
 19 21  2  0
 21 12  1  0
  8  9  1  0
  8 10  1  0
  8 11  1  0
 13 14  1  0
 15 16  1  0
 17 18  1  0
 19 20  1  0
 21 22  1  0
M  CHG  1   7  -1
V    7 [O&-]
M  END
>  <PDB_ID>  (2977) 
pdb2vtf

>  <RESIDUE_NAME>  (2977) 
GLU   PHE

>  <FRAG_NAME>  (2977) 
ACET   MBZ

>  <FRAG_ATOM_NUM>  (2977) 
fragi: 7 fragj: 15

>  <atom.prop.CHAIN_ID>  (2977) 
A A A A A A A Z Z Z Z Z Z Z Z Z Z Z Z Z Z Z

>  <atom.prop.IS_HEAVY_ATOM>  (2977) 
1 0 0 0 1 1 1 1 0 0 0 1 1 0 1 0 1 0 1 0 1 0

>  <DIFUSE_FUNC_ATOM>  (2977) 
n/a

>  <FINAL_SINGLE_POINT_ENERGY>  (2977) 
0

>  <NONCOV_INTER_ENERGY_QM>  (2977) 
0

>  <FF_Energy>  (2977) 
-0.94

>  <QM_Energy>  (2977) 
-7.54

>  <source>  (2977) 
ACET_MBZ_03

>  <Index>  (2977) 
15888

$$$$
ACEH-pdb5vmt-E-GLH-22:MBZ-pdb5vmt-E-PHE-45
     RDKit          3D

 22 21  0  0  0  0  0  0  0  0999 V2000
   -0.1241   -6.4075   -0.6779 C   0  0  0  0  0  0  0  0  0  0  0  0
   -0.2327   -6.2229   -1.6566 H   0  0  0  0  0  0  0  0  0  0  0  0
   -1.0239   -6.3793   -0.2371 H   0  0  0  0  0  0  0  0  0  0  0  0
    0.2635   -7.4210   -0.5743 H   0  0  0  0  0  0  0  0  0  0  0  0
    0.7036   -5.3081   -0.0956 C   0  0  0  0  0  0  0  0  0  0  0  0
    1.7701   -5.4900    0.4771 O   0  0  0  0  0  0  0  0  0  0  0  0
    0.1814   -4.1855   -0.2469 O   0  0  0  0  0  0  0  0  0  0  0  0
    0.0041    2.9112    0.0117 C   0  0  0  0  0  0  0  0  0  0  0  0
   -0.6881    3.2257   -0.6194 H   0  0  0  0  0  0  0  0  0  0  0  0
    0.9046    3.2155   -0.2576 H   0  0  0  0  0  0  0  0  0  0  0  0
   -0.2162    3.3321    0.9927 H   0  0  0  0  0  0  0  0  0  0  0  0
   -0.0001    1.4023   -0.0131 C   0  0  0  0  0  0  0  0  0  0  0  0
   -1.1926    0.6964    0.0114 C   0  0  0  0  0  0  0  0  0  0  0  0
   -2.0605    1.1826    0.0362 H   0  0  0  0  0  0  0  0  0  0  0  0
   -1.1942   -0.6960    0.0000 C   0  0  0  0  0  0  0  0  0  0  0  0
   -2.0744   -1.1879   -0.0050 H   0  0  0  0  0  0  0  0  0  0  0  0
    0.0009   -1.3896   -0.0021 C   0  0  0  0  0  0  0  0  0  0  0  0
   -0.0064   -2.3916   -0.0059 H   0  0  0  0  0  0  0  0  0  0  0  0
    1.1942   -0.7007   -0.0000 C   0  0  0  0  0  0  0  0  0  0  0  0
    2.0779   -1.1974    0.0002 H   0  0  0  0  0  0  0  0  0  0  0  0
    1.1917    0.6876    0.0038 C   0  0  0  0  0  0  0  0  0  0  0  0
    2.0626    1.1829    0.0183 H   0  0  0  0  0  0  0  0  0  0  0  0
  1  5  1  0
  5  6  2  0
  5  7  1  0
  1  2  1  0
  1  3  1  0
  1  4  1  0
  8 12  1  0
 12 13  2  0
 13 15  1  0
 15 17  2  0
 17 19  1  0
 19 21  2  0
 21 12  1  0
  8  9  1  0
  8 10  1  0
  8 11  1  0
 13 14  1  0
 15 16  1  0
 17 18  1  0
 19 20  1  0
 21 22  1  0
M  CHG  1   7  -1
V    7 [O&-]
M  END
>  <PDB_ID>  (2978) 
pdb5vmt

>  <RESIDUE_NAME>  (2978) 
GLU   PHE

>  <FRAG_NAME>  (2978) 
ACET   MBZ

>  <FRAG_ATOM_NUM>  (2978) 
fragi: 7 fragj: 15

>  <atom.prop.CHAIN_ID>  (2978) 
A A A A A A A Z Z Z Z Z Z Z Z Z Z Z Z Z Z Z

>  <atom.prop.IS_HEAVY_ATOM>  (2978) 
1 0 0 0 1 1 1 1 0 0 0 1 1 0 1 0 1 0 1 0 1 0

>  <DIFUSE_FUNC_ATOM>  (2978) 
n/a

>  <FINAL_SINGLE_POINT_ENERGY>  (2978) 
0

>  <NONCOV_INTER_ENERGY_QM>  (2978) 
0

>  <FF_Energy>  (2978) 
24.51

>  <QM_Energy>  (2978) 
-4.81

>  <source>  (2978) 
ACET_MBZ_03

>  <Index>  (2978) 
15946

$$$$
ACEH-pdb5vmt-E-GLH-22:MBZ-pdb5vmt-E-PHE-54
     RDKit          3D

 22 21  0  0  0  0  0  0  0  0999 V2000
   -3.0509   -4.6828   -1.7801 C   0  0  0  0  0  0  0  0  0  0  0  0
   -2.7254   -5.1858   -2.5830 H   0  0  0  0  0  0  0  0  0  0  0  0
   -3.9652   -4.3185   -1.9701 H   0  0  0  0  0  0  0  0  0  0  0  0
   -3.1424   -5.3946   -0.9596 H   0  0  0  0  0  0  0  0  0  0  0  0
   -2.1334   -3.5232   -1.5654 C   0  0  0  0  0  0  0  0  0  0  0  0
   -1.4958   -3.3418   -0.5362 O   0  0  0  0  0  0  0  0  0  0  0  0
   -2.0985   -2.7536   -2.5464 O   0  0  0  0  0  0  0  0  0  0  0  0
    0.0040    2.8828   -0.0220 C   0  0  0  0  0  0  0  0  0  0  0  0
   -0.4299    3.1795   -0.8611 H   0  0  0  0  0  0  0  0  0  0  0  0
    0.9450    3.1897    0.0198 H   0  0  0  0  0  0  0  0  0  0  0  0
   -0.5335    3.3333    0.8124 H   0  0  0  0  0  0  0  0  0  0  0  0
   -0.0000    1.3919    0.0009 C   0  0  0  0  0  0  0  0  0  0  0  0
   -1.1917    0.6884   -0.0103 C   0  0  0  0  0  0  0  0  0  0  0  0
   -2.0590    1.1822   -0.0273 H   0  0  0  0  0  0  0  0  0  0  0  0
   -1.1968   -0.6914   -0.0000 C   0  0  0  0  0  0  0  0  0  0  0  0
   -2.0743   -1.1887   -0.0007 H   0  0  0  0  0  0  0  0  0  0  0  0
    0.0001   -1.3850    0.0124 C   0  0  0  0  0  0  0  0  0  0  0  0
   -0.0041   -2.3849    0.0298 H   0  0  0  0  0  0  0  0  0  0  0  0
    1.1968   -0.6917    0.0000 C   0  0  0  0  0  0  0  0  0  0  0  0
    2.0790   -1.1932   -0.0052 H   0  0  0  0  0  0  0  0  0  0  0  0
    1.1917    0.6878   -0.0030 C   0  0  0  0  0  0  0  0  0  0  0  0
    2.0605    1.1883   -0.0087 H   0  0  0  0  0  0  0  0  0  0  0  0
  1  5  1  0
  5  6  2  0
  5  7  1  0
  1  2  1  0
  1  3  1  0
  1  4  1  0
  8 12  1  0
 12 13  2  0
 13 15  1  0
 15 17  2  0
 17 19  1  0
 19 21  2  0
 21 12  1  0
  8  9  1  0
  8 10  1  0
  8 11  1  0
 13 14  1  0
 15 16  1  0
 17 18  1  0
 19 20  1  0
 21 22  1  0
M  CHG  1   7  -1
V    7 [O&-]
M  END
>  <PDB_ID>  (2979) 
pdb5vmt

>  <RESIDUE_NAME>  (2979) 
GLU   PHE

>  <FRAG_NAME>  (2979) 
ACET   MBZ

>  <FRAG_ATOM_NUM>  (2979) 
fragi: 7 fragj: 15

>  <atom.prop.CHAIN_ID>  (2979) 
A A A A A A A Z Z Z Z Z Z Z Z Z Z Z Z Z Z Z

>  <atom.prop.IS_HEAVY_ATOM>  (2979) 
1 0 0 0 1 1 1 1 0 0 0 1 1 0 1 0 1 0 1 0 1 0

>  <DIFUSE_FUNC_ATOM>  (2979) 
n/a

>  <FINAL_SINGLE_POINT_ENERGY>  (2979) 
0

>  <NONCOV_INTER_ENERGY_QM>  (2979) 
0

>  <FF_Energy>  (2979) 
29.19

>  <QM_Energy>  (2979) 
1.75

>  <source>  (2979) 
ACET_MBZ_03

>  <Index>  (2979) 
15947

$$$$
ACEH-pdb3n0l-B-GLH-26:MBZ-pdb3n0l-B-PHE-33
     RDKit          3D

 22 21  0  0  0  0  0  0  0  0999 V2000
   -0.3519   -4.3422   -1.9720 C   0  0  0  0  0  0  0  0  0  0  0  0
   -0.8581   -3.4933   -1.9484 H   0  0  0  0  0  0  0  0  0  0  0  0
   -0.9361   -5.1022   -2.2172 H   0  0  0  0  0  0  0  0  0  0  0  0
    0.4445   -4.2564   -2.7112 H   0  0  0  0  0  0  0  0  0  0  0  0
    0.1441   -4.6031   -0.5510 C   0  0  0  0  0  0  0  0  0  0  0  0
    1.3688   -4.4845   -0.2509 O   0  0  0  0  0  0  0  0  0  0  0  0
   -0.7282   -4.9286    0.2759 O   0  0  0  0  0  0  0  0  0  0  0  0
   -0.0061    2.8957    0.0074 C   0  0  0  0  0  0  0  0  0  0  0  0
    0.9336    3.2053    0.0107 H   0  0  0  0  0  0  0  0  0  0  0  0
   -0.4841    3.1961    0.8206 H   0  0  0  0  0  0  0  0  0  0  0  0
   -0.5023    3.3411   -0.8549 H   0  0  0  0  0  0  0  0  0  0  0  0
   -0.0011    1.3969   -0.0018 C   0  0  0  0  0  0  0  0  0  0  0  0
   -1.1962    0.6867    0.0023 C   0  0  0  0  0  0  0  0  0  0  0  0
   -2.0631    1.1788    0.0060 H   0  0  0  0  0  0  0  0  0  0  0  0
   -1.1975   -0.6962    0.0000 C   0  0  0  0  0  0  0  0  0  0  0  0
   -2.0709   -1.1971   -0.0020 H   0  0  0  0  0  0  0  0  0  0  0  0
    0.0076   -1.3890    0.0026 C   0  0  0  0  0  0  0  0  0  0  0  0
    0.0037   -2.3881    0.0060 H   0  0  0  0  0  0  0  0  0  0  0  0
    1.1975   -0.6901    0.0000 C   0  0  0  0  0  0  0  0  0  0  0  0
    2.0846   -1.1864    0.0019 H   0  0  0  0  0  0  0  0  0  0  0  0
    1.1896    0.6918   -0.0031 C   0  0  0  0  0  0  0  0  0  0  0  0
    2.0599    1.1923   -0.0074 H   0  0  0  0  0  0  0  0  0  0  0  0
  1  5  1  0
  5  6  2  0
  5  7  1  0
  1  2  1  0
  1  3  1  0
  1  4  1  0
  8 12  1  0
 12 13  2  0
 13 15  1  0
 15 17  2  0
 17 19  1  0
 19 21  2  0
 21 12  1  0
  8  9  1  0
  8 10  1  0
  8 11  1  0
 13 14  1  0
 15 16  1  0
 17 18  1  0
 19 20  1  0
 21 22  1  0
M  CHG  1   7  -1
V    7 [O&-]
M  END
>  <PDB_ID>  (2980) 
pdb3n0l

>  <RESIDUE_NAME>  (2980) 
GLU   PHE

>  <FRAG_NAME>  (2980) 
ACET   MBZ

>  <FRAG_ATOM_NUM>  (2980) 
fragi: 7 fragj: 15

>  <atom.prop.CHAIN_ID>  (2980) 
A A A A A A A Z Z Z Z Z Z Z Z Z Z Z Z Z Z Z

>  <atom.prop.IS_HEAVY_ATOM>  (2980) 
1 0 0 0 1 1 1 1 0 0 0 1 1 0 1 0 1 0 1 0 1 0

>  <DIFUSE_FUNC_ATOM>  (2980) 
n/a

>  <FINAL_SINGLE_POINT_ENERGY>  (2980) 
0

>  <NONCOV_INTER_ENERGY_QM>  (2980) 
0

>  <FF_Energy>  (2980) 
0.95

>  <QM_Energy>  (2980) 
-5.18

>  <source>  (2980) 
ACET_MBZ_03

>  <Index>  (2980) 
16048

$$$$
ACEH-pdb3n1x-A-GLH-103:MBZ-pdb3n1x-A-PHE-176
     RDKit          3D

 22 21  0  0  0  0  0  0  0  0999 V2000
    2.5669    0.5825    2.8305 C   0  0  0  0  0  0  0  0  0  0  0  0
    3.2572    0.5350    3.5200 H   0  0  0  0  0  0  0  0  0  0  0  0
    2.7668    0.0371    2.0449 H   0  0  0  0  0  0  0  0  0  0  0  0
    1.6579    0.1740    3.2718 H   0  0  0  0  0  0  0  0  0  0  0  0
    2.4036    2.0166    2.4003 C   0  0  0  0  0  0  0  0  0  0  0  0
    3.1333    2.4784    1.4855 O   0  0  0  0  0  0  0  0  0  0  0  0
    1.5062    2.7185    2.9299 O   0  0  0  0  0  0  0  0  0  0  0  0
   -0.0486    2.8552   -0.0263 C   0  0  0  0  0  0  0  0  0  0  0  0
    0.8601    3.2236    0.0735 H   0  0  0  0  0  0  0  0  0  0  0  0
   -0.6633    3.2029    0.6610 H   0  0  0  0  0  0  0  0  0  0  0  0
   -0.4238    3.2088   -0.9867 H   0  0  0  0  0  0  0  0  0  0  0  0
   -0.0045    1.4098    0.0368 C   0  0  0  0  0  0  0  0  0  0  0  0
   -1.2231    0.6759   -0.0216 C   0  0  0  0  0  0  0  0  0  0  0  0
   -2.0823    1.1819   -0.0818 H   0  0  0  0  0  0  0  0  0  0  0  0
   -1.2536   -0.7228    0.0000 C   0  0  0  0  0  0  0  0  0  0  0  0
   -2.0993   -1.2225    0.0038 H   0  0  0  0  0  0  0  0  0  0  0  0
    0.0056   -1.4282    0.0194 C   0  0  0  0  0  0  0  0  0  0  0  0
    0.0301   -2.3998    0.0441 H   0  0  0  0  0  0  0  0  0  0  0  0
    1.2536   -0.6632    0.0000 C   0  0  0  0  0  0  0  0  0  0  0  0
    2.1197   -1.1663    0.0133 H   0  0  0  0  0  0  0  0  0  0  0  0
    1.2220    0.7285   -0.0345 C   0  0  0  0  0  0  0  0  0  0  0  0
    2.0667    1.2457   -0.1107 H   0  0  0  0  0  0  0  0  0  0  0  0
  1  5  1  0
  5  6  2  0
  5  7  1  0
  1  2  1  0
  1  3  1  0
  1  4  1  0
  8 12  1  0
 12 13  2  0
 13 15  1  0
 15 17  2  0
 17 19  1  0
 19 21  2  0
 21 12  1  0
  8  9  1  0
  8 10  1  0
  8 11  1  0
 13 14  1  0
 15 16  1  0
 17 18  1  0
 19 20  1  0
 21 22  1  0
M  CHG  1   7  -1
V    7 [O&-]
M  END
>  <PDB_ID>  (2981) 
pdb3n1x

>  <RESIDUE_NAME>  (2981) 
GLU   PHE

>  <FRAG_NAME>  (2981) 
ACET   MBZ

>  <FRAG_ATOM_NUM>  (2981) 
fragi: 7 fragj: 15

>  <atom.prop.CHAIN_ID>  (2981) 
A A A A A A A Z Z Z Z Z Z Z Z Z Z Z Z Z Z Z

>  <atom.prop.IS_HEAVY_ATOM>  (2981) 
1 0 0 0 1 1 1 1 0 0 0 1 1 0 1 0 1 0 1 0 1 0

>  <DIFUSE_FUNC_ATOM>  (2981) 
n/a

>  <FINAL_SINGLE_POINT_ENERGY>  (2981) 
0

>  <NONCOV_INTER_ENERGY_QM>  (2981) 
0

>  <FF_Energy>  (2981) 
3.86

>  <QM_Energy>  (2981) 
-6.7

>  <source>  (2981) 
ACET_MBZ_03

>  <Index>  (2981) 
16063

$$$$
ACEH-pdb3n2b-C-GLH-388:MBZ-pdb3n2b-C-PHE-374
     RDKit          3D

 22 21  0  0  0  0  0  0  0  0999 V2000
   -0.9273    0.9338   -4.0173 C   0  0  0  0  0  0  0  0  0  0  0  0
   -1.4096    1.7485   -3.7796 H   0  0  0  0  0  0  0  0  0  0  0  0
   -1.2823    0.1320   -3.5860 H   0  0  0  0  0  0  0  0  0  0  0  0
   -1.0101    0.7994   -5.0958 H   0  0  0  0  0  0  0  0  0  0  0  0
    0.5238    1.1014   -3.5662 C   0  0  0  0  0  0  0  0  0  0  0  0
    1.2883    0.0979   -3.5645 O   0  0  0  0  0  0  0  0  0  0  0  0
    0.9069    2.2347   -3.1928 O   0  0  0  0  0  0  0  0  0  0  0  0
   -0.0042    2.8818    0.0377 C   0  0  0  0  0  0  0  0  0  0  0  0
   -0.8102    3.2059   -0.4251 H   0  0  0  0  0  0  0  0  0  0  0  0
    0.8226    3.2138   -0.3809 H   0  0  0  0  0  0  0  0  0  0  0  0
   -0.0337    3.2670    1.0570 H   0  0  0  0  0  0  0  0  0  0  0  0
    0.0048    1.3903   -0.0117 C   0  0  0  0  0  0  0  0  0  0  0  0
   -1.2035    0.6726    0.0127 C   0  0  0  0  0  0  0  0  0  0  0  0
   -2.0621    1.1836    0.0386 H   0  0  0  0  0  0  0  0  0  0  0  0
   -1.2097   -0.6857   -0.0000 C   0  0  0  0  0  0  0  0  0  0  0  0
   -2.0812   -1.1964   -0.0121 H   0  0  0  0  0  0  0  0  0  0  0  0
   -0.0035   -1.3860    0.0062 C   0  0  0  0  0  0  0  0  0  0  0  0
    0.0005   -2.3778    0.0145 H   0  0  0  0  0  0  0  0  0  0  0  0
    1.2097   -0.6742   -0.0000 C   0  0  0  0  0  0  0  0  0  0  0  0
    2.0836   -1.1916    0.0020 H   0  0  0  0  0  0  0  0  0  0  0  0
    1.2021    0.6831   -0.0072 C   0  0  0  0  0  0  0  0  0  0  0  0
    2.0666    1.1974   -0.0098 H   0  0  0  0  0  0  0  0  0  0  0  0
  1  5  1  0
  5  6  2  0
  5  7  1  0
  1  2  1  0
  1  3  1  0
  1  4  1  0
  8 12  1  0
 12 13  2  0
 13 15  1  0
 15 17  2  0
 17 19  1  0
 19 21  2  0
 21 12  1  0
  8  9  1  0
  8 10  1  0
  8 11  1  0
 13 14  1  0
 15 16  1  0
 17 18  1  0
 19 20  1  0
 21 22  1  0
M  CHG  1   7  -1
V    7 [O&-]
M  END
>  <PDB_ID>  (2982) 
pdb3n2b

>  <RESIDUE_NAME>  (2982) 
GLU   PHE

>  <FRAG_NAME>  (2982) 
ACET   MBZ

>  <FRAG_ATOM_NUM>  (2982) 
fragi: 7 fragj: 15

>  <atom.prop.CHAIN_ID>  (2982) 
A A A A A A A Z Z Z Z Z Z Z Z Z Z Z Z Z Z Z

>  <atom.prop.IS_HEAVY_ATOM>  (2982) 
1 0 0 0 1 1 1 1 0 0 0 1 1 0 1 0 1 0 1 0 1 0

>  <DIFUSE_FUNC_ATOM>  (2982) 
n/a

>  <FINAL_SINGLE_POINT_ENERGY>  (2982) 
0

>  <NONCOV_INTER_ENERGY_QM>  (2982) 
0

>  <FF_Energy>  (2982) 
1.92

>  <QM_Energy>  (2982) 
-3.28

>  <source>  (2982) 
ACET_MBZ_03

>  <Index>  (2982) 
16070

$$$$
ACEH-pdb4ouj-B-GLH-48:MBZ-pdb4ouj-B-PHE-27
     RDKit          3D

 22 21  0  0  0  0  0  0  0  0999 V2000
    1.3091    4.7472   -3.4664 C   0  0  0  0  0  0  0  0  0  0  0  0
    1.2729    5.4088   -2.7577 H   0  0  0  0  0  0  0  0  0  0  0  0
    1.2372    5.1892   -4.3261 H   0  0  0  0  0  0  0  0  0  0  0  0
    2.2746    4.2436   -3.4174 H   0  0  0  0  0  0  0  0  0  0  0  0
    0.0909    3.8508   -3.3128 C   0  0  0  0  0  0  0  0  0  0  0  0
    0.2099    2.6069   -3.3775 O   0  0  0  0  0  0  0  0  0  0  0  0
   -1.0270    4.4280   -3.1607 O   0  0  0  0  0  0  0  0  0  0  0  0
    0.0251    2.8959    0.0229 C   0  0  0  0  0  0  0  0  0  0  0  0
   -0.6256    3.2126   -0.6246 H   0  0  0  0  0  0  0  0  0  0  0  0
    0.9140    3.1826   -0.2393 H   0  0  0  0  0  0  0  0  0  0  0  0
   -0.2102    3.3288    0.9951 H   0  0  0  0  0  0  0  0  0  0  0  0
    0.0025    1.3994   -0.0039 C   0  0  0  0  0  0  0  0  0  0  0  0
   -1.1999    0.6955   -0.0047 C   0  0  0  0  0  0  0  0  0  0  0  0
   -2.0089    1.1546    0.0005 H   0  0  0  0  0  0  0  0  0  0  0  0
   -1.1889   -0.6901   -0.0000 C   0  0  0  0  0  0  0  0  0  0  0  0
   -1.9922   -1.1588   -0.0047 H   0  0  0  0  0  0  0  0  0  0  0  0
    0.0116   -1.3814    0.0049 C   0  0  0  0  0  0  0  0  0  0  0  0
    0.0115   -2.3113   -0.0041 H   0  0  0  0  0  0  0  0  0  0  0  0
    1.1889   -0.7038    0.0000 C   0  0  0  0  0  0  0  0  0  0  0  0
    1.9943   -1.1682    0.0027 H   0  0  0  0  0  0  0  0  0  0  0  0
    1.1859    0.6804    0.0037 C   0  0  0  0  0  0  0  0  0  0  0  0
    1.9956    1.1369    0.0086 H   0  0  0  0  0  0  0  0  0  0  0  0
  1  5  1  0
  5  6  2  0
  5  7  1  0
  1  2  1  0
  1  3  1  0
  1  4  1  0
  8 12  1  0
 12 13  2  0
 13 15  1  0
 15 17  2  0
 17 19  1  0
 19 21  2  0
 21 12  1  0
  8  9  1  0
  8 10  1  0
  8 11  1  0
 13 14  1  0
 15 16  1  0
 17 18  1  0
 19 20  1  0
 21 22  1  0
M  CHG  1   7  -1
V    7 [O&-]
M  END
>  <PDB_ID>  (2983) 
pdb4ouj

>  <RESIDUE_NAME>  (2983) 
GLU   PHE

>  <FRAG_NAME>  (2983) 
ACET   MBZ

>  <FRAG_ATOM_NUM>  (2983) 
fragi: 7 fragj: 15

>  <atom.prop.CHAIN_ID>  (2983) 
A A A A A A A Z Z Z Z Z Z Z Z Z Z Z Z Z Z Z

>  <atom.prop.IS_HEAVY_ATOM>  (2983) 
1 0 0 0 1 1 1 1 0 0 0 1 1 0 1 0 1 0 1 0 1 0

>  <DIFUSE_FUNC_ATOM>  (2983) 
n/a

>  <FINAL_SINGLE_POINT_ENERGY>  (2983) 
0

>  <NONCOV_INTER_ENERGY_QM>  (2983) 
0

>  <FF_Energy>  (2983) 
0.75

>  <QM_Energy>  (2983) 
-4.33

>  <source>  (2983) 
ACET_MBZ_03

>  <Index>  (2983) 
16129

$$$$
ACEH-pdb5w5p-A-ASH-384:MBZ-pdb5w5p-A-PHE-370
     RDKit          3D

 22 21  0  0  0  0  0  0  0  0999 V2000
   -0.7307    0.9242    3.7391 C   0  0  0  0  0  0  0  0  0  0  0  0
    0.1013    0.4582    4.0154 H   0  0  0  0  0  0  0  0  0  0  0  0
   -1.1660    0.4478    2.9859 H   0  0  0  0  0  0  0  0  0  0  0  0
   -1.4176    0.9196    4.5854 H   0  0  0  0  0  0  0  0  0  0  0  0
   -0.3704    2.3317    3.2815 C   0  0  0  0  0  0  0  0  0  0  0  0
   -1.2857    3.1650    3.1081 O   0  0  0  0  0  0  0  0  0  0  0  0
    0.8341    2.6047    3.0861 O   0  0  0  0  0  0  0  0  0  0  0  0
    0.0064    2.9029    0.0194 C   0  0  0  0  0  0  0  0  0  0  0  0
    0.9219    3.1995    0.2564 H   0  0  0  0  0  0  0  0  0  0  0  0
   -0.6493    3.1997    0.7002 H   0  0  0  0  0  0  0  0  0  0  0  0
   -0.2621    3.3671   -0.9295 H   0  0  0  0  0  0  0  0  0  0  0  0
    0.0000    1.4005   -0.0037 C   0  0  0  0  0  0  0  0  0  0  0  0
   -1.1928    0.6958    0.0029 C   0  0  0  0  0  0  0  0  0  0  0  0
   -2.0608    1.1853    0.0084 H   0  0  0  0  0  0  0  0  0  0  0  0
   -1.1988   -0.6937    0.0000 C   0  0  0  0  0  0  0  0  0  0  0  0
   -2.0771   -1.1858    0.0021 H   0  0  0  0  0  0  0  0  0  0  0  0
   -0.0005   -1.3935   -0.0039 C   0  0  0  0  0  0  0  0  0  0  0  0
   -0.0079   -2.3924   -0.0104 H   0  0  0  0  0  0  0  0  0  0  0  0
    1.1988   -0.6998    0.0000 C   0  0  0  0  0  0  0  0  0  0  0  0
    2.0801   -1.1963    0.0014 H   0  0  0  0  0  0  0  0  0  0  0  0
    1.1933    0.6908    0.0048 C   0  0  0  0  0  0  0  0  0  0  0  0
    2.0633    1.1866    0.0135 H   0  0  0  0  0  0  0  0  0  0  0  0
  1  5  1  0
  5  6  2  0
  5  7  1  0
  1  2  1  0
  1  3  1  0
  1  4  1  0
  8 12  1  0
 12 13  2  0
 13 15  1  0
 15 17  2  0
 17 19  1  0
 19 21  2  0
 21 12  1  0
  8  9  1  0
  8 10  1  0
  8 11  1  0
 13 14  1  0
 15 16  1  0
 17 18  1  0
 19 20  1  0
 21 22  1  0
M  CHG  1   7  -1
V    7 [O&-]
M  END
>  <PDB_ID>  (2984) 
pdb5w5p

>  <RESIDUE_NAME>  (2984) 
ASP   PHE

>  <FRAG_NAME>  (2984) 
ACET   MBZ

>  <FRAG_ATOM_NUM>  (2984) 
fragi: 7 fragj: 15

>  <atom.prop.CHAIN_ID>  (2984) 
A A A A A A A Z Z Z Z Z Z Z Z Z Z Z Z Z Z Z

>  <atom.prop.IS_HEAVY_ATOM>  (2984) 
1 0 0 0 1 1 1 1 0 0 0 1 1 0 1 0 1 0 1 0 1 0

>  <DIFUSE_FUNC_ATOM>  (2984) 
n/a

>  <FINAL_SINGLE_POINT_ENERGY>  (2984) 
0

>  <NONCOV_INTER_ENERGY_QM>  (2984) 
0

>  <FF_Energy>  (2984) 
0.6

>  <QM_Energy>  (2984) 
-6.93

>  <source>  (2984) 
ACET_MBZ_03

>  <Index>  (2984) 
16131

$$$$
ACEH-pdb2wiq-A-GLH-68:MBZ-pdb2wiq-A-PHE-14
     RDKit          3D

 22 21  0  0  0  0  0  0  0  0999 V2000
    1.5036    0.1063    4.0261 C   0  0  0  0  0  0  0  0  0  0  0  0
    2.3192   -0.3601    4.2882 H   0  0  0  0  0  0  0  0  0  0  0  0
    1.0364   -0.3142    3.2793 H   0  0  0  0  0  0  0  0  0  0  0  0
    0.8314    0.1247    4.8839 H   0  0  0  0  0  0  0  0  0  0  0  0
    1.9314    1.5376    3.5455 C   0  0  0  0  0  0  0  0  0  0  0  0
    3.1425    1.8608    3.5806 O   0  0  0  0  0  0  0  0  0  0  0  0
    1.0623    2.3379    3.1103 O   0  0  0  0  0  0  0  0  0  0  0  0
    0.0060    2.9345    0.0686 C   0  0  0  0  0  0  0  0  0  0  0  0
    0.8934    3.2208    0.3949 H   0  0  0  0  0  0  0  0  0  0  0  0
   -0.7137    3.2147    0.6847 H   0  0  0  0  0  0  0  0  0  0  0  0
   -0.1687    3.4230   -0.8900 H   0  0  0  0  0  0  0  0  0  0  0  0
    0.0005    1.4159    0.0095 C   0  0  0  0  0  0  0  0  0  0  0  0
   -1.2087    0.7014   -0.0047 C   0  0  0  0  0  0  0  0  0  0  0  0
   -2.0714    1.1869   -0.0195 H   0  0  0  0  0  0  0  0  0  0  0  0
   -1.2140   -0.7085   -0.0000 C   0  0  0  0  0  0  0  0  0  0  0  0
   -2.0842   -1.1976    0.0219 H   0  0  0  0  0  0  0  0  0  0  0  0
    0.0022   -1.4063   -0.0249 C   0  0  0  0  0  0  0  0  0  0  0  0
    0.0029   -2.4002   -0.0606 H   0  0  0  0  0  0  0  0  0  0  0  0
    1.2140   -0.6983    0.0000 C   0  0  0  0  0  0  0  0  0  0  0  0
    2.0922   -1.1972    0.0047 H   0  0  0  0  0  0  0  0  0  0  0  0
    1.2060    0.6958    0.0201 C   0  0  0  0  0  0  0  0  0  0  0  0
    2.0718    1.1956    0.0419 H   0  0  0  0  0  0  0  0  0  0  0  0
  1  5  1  0
  5  6  2  0
  5  7  1  0
  1  2  1  0
  1  3  1  0
  1  4  1  0
  8 12  1  0
 12 13  2  0
 13 15  1  0
 15 17  2  0
 17 19  1  0
 19 21  2  0
 21 12  1  0
  8  9  1  0
  8 10  1  0
  8 11  1  0
 13 14  1  0
 15 16  1  0
 17 18  1  0
 19 20  1  0
 21 22  1  0
M  CHG  1   7  -1
V    7 [O&-]
M  END
>  <PDB_ID>  (2985) 
pdb2wiq

>  <RESIDUE_NAME>  (2985) 
GLU   PHE

>  <FRAG_NAME>  (2985) 
ACET   MBZ

>  <FRAG_ATOM_NUM>  (2985) 
fragi: 7 fragj: 15

>  <atom.prop.CHAIN_ID>  (2985) 
A A A A A A A Z Z Z Z Z Z Z Z Z Z Z Z Z Z Z

>  <atom.prop.IS_HEAVY_ATOM>  (2985) 
1 0 0 0 1 1 1 1 0 0 0 1 1 0 1 0 1 0 1 0 1 0

>  <DIFUSE_FUNC_ATOM>  (2985) 
n/a

>  <FINAL_SINGLE_POINT_ENERGY>  (2985) 
0

>  <NONCOV_INTER_ENERGY_QM>  (2985) 
0

>  <FF_Energy>  (2985) 
0.3

>  <QM_Energy>  (2985) 
-4.87

>  <source>  (2985) 
ACET_MBZ_03

>  <Index>  (2985) 
16195

$$$$
ACEH-pdb2wiq-B-GLH-68:MBZ-pdb2wiq-B-PHE-14
     RDKit          3D

 22 21  0  0  0  0  0  0  0  0999 V2000
    1.6216    0.3883    4.0699 C   0  0  0  0  0  0  0  0  0  0  0  0
    2.4023   -0.1063    4.3754 H   0  0  0  0  0  0  0  0  0  0  0  0
    1.1187   -0.0601    3.3678 H   0  0  0  0  0  0  0  0  0  0  0  0
    0.9566    0.5129    4.9245 H   0  0  0  0  0  0  0  0  0  0  0  0
    2.1185    1.7424    3.4986 C   0  0  0  0  0  0  0  0  0  0  0  0
    3.3447    2.0668    3.5597 O   0  0  0  0  0  0  0  0  0  0  0  0
    1.2788    2.4958    2.9651 O   0  0  0  0  0  0  0  0  0  0  0  0
    0.0218    2.9149    0.0226 C   0  0  0  0  0  0  0  0  0  0  0  0
    0.8771    3.2061    0.4259 H   0  0  0  0  0  0  0  0  0  0  0  0
   -0.7507    3.2146    0.5634 H   0  0  0  0  0  0  0  0  0  0  0  0
   -0.0586    3.3836   -0.9583 H   0  0  0  0  0  0  0  0  0  0  0  0
    0.0114    1.4043   -0.0050 C   0  0  0  0  0  0  0  0  0  0  0  0
   -1.1998    0.7031   -0.0061 C   0  0  0  0  0  0  0  0  0  0  0  0
   -2.0570    1.2074   -0.0128 H   0  0  0  0  0  0  0  0  0  0  0  0
   -1.2157   -0.6799   -0.0000 C   0  0  0  0  0  0  0  0  0  0  0  0
   -2.1040   -1.1663    0.0207 H   0  0  0  0  0  0  0  0  0  0  0  0
   -0.0313   -1.4018   -0.0199 C   0  0  0  0  0  0  0  0  0  0  0  0
   -0.0356   -2.3914   -0.0481 H   0  0  0  0  0  0  0  0  0  0  0  0
    1.2157   -0.7079    0.0000 C   0  0  0  0  0  0  0  0  0  0  0  0
    2.0723   -1.2257   -0.0070 H   0  0  0  0  0  0  0  0  0  0  0  0
    1.2197    0.6822    0.0310 C   0  0  0  0  0  0  0  0  0  0  0  0
    2.0822    1.1790    0.0787 H   0  0  0  0  0  0  0  0  0  0  0  0
  1  5  1  0
  5  6  2  0
  5  7  1  0
  1  2  1  0
  1  3  1  0
  1  4  1  0
  8 12  1  0
 12 13  2  0
 13 15  1  0
 15 17  2  0
 17 19  1  0
 19 21  2  0
 21 12  1  0
  8  9  1  0
  8 10  1  0
  8 11  1  0
 13 14  1  0
 15 16  1  0
 17 18  1  0
 19 20  1  0
 21 22  1  0
M  CHG  1   7  -1
V    7 [O&-]
M  END
>  <PDB_ID>  (2986) 
pdb2wiq

>  <RESIDUE_NAME>  (2986) 
GLU   PHE

>  <FRAG_NAME>  (2986) 
ACET   MBZ

>  <FRAG_ATOM_NUM>  (2986) 
fragi: 7 fragj: 15

>  <atom.prop.CHAIN_ID>  (2986) 
A A A A A A A Z Z Z Z Z Z Z Z Z Z Z Z Z Z Z

>  <atom.prop.IS_HEAVY_ATOM>  (2986) 
1 0 0 0 1 1 1 1 0 0 0 1 1 0 1 0 1 0 1 0 1 0

>  <DIFUSE_FUNC_ATOM>  (2986) 
n/a

>  <FINAL_SINGLE_POINT_ENERGY>  (2986) 
0

>  <NONCOV_INTER_ENERGY_QM>  (2986) 
0

>  <FF_Energy>  (2986) 
0.11

>  <QM_Energy>  (2986) 
-5.32

>  <source>  (2986) 
ACET_MBZ_03

>  <Index>  (2986) 
16204

$$$$
ACEH-pdb5wlh-A-GLH-498:MBZ-pdb5wlh-A-PHE-921
     RDKit          3D

 22 21  0  0  0  0  0  0  0  0999 V2000
   -0.1859    0.1642    3.5653 C   0  0  0  0  0  0  0  0  0  0  0  0
    0.0152   -0.4775    2.8467 H   0  0  0  0  0  0  0  0  0  0  0  0
   -0.3772   -0.2863    4.4198 H   0  0  0  0  0  0  0  0  0  0  0  0
    0.6919    0.7948    3.7063 H   0  0  0  0  0  0  0  0  0  0  0  0
   -1.4553    0.9304    3.1563 C   0  0  0  0  0  0  0  0  0  0  0  0
   -2.5383    0.2994    3.0849 O   0  0  0  0  0  0  0  0  0  0  0  0
   -1.3821    2.1460    2.9095 O   0  0  0  0  0  0  0  0  0  0  0  0
   -0.0068    2.9128   -0.0226 C   0  0  0  0  0  0  0  0  0  0  0  0
    0.9137    3.2150   -0.2064 H   0  0  0  0  0  0  0  0  0  0  0  0
   -0.3214    3.2202    0.8605 H   0  0  0  0  0  0  0  0  0  0  0  0
   -0.6612    3.3408   -0.7820 H   0  0  0  0  0  0  0  0  0  0  0  0
   -0.0026    1.3996   -0.0108 C   0  0  0  0  0  0  0  0  0  0  0  0
   -1.1944    0.7052    0.0011 C   0  0  0  0  0  0  0  0  0  0  0  0
   -2.0622    1.1817    0.0096 H   0  0  0  0  0  0  0  0  0  0  0  0
   -1.1929   -0.7034   -0.0000 C   0  0  0  0  0  0  0  0  0  0  0  0
   -2.0713   -1.1891   -0.0137 H   0  0  0  0  0  0  0  0  0  0  0  0
    0.0040   -1.3851    0.0195 C   0  0  0  0  0  0  0  0  0  0  0  0
   -0.0017   -2.3927    0.0479 H   0  0  0  0  0  0  0  0  0  0  0  0
    1.1929   -0.7041   -0.0000 C   0  0  0  0  0  0  0  0  0  0  0  0
    2.0788   -1.1989   -0.0062 H   0  0  0  0  0  0  0  0  0  0  0  0
    1.1930    0.6878   -0.0098 C   0  0  0  0  0  0  0  0  0  0  0  0
    2.0618    1.1811   -0.0167 H   0  0  0  0  0  0  0  0  0  0  0  0
  1  5  1  0
  5  6  2  0
  5  7  1  0
  1  2  1  0
  1  3  1  0
  1  4  1  0
  8 12  1  0
 12 13  2  0
 13 15  1  0
 15 17  2  0
 17 19  1  0
 19 21  2  0
 21 12  1  0
  8  9  1  0
  8 10  1  0
  8 11  1  0
 13 14  1  0
 15 16  1  0
 17 18  1  0
 19 20  1  0
 21 22  1  0
M  CHG  1   7  -1
V    7 [O&-]
M  END
>  <PDB_ID>  (2987) 
pdb5wlh

>  <RESIDUE_NAME>  (2987) 
GLU   PHE

>  <FRAG_NAME>  (2987) 
ACET   MBZ

>  <FRAG_ATOM_NUM>  (2987) 
fragi: 7 fragj: 15

>  <atom.prop.CHAIN_ID>  (2987) 
A A A A A A A Z Z Z Z Z Z Z Z Z Z Z Z Z Z Z

>  <atom.prop.IS_HEAVY_ATOM>  (2987) 
1 0 0 0 1 1 1 1 0 0 0 1 1 0 1 0 1 0 1 0 1 0

>  <DIFUSE_FUNC_ATOM>  (2987) 
n/a

>  <FINAL_SINGLE_POINT_ENERGY>  (2987) 
0

>  <NONCOV_INTER_ENERGY_QM>  (2987) 
0

>  <FF_Energy>  (2987) 
0.86

>  <QM_Energy>  (2987) 
-6.46

>  <source>  (2987) 
ACET_MBZ_03

>  <Index>  (2987) 
16368

$$$$
ACEH-pdb1obc-A-ASH-503:MBZ-pdb1obc-A-PHE-82
     RDKit          3D

 22 21  0  0  0  0  0  0  0  0999 V2000
    4.4975    5.4304   -0.4709 C   0  0  0  0  0  0  0  0  0  0  0  0
    3.9339    6.2489   -0.4783 H   0  0  0  0  0  0  0  0  0  0  0  0
    4.5395    5.0296   -1.3786 H   0  0  0  0  0  0  0  0  0  0  0  0
    5.5082    5.7214   -0.1846 H   0  0  0  0  0  0  0  0  0  0  0  0
    3.8790    4.4198    0.4821 C   0  0  0  0  0  0  0  0  0  0  0  0
    2.6343    4.2977    0.4854 O   0  0  0  0  0  0  0  0  0  0  0  0
    4.6260    3.7465    1.2190 O   0  0  0  0  0  0  0  0  0  0  0  0
    0.0120    2.9136    0.0262 C   0  0  0  0  0  0  0  0  0  0  0  0
    0.6107    3.2266   -0.6971 H   0  0  0  0  0  0  0  0  0  0  0  0
    0.3416    3.2011    0.9134 H   0  0  0  0  0  0  0  0  0  0  0  0
   -0.9650    3.3708   -0.1302 H   0  0  0  0  0  0  0  0  0  0  0  0
    0.0002    1.4065    0.0009 C   0  0  0  0  0  0  0  0  0  0  0  0
   -1.1979    0.6986    0.0007 C   0  0  0  0  0  0  0  0  0  0  0  0
   -2.0641    1.1862   -0.0004 H   0  0  0  0  0  0  0  0  0  0  0  0
   -1.2027   -0.6983    0.0000 C   0  0  0  0  0  0  0  0  0  0  0  0
   -2.0796   -1.1892    0.0015 H   0  0  0  0  0  0  0  0  0  0  0  0
    0.0002   -1.3983   -0.0014 C   0  0  0  0  0  0  0  0  0  0  0  0
   -0.0059   -2.3960   -0.0042 H   0  0  0  0  0  0  0  0  0  0  0  0
    1.2027   -0.7021   -0.0000 C   0  0  0  0  0  0  0  0  0  0  0  0
    2.0831   -1.1973    0.0030 H   0  0  0  0  0  0  0  0  0  0  0  0
    1.1975    0.6937   -0.0002 C   0  0  0  0  0  0  0  0  0  0  0  0
    2.0660    1.1881   -0.0022 H   0  0  0  0  0  0  0  0  0  0  0  0
  1  5  1  0
  5  6  2  0
  5  7  1  0
  1  2  1  0
  1  3  1  0
  1  4  1  0
  8 12  1  0
 12 13  2  0
 13 15  1  0
 15 17  2  0
 17 19  1  0
 19 21  2  0
 21 12  1  0
  8  9  1  0
  8 10  1  0
  8 11  1  0
 13 14  1  0
 15 16  1  0
 17 18  1  0
 19 20  1  0
 21 22  1  0
M  CHG  1   7  -1
V    7 [O&-]
M  END
>  <PDB_ID>  (2988) 
pdb1obc

>  <RESIDUE_NAME>  (2988) 
ASP   PHE

>  <FRAG_NAME>  (2988) 
ACET   MBZ

>  <FRAG_ATOM_NUM>  (2988) 
fragi: 7 fragj: 15

>  <atom.prop.CHAIN_ID>  (2988) 
A A A A A A A Z Z Z Z Z Z Z Z Z Z Z Z Z Z Z

>  <atom.prop.IS_HEAVY_ATOM>  (2988) 
1 0 0 0 1 1 1 1 0 0 0 1 1 0 1 0 1 0 1 0 1 0

>  <DIFUSE_FUNC_ATOM>  (2988) 
n/a

>  <FINAL_SINGLE_POINT_ENERGY>  (2988) 
0

>  <NONCOV_INTER_ENERGY_QM>  (2988) 
0

>  <FF_Energy>  (2988) 
-0.93

>  <QM_Energy>  (2988) 
-6.33

>  <source>  (2988) 
ACET_MBZ_03

>  <Index>  (2988) 
16427

$$$$
ACEH-pdb2wvs-A-GLH-363:MBZ-pdb2wvs-A-PHE-351
     RDKit          3D

 22 21  0  0  0  0  0  0  0  0999 V2000
   -4.3627    1.5433   -1.6544 C   0  0  0  0  0  0  0  0  0  0  0  0
   -3.6623    1.0354   -2.1276 H   0  0  0  0  0  0  0  0  0  0  0  0
   -5.1634    1.6715   -2.2167 H   0  0  0  0  0  0  0  0  0  0  0  0
   -4.6573    0.9683   -0.7765 H   0  0  0  0  0  0  0  0  0  0  0  0
   -3.7930    2.9326   -1.3438 C   0  0  0  0  0  0  0  0  0  0  0  0
   -3.5212    3.6804   -2.3179 O   0  0  0  0  0  0  0  0  0  0  0  0
   -3.6365    3.2941   -0.1445 O   0  0  0  0  0  0  0  0  0  0  0  0
    0.0183    2.8880   -0.0408 C   0  0  0  0  0  0  0  0  0  0  0  0
    0.8345    3.2097    0.4102 H   0  0  0  0  0  0  0  0  0  0  0  0
   -0.7981    3.2291    0.3951 H   0  0  0  0  0  0  0  0  0  0  0  0
    0.0320    3.2752   -1.0596 H   0  0  0  0  0  0  0  0  0  0  0  0
    0.0008    1.4027    0.0151 C   0  0  0  0  0  0  0  0  0  0  0  0
   -1.1958    0.7121    0.0085 C   0  0  0  0  0  0  0  0  0  0  0  0
   -2.0604    1.1964    0.0089 H   0  0  0  0  0  0  0  0  0  0  0  0
   -1.1988   -0.6881   -0.0000 C   0  0  0  0  0  0  0  0  0  0  0  0
   -2.0801   -1.1761    0.0038 H   0  0  0  0  0  0  0  0  0  0  0  0
   -0.0021   -1.3920   -0.0112 C   0  0  0  0  0  0  0  0  0  0  0  0
   -0.0180   -2.3934   -0.0282 H   0  0  0  0  0  0  0  0  0  0  0  0
    1.1988   -0.7123    0.0000 C   0  0  0  0  0  0  0  0  0  0  0  0
    2.0773   -1.2112    0.0187 H   0  0  0  0  0  0  0  0  0  0  0  0
    1.1971    0.6776   -0.0124 C   0  0  0  0  0  0  0  0  0  0  0  0
    2.0672    1.1735   -0.0420 H   0  0  0  0  0  0  0  0  0  0  0  0
  1  5  1  0
  5  6  2  0
  5  7  1  0
  1  2  1  0
  1  3  1  0
  1  4  1  0
  8 12  1  0
 12 13  2  0
 13 15  1  0
 15 17  2  0
 17 19  1  0
 19 21  2  0
 21 12  1  0
  8  9  1  0
  8 10  1  0
  8 11  1  0
 13 14  1  0
 15 16  1  0
 17 18  1  0
 19 20  1  0
 21 22  1  0
M  CHG  1   7  -1
V    7 [O&-]
M  END
>  <PDB_ID>  (2989) 
pdb2wvs

>  <RESIDUE_NAME>  (2989) 
GLU   PHE

>  <FRAG_NAME>  (2989) 
ACET   MBZ

>  <FRAG_ATOM_NUM>  (2989) 
fragi: 7 fragj: 15

>  <atom.prop.CHAIN_ID>  (2989) 
A A A A A A A Z Z Z Z Z Z Z Z Z Z Z Z Z Z Z

>  <atom.prop.IS_HEAVY_ATOM>  (2989) 
1 0 0 0 1 1 1 1 0 0 0 1 1 0 1 0 1 0 1 0 1 0

>  <DIFUSE_FUNC_ATOM>  (2989) 
n/a

>  <FINAL_SINGLE_POINT_ENERGY>  (2989) 
0

>  <NONCOV_INTER_ENERGY_QM>  (2989) 
0

>  <FF_Energy>  (2989) 
-2.47

>  <QM_Energy>  (2989) 
-7.62

>  <source>  (2989) 
ACET_MBZ_03

>  <Index>  (2989) 
16435

$$$$
ACEH-pdb1ocr-A-ASH-364:MBZ-pdb1ocr-A-PHE-293
     RDKit          3D

 22 21  0  0  0  0  0  0  0  0999 V2000
    4.3342    2.3380    1.2970 C   0  0  0  0  0  0  0  0  0  0  0  0
    4.6969    1.4127    1.3015 H   0  0  0  0  0  0  0  0  0  0  0  0
    3.3951    2.3453    1.6198 H   0  0  0  0  0  0  0  0  0  0  0  0
    4.9317    2.9364    1.9848 H   0  0  0  0  0  0  0  0  0  0  0  0
    4.3783    2.8760   -0.1010 C   0  0  0  0  0  0  0  0  0  0  0  0
    5.5047    3.1131   -0.6011 O   0  0  0  0  0  0  0  0  0  0  0  0
    3.3002    3.1410   -0.6870 O   0  0  0  0  0  0  0  0  0  0  0  0
    0.0302    2.8957    0.0800 C   0  0  0  0  0  0  0  0  0  0  0  0
    0.8477    3.2114   -0.3858 H   0  0  0  0  0  0  0  0  0  0  0  0
    0.0506    3.1530    1.0379 H   0  0  0  0  0  0  0  0  0  0  0  0
   -0.8251    3.3928   -0.3777 H   0  0  0  0  0  0  0  0  0  0  0  0
   -0.0023    1.4012    0.0006 C   0  0  0  0  0  0  0  0  0  0  0  0
   -1.1947    0.7038   -0.0026 C   0  0  0  0  0  0  0  0  0  0  0  0
   -2.0611    1.1886   -0.0077 H   0  0  0  0  0  0  0  0  0  0  0  0
   -1.1924   -0.6886    0.0000 C   0  0  0  0  0  0  0  0  0  0  0  0
   -2.0702   -1.1848   -0.0008 H   0  0  0  0  0  0  0  0  0  0  0  0
    0.0086   -1.3865    0.0061 C   0  0  0  0  0  0  0  0  0  0  0  0
   -0.0097   -2.3903    0.0143 H   0  0  0  0  0  0  0  0  0  0  0  0
    1.1924   -0.7080    0.0000 C   0  0  0  0  0  0  0  0  0  0  0  0
    2.0794   -1.2013   -0.0004 H   0  0  0  0  0  0  0  0  0  0  0  0
    1.1884    0.6782   -0.0041 C   0  0  0  0  0  0  0  0  0  0  0  0
    2.0616    1.1745   -0.0111 H   0  0  0  0  0  0  0  0  0  0  0  0
  1  5  1  0
  5  6  2  0
  5  7  1  0
  1  2  1  0
  1  3  1  0
  1  4  1  0
  8 12  1  0
 12 13  2  0
 13 15  1  0
 15 17  2  0
 17 19  1  0
 19 21  2  0
 21 12  1  0
  8  9  1  0
  8 10  1  0
  8 11  1  0
 13 14  1  0
 15 16  1  0
 17 18  1  0
 19 20  1  0
 21 22  1  0
M  CHG  1   7  -1
V    7 [O&-]
M  END
>  <PDB_ID>  (2990) 
pdb1ocr

>  <RESIDUE_NAME>  (2990) 
ASP   PHE

>  <FRAG_NAME>  (2990) 
ACET   MBZ

>  <FRAG_ATOM_NUM>  (2990) 
fragi: 7 fragj: 15

>  <atom.prop.CHAIN_ID>  (2990) 
A A A A A A A Z Z Z Z Z Z Z Z Z Z Z Z Z Z Z

>  <atom.prop.IS_HEAVY_ATOM>  (2990) 
1 0 0 0 1 1 1 1 0 0 0 1 1 0 1 0 1 0 1 0 1 0

>  <DIFUSE_FUNC_ATOM>  (2990) 
n/a

>  <FINAL_SINGLE_POINT_ENERGY>  (2990) 
0

>  <NONCOV_INTER_ENERGY_QM>  (2990) 
0

>  <FF_Energy>  (2990) 
-1.94

>  <QM_Energy>  (2990) 
-7.62

>  <source>  (2990) 
ACET_MBZ_03

>  <Index>  (2990) 
16458

$$$$
ACEH-pdb2x3y-B-ASH-38:MBZ-pdb2x3y-A-PHE--2
     RDKit          3D

 22 21  0  0  0  0  0  0  0  0999 V2000
    1.5733   -0.2299   -3.5293 C   0  0  0  0  0  0  0  0  0  0  0  0
    1.6151    0.0676   -4.4737 H   0  0  0  0  0  0  0  0  0  0  0  0
    0.6457   -0.1847   -3.1840 H   0  0  0  0  0  0  0  0  0  0  0  0
    1.9025   -1.2681   -3.4857 H   0  0  0  0  0  0  0  0  0  0  0  0
    2.4501    0.6984   -2.6889 C   0  0  0  0  0  0  0  0  0  0  0  0
    2.3462    1.9356   -2.8317 O   0  0  0  0  0  0  0  0  0  0  0  0
    3.2508    0.1832   -1.8867 O   0  0  0  0  0  0  0  0  0  0  0  0
    0.0135    2.8928    0.0185 C   0  0  0  0  0  0  0  0  0  0  0  0
   -0.9174    3.2076   -0.0657 H   0  0  0  0  0  0  0  0  0  0  0  0
    0.5756    3.2070   -0.7287 H   0  0  0  0  0  0  0  0  0  0  0  0
    0.4245    3.2971    0.9435 H   0  0  0  0  0  0  0  0  0  0  0  0
    0.0014    1.3960   -0.0071 C   0  0  0  0  0  0  0  0  0  0  0  0
   -1.1895    0.6909    0.0072 C   0  0  0  0  0  0  0  0  0  0  0  0
   -2.0579    1.1819    0.0216 H   0  0  0  0  0  0  0  0  0  0  0  0
   -1.1951   -0.6940   -0.0000 C   0  0  0  0  0  0  0  0  0  0  0  0
   -2.0747   -1.1869    0.0002 H   0  0  0  0  0  0  0  0  0  0  0  0
   -0.0020   -1.3882   -0.0056 C   0  0  0  0  0  0  0  0  0  0  0  0
   -0.0051   -2.3883   -0.0146 H   0  0  0  0  0  0  0  0  0  0  0  0
    1.1951   -0.6953   -0.0000 C   0  0  0  0  0  0  0  0  0  0  0  0
    2.0771   -1.1934    0.0018 H   0  0  0  0  0  0  0  0  0  0  0  0
    1.1901    0.6906    0.0055 C   0  0  0  0  0  0  0  0  0  0  0  0
    2.0611    1.1864    0.0181 H   0  0  0  0  0  0  0  0  0  0  0  0
  1  5  1  0
  5  6  2  0
  5  7  1  0
  1  2  1  0
  1  3  1  0
  1  4  1  0
  8 12  1  0
 12 13  2  0
 13 15  1  0
 15 17  2  0
 17 19  1  0
 19 21  2  0
 21 12  1  0
  8  9  1  0
  8 10  1  0
  8 11  1  0
 13 14  1  0
 15 16  1  0
 17 18  1  0
 19 20  1  0
 21 22  1  0
M  CHG  1   7  -1
V    7 [O&-]
M  END
>  <PDB_ID>  (2991) 
pdb2x3y

>  <RESIDUE_NAME>  (2991) 
ASP   PHE

>  <FRAG_NAME>  (2991) 
ACET   MBZ

>  <FRAG_ATOM_NUM>  (2991) 
fragi: 7 fragj: 15

>  <atom.prop.CHAIN_ID>  (2991) 
A A A A A A A Z Z Z Z Z Z Z Z Z Z Z Z Z Z Z

>  <atom.prop.IS_HEAVY_ATOM>  (2991) 
1 0 0 0 1 1 1 1 0 0 0 1 1 0 1 0 1 0 1 0 1 0

>  <DIFUSE_FUNC_ATOM>  (2991) 
n/a

>  <FINAL_SINGLE_POINT_ENERGY>  (2991) 
0

>  <NONCOV_INTER_ENERGY_QM>  (2991) 
0

>  <FF_Energy>  (2991) 
2.84

>  <QM_Energy>  (2991) 
-6.05

>  <source>  (2991) 
ACET_MBZ_03

>  <Index>  (2991) 
16575

$$$$
ACEH-pdb2x8u-B-GLH-212:MBZ-pdb2x8u-B-PHE-227
     RDKit          3D

 22 21  0  0  0  0  0  0  0  0999 V2000
   -3.9943    1.2856    2.2863 C   0  0  0  0  0  0  0  0  0  0  0  0
   -3.6082    1.6387    3.1245 H   0  0  0  0  0  0  0  0  0  0  0  0
   -3.3575    0.6911    1.8191 H   0  0  0  0  0  0  0  0  0  0  0  0
   -4.8827    0.7063    2.5377 H   0  0  0  0  0  0  0  0  0  0  0  0
   -4.2575    2.4761    1.3699 C   0  0  0  0  0  0  0  0  0  0  0  0
   -3.2718    3.1762    1.0497 O   0  0  0  0  0  0  0  0  0  0  0  0
   -5.4278    2.7203    0.9589 O   0  0  0  0  0  0  0  0  0  0  0  0
    0.0138    2.9124    0.0213 C   0  0  0  0  0  0  0  0  0  0  0  0
    0.9412    3.2092    0.1985 H   0  0  0  0  0  0  0  0  0  0  0  0
   -0.6014    3.2122    0.7367 H   0  0  0  0  0  0  0  0  0  0  0  0
   -0.3093    3.3836   -0.9070 H   0  0  0  0  0  0  0  0  0  0  0  0
    0.0021    1.4010   -0.0023 C   0  0  0  0  0  0  0  0  0  0  0  0
   -1.1916    0.6916    0.0087 C   0  0  0  0  0  0  0  0  0  0  0  0
   -2.0599    1.1851    0.0219 H   0  0  0  0  0  0  0  0  0  0  0  0
   -1.1994   -0.6928   -0.0000 C   0  0  0  0  0  0  0  0  0  0  0  0
   -2.0799   -1.1848    0.0023 H   0  0  0  0  0  0  0  0  0  0  0  0
   -0.0062   -1.3912   -0.0100 C   0  0  0  0  0  0  0  0  0  0  0  0
   -0.0101   -2.3900   -0.0242 H   0  0  0  0  0  0  0  0  0  0  0  0
    1.1994   -0.6980   -0.0000 C   0  0  0  0  0  0  0  0  0  0  0  0
    2.0779   -1.1996    0.0060 H   0  0  0  0  0  0  0  0  0  0  0  0
    1.1957    0.6894    0.0036 C   0  0  0  0  0  0  0  0  0  0  0  0
    2.0653    1.1859    0.0096 H   0  0  0  0  0  0  0  0  0  0  0  0
  1  5  1  0
  5  6  2  0
  5  7  1  0
  1  2  1  0
  1  3  1  0
  1  4  1  0
  8 12  1  0
 12 13  2  0
 13 15  1  0
 15 17  2  0
 17 19  1  0
 19 21  2  0
 21 12  1  0
  8  9  1  0
  8 10  1  0
  8 11  1  0
 13 14  1  0
 15 16  1  0
 17 18  1  0
 19 20  1  0
 21 22  1  0
M  CHG  1   7  -1
V    7 [O&-]
M  END
>  <PDB_ID>  (2992) 
pdb2x8u

>  <RESIDUE_NAME>  (2992) 
GLU   PHE

>  <FRAG_NAME>  (2992) 
ACET   MBZ

>  <FRAG_ATOM_NUM>  (2992) 
fragi: 7 fragj: 15

>  <atom.prop.CHAIN_ID>  (2992) 
A A A A A A A Z Z Z Z Z Z Z Z Z Z Z Z Z Z Z

>  <atom.prop.IS_HEAVY_ATOM>  (2992) 
1 0 0 0 1 1 1 1 0 0 0 1 1 0 1 0 1 0 1 0 1 0

>  <DIFUSE_FUNC_ATOM>  (2992) 
n/a

>  <FINAL_SINGLE_POINT_ENERGY>  (2992) 
0

>  <NONCOV_INTER_ENERGY_QM>  (2992) 
0

>  <FF_Energy>  (2992) 
-2.15

>  <QM_Energy>  (2992) 
-7.16

>  <source>  (2992) 
ACET_MBZ_03

>  <Index>  (2992) 
16631

$$$$
ACEH-pdb3nx1-A-ASH-77:MBZ-pdb3nx1-B-PHE-94
     RDKit          3D

 22 21  0  0  0  0  0  0  0  0999 V2000
    0.6371    0.2607   -3.8198 C   0  0  0  0  0  0  0  0  0  0  0  0
   -0.0140    0.5362   -4.5144 H   0  0  0  0  0  0  0  0  0  0  0  0
    0.1814   -0.1871   -3.0637 H   0  0  0  0  0  0  0  0  0  0  0  0
    1.3512   -0.4337   -4.2623 H   0  0  0  0  0  0  0  0  0  0  0  0
    1.3203    1.5283   -3.2804 C   0  0  0  0  0  0  0  0  0  0  0  0
    2.5667    1.5563   -3.1471 O   0  0  0  0  0  0  0  0  0  0  0  0
    0.6285    2.5183   -3.0196 O   0  0  0  0  0  0  0  0  0  0  0  0
   -0.0061    2.9072   -0.1294 C   0  0  0  0  0  0  0  0  0  0  0  0
   -0.7104    3.1587   -0.7992 H   0  0  0  0  0  0  0  0  0  0  0  0
    0.8909    3.1931   -0.4784 H   0  0  0  0  0  0  0  0  0  0  0  0
   -0.2010    3.4695    0.7838 H   0  0  0  0  0  0  0  0  0  0  0  0
   -0.0014    1.4404    0.0026 C   0  0  0  0  0  0  0  0  0  0  0  0
   -1.2288    0.7212    0.0160 C   0  0  0  0  0  0  0  0  0  0  0  0
   -2.0856    1.2155    0.0360 H   0  0  0  0  0  0  0  0  0  0  0  0
   -1.2532   -0.7020    0.0000 C   0  0  0  0  0  0  0  0  0  0  0  0
   -2.1103   -1.1935   -0.0187 H   0  0  0  0  0  0  0  0  0  0  0  0
    0.0056   -1.4582    0.0132 C   0  0  0  0  0  0  0  0  0  0  0  0
   -0.0150   -2.4260    0.0296 H   0  0  0  0  0  0  0  0  0  0  0  0
    1.2532   -0.7293    0.0000 C   0  0  0  0  0  0  0  0  0  0  0  0
    2.1194   -1.2010    0.0139 H   0  0  0  0  0  0  0  0  0  0  0  0
    1.2246    0.7280   -0.0318 C   0  0  0  0  0  0  0  0  0  0  0  0
    2.0844    1.2123   -0.0794 H   0  0  0  0  0  0  0  0  0  0  0  0
  1  5  1  0
  5  6  2  0
  5  7  1  0
  1  2  1  0
  1  3  1  0
  1  4  1  0
  8 12  1  0
 12 13  2  0
 13 15  1  0
 15 17  2  0
 17 19  1  0
 19 21  2  0
 21 12  1  0
  8  9  1  0
  8 10  1  0
  8 11  1  0
 13 14  1  0
 15 16  1  0
 17 18  1  0
 19 20  1  0
 21 22  1  0
M  CHG  1   7  -1
V    7 [O&-]
M  END
>  <PDB_ID>  (2993) 
pdb3nx1

>  <RESIDUE_NAME>  (2993) 
ASP   PHE

>  <FRAG_NAME>  (2993) 
ACET   MBZ

>  <FRAG_ATOM_NUM>  (2993) 
fragi: 7 fragj: 15

>  <atom.prop.CHAIN_ID>  (2993) 
A A A A A A A Z Z Z Z Z Z Z Z Z Z Z Z Z Z Z

>  <atom.prop.IS_HEAVY_ATOM>  (2993) 
1 0 0 0 1 1 1 1 0 0 0 1 1 0 1 0 1 0 1 0 1 0

>  <DIFUSE_FUNC_ATOM>  (2993) 
n/a

>  <FINAL_SINGLE_POINT_ENERGY>  (2993) 
0

>  <NONCOV_INTER_ENERGY_QM>  (2993) 
0

>  <FF_Energy>  (2993) 
0.7

>  <QM_Energy>  (2993) 
-6.6

>  <source>  (2993) 
ACET_MBZ_03

>  <Index>  (2993) 
16653

$$$$
ACEH-pdb2xem-D-GLH-42:MBZ-pdb2xem-C-PHE-19
     RDKit          3D

 22 21  0  0  0  0  0  0  0  0999 V2000
   -3.5346    1.7700   -3.1225 C   0  0  0  0  0  0  0  0  0  0  0  0
   -3.1940    0.9070   -2.8301 H   0  0  0  0  0  0  0  0  0  0  0  0
   -3.1442    2.0890   -3.9548 H   0  0  0  0  0  0  0  0  0  0  0  0
   -4.6149    1.6956   -3.2472 H   0  0  0  0  0  0  0  0  0  0  0  0
   -3.2061    2.7832   -2.0439 C   0  0  0  0  0  0  0  0  0  0  0  0
   -2.2522    3.5579   -2.2500 O   0  0  0  0  0  0  0  0  0  0  0  0
   -3.9230    2.8343   -1.0169 O   0  0  0  0  0  0  0  0  0  0  0  0
    0.0045    2.9024   -0.0385 C   0  0  0  0  0  0  0  0  0  0  0  0
   -0.5098    3.1952   -0.8294 H   0  0  0  0  0  0  0  0  0  0  0  0
    0.9442    3.2055   -0.0855 H   0  0  0  0  0  0  0  0  0  0  0  0
   -0.4491    3.3574    0.8421 H   0  0  0  0  0  0  0  0  0  0  0  0
   -0.0003    1.4025   -0.0093 C   0  0  0  0  0  0  0  0  0  0  0  0
   -1.1924    0.7005    0.0003 C   0  0  0  0  0  0  0  0  0  0  0  0
   -2.0606    1.1863    0.0063 H   0  0  0  0  0  0  0  0  0  0  0  0
   -1.1942   -0.6924   -0.0000 C   0  0  0  0  0  0  0  0  0  0  0  0
   -2.0766   -1.1828   -0.0037 H   0  0  0  0  0  0  0  0  0  0  0  0
   -0.0031   -1.3904    0.0071 C   0  0  0  0  0  0  0  0  0  0  0  0
   -0.0128   -2.3926    0.0170 H   0  0  0  0  0  0  0  0  0  0  0  0
    1.1942   -0.7063   -0.0000 C   0  0  0  0  0  0  0  0  0  0  0  0
    2.0758   -1.2038   -0.0048 H   0  0  0  0  0  0  0  0  0  0  0  0
    1.1958    0.6862    0.0020 C   0  0  0  0  0  0  0  0  0  0  0  0
    2.0658    1.1787    0.0108 H   0  0  0  0  0  0  0  0  0  0  0  0
  1  5  1  0
  5  6  2  0
  5  7  1  0
  1  2  1  0
  1  3  1  0
  1  4  1  0
  8 12  1  0
 12 13  2  0
 13 15  1  0
 15 17  2  0
 17 19  1  0
 19 21  2  0
 21 12  1  0
  8  9  1  0
  8 10  1  0
  8 11  1  0
 13 14  1  0
 15 16  1  0
 17 18  1  0
 19 20  1  0
 21 22  1  0
M  CHG  1   7  -1
V    7 [O&-]
M  END
>  <PDB_ID>  (2994) 
pdb2xem

>  <RESIDUE_NAME>  (2994) 
GLU   PHE

>  <FRAG_NAME>  (2994) 
ACET   MBZ

>  <FRAG_ATOM_NUM>  (2994) 
fragi: 7 fragj: 15

>  <atom.prop.CHAIN_ID>  (2994) 
A A A A A A A Z Z Z Z Z Z Z Z Z Z Z Z Z Z Z

>  <atom.prop.IS_HEAVY_ATOM>  (2994) 
1 0 0 0 1 1 1 1 0 0 0 1 1 0 1 0 1 0 1 0 1 0

>  <DIFUSE_FUNC_ATOM>  (2994) 
n/a

>  <FINAL_SINGLE_POINT_ENERGY>  (2994) 
0

>  <NONCOV_INTER_ENERGY_QM>  (2994) 
0

>  <FF_Energy>  (2994) 
-1.39

>  <QM_Energy>  (2994) 
-8.7

>  <source>  (2994) 
ACET_MBZ_03

>  <Index>  (2994) 
16664

$$$$
ACEH-pdb2xem-C-GLH-42:MBZ-pdb2xem-D-PHE-19
     RDKit          3D

 22 21  0  0  0  0  0  0  0  0999 V2000
   -3.4750    1.5860   -3.2772 C   0  0  0  0  0  0  0  0  0  0  0  0
   -3.1308    0.7371   -2.9469 H   0  0  0  0  0  0  0  0  0  0  0  0
   -3.0578    1.8863   -4.1036 H   0  0  0  0  0  0  0  0  0  0  0  0
   -4.5454    1.4768   -3.4517 H   0  0  0  0  0  0  0  0  0  0  0  0
   -3.2049    2.6409   -2.2132 C   0  0  0  0  0  0  0  0  0  0  0  0
   -2.2721    3.4603   -2.3705 O   0  0  0  0  0  0  0  0  0  0  0  0
   -3.9961    2.6996   -1.2512 O   0  0  0  0  0  0  0  0  0  0  0  0
    0.0043    2.9171   -0.0644 C   0  0  0  0  0  0  0  0  0  0  0  0
   -0.4573    3.1959   -0.8896 H   0  0  0  0  0  0  0  0  0  0  0  0
    0.9422    3.2219   -0.0503 H   0  0  0  0  0  0  0  0  0  0  0  0
   -0.5091    3.3830    0.7767 H   0  0  0  0  0  0  0  0  0  0  0  0
    0.0009    1.4107   -0.0119 C   0  0  0  0  0  0  0  0  0  0  0  0
   -1.1984    0.6965   -0.0076 C   0  0  0  0  0  0  0  0  0  0  0  0
   -2.0646    1.1801   -0.0110 H   0  0  0  0  0  0  0  0  0  0  0  0
   -1.1972   -0.7050    0.0000 C   0  0  0  0  0  0  0  0  0  0  0  0
   -2.0754   -1.1952   -0.0227 H   0  0  0  0  0  0  0  0  0  0  0  0
    0.0006   -1.3951    0.0408 C   0  0  0  0  0  0  0  0  0  0  0  0
   -0.0040   -2.3955    0.0991 H   0  0  0  0  0  0  0  0  0  0  0  0
    1.1972   -0.7050   -0.0000 C   0  0  0  0  0  0  0  0  0  0  0  0
    2.0806   -1.1974   -0.0133 H   0  0  0  0  0  0  0  0  0  0  0  0
    1.1969    0.6978   -0.0214 C   0  0  0  0  0  0  0  0  0  0  0  0
    2.0671    1.1861   -0.0443 H   0  0  0  0  0  0  0  0  0  0  0  0
  1  5  1  0
  5  6  2  0
  5  7  1  0
  1  2  1  0
  1  3  1  0
  1  4  1  0
  8 12  1  0
 12 13  2  0
 13 15  1  0
 15 17  2  0
 17 19  1  0
 19 21  2  0
 21 12  1  0
  8  9  1  0
  8 10  1  0
  8 11  1  0
 13 14  1  0
 15 16  1  0
 17 18  1  0
 19 20  1  0
 21 22  1  0
M  CHG  1   7  -1
V    7 [O&-]
M  END
>  <PDB_ID>  (2995) 
pdb2xem

>  <RESIDUE_NAME>  (2995) 
GLU   PHE

>  <FRAG_NAME>  (2995) 
ACET   MBZ

>  <FRAG_ATOM_NUM>  (2995) 
fragi: 7 fragj: 15

>  <atom.prop.CHAIN_ID>  (2995) 
A A A A A A A Z Z Z Z Z Z Z Z Z Z Z Z Z Z Z

>  <atom.prop.IS_HEAVY_ATOM>  (2995) 
1 0 0 0 1 1 1 1 0 0 0 1 1 0 1 0 1 0 1 0 1 0

>  <DIFUSE_FUNC_ATOM>  (2995) 
n/a

>  <FINAL_SINGLE_POINT_ENERGY>  (2995) 
0

>  <NONCOV_INTER_ENERGY_QM>  (2995) 
0

>  <FF_Energy>  (2995) 
-1.82

>  <QM_Energy>  (2995) 
-8.47

>  <source>  (2995) 
ACET_MBZ_03

>  <Index>  (2995) 
16665

$$$$
ACEH-pdb1oyx-B-GLH-245:MBZ-pdb1oyx-B-PHE-296
     RDKit          3D

 22 21  0  0  0  0  0  0  0  0999 V2000
   -5.1394    2.6794    1.1789 C   0  0  0  0  0  0  0  0  0  0  0  0
   -4.8807    2.0438    1.8962 H   0  0  0  0  0  0  0  0  0  0  0  0
   -6.0074    2.4168    0.7755 H   0  0  0  0  0  0  0  0  0  0  0  0
   -5.2298    3.6789    1.6043 H   0  0  0  0  0  0  0  0  0  0  0  0
   -4.0953    2.5631    0.0887 C   0  0  0  0  0  0  0  0  0  0  0  0
   -4.0073    1.4576   -0.5092 O   0  0  0  0  0  0  0  0  0  0  0  0
   -3.3454    3.5427   -0.2019 O   0  0  0  0  0  0  0  0  0  0  0  0
    0.0067    2.8815    0.0112 C   0  0  0  0  0  0  0  0  0  0  0  0
    0.7615    3.1924    0.5782 H   0  0  0  0  0  0  0  0  0  0  0  0
   -0.8600    3.1931    0.3848 H   0  0  0  0  0  0  0  0  0  0  0  0
    0.1231    3.3482   -0.9669 H   0  0  0  0  0  0  0  0  0  0  0  0
    0.0074    1.3919    0.0006 C   0  0  0  0  0  0  0  0  0  0  0  0
   -1.1758    0.6915    0.0025 C   0  0  0  0  0  0  0  0  0  0  0  0
   -2.0486    1.1770    0.0047 H   0  0  0  0  0  0  0  0  0  0  0  0
   -1.1814   -0.6985    0.0000 C   0  0  0  0  0  0  0  0  0  0  0  0
   -2.0690   -1.1829    0.0094 H   0  0  0  0  0  0  0  0  0  0  0  0
   -0.0043   -1.3870   -0.0135 C   0  0  0  0  0  0  0  0  0  0  0  0
   -0.0023   -2.3888   -0.0334 H   0  0  0  0  0  0  0  0  0  0  0  0
    1.1814   -0.6919    0.0000 C   0  0  0  0  0  0  0  0  0  0  0  0
    2.0699   -1.1844    0.0043 H   0  0  0  0  0  0  0  0  0  0  0  0
    1.1727    0.6941    0.0105 C   0  0  0  0  0  0  0  0  0  0  0  0
    2.0560    1.1831    0.0245 H   0  0  0  0  0  0  0  0  0  0  0  0
  1  5  1  0
  5  6  2  0
  5  7  1  0
  1  2  1  0
  1  3  1  0
  1  4  1  0
  8 12  1  0
 12 13  2  0
 13 15  1  0
 15 17  2  0
 17 19  1  0
 19 21  2  0
 21 12  1  0
  8  9  1  0
  8 10  1  0
  8 11  1  0
 13 14  1  0
 15 16  1  0
 17 18  1  0
 19 20  1  0
 21 22  1  0
M  CHG  1   7  -1
V    7 [O&-]
M  END
>  <PDB_ID>  (2996) 
pdb1oyx

>  <RESIDUE_NAME>  (2996) 
GLU   PHE

>  <FRAG_NAME>  (2996) 
ACET   MBZ

>  <FRAG_ATOM_NUM>  (2996) 
fragi: 7 fragj: 15

>  <atom.prop.CHAIN_ID>  (2996) 
A A A A A A A Z Z Z Z Z Z Z Z Z Z Z Z Z Z Z

>  <atom.prop.IS_HEAVY_ATOM>  (2996) 
1 0 0 0 1 1 1 1 0 0 0 1 1 0 1 0 1 0 1 0 1 0

>  <DIFUSE_FUNC_ATOM>  (2996) 
n/a

>  <FINAL_SINGLE_POINT_ENERGY>  (2996) 
0

>  <NONCOV_INTER_ENERGY_QM>  (2996) 
0

>  <FF_Energy>  (2996) 
4.12

>  <QM_Energy>  (2996) 
-8.27

>  <source>  (2996) 
ACET_MBZ_03

>  <Index>  (2996) 
16689

$$$$
ACEH-pdb4pxb-B-GLH-256:MBZ-pdb4pxb-B-PHE-439
     RDKit          3D

 22 21  0  0  0  0  0  0  0  0999 V2000
    1.7815    2.2734    2.7613 C   0  0  0  0  0  0  0  0  0  0  0  0
    1.8720    1.5159    2.1355 H   0  0  0  0  0  0  0  0  0  0  0  0
    1.1828    2.9712    2.4014 H   0  0  0  0  0  0  0  0  0  0  0  0
    1.3413    1.8949    3.6838 H   0  0  0  0  0  0  0  0  0  0  0  0
    3.1549    2.8912    2.9383 C   0  0  0  0  0  0  0  0  0  0  0  0
    3.4424    3.4378    4.0239 O   0  0  0  0  0  0  0  0  0  0  0  0
    3.9552    2.8354    1.9834 O   0  0  0  0  0  0  0  0  0  0  0  0
    0.0264    2.9136    0.0259 C   0  0  0  0  0  0  0  0  0  0  0  0
    0.6341    3.2207   -0.6952 H   0  0  0  0  0  0  0  0  0  0  0  0
    0.3631    3.1956    0.9151 H   0  0  0  0  0  0  0  0  0  0  0  0
   -0.9423    3.3886   -0.1292 H   0  0  0  0  0  0  0  0  0  0  0  0
    0.0021    1.4046   -0.0017 C   0  0  0  0  0  0  0  0  0  0  0  0
   -1.1949    0.6915    0.0022 C   0  0  0  0  0  0  0  0  0  0  0  0
   -2.0619    1.1776    0.0059 H   0  0  0  0  0  0  0  0  0  0  0  0
   -1.1949   -0.7037   -0.0000 C   0  0  0  0  0  0  0  0  0  0  0  0
   -2.0753   -1.1943    0.0019 H   0  0  0  0  0  0  0  0  0  0  0  0
   -0.0013   -1.3915   -0.0024 C   0  0  0  0  0  0  0  0  0  0  0  0
   -0.0013   -2.3940   -0.0061 H   0  0  0  0  0  0  0  0  0  0  0  0
    1.1949   -0.6982    0.0000 C   0  0  0  0  0  0  0  0  0  0  0  0
    2.0791   -1.1934    0.0018 H   0  0  0  0  0  0  0  0  0  0  0  0
    1.1941    0.6973    0.0020 C   0  0  0  0  0  0  0  0  0  0  0  0
    2.0642    1.1877    0.0051 H   0  0  0  0  0  0  0  0  0  0  0  0
  1  5  1  0
  5  6  2  0
  5  7  1  0
  1  2  1  0
  1  3  1  0
  1  4  1  0
  8 12  1  0
 12 13  2  0
 13 15  1  0
 15 17  2  0
 17 19  1  0
 19 21  2  0
 21 12  1  0
  8  9  1  0
  8 10  1  0
  8 11  1  0
 13 14  1  0
 15 16  1  0
 17 18  1  0
 19 20  1  0
 21 22  1  0
M  CHG  1   7  -1
V    7 [O&-]
M  END
>  <PDB_ID>  (2997) 
pdb4pxb

>  <RESIDUE_NAME>  (2997) 
GLU   PHE

>  <FRAG_NAME>  (2997) 
ACET   MBZ

>  <FRAG_ATOM_NUM>  (2997) 
fragi: 7 fragj: 15

>  <atom.prop.CHAIN_ID>  (2997) 
A A A A A A A Z Z Z Z Z Z Z Z Z Z Z Z Z Z Z

>  <atom.prop.IS_HEAVY_ATOM>  (2997) 
1 0 0 0 1 1 1 1 0 0 0 1 1 0 1 0 1 0 1 0 1 0

>  <DIFUSE_FUNC_ATOM>  (2997) 
n/a

>  <FINAL_SINGLE_POINT_ENERGY>  (2997) 
0

>  <NONCOV_INTER_ENERGY_QM>  (2997) 
0

>  <FF_Energy>  (2997) 
7.21

>  <QM_Energy>  (2997) 
-0.52

>  <source>  (2997) 
ACET_MBZ_03

>  <Index>  (2997) 
16701

$$$$
ACEH-pdb1p5j-A-GLH-194:MBZ-pdb1p5j-A-PHE-201
     RDKit          3D

 22 21  0  0  0  0  0  0  0  0999 V2000
    3.5102    5.2149   -1.8194 C   0  0  0  0  0  0  0  0  0  0  0  0
    2.9684    5.4595   -2.5994 H   0  0  0  0  0  0  0  0  0  0  0  0
    3.9159    4.3262   -1.9070 H   0  0  0  0  0  0  0  0  0  0  0  0
    4.3027    5.9532   -1.6971 H   0  0  0  0  0  0  0  0  0  0  0  0
    2.5803    5.1711   -0.6179 C   0  0  0  0  0  0  0  0  0  0  0  0
    1.4452    5.6512   -0.7311 O   0  0  0  0  0  0  0  0  0  0  0  0
    2.9884    4.6543    0.4377 O   0  0  0  0  0  0  0  0  0  0  0  0
    0.0055    2.9148   -0.0280 C   0  0  0  0  0  0  0  0  0  0  0  0
   -0.5610    3.2104   -0.7819 H   0  0  0  0  0  0  0  0  0  0  0  0
    0.9416    3.2112   -0.1433 H   0  0  0  0  0  0  0  0  0  0  0  0
   -0.3799    3.3791    0.8798 H   0  0  0  0  0  0  0  0  0  0  0  0
   -0.0058    1.4058   -0.0005 C   0  0  0  0  0  0  0  0  0  0  0  0
   -1.2029    0.7042    0.0003 C   0  0  0  0  0  0  0  0  0  0  0  0
   -2.0693    1.1885   -0.0001 H   0  0  0  0  0  0  0  0  0  0  0  0
   -1.2067   -0.6982    0.0000 C   0  0  0  0  0  0  0  0  0  0  0  0
   -2.0734   -1.1947    0.0006 H   0  0  0  0  0  0  0  0  0  0  0  0
    0.0176   -1.4017    0.0001 C   0  0  0  0  0  0  0  0  0  0  0  0
    0.0038   -2.3966   -0.0005 H   0  0  0  0  0  0  0  0  0  0  0  0
    1.2067   -0.7025    0.0000 C   0  0  0  0  0  0  0  0  0  0  0  0
    2.0944   -1.1887    0.0016 H   0  0  0  0  0  0  0  0  0  0  0  0
    1.1912    0.6923    0.0002 C   0  0  0  0  0  0  0  0  0  0  0  0
    2.0615    1.1917    0.0000 H   0  0  0  0  0  0  0  0  0  0  0  0
  1  5  1  0
  5  6  2  0
  5  7  1  0
  1  2  1  0
  1  3  1  0
  1  4  1  0
  8 12  1  0
 12 13  2  0
 13 15  1  0
 15 17  2  0
 17 19  1  0
 19 21  2  0
 21 12  1  0
  8  9  1  0
  8 10  1  0
  8 11  1  0
 13 14  1  0
 15 16  1  0
 17 18  1  0
 19 20  1  0
 21 22  1  0
M  CHG  1   7  -1
V    7 [O&-]
M  END
>  <PDB_ID>  (2998) 
pdb1p5j

>  <RESIDUE_NAME>  (2998) 
GLU   PHE

>  <FRAG_NAME>  (2998) 
ACET   MBZ

>  <FRAG_ATOM_NUM>  (2998) 
fragi: 7 fragj: 15

>  <atom.prop.CHAIN_ID>  (2998) 
A A A A A A A Z Z Z Z Z Z Z Z Z Z Z Z Z Z Z

>  <atom.prop.IS_HEAVY_ATOM>  (2998) 
1 0 0 0 1 1 1 1 0 0 0 1 1 0 1 0 1 0 1 0 1 0

>  <DIFUSE_FUNC_ATOM>  (2998) 
n/a

>  <FINAL_SINGLE_POINT_ENERGY>  (2998) 
0

>  <NONCOV_INTER_ENERGY_QM>  (2998) 
0

>  <FF_Energy>  (2998) 
-1.11

>  <QM_Energy>  (2998) 
-6.51

>  <source>  (2998) 
ACET_MBZ_03

>  <Index>  (2998) 
16745

$$$$
ACEH-pdb1pbg-A-GLH-160:MBZ-pdb1pbg-A-PHE-117
     RDKit          3D

 22 21  0  0  0  0  0  0  0  0999 V2000
   -1.1150   -5.1047   -0.2026 C   0  0  0  0  0  0  0  0  0  0  0  0
   -1.3515   -6.0233    0.0703 H   0  0  0  0  0  0  0  0  0  0  0  0
   -1.6266   -4.8204   -0.9983 H   0  0  0  0  0  0  0  0  0  0  0  0
   -1.3747   -4.4364    0.6184 H   0  0  0  0  0  0  0  0  0  0  0  0
    0.3601   -5.0998   -0.5785 C   0  0  0  0  0  0  0  0  0  0  0  0
    1.0569   -4.0807   -0.3536 O   0  0  0  0  0  0  0  0  0  0  0  0
    0.8152   -6.1292   -1.1176 O   0  0  0  0  0  0  0  0  0  0  0  0
    0.0177    2.9387   -0.0615 C   0  0  0  0  0  0  0  0  0  0  0  0
    0.4508    3.2011   -0.9105 H   0  0  0  0  0  0  0  0  0  0  0  0
    0.5312    3.2626    0.7188 H   0  0  0  0  0  0  0  0  0  0  0  0
   -0.9653    3.4085   -0.0308 H   0  0  0  0  0  0  0  0  0  0  0  0
    0.0008    1.4142   -0.0028 C   0  0  0  0  0  0  0  0  0  0  0  0
   -1.1990    0.6874    0.0012 C   0  0  0  0  0  0  0  0  0  0  0  0
   -2.0671    1.1757    0.0038 H   0  0  0  0  0  0  0  0  0  0  0  0
   -1.1999   -0.7064   -0.0000 C   0  0  0  0  0  0  0  0  0  0  0  0
   -2.0776   -1.1988    0.0001 H   0  0  0  0  0  0  0  0  0  0  0  0
   -0.0032   -1.3948    0.0002 C   0  0  0  0  0  0  0  0  0  0  0  0
   -0.0022   -2.3972   -0.0004 H   0  0  0  0  0  0  0  0  0  0  0  0
    1.1999   -0.7006    0.0000 C   0  0  0  0  0  0  0  0  0  0  0  0
    2.0814   -1.1970    0.0002 H   0  0  0  0  0  0  0  0  0  0  0  0
    1.2014    0.7002    0.0014 C   0  0  0  0  0  0  0  0  0  0  0  0
    2.0690    1.1904    0.0046 H   0  0  0  0  0  0  0  0  0  0  0  0
  1  5  1  0
  5  6  2  0
  5  7  1  0
  1  2  1  0
  1  3  1  0
  1  4  1  0
  8 12  1  0
 12 13  2  0
 13 15  1  0
 15 17  2  0
 17 19  1  0
 19 21  2  0
 21 12  1  0
  8  9  1  0
  8 10  1  0
  8 11  1  0
 13 14  1  0
 15 16  1  0
 17 18  1  0
 19 20  1  0
 21 22  1  0
M  CHG  1   7  -1
V    7 [O&-]
M  END
>  <PDB_ID>  (2999) 
pdb1pbg

>  <RESIDUE_NAME>  (2999) 
GLU   PHE

>  <FRAG_NAME>  (2999) 
ACET   MBZ

>  <FRAG_ATOM_NUM>  (2999) 
fragi: 7 fragj: 15

>  <atom.prop.CHAIN_ID>  (2999) 
A A A A A A A Z Z Z Z Z Z Z Z Z Z Z Z Z Z Z

>  <atom.prop.IS_HEAVY_ATOM>  (2999) 
1 0 0 0 1 1 1 1 0 0 0 1 1 0 1 0 1 0 1 0 1 0

>  <DIFUSE_FUNC_ATOM>  (2999) 
n/a

>  <FINAL_SINGLE_POINT_ENERGY>  (2999) 
0

>  <NONCOV_INTER_ENERGY_QM>  (2999) 
0

>  <FF_Energy>  (2999) 
4.46

>  <QM_Energy>  (2999) 
-5.16

>  <source>  (2999) 
ACET_MBZ_03

>  <Index>  (2999) 
16773

$$$$
ACEH-pdb1pow-A-ASH-396:MBZ-pdb1pow-A-PHE-479
     RDKit          3D

 22 21  0  0  0  0  0  0  0  0999 V2000
   -4.7349    2.7457   -2.1883 C   0  0  0  0  0  0  0  0  0  0  0  0
   -4.5654    3.6362   -2.6416 H   0  0  0  0  0  0  0  0  0  0  0  0
   -5.6852    2.4722   -2.4103 H   0  0  0  0  0  0  0  0  0  0  0  0
   -4.0613    2.0109   -2.6294 H   0  0  0  0  0  0  0  0  0  0  0  0
   -4.6452    2.9585   -0.6856 C   0  0  0  0  0  0  0  0  0  0  0  0
   -5.1516    3.9909   -0.2501 O   0  0  0  0  0  0  0  0  0  0  0  0
   -4.1015    2.1171    0.0414 O   0  0  0  0  0  0  0  0  0  0  0  0
   -0.0139    2.9158   -0.0194 C   0  0  0  0  0  0  0  0  0  0  0  0
   -0.4770    3.1974   -0.8498 H   0  0  0  0  0  0  0  0  0  0  0  0
    0.9297    3.2186   -0.0201 H   0  0  0  0  0  0  0  0  0  0  0  0
   -0.5189    3.3836    0.8258 H   0  0  0  0  0  0  0  0  0  0  0  0
   -0.0020    1.3898    0.0004 C   0  0  0  0  0  0  0  0  0  0  0  0
   -1.1970    0.6784    0.0004 C   0  0  0  0  0  0  0  0  0  0  0  0
   -2.0634    1.1655   -0.0005 H   0  0  0  0  0  0  0  0  0  0  0  0
   -1.1905   -0.7065    0.0000 C   0  0  0  0  0  0  0  0  0  0  0  0
   -2.0670   -1.2064    0.0015 H   0  0  0  0  0  0  0  0  0  0  0  0
    0.0065   -1.3892   -0.0012 C   0  0  0  0  0  0  0  0  0  0  0  0
    0.0151   -2.3871   -0.0029 H   0  0  0  0  0  0  0  0  0  0  0  0
    1.1905   -0.6782    0.0000 C   0  0  0  0  0  0  0  0  0  0  0  0
    2.0835   -1.1760    0.0016 H   0  0  0  0  0  0  0  0  0  0  0  0
    1.1924    0.7057    0.0004 C   0  0  0  0  0  0  0  0  0  0  0  0
    2.0565    1.2017   -0.0002 H   0  0  0  0  0  0  0  0  0  0  0  0
  1  5  1  0
  5  6  2  0
  5  7  1  0
  1  2  1  0
  1  3  1  0
  1  4  1  0
  8 12  1  0
 12 13  2  0
 13 15  1  0
 15 17  2  0
 17 19  1  0
 19 21  2  0
 21 12  1  0
  8  9  1  0
  8 10  1  0
  8 11  1  0
 13 14  1  0
 15 16  1  0
 17 18  1  0
 19 20  1  0
 21 22  1  0
M  CHG  1   7  -1
V    7 [O&-]
M  END
>  <PDB_ID>  (3000) 
pdb1pow

>  <RESIDUE_NAME>  (3000) 
ASP   PHE

>  <FRAG_NAME>  (3000) 
ACET   MBZ

>  <FRAG_ATOM_NUM>  (3000) 
fragi: 7 fragj: 15

>  <atom.prop.CHAIN_ID>  (3000) 
A A A A A A A Z Z Z Z Z Z Z Z Z Z Z Z Z Z Z

>  <atom.prop.IS_HEAVY_ATOM>  (3000) 
1 0 0 0 1 1 1 1 0 0 0 1 1 0 1 0 1 0 1 0 1 0

>  <DIFUSE_FUNC_ATOM>  (3000) 
n/a

>  <FINAL_SINGLE_POINT_ENERGY>  (3000) 
0

>  <NONCOV_INTER_ENERGY_QM>  (3000) 
0

>  <FF_Energy>  (3000) 
-1.34

>  <QM_Energy>  (3000) 
-6.93

>  <source>  (3000) 
ACET_MBZ_03

>  <Index>  (3000) 
16862

$$$$
ACEH-pdb1px8-A-GLH-323:MBZ-pdb1px8-A-PHE-115
     RDKit          3D

 22 21  0  0  0  0  0  0  0  0999 V2000
    0.3330    0.1600   -3.2006 C   0  0  0  0  0  0  0  0  0  0  0  0
    0.1948    0.4116   -2.2564 H   0  0  0  0  0  0  0  0  0  0  0  0
   -0.3928    0.4991   -3.7772 H   0  0  0  0  0  0  0  0  0  0  0  0
    1.2718    0.6002   -3.5366 H   0  0  0  0  0  0  0  0  0  0  0  0
    0.3151   -1.3456   -3.2804 C   0  0  0  0  0  0  0  0  0  0  0  0
    1.3386   -1.9781   -2.9395 O   0  0  0  0  0  0  0  0  0  0  0  0
   -0.7370   -1.8919   -3.6772 O   0  0  0  0  0  0  0  0  0  0  0  0
   -0.0085    2.8924   -0.0554 C   0  0  0  0  0  0  0  0  0  0  0  0
   -0.8774    3.2105    0.2987 H   0  0  0  0  0  0  0  0  0  0  0  0
    0.1131    3.1688   -0.9992 H   0  0  0  0  0  0  0  0  0  0  0  0
    0.7806    3.3630    0.5311 H   0  0  0  0  0  0  0  0  0  0  0  0
   -0.0007    1.3994   -0.0006 C   0  0  0  0  0  0  0  0  0  0  0  0
   -1.1950    0.6946    0.0010 C   0  0  0  0  0  0  0  0  0  0  0  0
   -2.0622    1.1874    0.0021 H   0  0  0  0  0  0  0  0  0  0  0  0
   -1.2041   -0.6938   -0.0000 C   0  0  0  0  0  0  0  0  0  0  0  0
   -2.0809   -1.1873    0.0021 H   0  0  0  0  0  0  0  0  0  0  0  0
   -0.0022   -1.3954   -0.0018 C   0  0  0  0  0  0  0  0  0  0  0  0
   -0.0081   -2.3926   -0.0046 H   0  0  0  0  0  0  0  0  0  0  0  0
    1.2041   -0.7001   -0.0000 C   0  0  0  0  0  0  0  0  0  0  0  0
    2.0823   -1.1968    0.0011 H   0  0  0  0  0  0  0  0  0  0  0  0
    1.1978    0.6953    0.0015 C   0  0  0  0  0  0  0  0  0  0  0  0
    2.0646    1.1909    0.0031 H   0  0  0  0  0  0  0  0  0  0  0  0
  1  5  1  0
  5  6  2  0
  5  7  1  0
  1  2  1  0
  1  3  1  0
  1  4  1  0
  8 12  1  0
 12 13  2  0
 13 15  1  0
 15 17  2  0
 17 19  1  0
 19 21  2  0
 21 12  1  0
  8  9  1  0
  8 10  1  0
  8 11  1  0
 13 14  1  0
 15 16  1  0
 17 18  1  0
 19 20  1  0
 21 22  1  0
M  CHG  1   7  -1
V    7 [O&-]
M  END
>  <PDB_ID>  (3001) 
pdb1px8

>  <RESIDUE_NAME>  (3001) 
GLU   PHE

>  <FRAG_NAME>  (3001) 
ACET   MBZ

>  <FRAG_ATOM_NUM>  (3001) 
fragi: 7 fragj: 15

>  <atom.prop.CHAIN_ID>  (3001) 
A A A A A A A Z Z Z Z Z Z Z Z Z Z Z Z Z Z Z

>  <atom.prop.IS_HEAVY_ATOM>  (3001) 
1 0 0 0 1 1 1 1 0 0 0 1 1 0 1 0 1 0 1 0 1 0

>  <DIFUSE_FUNC_ATOM>  (3001) 
n/a

>  <FINAL_SINGLE_POINT_ENERGY>  (3001) 
0

>  <NONCOV_INTER_ENERGY_QM>  (3001) 
0

>  <FF_Energy>  (3001) 
3.61

>  <QM_Energy>  (3001) 
-1.57

>  <source>  (3001) 
ACET_MBZ_03

>  <Index>  (3001) 
16955

$$$$
ACEH-pdb1py5-A-GLH-238:MBZ-pdb1py5-A-PHE-216
     RDKit          3D

 22 21  0  0  0  0  0  0  0  0999 V2000
   -0.0879    5.8225   -2.7137 C   0  0  0  0  0  0  0  0  0  0  0  0
   -0.6824    5.5977   -3.4681 H   0  0  0  0  0  0  0  0  0  0  0  0
    0.6380    5.1615   -2.6128 H   0  0  0  0  0  0  0  0  0  0  0  0
    0.3634    6.7936   -2.9169 H   0  0  0  0  0  0  0  0  0  0  0  0
   -0.9222    5.7843   -1.4452 C   0  0  0  0  0  0  0  0  0  0  0  0
   -1.4108    4.6848   -1.1216 O   0  0  0  0  0  0  0  0  0  0  0  0
   -1.1105    6.8347   -0.7745 O   0  0  0  0  0  0  0  0  0  0  0  0
   -0.0063    2.8734   -0.1771 C   0  0  0  0  0  0  0  0  0  0  0  0
   -0.9503    3.1701   -0.2555 H   0  0  0  0  0  0  0  0  0  0  0  0
    0.4984    3.0879   -1.0055 H   0  0  0  0  0  0  0  0  0  0  0  0
    0.4518    3.4189    0.6479 H   0  0  0  0  0  0  0  0  0  0  0  0
    0.0005    1.3971   -0.0017 C   0  0  0  0  0  0  0  0  0  0  0  0
   -1.1953    0.6946    0.0056 C   0  0  0  0  0  0  0  0  0  0  0  0
   -2.0612    1.1891    0.0134 H   0  0  0  0  0  0  0  0  0  0  0  0
   -1.2061   -0.6916    0.0000 C   0  0  0  0  0  0  0  0  0  0  0  0
   -2.0822   -1.1845    0.0041 H   0  0  0  0  0  0  0  0  0  0  0  0
   -0.0049   -1.3924   -0.0092 C   0  0  0  0  0  0  0  0  0  0  0  0
   -0.0099   -2.3903   -0.0231 H   0  0  0  0  0  0  0  0  0  0  0  0
    1.2061   -0.6973   -0.0000 C   0  0  0  0  0  0  0  0  0  0  0  0
    2.0813   -1.2000    0.0040 H   0  0  0  0  0  0  0  0  0  0  0  0
    1.1997    0.6897    0.0054 C   0  0  0  0  0  0  0  0  0  0  0  0
    2.0664    1.1896    0.0136 H   0  0  0  0  0  0  0  0  0  0  0  0
  1  5  1  0
  5  6  2  0
  5  7  1  0
  1  2  1  0
  1  3  1  0
  1  4  1  0
  8 12  1  0
 12 13  2  0
 13 15  1  0
 15 17  2  0
 17 19  1  0
 19 21  2  0
 21 12  1  0
  8  9  1  0
  8 10  1  0
  8 11  1  0
 13 14  1  0
 15 16  1  0
 17 18  1  0
 19 20  1  0
 21 22  1  0
M  CHG  1   7  -1
V    7 [O&-]
M  END
>  <PDB_ID>  (3002) 
pdb1py5

>  <RESIDUE_NAME>  (3002) 
GLU   PHE

>  <FRAG_NAME>  (3002) 
ACET   MBZ

>  <FRAG_ATOM_NUM>  (3002) 
fragi: 7 fragj: 15

>  <atom.prop.CHAIN_ID>  (3002) 
A A A A A A A Z Z Z Z Z Z Z Z Z Z Z Z Z Z Z

>  <atom.prop.IS_HEAVY_ATOM>  (3002) 
1 0 0 0 1 1 1 1 0 0 0 1 1 0 1 0 1 0 1 0 1 0

>  <DIFUSE_FUNC_ATOM>  (3002) 
n/a

>  <FINAL_SINGLE_POINT_ENERGY>  (3002) 
0

>  <NONCOV_INTER_ENERGY_QM>  (3002) 
0

>  <FF_Energy>  (3002) 
34.99

>  <QM_Energy>  (3002) 
3.2

>  <source>  (3002) 
ACET_MBZ_03

>  <Index>  (3002) 
16964

$$$$
ACEH-pdb1py5-A-GLH-238:MBZ-pdb1py5-A-PHE-234
     RDKit          3D

 22 21  0  0  0  0  0  0  0  0999 V2000
    4.0635    1.2949    1.7618 C   0  0  0  0  0  0  0  0  0  0  0  0
    3.9373    0.9138    0.8607 H   0  0  0  0  0  0  0  0  0  0  0  0
    4.8986    0.9745    2.1789 H   0  0  0  0  0  0  0  0  0  0  0  0
    4.1271    2.3787    1.6644 H   0  0  0  0  0  0  0  0  0  0  0  0
    2.9081    0.8209    2.6261 C   0  0  0  0  0  0  0  0  0  0  0  0
    2.8201   -0.4048    2.8312 O   0  0  0  0  0  0  0  0  0  0  0  0
    2.0792    1.6485    3.0915 O   0  0  0  0  0  0  0  0  0  0  0  0
   -0.0036    2.8967    0.0389 C   0  0  0  0  0  0  0  0  0  0  0  0
   -0.6108    3.2238   -0.6679 H   0  0  0  0  0  0  0  0  0  0  0  0
    0.9225    3.2097   -0.1061 H   0  0  0  0  0  0  0  0  0  0  0  0
   -0.3491    3.2969    0.9921 H   0  0  0  0  0  0  0  0  0  0  0  0
   -0.0027    1.4059   -0.0011 C   0  0  0  0  0  0  0  0  0  0  0  0
   -1.1983    0.6990    0.0017 C   0  0  0  0  0  0  0  0  0  0  0  0
   -2.0653    1.1851    0.0032 H   0  0  0  0  0  0  0  0  0  0  0  0
   -1.2019   -0.6982    0.0000 C   0  0  0  0  0  0  0  0  0  0  0  0
   -2.0771   -1.1914   -0.0004 H   0  0  0  0  0  0  0  0  0  0  0  0
    0.0063   -1.4034    0.0009 C   0  0  0  0  0  0  0  0  0  0  0  0
   -0.0015   -2.3977    0.0017 H   0  0  0  0  0  0  0  0  0  0  0  0
    1.2019   -0.7011    0.0000 C   0  0  0  0  0  0  0  0  0  0  0  0
    2.0880   -1.1919    0.0021 H   0  0  0  0  0  0  0  0  0  0  0  0
    1.1946    0.6979   -0.0016 C   0  0  0  0  0  0  0  0  0  0  0  0
    2.0628    1.1920   -0.0039 H   0  0  0  0  0  0  0  0  0  0  0  0
  1  5  1  0
  5  6  2  0
  5  7  1  0
  1  2  1  0
  1  3  1  0
  1  4  1  0
  8 12  1  0
 12 13  2  0
 13 15  1  0
 15 17  2  0
 17 19  1  0
 19 21  2  0
 21 12  1  0
  8  9  1  0
  8 10  1  0
  8 11  1  0
 13 14  1  0
 15 16  1  0
 17 18  1  0
 19 20  1  0
 21 22  1  0
M  CHG  1   7  -1
V    7 [O&-]
M  END
>  <PDB_ID>  (3003) 
pdb1py5

>  <RESIDUE_NAME>  (3003) 
GLU   PHE

>  <FRAG_NAME>  (3003) 
ACET   MBZ

>  <FRAG_ATOM_NUM>  (3003) 
fragi: 7 fragj: 15

>  <atom.prop.CHAIN_ID>  (3003) 
A A A A A A A Z Z Z Z Z Z Z Z Z Z Z Z Z Z Z

>  <atom.prop.IS_HEAVY_ATOM>  (3003) 
1 0 0 0 1 1 1 1 0 0 0 1 1 0 1 0 1 0 1 0 1 0

>  <DIFUSE_FUNC_ATOM>  (3003) 
n/a

>  <FINAL_SINGLE_POINT_ENERGY>  (3003) 
0

>  <NONCOV_INTER_ENERGY_QM>  (3003) 
0

>  <FF_Energy>  (3003) 
2.91

>  <QM_Energy>  (3003) 
-2.44

>  <source>  (3003) 
ACET_MBZ_03

>  <Index>  (3003) 
16965

$$$$
ACEH-pdb1pyw-A-GLH-21:MBZ-pdb1pyw-A-PHE-137
     RDKit          3D

 22 21  0  0  0  0  0  0  0  0999 V2000
    5.3617    4.8705    0.4300 C   0  0  0  0  0  0  0  0  0  0  0  0
    5.4855    5.8433    0.5042 H   0  0  0  0  0  0  0  0  0  0  0  0
    5.9752    4.4674   -0.2249 H   0  0  0  0  0  0  0  0  0  0  0  0
    5.5648    4.4275    1.4051 H   0  0  0  0  0  0  0  0  0  0  0  0
    3.9424    4.6238   -0.0582 C   0  0  0  0  0  0  0  0  0  0  0  0
    3.5651    3.4465   -0.2375 O   0  0  0  0  0  0  0  0  0  0  0  0
    3.2039    5.6127   -0.2649 O   0  0  0  0  0  0  0  0  0  0  0  0
    0.0031    2.8945   -0.1077 C   0  0  0  0  0  0  0  0  0  0  0  0
    0.8236    3.2339    0.3215 H   0  0  0  0  0  0  0  0  0  0  0  0
   -0.8088    3.2390    0.3345 H   0  0  0  0  0  0  0  0  0  0  0  0
   -0.0038    3.2512   -1.1377 H   0  0  0  0  0  0  0  0  0  0  0  0
   -0.0012    1.4033   -0.0011 C   0  0  0  0  0  0  0  0  0  0  0  0
   -1.1997    0.6954    0.0016 C   0  0  0  0  0  0  0  0  0  0  0  0
   -2.0654    1.1837    0.0037 H   0  0  0  0  0  0  0  0  0  0  0  0
   -1.2023   -0.6983   -0.0000 C   0  0  0  0  0  0  0  0  0  0  0  0
   -2.0763   -1.1944    0.0026 H   0  0  0  0  0  0  0  0  0  0  0  0
    0.0056   -1.3965   -0.0033 C   0  0  0  0  0  0  0  0  0  0  0  0
   -0.0007   -2.3943   -0.0080 H   0  0  0  0  0  0  0  0  0  0  0  0
    1.2023   -0.6983    0.0000 C   0  0  0  0  0  0  0  0  0  0  0  0
    2.0864   -1.1927    0.0019 H   0  0  0  0  0  0  0  0  0  0  0  0
    1.1953    0.6945    0.0028 C   0  0  0  0  0  0  0  0  0  0  0  0
    2.0640    1.1910    0.0072 H   0  0  0  0  0  0  0  0  0  0  0  0
  1  5  1  0
  5  6  2  0
  5  7  1  0
  1  2  1  0
  1  3  1  0
  1  4  1  0
  8 12  1  0
 12 13  2  0
 13 15  1  0
 15 17  2  0
 17 19  1  0
 19 21  2  0
 21 12  1  0
  8  9  1  0
  8 10  1  0
  8 11  1  0
 13 14  1  0
 15 16  1  0
 17 18  1  0
 19 20  1  0
 21 22  1  0
M  CHG  1   7  -1
V    7 [O&-]
M  END
>  <PDB_ID>  (3004) 
pdb1pyw

>  <RESIDUE_NAME>  (3004) 
GLU   PHE

>  <FRAG_NAME>  (3004) 
ACET   MBZ

>  <FRAG_ATOM_NUM>  (3004) 
fragi: 7 fragj: 15

>  <atom.prop.CHAIN_ID>  (3004) 
A A A A A A A Z Z Z Z Z Z Z Z Z Z Z Z Z Z Z

>  <atom.prop.IS_HEAVY_ATOM>  (3004) 
1 0 0 0 1 1 1 1 0 0 0 1 1 0 1 0 1 0 1 0 1 0

>  <DIFUSE_FUNC_ATOM>  (3004) 
n/a

>  <FINAL_SINGLE_POINT_ENERGY>  (3004) 
0

>  <NONCOV_INTER_ENERGY_QM>  (3004) 
0

>  <FF_Energy>  (3004) 
-2.42

>  <QM_Energy>  (3004) 
-7.6

>  <source>  (3004) 
ACET_MBZ_03

>  <Index>  (3004) 
16976

$$$$
ACEH-pdb4qgr-B-GLH-161:MBZ-pdb4qgr-B-PHE-179
     RDKit          3D

 22 21  0  0  0  0  0  0  0  0999 V2000
    4.0347    4.7568    1.3739 C   0  0  0  0  0  0  0  0  0  0  0  0
    4.9730    5.0371    1.2020 H   0  0  0  0  0  0  0  0  0  0  0  0
    3.9190    4.5008    2.3279 H   0  0  0  0  0  0  0  0  0  0  0  0
    3.3935    5.6169    1.1813 H   0  0  0  0  0  0  0  0  0  0  0  0
    3.7537    3.5415    0.5330 C   0  0  0  0  0  0  0  0  0  0  0  0
    3.1435    3.6895   -0.5381 O   0  0  0  0  0  0  0  0  0  0  0  0
    4.1633    2.4197    0.9254 O   0  0  0  0  0  0  0  0  0  0  0  0
    0.0007    2.9074    0.0173 C   0  0  0  0  0  0  0  0  0  0  0  0
    0.8958    3.2031    0.3174 H   0  0  0  0  0  0  0  0  0  0  0  0
   -0.7039    3.2008    0.6471 H   0  0  0  0  0  0  0  0  0  0  0  0
   -0.1984    3.3787   -0.9451 H   0  0  0  0  0  0  0  0  0  0  0  0
   -0.0038    1.3994   -0.0169 C   0  0  0  0  0  0  0  0  0  0  0  0
   -1.1980    0.6917    0.0100 C   0  0  0  0  0  0  0  0  0  0  0  0
   -2.0653    1.1810    0.0355 H   0  0  0  0  0  0  0  0  0  0  0  0
   -1.2000   -0.6972   -0.0000 C   0  0  0  0  0  0  0  0  0  0  0  0
   -2.0718   -1.1948   -0.0120 H   0  0  0  0  0  0  0  0  0  0  0  0
    0.0076   -1.3867    0.0082 C   0  0  0  0  0  0  0  0  0  0  0  0
    0.0030   -2.3882    0.0196 H   0  0  0  0  0  0  0  0  0  0  0  0
    1.2000   -0.6927    0.0000 C   0  0  0  0  0  0  0  0  0  0  0  0
    2.0840   -1.1928   -0.0032 H   0  0  0  0  0  0  0  0  0  0  0  0
    1.1942    0.6855   -0.0012 C   0  0  0  0  0  0  0  0  0  0  0  0
    2.0609    1.1892    0.0085 H   0  0  0  0  0  0  0  0  0  0  0  0
  1  5  1  0
  5  6  2  0
  5  7  1  0
  1  2  1  0
  1  3  1  0
  1  4  1  0
  8 12  1  0
 12 13  2  0
 13 15  1  0
 15 17  2  0
 17 19  1  0
 19 21  2  0
 21 12  1  0
  8  9  1  0
  8 10  1  0
  8 11  1  0
 13 14  1  0
 15 16  1  0
 17 18  1  0
 19 20  1  0
 21 22  1  0
M  CHG  1   7  -1
V    7 [O&-]
M  END
>  <PDB_ID>  (3005) 
pdb4qgr

>  <RESIDUE_NAME>  (3005) 
GLU   PHE

>  <FRAG_NAME>  (3005) 
ACET   MBZ

>  <FRAG_ATOM_NUM>  (3005) 
fragi: 7 fragj: 15

>  <atom.prop.CHAIN_ID>  (3005) 
A A A A A A A Z Z Z Z Z Z Z Z Z Z Z Z Z Z Z

>  <atom.prop.IS_HEAVY_ATOM>  (3005) 
1 0 0 0 1 1 1 1 0 0 0 1 1 0 1 0 1 0 1 0 1 0

>  <DIFUSE_FUNC_ATOM>  (3005) 
n/a

>  <FINAL_SINGLE_POINT_ENERGY>  (3005) 
0

>  <NONCOV_INTER_ENERGY_QM>  (3005) 
0

>  <FF_Energy>  (3005) 
-2.65

>  <QM_Energy>  (3005) 
-8.87

>  <source>  (3005) 
ACET_MBZ_03

>  <Index>  (3005) 
16985

$$$$
ACEH-pdb5yb6-H-GLH-518:MBZ-pdb5yb6-H-PHE-110
     RDKit          3D

 22 21  0  0  0  0  0  0  0  0999 V2000
    0.5921    6.9339   -3.1064 C   0  0  0  0  0  0  0  0  0  0  0  0
    1.3373    7.5081   -3.4076 H   0  0  0  0  0  0  0  0  0  0  0  0
   -0.2366    7.4565   -2.9756 H   0  0  0  0  0  0  0  0  0  0  0  0
    0.4076    6.1805   -3.8723 H   0  0  0  0  0  0  0  0  0  0  0  0
    0.9858    6.3648   -1.7360 C   0  0  0  0  0  0  0  0  0  0  0  0
    1.2325    7.1842   -0.7653 O   0  0  0  0  0  0  0  0  0  0  0  0
    0.9980    5.1220   -1.5718 O   0  0  0  0  0  0  0  0  0  0  0  0
   -0.0198    2.8965   -0.0611 C   0  0  0  0  0  0  0  0  0  0  0  0
   -0.5930    3.1814   -0.8182 H   0  0  0  0  0  0  0  0  0  0  0  0
    0.9108    3.2163   -0.1826 H   0  0  0  0  0  0  0  0  0  0  0  0
   -0.4111    3.3680    0.8404 H   0  0  0  0  0  0  0  0  0  0  0  0
   -0.0036    1.4047   -0.0179 C   0  0  0  0  0  0  0  0  0  0  0  0
   -1.2069    0.6773   -0.0209 C   0  0  0  0  0  0  0  0  0  0  0  0
   -2.0731    1.1632   -0.0398 H   0  0  0  0  0  0  0  0  0  0  0  0
   -1.2002   -0.7167   -0.0000 C   0  0  0  0  0  0  0  0  0  0  0  0
   -2.0700   -1.2166   -0.0079 H   0  0  0  0  0  0  0  0  0  0  0  0
    0.0087   -1.3942    0.0340 C   0  0  0  0  0  0  0  0  0  0  0  0
    0.0194   -2.3917    0.0825 H   0  0  0  0  0  0  0  0  0  0  0  0
    1.2002   -0.6829    0.0000 C   0  0  0  0  0  0  0  0  0  0  0  0
    2.0892   -1.1778   -0.0275 H   0  0  0  0  0  0  0  0  0  0  0  0
    1.2018    0.7118    0.0048 C   0  0  0  0  0  0  0  0  0  0  0  0
    2.0620    1.2064    0.0234 H   0  0  0  0  0  0  0  0  0  0  0  0
  1  5  1  0
  5  6  2  0
  5  7  1  0
  1  2  1  0
  1  3  1  0
  1  4  1  0
  8 12  1  0
 12 13  2  0
 13 15  1  0
 15 17  2  0
 17 19  1  0
 19 21  2  0
 21 12  1  0
  8  9  1  0
  8 10  1  0
  8 11  1  0
 13 14  1  0
 15 16  1  0
 17 18  1  0
 19 20  1  0
 21 22  1  0
M  CHG  1   7  -1
V    7 [O&-]
M  END
>  <PDB_ID>  (3006) 
pdb5yb6

>  <RESIDUE_NAME>  (3006) 
GLU   PHE

>  <FRAG_NAME>  (3006) 
ACET   MBZ

>  <FRAG_ATOM_NUM>  (3006) 
fragi: 7 fragj: 15

>  <atom.prop.CHAIN_ID>  (3006) 
A A A A A A A Z Z Z Z Z Z Z Z Z Z Z Z Z Z Z

>  <atom.prop.IS_HEAVY_ATOM>  (3006) 
1 0 0 0 1 1 1 1 0 0 0 1 1 0 1 0 1 0 1 0 1 0

>  <DIFUSE_FUNC_ATOM>  (3006) 
n/a

>  <FINAL_SINGLE_POINT_ENERGY>  (3006) 
0

>  <NONCOV_INTER_ENERGY_QM>  (3006) 
0

>  <FF_Energy>  (3006) 
0.75

>  <QM_Energy>  (3006) 
-4.43

>  <source>  (3006) 
ACET_MBZ_03

>  <Index>  (3006) 
17059

$$$$
ACEH-pdb2yeq-B-GLH-404:MBZ-pdb2yeq-B-PHE-334
     RDKit          3D

 22 21  0  0  0  0  0  0  0  0999 V2000
    2.5247    5.0567   -2.8065 C   0  0  0  0  0  0  0  0  0  0  0  0
    2.5185    5.9636   -3.1983 H   0  0  0  0  0  0  0  0  0  0  0  0
    1.9603    4.4348   -3.3268 H   0  0  0  0  0  0  0  0  0  0  0  0
    3.5492    4.6848   -2.8198 H   0  0  0  0  0  0  0  0  0  0  0  0
    1.8760    5.1751   -1.3952 C   0  0  0  0  0  0  0  0  0  0  0  0
    0.6144    5.2104   -1.3482 O   0  0  0  0  0  0  0  0  0  0  0  0
    2.6010    5.2953   -0.3750 O   0  0  0  0  0  0  0  0  0  0  0  0
   -0.0103    2.9095   -0.0239 C   0  0  0  0  0  0  0  0  0  0  0  0
   -0.7873    3.2015   -0.5637 H   0  0  0  0  0  0  0  0  0  0  0  0
    0.8398    3.2109   -0.4329 H   0  0  0  0  0  0  0  0  0  0  0  0
   -0.0920    3.3697    0.9608 H   0  0  0  0  0  0  0  0  0  0  0  0
   -0.0032    1.4066   -0.0008 C   0  0  0  0  0  0  0  0  0  0  0  0
   -1.1947    0.6897    0.0032 C   0  0  0  0  0  0  0  0  0  0  0  0
   -2.0653    1.1765    0.0072 H   0  0  0  0  0  0  0  0  0  0  0  0
   -1.1946   -0.6990    0.0000 C   0  0  0  0  0  0  0  0  0  0  0  0
   -2.0730   -1.1949   -0.0018 H   0  0  0  0  0  0  0  0  0  0  0  0
    0.0039   -1.3964    0.0019 C   0  0  0  0  0  0  0  0  0  0  0  0
   -0.0046   -2.3959    0.0036 H   0  0  0  0  0  0  0  0  0  0  0  0
    1.1946   -0.7041    0.0000 C   0  0  0  0  0  0  0  0  0  0  0  0
    2.0829   -1.1914    0.0030 H   0  0  0  0  0  0  0  0  0  0  0  0
    1.1941    0.7032   -0.0044 C   0  0  0  0  0  0  0  0  0  0  0  0
    2.0622    1.1892   -0.0111 H   0  0  0  0  0  0  0  0  0  0  0  0
  1  5  1  0
  5  6  2  0
  5  7  1  0
  1  2  1  0
  1  3  1  0
  1  4  1  0
  8 12  1  0
 12 13  2  0
 13 15  1  0
 15 17  2  0
 17 19  1  0
 19 21  2  0
 21 12  1  0
  8  9  1  0
  8 10  1  0
  8 11  1  0
 13 14  1  0
 15 16  1  0
 17 18  1  0
 19 20  1  0
 21 22  1  0
M  CHG  1   7  -1
V    7 [O&-]
M  END
>  <PDB_ID>  (3007) 
pdb2yeq

>  <RESIDUE_NAME>  (3007) 
GLU   PHE

>  <FRAG_NAME>  (3007) 
ACET   MBZ

>  <FRAG_ATOM_NUM>  (3007) 
fragi: 7 fragj: 15

>  <atom.prop.CHAIN_ID>  (3007) 
A A A A A A A Z Z Z Z Z Z Z Z Z Z Z Z Z Z Z

>  <atom.prop.IS_HEAVY_ATOM>  (3007) 
1 0 0 0 1 1 1 1 0 0 0 1 1 0 1 0 1 0 1 0 1 0

>  <DIFUSE_FUNC_ATOM>  (3007) 
n/a

>  <FINAL_SINGLE_POINT_ENERGY>  (3007) 
0

>  <NONCOV_INTER_ENERGY_QM>  (3007) 
0

>  <FF_Energy>  (3007) 
4.84

>  <QM_Energy>  (3007) 
-3.32

>  <source>  (3007) 
ACET_MBZ_03

>  <Index>  (3007) 
17062

$$$$
ACEH-pdb2yev-D-ASH-373:MBZ-pdb2yev-D-PHE-302
     RDKit          3D

 22 21  0  0  0  0  0  0  0  0999 V2000
    4.2119    2.0808    1.9670 C   0  0  0  0  0  0  0  0  0  0  0  0
    4.5233    1.1407    1.9899 H   0  0  0  0  0  0  0  0  0  0  0  0
    3.2614    2.1469    2.2344 H   0  0  0  0  0  0  0  0  0  0  0  0
    4.8051    2.6507    2.6821 H   0  0  0  0  0  0  0  0  0  0  0  0
    4.3629    2.6114    0.5552 C   0  0  0  0  0  0  0  0  0  0  0  0
    3.3774    3.1528   -0.0079 O   0  0  0  0  0  0  0  0  0  0  0  0
    5.4899    2.5063    0.0270 O   0  0  0  0  0  0  0  0  0  0  0  0
    0.0177    2.8992    0.0138 C   0  0  0  0  0  0  0  0  0  0  0  0
    0.8784    3.1982   -0.3738 H   0  0  0  0  0  0  0  0  0  0  0  0
   -0.0720    3.1959    0.9543 H   0  0  0  0  0  0  0  0  0  0  0  0
   -0.7845    3.3643   -0.5592 H   0  0  0  0  0  0  0  0  0  0  0  0
    0.0001    1.3939   -0.0014 C   0  0  0  0  0  0  0  0  0  0  0  0
   -1.1901    0.6954    0.0081 C   0  0  0  0  0  0  0  0  0  0  0  0
   -2.0577    1.1877    0.0196 H   0  0  0  0  0  0  0  0  0  0  0  0
   -1.1955   -0.6862   -0.0000 C   0  0  0  0  0  0  0  0  0  0  0  0
   -2.0761   -1.1816   -0.0011 H   0  0  0  0  0  0  0  0  0  0  0  0
   -0.0012   -1.3871   -0.0046 C   0  0  0  0  0  0  0  0  0  0  0  0
   -0.0104   -2.3859   -0.0117 H   0  0  0  0  0  0  0  0  0  0  0  0
    1.1955   -0.6971    0.0000 C   0  0  0  0  0  0  0  0  0  0  0  0
    2.0764   -1.1992    0.0066 H   0  0  0  0  0  0  0  0  0  0  0  0
    1.1912    0.6812   -0.0021 C   0  0  0  0  0  0  0  0  0  0  0  0
    2.0616    1.1820   -0.0049 H   0  0  0  0  0  0  0  0  0  0  0  0
  1  5  1  0
  5  6  2  0
  5  7  1  0
  1  2  1  0
  1  3  1  0
  1  4  1  0
  8 12  1  0
 12 13  2  0
 13 15  1  0
 15 17  2  0
 17 19  1  0
 19 21  2  0
 21 12  1  0
  8  9  1  0
  8 10  1  0
  8 11  1  0
 13 14  1  0
 15 16  1  0
 17 18  1  0
 19 20  1  0
 21 22  1  0
M  CHG  1   7  -1
V    7 [O&-]
M  END
>  <PDB_ID>  (3008) 
pdb2yev

>  <RESIDUE_NAME>  (3008) 
ASP   PHE

>  <FRAG_NAME>  (3008) 
ACET   MBZ

>  <FRAG_ATOM_NUM>  (3008) 
fragi: 7 fragj: 15

>  <atom.prop.CHAIN_ID>  (3008) 
A A A A A A A Z Z Z Z Z Z Z Z Z Z Z Z Z Z Z

>  <atom.prop.IS_HEAVY_ATOM>  (3008) 
1 0 0 0 1 1 1 1 0 0 0 1 1 0 1 0 1 0 1 0 1 0

>  <DIFUSE_FUNC_ATOM>  (3008) 
n/a

>  <FINAL_SINGLE_POINT_ENERGY>  (3008) 
0

>  <NONCOV_INTER_ENERGY_QM>  (3008) 
0

>  <FF_Energy>  (3008) 
-2.04

>  <QM_Energy>  (3008) 
-7.77

>  <source>  (3008) 
ACET_MBZ_03

>  <Index>  (3008) 
17065

$$$$
ACEH-pdb2yii-B-GLH-263:MBZ-pdb2yii-B-PHE-625
     RDKit          3D

 22 21  0  0  0  0  0  0  0  0999 V2000
    5.2243   -0.1668    1.4943 C   0  0  0  0  0  0  0  0  0  0  0  0
    6.1197   -0.5313    1.2931 H   0  0  0  0  0  0  0  0  0  0  0  0
    4.5401   -0.8786    1.5154 H   0  0  0  0  0  0  0  0  0  0  0  0
    5.2607    0.3034    2.4770 H   0  0  0  0  0  0  0  0  0  0  0  0
    4.8536    0.7835    0.3499 C   0  0  0  0  0  0  0  0  0  0  0  0
    5.2260    0.4643   -0.7981 O   0  0  0  0  0  0  0  0  0  0  0  0
    4.1874    1.8266    0.5755 O   0  0  0  0  0  0  0  0  0  0  0  0
   -0.0047    2.8921   -0.0439 C   0  0  0  0  0  0  0  0  0  0  0  0
    0.9075    3.2144    0.1316 H   0  0  0  0  0  0  0  0  0  0  0  0
   -0.6507    3.2233    0.6197 H   0  0  0  0  0  0  0  0  0  0  0  0
   -0.3082    3.2759   -1.0179 H   0  0  0  0  0  0  0  0  0  0  0  0
    0.0030    1.3965    0.0076 C   0  0  0  0  0  0  0  0  0  0  0  0
   -1.1927    0.6912   -0.0054 C   0  0  0  0  0  0  0  0  0  0  0  0
   -2.0589    1.1832   -0.0197 H   0  0  0  0  0  0  0  0  0  0  0  0
   -1.1981   -0.6955    0.0000 C   0  0  0  0  0  0  0  0  0  0  0  0
   -2.0778   -1.1878    0.0049 H   0  0  0  0  0  0  0  0  0  0  0  0
   -0.0042   -1.3900    0.0005 C   0  0  0  0  0  0  0  0  0  0  0  0
   -0.0063   -2.3896    0.0004 H   0  0  0  0  0  0  0  0  0  0  0  0
    1.1981   -0.6949    0.0000 C   0  0  0  0  0  0  0  0  0  0  0  0
    2.0784   -1.1945    0.0027 H   0  0  0  0  0  0  0  0  0  0  0  0
    1.1939    0.6927   -0.0028 C   0  0  0  0  0  0  0  0  0  0  0  0
    2.0640    1.1880   -0.0129 H   0  0  0  0  0  0  0  0  0  0  0  0
  1  5  1  0
  5  6  2  0
  5  7  1  0
  1  2  1  0
  1  3  1  0
  1  4  1  0
  8 12  1  0
 12 13  2  0
 13 15  1  0
 15 17  2  0
 17 19  1  0
 19 21  2  0
 21 12  1  0
  8  9  1  0
  8 10  1  0
  8 11  1  0
 13 14  1  0
 15 16  1  0
 17 18  1  0
 19 20  1  0
 21 22  1  0
M  CHG  1   7  -1
V    7 [O&-]
M  END
>  <PDB_ID>  (3009) 
pdb2yii

>  <RESIDUE_NAME>  (3009) 
GLU   PHE

>  <FRAG_NAME>  (3009) 
ACET   MBZ

>  <FRAG_ATOM_NUM>  (3009) 
fragi: 7 fragj: 15

>  <atom.prop.CHAIN_ID>  (3009) 
A A A A A A A Z Z Z Z Z Z Z Z Z Z Z Z Z Z Z

>  <atom.prop.IS_HEAVY_ATOM>  (3009) 
1 0 0 0 1 1 1 1 0 0 0 1 1 0 1 0 1 0 1 0 1 0

>  <DIFUSE_FUNC_ATOM>  (3009) 
n/a

>  <FINAL_SINGLE_POINT_ENERGY>  (3009) 
0

>  <NONCOV_INTER_ENERGY_QM>  (3009) 
0

>  <FF_Energy>  (3009) 
-2.06

>  <QM_Energy>  (3009) 
-7.16

>  <source>  (3009) 
ACET_MBZ_03

>  <Index>  (3009) 
17098

$$$$
ACEH-pdb1qdl-A-GLH-111:MBZ-pdb1qdl-A-PHE-214
     RDKit          3D

 22 21  0  0  0  0  0  0  0  0999 V2000
   -0.2219    1.4071   -4.7824 C   0  0  0  0  0  0  0  0  0  0  0  0
    0.6949    1.4027   -5.1342 H   0  0  0  0  0  0  0  0  0  0  0  0
   -0.8956    1.3897   -5.4966 H   0  0  0  0  0  0  0  0  0  0  0  0
   -0.3539    0.5184   -4.1653 H   0  0  0  0  0  0  0  0  0  0  0  0
   -0.4099    2.7057   -4.0062 C   0  0  0  0  0  0  0  0  0  0  0  0
   -1.0412    2.6815   -2.9315 O   0  0  0  0  0  0  0  0  0  0  0  0
    0.0748    3.7584   -4.4693 O   0  0  0  0  0  0  0  0  0  0  0  0
    0.0025    2.9229    0.0304 C   0  0  0  0  0  0  0  0  0  0  0  0
   -0.9226    3.2301   -0.1183 H   0  0  0  0  0  0  0  0  0  0  0  0
    0.6106    3.2393   -0.6789 H   0  0  0  0  0  0  0  0  0  0  0  0
    0.3465    3.3402    0.9767 H   0  0  0  0  0  0  0  0  0  0  0  0
   -0.0003    1.4108    0.0002 C   0  0  0  0  0  0  0  0  0  0  0  0
   -1.2022    0.6942    0.0002 C   0  0  0  0  0  0  0  0  0  0  0  0
   -2.0684    1.1818   -0.0012 H   0  0  0  0  0  0  0  0  0  0  0  0
   -1.2060   -0.7062    0.0000 C   0  0  0  0  0  0  0  0  0  0  0  0
   -2.0787   -1.1989   -0.0001 H   0  0  0  0  0  0  0  0  0  0  0  0
    0.0040   -1.4013    0.0011 C   0  0  0  0  0  0  0  0  0  0  0  0
    0.0041   -2.3976    0.0022 H   0  0  0  0  0  0  0  0  0  0  0  0
    1.2060   -0.6965    0.0000 C   0  0  0  0  0  0  0  0  0  0  0  0
    2.0885   -1.1912    0.0018 H   0  0  0  0  0  0  0  0  0  0  0  0
    1.1984    0.6991   -0.0016 C   0  0  0  0  0  0  0  0  0  0  0  0
    2.0664    1.1956   -0.0050 H   0  0  0  0  0  0  0  0  0  0  0  0
  1  5  1  0
  5  6  2  0
  5  7  1  0
  1  2  1  0
  1  3  1  0
  1  4  1  0
  8 12  1  0
 12 13  2  0
 13 15  1  0
 15 17  2  0
 17 19  1  0
 19 21  2  0
 21 12  1  0
  8  9  1  0
  8 10  1  0
  8 11  1  0
 13 14  1  0
 15 16  1  0
 17 18  1  0
 19 20  1  0
 21 22  1  0
M  CHG  1   7  -1
V    7 [O&-]
M  END
>  <PDB_ID>  (3010) 
pdb1qdl

>  <RESIDUE_NAME>  (3010) 
GLU   PHE

>  <FRAG_NAME>  (3010) 
ACET   MBZ

>  <FRAG_ATOM_NUM>  (3010) 
fragi: 7 fragj: 15

>  <atom.prop.CHAIN_ID>  (3010) 
A A A A A A A Z Z Z Z Z Z Z Z Z Z Z Z Z Z Z

>  <atom.prop.IS_HEAVY_ATOM>  (3010) 
1 0 0 0 1 1 1 1 0 0 0 1 1 0 1 0 1 0 1 0 1 0

>  <DIFUSE_FUNC_ATOM>  (3010) 
n/a

>  <FINAL_SINGLE_POINT_ENERGY>  (3010) 
0

>  <NONCOV_INTER_ENERGY_QM>  (3010) 
0

>  <FF_Energy>  (3010) 
1.22

>  <QM_Energy>  (3010) 
-4.05

>  <source>  (3010) 
ACET_MBZ_03

>  <Index>  (3010) 
17152

$$$$
ACEH-pdb4r1d-A-GLH-325:MBZ-pdb4r1d-A-PHE-414
     RDKit          3D

 22 21  0  0  0  0  0  0  0  0999 V2000
    5.2734   -0.9467   -1.6258 C   0  0  0  0  0  0  0  0  0  0  0  0
    5.7919   -1.4872   -2.2646 H   0  0  0  0  0  0  0  0  0  0  0  0
    5.6779   -0.9438   -0.7285 H   0  0  0  0  0  0  0  0  0  0  0  0
    5.2509    0.0798   -1.9917 H   0  0  0  0  0  0  0  0  0  0  0  0
    3.8959   -1.5709   -1.5073 C   0  0  0  0  0  0  0  0  0  0  0  0
    3.8036   -2.6847   -0.9450 O   0  0  0  0  0  0  0  0  0  0  0  0
    2.9181   -0.9478   -1.9715 O   0  0  0  0  0  0  0  0  0  0  0  0
    0.0012    2.9128   -0.0170 C   0  0  0  0  0  0  0  0  0  0  0  0
   -0.5395    3.2059   -0.7917 H   0  0  0  0  0  0  0  0  0  0  0  0
    0.9397    3.2145   -0.1003 H   0  0  0  0  0  0  0  0  0  0  0  0
   -0.4196    3.3719    0.8776 H   0  0  0  0  0  0  0  0  0  0  0  0
    0.0011    1.4014    0.0031 C   0  0  0  0  0  0  0  0  0  0  0  0
   -1.1907    0.6951    0.0043 C   0  0  0  0  0  0  0  0  0  0  0  0
   -2.0603    1.1844    0.0073 H   0  0  0  0  0  0  0  0  0  0  0  0
   -1.2005   -0.6988   -0.0000 C   0  0  0  0  0  0  0  0  0  0  0  0
   -2.0810   -1.1863   -0.0013 H   0  0  0  0  0  0  0  0  0  0  0  0
   -0.0058   -1.3955   -0.0009 C   0  0  0  0  0  0  0  0  0  0  0  0
   -0.0063   -2.3932   -0.0031 H   0  0  0  0  0  0  0  0  0  0  0  0
    1.2005   -0.6981    0.0000 C   0  0  0  0  0  0  0  0  0  0  0  0
    2.0794   -1.1956    0.0068 H   0  0  0  0  0  0  0  0  0  0  0  0
    1.1953    0.6960   -0.0065 C   0  0  0  0  0  0  0  0  0  0  0  0
    2.0643    1.1897   -0.0190 H   0  0  0  0  0  0  0  0  0  0  0  0
  1  5  1  0
  5  6  2  0
  5  7  1  0
  1  2  1  0
  1  3  1  0
  1  4  1  0
  8 12  1  0
 12 13  2  0
 13 15  1  0
 15 17  2  0
 17 19  1  0
 19 21  2  0
 21 12  1  0
  8  9  1  0
  8 10  1  0
  8 11  1  0
 13 14  1  0
 15 16  1  0
 17 18  1  0
 19 20  1  0
 21 22  1  0
M  CHG  1   7  -1
V    7 [O&-]
M  END
>  <PDB_ID>  (3011) 
pdb4r1d

>  <RESIDUE_NAME>  (3011) 
GLU   PHE

>  <FRAG_NAME>  (3011) 
ACET   MBZ

>  <FRAG_ATOM_NUM>  (3011) 
fragi: 7 fragj: 15

>  <atom.prop.CHAIN_ID>  (3011) 
A A A A A A A Z Z Z Z Z Z Z Z Z Z Z Z Z Z Z

>  <atom.prop.IS_HEAVY_ATOM>  (3011) 
1 0 0 0 1 1 1 1 0 0 0 1 1 0 1 0 1 0 1 0 1 0

>  <DIFUSE_FUNC_ATOM>  (3011) 
n/a

>  <FINAL_SINGLE_POINT_ENERGY>  (3011) 
0

>  <NONCOV_INTER_ENERGY_QM>  (3011) 
0

>  <FF_Energy>  (3011) 
8.33

>  <QM_Energy>  (3011) 
-2.38

>  <source>  (3011) 
ACET_MBZ_03

>  <Index>  (3011) 
17200

$$$$
ACEH-pdb3p1u-A-GLH-232:MBZ-pdb3p1u-A-PHE-172
     RDKit          3D

 22 21  0  0  0  0  0  0  0  0999 V2000
   -0.2553    0.2795    3.5519 C   0  0  0  0  0  0  0  0  0  0  0  0
    0.2678    0.0744    4.3706 H   0  0  0  0  0  0  0  0  0  0  0  0
    0.2014   -0.0783    2.7467 H   0  0  0  0  0  0  0  0  0  0  0  0
   -1.2224   -0.2155    3.6391 H   0  0  0  0  0  0  0  0  0  0  0  0
   -0.3053    1.7937    3.4111 C   0  0  0  0  0  0  0  0  0  0  0  0
   -1.3731    2.3237    3.0273 O   0  0  0  0  0  0  0  0  0  0  0  0
    0.7510    2.4393    3.5974 O   0  0  0  0  0  0  0  0  0  0  0  0
   -0.0008    2.9193    0.0241 C   0  0  0  0  0  0  0  0  0  0  0  0
    0.9275    3.2194    0.1878 H   0  0  0  0  0  0  0  0  0  0  0  0
   -0.6042    3.2017    0.7558 H   0  0  0  0  0  0  0  0  0  0  0  0
   -0.3455    3.4024   -0.8902 H   0  0  0  0  0  0  0  0  0  0  0  0
   -0.0009    1.4073   -0.0243 C   0  0  0  0  0  0  0  0  0  0  0  0
   -1.1909    0.6959    0.0148 C   0  0  0  0  0  0  0  0  0  0  0  0
   -2.0604    1.1780    0.0526 H   0  0  0  0  0  0  0  0  0  0  0  0
   -1.1908   -0.7021    0.0000 C   0  0  0  0  0  0  0  0  0  0  0  0
   -2.0728   -1.1905   -0.0046 H   0  0  0  0  0  0  0  0  0  0  0  0
    0.0003   -1.3918   -0.0060 C   0  0  0  0  0  0  0  0  0  0  0  0
   -0.0049   -2.3954   -0.0151 H   0  0  0  0  0  0  0  0  0  0  0  0
    1.1908   -0.7041    0.0000 C   0  0  0  0  0  0  0  0  0  0  0  0
    2.0771   -1.1960   -0.0052 H   0  0  0  0  0  0  0  0  0  0  0  0
    1.1915    0.6948    0.0155 C   0  0  0  0  0  0  0  0  0  0  0  0
    2.0621    1.1837    0.0552 H   0  0  0  0  0  0  0  0  0  0  0  0
  1  5  1  0
  5  6  2  0
  5  7  1  0
  1  2  1  0
  1  3  1  0
  1  4  1  0
  8 12  1  0
 12 13  2  0
 13 15  1  0
 15 17  2  0
 17 19  1  0
 19 21  2  0
 21 12  1  0
  8  9  1  0
  8 10  1  0
  8 11  1  0
 13 14  1  0
 15 16  1  0
 17 18  1  0
 19 20  1  0
 21 22  1  0
M  CHG  1   7  -1
V    7 [O&-]
M  END
>  <PDB_ID>  (3012) 
pdb3p1u

>  <RESIDUE_NAME>  (3012) 
GLU   PHE

>  <FRAG_NAME>  (3012) 
ACET   MBZ

>  <FRAG_ATOM_NUM>  (3012) 
fragi: 7 fragj: 15

>  <atom.prop.CHAIN_ID>  (3012) 
A A A A A A A Z Z Z Z Z Z Z Z Z Z Z Z Z Z Z

>  <atom.prop.IS_HEAVY_ATOM>  (3012) 
1 0 0 0 1 1 1 1 0 0 0 1 1 0 1 0 1 0 1 0 1 0

>  <DIFUSE_FUNC_ATOM>  (3012) 
n/a

>  <FINAL_SINGLE_POINT_ENERGY>  (3012) 
0

>  <NONCOV_INTER_ENERGY_QM>  (3012) 
0

>  <FF_Energy>  (3012) 
0.04

>  <QM_Energy>  (3012) 
-6.96

>  <source>  (3012) 
ACET_MBZ_03

>  <Index>  (3012) 
17212

$$$$
ACEH-pdb3p5m-D-ASH-133:MBZ-pdb3p5m-D-PHE-102
     RDKit          3D

 22 21  0  0  0  0  0  0  0  0999 V2000
   -5.3886    3.5359   -1.8933 C   0  0  0  0  0  0  0  0  0  0  0  0
   -5.4244    2.7446   -2.4881 H   0  0  0  0  0  0  0  0  0  0  0  0
   -5.7737    4.3317   -2.3374 H   0  0  0  0  0  0  0  0  0  0  0  0
   -5.9922    3.3193   -1.0118 H   0  0  0  0  0  0  0  0  0  0  0  0
   -3.9079    3.8302   -1.5623 C   0  0  0  0  0  0  0  0  0  0  0  0
   -3.4200    3.6330   -0.4115 O   0  0  0  0  0  0  0  0  0  0  0  0
   -3.1932    4.2308   -2.5048 O   0  0  0  0  0  0  0  0  0  0  0  0
   -0.0010    2.9095    0.0954 C   0  0  0  0  0  0  0  0  0  0  0  0
   -0.6878    3.2578   -0.5093 H   0  0  0  0  0  0  0  0  0  0  0  0
    0.8963    3.2394   -0.1151 H   0  0  0  0  0  0  0  0  0  0  0  0
   -0.2477    3.2424    1.1036 H   0  0  0  0  0  0  0  0  0  0  0  0
    0.0071    1.4135   -0.0065 C   0  0  0  0  0  0  0  0  0  0  0  0
   -1.1942    0.7065    0.0269 C   0  0  0  0  0  0  0  0  0  0  0  0
   -2.0606    1.1889    0.0691 H   0  0  0  0  0  0  0  0  0  0  0  0
   -1.2094   -0.7129    0.0000 C   0  0  0  0  0  0  0  0  0  0  0  0
   -2.0940   -1.1825   -0.0035 H   0  0  0  0  0  0  0  0  0  0  0  0
   -0.0206   -1.4080   -0.0189 C   0  0  0  0  0  0  0  0  0  0  0  0
   -0.0093   -2.4034   -0.0459 H   0  0  0  0  0  0  0  0  0  0  0  0
    1.2094   -0.7027    0.0000 C   0  0  0  0  0  0  0  0  0  0  0  0
    2.0777   -1.2050    0.0153 H   0  0  0  0  0  0  0  0  0  0  0  0
    1.2077    0.7036   -0.0014 C   0  0  0  0  0  0  0  0  0  0  0  0
    2.0754    1.1929    0.0002 H   0  0  0  0  0  0  0  0  0  0  0  0
  1  5  1  0
  5  6  2  0
  5  7  1  0
  1  2  1  0
  1  3  1  0
  1  4  1  0
  8 12  1  0
 12 13  2  0
 13 15  1  0
 15 17  2  0
 17 19  1  0
 19 21  2  0
 21 12  1  0
  8  9  1  0
  8 10  1  0
  8 11  1  0
 13 14  1  0
 15 16  1  0
 17 18  1  0
 19 20  1  0
 21 22  1  0
M  CHG  1   7  -1
V    7 [O&-]
M  END
>  <PDB_ID>  (3013) 
pdb3p5m

>  <RESIDUE_NAME>  (3013) 
ASP   PHE

>  <FRAG_NAME>  (3013) 
ACET   MBZ

>  <FRAG_ATOM_NUM>  (3013) 
fragi: 7 fragj: 15

>  <atom.prop.CHAIN_ID>  (3013) 
A A A A A A A Z Z Z Z Z Z Z Z Z Z Z Z Z Z Z

>  <atom.prop.IS_HEAVY_ATOM>  (3013) 
1 0 0 0 1 1 1 1 0 0 0 1 1 0 1 0 1 0 1 0 1 0

>  <DIFUSE_FUNC_ATOM>  (3013) 
n/a

>  <FINAL_SINGLE_POINT_ENERGY>  (3013) 
0

>  <NONCOV_INTER_ENERGY_QM>  (3013) 
0

>  <FF_Energy>  (3013) 
-2.0

>  <QM_Energy>  (3013) 
-7.38

>  <source>  (3013) 
ACET_MBZ_03

>  <Index>  (3013) 
17287

$$$$
ACEH-pdb3p7x-C-ASH-106:MBZ-pdb3p7x-C-PHE-112
     RDKit          3D

 22 21  0  0  0  0  0  0  0  0999 V2000
    3.4212    5.1693   -1.8929 C   0  0  0  0  0  0  0  0  0  0  0  0
    3.5281    4.4177   -2.5438 H   0  0  0  0  0  0  0  0  0  0  0  0
    4.2687    5.2824   -1.3742 H   0  0  0  0  0  0  0  0  0  0  0  0
    3.2760    6.0796   -2.4746 H   0  0  0  0  0  0  0  0  0  0  0  0
    2.3002    4.8605   -0.9566 C   0  0  0  0  0  0  0  0  0  0  0  0
    2.6219    4.1471    0.0236 O   0  0  0  0  0  0  0  0  0  0  0  0
    1.1279    5.2485   -1.2247 O   0  0  0  0  0  0  0  0  0  0  0  0
   -0.0047    2.9097    0.0630 C   0  0  0  0  0  0  0  0  0  0  0  0
   -0.7691    3.2417   -0.4539 H   0  0  0  0  0  0  0  0  0  0  0  0
    0.8547    3.2354   -0.2802 H   0  0  0  0  0  0  0  0  0  0  0  0
   -0.1127    3.2677    1.0869 H   0  0  0  0  0  0  0  0  0  0  0  0
   -0.0034    1.4119   -0.0069 C   0  0  0  0  0  0  0  0  0  0  0  0
   -1.2251    0.7027    0.0128 C   0  0  0  0  0  0  0  0  0  0  0  0
   -2.0790    1.1927    0.0341 H   0  0  0  0  0  0  0  0  0  0  0  0
   -1.2257   -0.7032    0.0000 C   0  0  0  0  0  0  0  0  0  0  0  0
   -2.0772   -1.2119    0.0074 H   0  0  0  0  0  0  0  0  0  0  0  0
    0.0317   -1.4171   -0.0226 C   0  0  0  0  0  0  0  0  0  0  0  0
    0.0205   -2.3988   -0.0545 H   0  0  0  0  0  0  0  0  0  0  0  0
    1.2257   -0.6897    0.0000 C   0  0  0  0  0  0  0  0  0  0  0  0
    2.1141   -1.1771    0.0056 H   0  0  0  0  0  0  0  0  0  0  0  0
    1.1967    0.6954    0.0167 C   0  0  0  0  0  0  0  0  0  0  0  0
    2.0652    1.2070    0.0456 H   0  0  0  0  0  0  0  0  0  0  0  0
  1  5  1  0
  5  6  2  0
  5  7  1  0
  1  2  1  0
  1  3  1  0
  1  4  1  0
  8 12  1  0
 12 13  2  0
 13 15  1  0
 15 17  2  0
 17 19  1  0
 19 21  2  0
 21 12  1  0
  8  9  1  0
  8 10  1  0
  8 11  1  0
 13 14  1  0
 15 16  1  0
 17 18  1  0
 19 20  1  0
 21 22  1  0
M  CHG  1   7  -1
V    7 [O&-]
M  END
>  <PDB_ID>  (3014) 
pdb3p7x

>  <RESIDUE_NAME>  (3014) 
ASP   PHE

>  <FRAG_NAME>  (3014) 
ACET   MBZ

>  <FRAG_ATOM_NUM>  (3014) 
fragi: 7 fragj: 15

>  <atom.prop.CHAIN_ID>  (3014) 
A A A A A A A Z Z Z Z Z Z Z Z Z Z Z Z Z Z Z

>  <atom.prop.IS_HEAVY_ATOM>  (3014) 
1 0 0 0 1 1 1 1 0 0 0 1 1 0 1 0 1 0 1 0 1 0

>  <DIFUSE_FUNC_ATOM>  (3014) 
n/a

>  <FINAL_SINGLE_POINT_ENERGY>  (3014) 
0

>  <NONCOV_INTER_ENERGY_QM>  (3014) 
0

>  <FF_Energy>  (3014) 
11.25

>  <QM_Energy>  (3014) 
-4.3

>  <source>  (3014) 
ACET_MBZ_03

>  <Index>  (3014) 
17313

$$$$
ACEH-pdb1qtw-A-ASH-70:MBZ-pdb1qtw-A-PHE-108
     RDKit          3D

 22 21  0  0  0  0  0  0  0  0999 V2000
    0.9780    6.1556   -2.4959 C   0  0  0  0  0  0  0  0  0  0  0  0
    0.7153    6.2758   -3.4215 H   0  0  0  0  0  0  0  0  0  0  0  0
    1.6334    5.4404   -2.4674 H   0  0  0  0  0  0  0  0  0  0  0  0
    1.4468    7.0738   -2.1420 H   0  0  0  0  0  0  0  0  0  0  0  0
   -0.2194    5.7412   -1.7065 C   0  0  0  0  0  0  0  0  0  0  0  0
   -0.3885    6.0919   -0.5201 O   0  0  0  0  0  0  0  0  0  0  0  0
   -1.0663    4.9695   -2.3522 O   0  0  0  0  0  0  0  0  0  0  0  0
    0.0085    2.9308    0.0493 C   0  0  0  0  0  0  0  0  0  0  0  0
   -0.8646    3.2555   -0.2213 H   0  0  0  0  0  0  0  0  0  0  0  0
    0.6592    3.2647   -0.5874 H   0  0  0  0  0  0  0  0  0  0  0  0
    0.2436    3.3284    1.0366 H   0  0  0  0  0  0  0  0  0  0  0  0
    0.0064    1.4147    0.0034 C   0  0  0  0  0  0  0  0  0  0  0  0
   -1.1785    0.7078   -0.0004 C   0  0  0  0  0  0  0  0  0  0  0  0
   -1.9818    1.1758   -0.0039 H   0  0  0  0  0  0  0  0  0  0  0  0
   -1.2103   -0.7009   -0.0000 C   0  0  0  0  0  0  0  0  0  0  0  0
   -2.0189   -1.1590    0.0043 H   0  0  0  0  0  0  0  0  0  0  0  0
   -0.0075   -1.3851   -0.0060 C   0  0  0  0  0  0  0  0  0  0  0  0
   -0.0131   -2.3146   -0.0129 H   0  0  0  0  0  0  0  0  0  0  0  0
    1.2103   -0.7100   -0.0000 C   0  0  0  0  0  0  0  0  0  0  0  0
    2.0175   -1.1736    0.0008 H   0  0  0  0  0  0  0  0  0  0  0  0
    1.1796    0.6735    0.0030 C   0  0  0  0  0  0  0  0  0  0  0  0
    1.9891    1.1316    0.0041 H   0  0  0  0  0  0  0  0  0  0  0  0
  1  5  1  0
  5  6  2  0
  5  7  1  0
  1  2  1  0
  1  3  1  0
  1  4  1  0
  8 12  1  0
 12 13  2  0
 13 15  1  0
 15 17  2  0
 17 19  1  0
 19 21  2  0
 21 12  1  0
  8  9  1  0
  8 10  1  0
  8 11  1  0
 13 14  1  0
 15 16  1  0
 17 18  1  0
 19 20  1  0
 21 22  1  0
M  CHG  1   7  -1
V    7 [O&-]
M  END
>  <PDB_ID>  (3015) 
pdb1qtw

>  <RESIDUE_NAME>  (3015) 
ASP   PHE

>  <FRAG_NAME>  (3015) 
ACET   MBZ

>  <FRAG_ATOM_NUM>  (3015) 
fragi: 7 fragj: 15

>  <atom.prop.CHAIN_ID>  (3015) 
A A A A A A A Z Z Z Z Z Z Z Z Z Z Z Z Z Z Z

>  <atom.prop.IS_HEAVY_ATOM>  (3015) 
1 0 0 0 1 1 1 1 0 0 0 1 1 0 1 0 1 0 1 0 1 0

>  <DIFUSE_FUNC_ATOM>  (3015) 
n/a

>  <FINAL_SINGLE_POINT_ENERGY>  (3015) 
0

>  <NONCOV_INTER_ENERGY_QM>  (3015) 
0

>  <FF_Energy>  (3015) 
-0.97

>  <QM_Energy>  (3015) 
-6.14

>  <source>  (3015) 
ACET_MBZ_03

>  <Index>  (3015) 
17328

$$$$
ACEH-pdb1qvb-B-GLH-82:MBZ-pdb1qvb-B-PHE-16
     RDKit          3D

 22 21  0  0  0  0  0  0  0  0999 V2000
   -4.4839    5.7167   -0.7996 C   0  0  0  0  0  0  0  0  0  0  0  0
   -4.0851    6.3975   -0.2013 H   0  0  0  0  0  0  0  0  0  0  0  0
   -4.8030    4.9335   -0.2841 H   0  0  0  0  0  0  0  0  0  0  0  0
   -5.3356    6.1642   -1.3120 H   0  0  0  0  0  0  0  0  0  0  0  0
   -3.3770    5.2265   -1.7233 C   0  0  0  0  0  0  0  0  0  0  0  0
   -3.1733    5.8108   -2.8048 O   0  0  0  0  0  0  0  0  0  0  0  0
   -2.6784    4.2668   -1.3383 O   0  0  0  0  0  0  0  0  0  0  0  0
   -0.0029    2.9078    0.0369 C   0  0  0  0  0  0  0  0  0  0  0  0
   -0.6264    3.2308   -0.6594 H   0  0  0  0  0  0  0  0  0  0  0  0
    0.9195    3.2218   -0.1327 H   0  0  0  0  0  0  0  0  0  0  0  0
   -0.3261    3.3218    0.9921 H   0  0  0  0  0  0  0  0  0  0  0  0
    0.0010    1.4099    0.0000 C   0  0  0  0  0  0  0  0  0  0  0  0
   -1.1994    0.6984   -0.0007 C   0  0  0  0  0  0  0  0  0  0  0  0
   -2.0660    1.1848   -0.0029 H   0  0  0  0  0  0  0  0  0  0  0  0
   -1.2038   -0.7027   -0.0000 C   0  0  0  0  0  0  0  0  0  0  0  0
   -2.0827   -1.1914    0.0012 H   0  0  0  0  0  0  0  0  0  0  0  0
   -0.0036   -1.4028    0.0006 C   0  0  0  0  0  0  0  0  0  0  0  0
   -0.0060   -2.3989    0.0008 H   0  0  0  0  0  0  0  0  0  0  0  0
    1.2038   -0.7031   -0.0000 C   0  0  0  0  0  0  0  0  0  0  0  0
    2.0837   -1.1978    0.0011 H   0  0  0  0  0  0  0  0  0  0  0  0
    1.2020    0.7003   -0.0000 C   0  0  0  0  0  0  0  0  0  0  0  0
    2.0688    1.1907   -0.0009 H   0  0  0  0  0  0  0  0  0  0  0  0
  1  5  1  0
  5  6  2  0
  5  7  1  0
  1  2  1  0
  1  3  1  0
  1  4  1  0
  8 12  1  0
 12 13  2  0
 13 15  1  0
 15 17  2  0
 17 19  1  0
 19 21  2  0
 21 12  1  0
  8  9  1  0
  8 10  1  0
  8 11  1  0
 13 14  1  0
 15 16  1  0
 17 18  1  0
 19 20  1  0
 21 22  1  0
M  CHG  1   7  -1
V    7 [O&-]
M  END
>  <PDB_ID>  (3016) 
pdb1qvb

>  <RESIDUE_NAME>  (3016) 
GLU   PHE

>  <FRAG_NAME>  (3016) 
ACET   MBZ

>  <FRAG_ATOM_NUM>  (3016) 
fragi: 7 fragj: 15

>  <atom.prop.CHAIN_ID>  (3016) 
A A A A A A A Z Z Z Z Z Z Z Z Z Z Z Z Z Z Z

>  <atom.prop.IS_HEAVY_ATOM>  (3016) 
1 0 0 0 1 1 1 1 0 0 0 1 1 0 1 0 1 0 1 0 1 0

>  <DIFUSE_FUNC_ATOM>  (3016) 
n/a

>  <FINAL_SINGLE_POINT_ENERGY>  (3016) 
0

>  <NONCOV_INTER_ENERGY_QM>  (3016) 
0

>  <FF_Energy>  (3016) 
-0.93

>  <QM_Energy>  (3016) 
-6.11

>  <source>  (3016) 
ACET_MBZ_03

>  <Index>  (3016) 
17333

$$$$
ACEH-pdb3pea-A-GLH-112:MBZ-pdb3pea-A-PHE-141
     RDKit          3D

 22 21  0  0  0  0  0  0  0  0999 V2000
    2.8444    5.0010   -2.3161 C   0  0  0  0  0  0  0  0  0  0  0  0
    2.4624    5.9099   -2.2993 H   0  0  0  0  0  0  0  0  0  0  0  0
    3.5997    4.9350   -2.9474 H   0  0  0  0  0  0  0  0  0  0  0  0
    3.2161    4.7715   -1.3175 H   0  0  0  0  0  0  0  0  0  0  0  0
    1.7456    4.0536   -2.8195 C   0  0  0  0  0  0  0  0  0  0  0  0
    0.6828    4.5463   -3.2384 O   0  0  0  0  0  0  0  0  0  0  0  0
    1.9650    2.8252   -2.8097 O   0  0  0  0  0  0  0  0  0  0  0  0
    0.0362    2.9364    0.0171 C   0  0  0  0  0  0  0  0  0  0  0  0
    0.8236    3.2154   -0.5155 H   0  0  0  0  0  0  0  0  0  0  0  0
    0.1357    3.2048    0.9658 H   0  0  0  0  0  0  0  0  0  0  0  0
   -0.8436    3.4364   -0.3879 H   0  0  0  0  0  0  0  0  0  0  0  0
   -0.0096    1.3994   -0.0154 C   0  0  0  0  0  0  0  0  0  0  0  0
   -1.1991    0.6950   -0.0051 C   0  0  0  0  0  0  0  0  0  0  0  0
   -2.0683    1.1754   -0.0027 H   0  0  0  0  0  0  0  0  0  0  0  0
   -1.1911   -0.6976   -0.0000 C   0  0  0  0  0  0  0  0  0  0  0  0
   -2.0591   -1.2017   -0.0014 H   0  0  0  0  0  0  0  0  0  0  0  0
    0.0252   -1.3871    0.0089 C   0  0  0  0  0  0  0  0  0  0  0  0
    0.0139   -2.3880    0.0211 H   0  0  0  0  0  0  0  0  0  0  0  0
    1.1911   -0.6903   -0.0000 C   0  0  0  0  0  0  0  0  0  0  0  0
    2.0893   -1.1832   -0.0144 H   0  0  0  0  0  0  0  0  0  0  0  0
    1.1835    0.6805    0.0117 C   0  0  0  0  0  0  0  0  0  0  0  0
    2.0532    1.1874    0.0397 H   0  0  0  0  0  0  0  0  0  0  0  0
  1  5  1  0
  5  6  2  0
  5  7  1  0
  1  2  1  0
  1  3  1  0
  1  4  1  0
  8 12  1  0
 12 13  2  0
 13 15  1  0
 15 17  2  0
 17 19  1  0
 19 21  2  0
 21 12  1  0
  8  9  1  0
  8 10  1  0
  8 11  1  0
 13 14  1  0
 15 16  1  0
 17 18  1  0
 19 20  1  0
 21 22  1  0
M  CHG  1   7  -1
V    7 [O&-]
M  END
>  <PDB_ID>  (3017) 
pdb3pea

>  <RESIDUE_NAME>  (3017) 
GLU   PHE

>  <FRAG_NAME>  (3017) 
ACET   MBZ

>  <FRAG_ATOM_NUM>  (3017) 
fragi: 7 fragj: 15

>  <atom.prop.CHAIN_ID>  (3017) 
A A A A A A A Z Z Z Z Z Z Z Z Z Z Z Z Z Z Z

>  <atom.prop.IS_HEAVY_ATOM>  (3017) 
1 0 0 0 1 1 1 1 0 0 0 1 1 0 1 0 1 0 1 0 1 0

>  <DIFUSE_FUNC_ATOM>  (3017) 
n/a

>  <FINAL_SINGLE_POINT_ENERGY>  (3017) 
0

>  <NONCOV_INTER_ENERGY_QM>  (3017) 
0

>  <FF_Energy>  (3017) 
0.54

>  <QM_Energy>  (3017) 
-4.68

>  <source>  (3017) 
ACET_MBZ_03

>  <Index>  (3017) 
17408

$$$$
ACEH-pdb3pea-C-GLH-112:MBZ-pdb3pea-C-PHE-141
     RDKit          3D

 22 21  0  0  0  0  0  0  0  0999 V2000
    3.0769    5.1335   -1.9708 C   0  0  0  0  0  0  0  0  0  0  0  0
    2.6943    6.0368   -2.0169 H   0  0  0  0  0  0  0  0  0  0  0  0
    3.8978    5.0463   -2.5031 H   0  0  0  0  0  0  0  0  0  0  0  0
    3.3179    4.9170   -0.9301 H   0  0  0  0  0  0  0  0  0  0  0  0
    2.0395    4.1680   -2.5750 C   0  0  0  0  0  0  0  0  0  0  0  0
    0.9884    4.6700   -3.0364 O   0  0  0  0  0  0  0  0  0  0  0  0
    2.2644    2.9362   -2.5966 O   0  0  0  0  0  0  0  0  0  0  0  0
    0.0553    2.9046    0.0687 C   0  0  0  0  0  0  0  0  0  0  0  0
    0.8850    3.2069   -0.3958 H   0  0  0  0  0  0  0  0  0  0  0  0
    0.0916    3.1669    1.0308 H   0  0  0  0  0  0  0  0  0  0  0  0
   -0.7831    3.4354   -0.3823 H   0  0  0  0  0  0  0  0  0  0  0  0
   -0.0007    1.4111   -0.0037 C   0  0  0  0  0  0  0  0  0  0  0  0
   -1.2110    0.6927   -0.0044 C   0  0  0  0  0  0  0  0  0  0  0  0
   -2.0722    1.1660   -0.0098 H   0  0  0  0  0  0  0  0  0  0  0  0
   -1.1899   -0.7194    0.0000 C   0  0  0  0  0  0  0  0  0  0  0  0
   -2.0611   -1.2164    0.0109 H   0  0  0  0  0  0  0  0  0  0  0  0
    0.0189   -1.3902   -0.0092 C   0  0  0  0  0  0  0  0  0  0  0  0
    0.0250   -2.3950   -0.0232 H   0  0  0  0  0  0  0  0  0  0  0  0
    1.1899   -0.6857   -0.0000 C   0  0  0  0  0  0  0  0  0  0  0  0
    2.0885   -1.1829   -0.0045 H   0  0  0  0  0  0  0  0  0  0  0  0
    1.1928    0.6915    0.0174 C   0  0  0  0  0  0  0  0  0  0  0  0
    2.0627    1.1904    0.0448 H   0  0  0  0  0  0  0  0  0  0  0  0
  1  5  1  0
  5  6  2  0
  5  7  1  0
  1  2  1  0
  1  3  1  0
  1  4  1  0
  8 12  1  0
 12 13  2  0
 13 15  1  0
 15 17  2  0
 17 19  1  0
 19 21  2  0
 21 12  1  0
  8  9  1  0
  8 10  1  0
  8 11  1  0
 13 14  1  0
 15 16  1  0
 17 18  1  0
 19 20  1  0
 21 22  1  0
M  CHG  1   7  -1
V    7 [O&-]
M  END
>  <PDB_ID>  (3018) 
pdb3pea

>  <RESIDUE_NAME>  (3018) 
GLU   PHE

>  <FRAG_NAME>  (3018) 
ACET   MBZ

>  <FRAG_ATOM_NUM>  (3018) 
fragi: 7 fragj: 15

>  <atom.prop.CHAIN_ID>  (3018) 
A A A A A A A Z Z Z Z Z Z Z Z Z Z Z Z Z Z Z

>  <atom.prop.IS_HEAVY_ATOM>  (3018) 
1 0 0 0 1 1 1 1 0 0 0 1 1 0 1 0 1 0 1 0 1 0

>  <DIFUSE_FUNC_ATOM>  (3018) 
n/a

>  <FINAL_SINGLE_POINT_ENERGY>  (3018) 
0

>  <NONCOV_INTER_ENERGY_QM>  (3018) 
0

>  <FF_Energy>  (3018) 
0.04

>  <QM_Energy>  (3018) 
-5.18

>  <source>  (3018) 
ACET_MBZ_03

>  <Index>  (3018) 
17410

$$$$
ACEH-pdb3pea-D-GLH-112:MBZ-pdb3pea-D-PHE-141
     RDKit          3D

 22 21  0  0  0  0  0  0  0  0999 V2000
    2.9490    5.0159   -2.0651 C   0  0  0  0  0  0  0  0  0  0  0  0
    2.5855    5.9414   -2.1085 H   0  0  0  0  0  0  0  0  0  0  0  0
    3.7450    4.9309   -2.6563 H   0  0  0  0  0  0  0  0  0  0  0  0
    3.2465    4.8023   -1.0384 H   0  0  0  0  0  0  0  0  0  0  0  0
    1.8763    4.0947   -2.6381 C   0  0  0  0  0  0  0  0  0  0  0  0
    0.7711    4.5744   -3.0602 O   0  0  0  0  0  0  0  0  0  0  0  0
    2.1487    2.8798   -2.6809 O   0  0  0  0  0  0  0  0  0  0  0  0
    0.0533    2.9403    0.0422 C   0  0  0  0  0  0  0  0  0  0  0  0
    0.8456    3.2299   -0.4752 H   0  0  0  0  0  0  0  0  0  0  0  0
    0.1347    3.2021    0.9940 H   0  0  0  0  0  0  0  0  0  0  0  0
   -0.8248    3.4345   -0.3735 H   0  0  0  0  0  0  0  0  0  0  0  0
    0.0114    1.4135   -0.0070 C   0  0  0  0  0  0  0  0  0  0  0  0
   -1.2000    0.6923    0.0022 C   0  0  0  0  0  0  0  0  0  0  0  0
   -2.0612    1.1782    0.0087 H   0  0  0  0  0  0  0  0  0  0  0  0
   -1.1975   -0.7124   -0.0000 C   0  0  0  0  0  0  0  0  0  0  0  0
   -2.0763   -1.2030    0.0010 H   0  0  0  0  0  0  0  0  0  0  0  0
    0.0041   -1.4116   -0.0016 C   0  0  0  0  0  0  0  0  0  0  0  0
    0.0107   -2.4008   -0.0042 H   0  0  0  0  0  0  0  0  0  0  0  0
    1.1975   -0.6908    0.0000 C   0  0  0  0  0  0  0  0  0  0  0  0
    2.0874   -1.1775   -0.0016 H   0  0  0  0  0  0  0  0  0  0  0  0
    1.1845    0.7091    0.0064 C   0  0  0  0  0  0  0  0  0  0  0  0
    2.0663    1.1962    0.0204 H   0  0  0  0  0  0  0  0  0  0  0  0
  1  5  1  0
  5  6  2  0
  5  7  1  0
  1  2  1  0
  1  3  1  0
  1  4  1  0
  8 12  1  0
 12 13  2  0
 13 15  1  0
 15 17  2  0
 17 19  1  0
 19 21  2  0
 21 12  1  0
  8  9  1  0
  8 10  1  0
  8 11  1  0
 13 14  1  0
 15 16  1  0
 17 18  1  0
 19 20  1  0
 21 22  1  0
M  CHG  1   7  -1
V    7 [O&-]
M  END
>  <PDB_ID>  (3019) 
pdb3pea

>  <RESIDUE_NAME>  (3019) 
GLU   PHE

>  <FRAG_NAME>  (3019) 
ACET   MBZ

>  <FRAG_ATOM_NUM>  (3019) 
fragi: 7 fragj: 15

>  <atom.prop.CHAIN_ID>  (3019) 
A A A A A A A Z Z Z Z Z Z Z Z Z Z Z Z Z Z Z

>  <atom.prop.IS_HEAVY_ATOM>  (3019) 
1 0 0 0 1 1 1 1 0 0 0 1 1 0 1 0 1 0 1 0 1 0

>  <DIFUSE_FUNC_ATOM>  (3019) 
n/a

>  <FINAL_SINGLE_POINT_ENERGY>  (3019) 
0

>  <NONCOV_INTER_ENERGY_QM>  (3019) 
0

>  <FF_Energy>  (3019) 
0.55

>  <QM_Energy>  (3019) 
-4.98

>  <source>  (3019) 
ACET_MBZ_03

>  <Index>  (3019) 
17411

$$$$
ACEH-pdb3pf8-A-GLH-80:MBZ-pdb3pf8-A-PHE-62
     RDKit          3D

 22 21  0  0  0  0  0  0  0  0999 V2000
   -0.6271    1.3356    3.6088 C   0  0  0  0  0  0  0  0  0  0  0  0
   -1.1081    1.9163    2.9490 H   0  0  0  0  0  0  0  0  0  0  0  0
   -0.7166    1.7334    4.5240 H   0  0  0  0  0  0  0  0  0  0  0  0
   -1.1158    0.3613    3.6163 H   0  0  0  0  0  0  0  0  0  0  0  0
    0.8422    1.3667    3.2477 C   0  0  0  0  0  0  0  0  0  0  0  0
    1.5069    0.3045    3.2648 O   0  0  0  0  0  0  0  0  0  0  0  0
    1.3156    2.4650    2.8821 O   0  0  0  0  0  0  0  0  0  0  0  0
    0.0011    2.9231    0.0246 C   0  0  0  0  0  0  0  0  0  0  0  0
    0.9446    3.2290   -0.0593 H   0  0  0  0  0  0  0  0  0  0  0  0
   -0.3763    3.2083    0.9001 H   0  0  0  0  0  0  0  0  0  0  0  0
   -0.5741    3.4203   -0.7565 H   0  0  0  0  0  0  0  0  0  0  0  0
   -0.0002    1.4092   -0.0096 C   0  0  0  0  0  0  0  0  0  0  0  0
   -1.1960    0.6936    0.0014 C   0  0  0  0  0  0  0  0  0  0  0  0
   -2.0645    1.1781    0.0092 H   0  0  0  0  0  0  0  0  0  0  0  0
   -1.1968   -0.7043   -0.0000 C   0  0  0  0  0  0  0  0  0  0  0  0
   -2.0747   -1.1946   -0.0003 H   0  0  0  0  0  0  0  0  0  0  0  0
    0.0015   -1.3933    0.0014 C   0  0  0  0  0  0  0  0  0  0  0  0
   -0.0018   -2.3961    0.0026 H   0  0  0  0  0  0  0  0  0  0  0  0
    1.1968   -0.7024   -0.0000 C   0  0  0  0  0  0  0  0  0  0  0  0
    2.0810   -1.1947   -0.0043 H   0  0  0  0  0  0  0  0  0  0  0  0
    1.1947    0.6972    0.0068 C   0  0  0  0  0  0  0  0  0  0  0  0
    2.0650    1.1877    0.0229 H   0  0  0  0  0  0  0  0  0  0  0  0
  1  5  1  0
  5  6  2  0
  5  7  1  0
  1  2  1  0
  1  3  1  0
  1  4  1  0
  8 12  1  0
 12 13  2  0
 13 15  1  0
 15 17  2  0
 17 19  1  0
 19 21  2  0
 21 12  1  0
  8  9  1  0
  8 10  1  0
  8 11  1  0
 13 14  1  0
 15 16  1  0
 17 18  1  0
 19 20  1  0
 21 22  1  0
M  CHG  1   7  -1
V    7 [O&-]
M  END
>  <PDB_ID>  (3020) 
pdb3pf8

>  <RESIDUE_NAME>  (3020) 
GLU   PHE

>  <FRAG_NAME>  (3020) 
ACET   MBZ

>  <FRAG_ATOM_NUM>  (3020) 
fragi: 7 fragj: 15

>  <atom.prop.CHAIN_ID>  (3020) 
A A A A A A A Z Z Z Z Z Z Z Z Z Z Z Z Z Z Z

>  <atom.prop.IS_HEAVY_ATOM>  (3020) 
1 0 0 0 1 1 1 1 0 0 0 1 1 0 1 0 1 0 1 0 1 0

>  <DIFUSE_FUNC_ATOM>  (3020) 
n/a

>  <FINAL_SINGLE_POINT_ENERGY>  (3020) 
0

>  <NONCOV_INTER_ENERGY_QM>  (3020) 
0

>  <FF_Energy>  (3020) 
2.04

>  <QM_Energy>  (3020) 
-4.43

>  <source>  (3020) 
ACET_MBZ_03

>  <Index>  (3020) 
17415

$$$$
ACEH-pdb3pf8-B-GLH-80:MBZ-pdb3pf8-B-PHE-62
     RDKit          3D

 22 21  0  0  0  0  0  0  0  0999 V2000
   -1.4387    1.7307    3.3922 C   0  0  0  0  0  0  0  0  0  0  0  0
   -1.7155    2.1028    2.5297 H   0  0  0  0  0  0  0  0  0  0  0  0
   -1.6427    2.3213    4.1466 H   0  0  0  0  0  0  0  0  0  0  0  0
   -1.9495    0.7796    3.5426 H   0  0  0  0  0  0  0  0  0  0  0  0
    0.0550    1.5416    3.3509 C   0  0  0  0  0  0  0  0  0  0  0  0
    0.5041    0.3839    3.1728 O   0  0  0  0  0  0  0  0  0  0  0  0
    0.7724    2.5655    3.3978 O   0  0  0  0  0  0  0  0  0  0  0  0
    0.0005    2.9158    0.0142 C   0  0  0  0  0  0  0  0  0  0  0  0
    0.9378    3.2195    0.1056 H   0  0  0  0  0  0  0  0  0  0  0  0
   -0.5473    3.2129    0.7841 H   0  0  0  0  0  0  0  0  0  0  0  0
   -0.4105    3.3823   -0.8811 H   0  0  0  0  0  0  0  0  0  0  0  0
   -0.0008    1.4053   -0.0043 C   0  0  0  0  0  0  0  0  0  0  0  0
   -1.1959    0.6925   -0.0005 C   0  0  0  0  0  0  0  0  0  0  0  0
   -2.0636    1.1772    0.0004 H   0  0  0  0  0  0  0  0  0  0  0  0
   -1.1924   -0.7008    0.0000 C   0  0  0  0  0  0  0  0  0  0  0  0
   -2.0704   -1.1951    0.0015 H   0  0  0  0  0  0  0  0  0  0  0  0
    0.0051   -1.3885   -0.0002 C   0  0  0  0  0  0  0  0  0  0  0  0
   -0.0020   -2.3936   -0.0015 H   0  0  0  0  0  0  0  0  0  0  0  0
    1.1924   -0.7027    0.0000 C   0  0  0  0  0  0  0  0  0  0  0  0
    2.0796   -1.1939   -0.0020 H   0  0  0  0  0  0  0  0  0  0  0  0
    1.1916    0.6942    0.0050 C   0  0  0  0  0  0  0  0  0  0  0  0
    2.0630    1.1841    0.0146 H   0  0  0  0  0  0  0  0  0  0  0  0
  1  5  1  0
  5  6  2  0
  5  7  1  0
  1  2  1  0
  1  3  1  0
  1  4  1  0
  8 12  1  0
 12 13  2  0
 13 15  1  0
 15 17  2  0
 17 19  1  0
 19 21  2  0
 21 12  1  0
  8  9  1  0
  8 10  1  0
  8 11  1  0
 13 14  1  0
 15 16  1  0
 17 18  1  0
 19 20  1  0
 21 22  1  0
M  CHG  1   7  -1
V    7 [O&-]
M  END
>  <PDB_ID>  (3021) 
pdb3pf8

>  <RESIDUE_NAME>  (3021) 
GLU   PHE

>  <FRAG_NAME>  (3021) 
ACET   MBZ

>  <FRAG_ATOM_NUM>  (3021) 
fragi: 7 fragj: 15

>  <atom.prop.CHAIN_ID>  (3021) 
A A A A A A A Z Z Z Z Z Z Z Z Z Z Z Z Z Z Z

>  <atom.prop.IS_HEAVY_ATOM>  (3021) 
1 0 0 0 1 1 1 1 0 0 0 1 1 0 1 0 1 0 1 0 1 0

>  <DIFUSE_FUNC_ATOM>  (3021) 
n/a

>  <FINAL_SINGLE_POINT_ENERGY>  (3021) 
0

>  <NONCOV_INTER_ENERGY_QM>  (3021) 
0

>  <FF_Energy>  (3021) 
3.36

>  <QM_Energy>  (3021) 
-2.3

>  <source>  (3021) 
ACET_MBZ_03

>  <Index>  (3021) 
17416

$$$$
ACEH-pdb4rpn-D-ASH-105:MBZ-pdb4rpn-D-PHE-231
     RDKit          3D

 22 21  0  0  0  0  0  0  0  0999 V2000
    5.1501    5.0597   -0.3745 C   0  0  0  0  0  0  0  0  0  0  0  0
    5.4418    6.0103   -0.3303 H   0  0  0  0  0  0  0  0  0  0  0  0
    5.5389    4.6167   -1.1755 H   0  0  0  0  0  0  0  0  0  0  0  0
    5.5074    4.5442    0.5170 H   0  0  0  0  0  0  0  0  0  0  0  0
    3.6154    5.0415   -0.5190 C   0  0  0  0  0  0  0  0  0  0  0  0
    2.9634    4.0441   -0.1547 O   0  0  0  0  0  0  0  0  0  0  0  0
    3.0835    6.0485   -1.0199 O   0  0  0  0  0  0  0  0  0  0  0  0
   -0.0032    2.8944    0.0056 C   0  0  0  0  0  0  0  0  0  0  0  0
    0.8706    3.2033    0.3434 H   0  0  0  0  0  0  0  0  0  0  0  0
   -0.7460    3.2011    0.5781 H   0  0  0  0  0  0  0  0  0  0  0  0
   -0.1482    3.3199   -0.9873 H   0  0  0  0  0  0  0  0  0  0  0  0
   -0.0005    1.3948    0.0093 C   0  0  0  0  0  0  0  0  0  0  0  0
   -1.1986    0.6839   -0.0071 C   0  0  0  0  0  0  0  0  0  0  0  0
   -2.0632    1.1794   -0.0254 H   0  0  0  0  0  0  0  0  0  0  0  0
   -1.2023   -0.6963   -0.0000 C   0  0  0  0  0  0  0  0  0  0  0  0
   -2.0721   -1.1994    0.0062 H   0  0  0  0  0  0  0  0  0  0  0  0
    0.0098   -1.3912    0.0009 C   0  0  0  0  0  0  0  0  0  0  0  0
    0.0081   -2.3864    0.0014 H   0  0  0  0  0  0  0  0  0  0  0  0
    1.2023   -0.6839   -0.0000 C   0  0  0  0  0  0  0  0  0  0  0  0
    2.0884   -1.1819    0.0034 H   0  0  0  0  0  0  0  0  0  0  0  0
    1.1894    0.6927   -0.0032 C   0  0  0  0  0  0  0  0  0  0  0  0
    2.0590    1.1974   -0.0156 H   0  0  0  0  0  0  0  0  0  0  0  0
  1  5  1  0
  5  6  2  0
  5  7  1  0
  1  2  1  0
  1  3  1  0
  1  4  1  0
  8 12  1  0
 12 13  2  0
 13 15  1  0
 15 17  2  0
 17 19  1  0
 19 21  2  0
 21 12  1  0
  8  9  1  0
  8 10  1  0
  8 11  1  0
 13 14  1  0
 15 16  1  0
 17 18  1  0
 19 20  1  0
 21 22  1  0
M  CHG  1   7  -1
V    7 [O&-]
M  END
>  <PDB_ID>  (3022) 
pdb4rpn

>  <RESIDUE_NAME>  (3022) 
ASP   PHE

>  <FRAG_NAME>  (3022) 
ACET   MBZ

>  <FRAG_ATOM_NUM>  (3022) 
fragi: 7 fragj: 15

>  <atom.prop.CHAIN_ID>  (3022) 
A A A A A A A Z Z Z Z Z Z Z Z Z Z Z Z Z Z Z

>  <atom.prop.IS_HEAVY_ATOM>  (3022) 
1 0 0 0 1 1 1 1 0 0 0 1 1 0 1 0 1 0 1 0 1 0

>  <DIFUSE_FUNC_ATOM>  (3022) 
n/a

>  <FINAL_SINGLE_POINT_ENERGY>  (3022) 
0

>  <NONCOV_INTER_ENERGY_QM>  (3022) 
0

>  <FF_Energy>  (3022) 
-1.16

>  <QM_Energy>  (3022) 
-6.96

>  <source>  (3022) 
ACET_MBZ_03

>  <Index>  (3022) 
17429

$$$$
ACEH-pdb1rbl-E-ASH-302:MBZ-pdb1rbl-E-PHE-311
     RDKit          3D

 22 21  0  0  0  0  0  0  0  0999 V2000
   -3.3424    5.5214   -0.3759 C   0  0  0  0  0  0  0  0  0  0  0  0
   -2.4286    5.8264   -0.1278 H   0  0  0  0  0  0  0  0  0  0  0  0
   -3.7799    5.0778    0.3983 H   0  0  0  0  0  0  0  0  0  0  0  0
   -3.9298    6.4039   -0.6295 H   0  0  0  0  0  0  0  0  0  0  0  0
   -3.2303    4.5178   -1.5173 C   0  0  0  0  0  0  0  0  0  0  0  0
   -2.8798    3.3618   -1.2379 O   0  0  0  0  0  0  0  0  0  0  0  0
   -3.4327    4.8686   -2.6912 O   0  0  0  0  0  0  0  0  0  0  0  0
   -0.0087    2.8923    0.1651 C   0  0  0  0  0  0  0  0  0  0  0  0
   -0.6339    3.2676   -0.4984 H   0  0  0  0  0  0  0  0  0  0  0  0
    0.9119    3.2184    0.0278 H   0  0  0  0  0  0  0  0  0  0  0  0
   -0.3346    3.2180    1.1529 H   0  0  0  0  0  0  0  0  0  0  0  0
   -0.0012    1.3942    0.0031 C   0  0  0  0  0  0  0  0  0  0  0  0
   -1.1916    0.6829   -0.0019 C   0  0  0  0  0  0  0  0  0  0  0  0
   -2.0608    1.1766   -0.0080 H   0  0  0  0  0  0  0  0  0  0  0  0
   -1.1947   -0.6942   -0.0000 C   0  0  0  0  0  0  0  0  0  0  0  0
   -2.0709   -1.1935    0.0017 H   0  0  0  0  0  0  0  0  0  0  0  0
    0.0028   -1.3823    0.0012 C   0  0  0  0  0  0  0  0  0  0  0  0
   -0.0003   -2.3850    0.0023 H   0  0  0  0  0  0  0  0  0  0  0  0
    1.1947   -0.6901    0.0000 C   0  0  0  0  0  0  0  0  0  0  0  0
    2.0794   -1.1902    0.0025 H   0  0  0  0  0  0  0  0  0  0  0  0
    1.1900    0.6894   -0.0024 C   0  0  0  0  0  0  0  0  0  0  0  0
    2.0592    1.1899   -0.0089 H   0  0  0  0  0  0  0  0  0  0  0  0
  1  5  1  0
  5  6  2  0
  5  7  1  0
  1  2  1  0
  1  3  1  0
  1  4  1  0
  8 12  1  0
 12 13  2  0
 13 15  1  0
 15 17  2  0
 17 19  1  0
 19 21  2  0
 21 12  1  0
  8  9  1  0
  8 10  1  0
  8 11  1  0
 13 14  1  0
 15 16  1  0
 17 18  1  0
 19 20  1  0
 21 22  1  0
M  CHG  1   7  -1
V    7 [O&-]
M  END
>  <PDB_ID>  (3023) 
pdb1rbl

>  <RESIDUE_NAME>  (3023) 
ASP   PHE

>  <FRAG_NAME>  (3023) 
ACET   MBZ

>  <FRAG_ATOM_NUM>  (3023) 
fragi: 7 fragj: 15

>  <atom.prop.CHAIN_ID>  (3023) 
A A A A A A A Z Z Z Z Z Z Z Z Z Z Z Z Z Z Z

>  <atom.prop.IS_HEAVY_ATOM>  (3023) 
1 0 0 0 1 1 1 1 0 0 0 1 1 0 1 0 1 0 1 0 1 0

>  <DIFUSE_FUNC_ATOM>  (3023) 
n/a

>  <FINAL_SINGLE_POINT_ENERGY>  (3023) 
0

>  <NONCOV_INTER_ENERGY_QM>  (3023) 
0

>  <FF_Energy>  (3023) 
-1.03

>  <QM_Energy>  (3023) 
-7.11

>  <source>  (3023) 
ACET_MBZ_03

>  <Index>  (3023) 
17473

$$$$
ACEH-pdb1rbl-F-ASH-302:MBZ-pdb1rbl-F-PHE-311
     RDKit          3D

 22 21  0  0  0  0  0  0  0  0999 V2000
   -3.3405    5.5217   -0.3799 C   0  0  0  0  0  0  0  0  0  0  0  0
   -2.4270    5.8269   -0.1330 H   0  0  0  0  0  0  0  0  0  0  0  0
   -3.7785    5.0791    0.3943 H   0  0  0  0  0  0  0  0  0  0  0  0
   -3.9281    6.4036   -0.6350 H   0  0  0  0  0  0  0  0  0  0  0  0
   -3.2292    4.5170   -1.5210 C   0  0  0  0  0  0  0  0  0  0  0  0
   -2.8788    3.3617   -1.2407 O   0  0  0  0  0  0  0  0  0  0  0  0
   -3.4316    4.8673   -2.6948 O   0  0  0  0  0  0  0  0  0  0  0  0
   -0.0084    2.8921    0.1627 C   0  0  0  0  0  0  0  0  0  0  0  0
   -0.6334    3.2674   -0.5013 H   0  0  0  0  0  0  0  0  0  0  0  0
    0.9114    3.2187    0.0251 H   0  0  0  0  0  0  0  0  0  0  0  0
   -0.3343    3.2190    1.1502 H   0  0  0  0  0  0  0  0  0  0  0  0
   -0.0009    1.3942    0.0017 C   0  0  0  0  0  0  0  0  0  0  0  0
   -1.1917    0.6826   -0.0025 C   0  0  0  0  0  0  0  0  0  0  0  0
   -2.0604    1.1769   -0.0084 H   0  0  0  0  0  0  0  0  0  0  0  0
   -1.1943   -0.6933   -0.0000 C   0  0  0  0  0  0  0  0  0  0  0  0
   -2.0712   -1.1932    0.0001 H   0  0  0  0  0  0  0  0  0  0  0  0
    0.0020   -1.3828    0.0034 C   0  0  0  0  0  0  0  0  0  0  0  0
   -0.0013   -2.3849    0.0077 H   0  0  0  0  0  0  0  0  0  0  0  0
    1.1943   -0.6900    0.0000 C   0  0  0  0  0  0  0  0  0  0  0  0
    2.0788   -1.1907    0.0009 H   0  0  0  0  0  0  0  0  0  0  0  0
    1.1906    0.6892   -0.0026 C   0  0  0  0  0  0  0  0  0  0  0  0
    2.0598    1.1891   -0.0088 H   0  0  0  0  0  0  0  0  0  0  0  0
  1  5  1  0
  5  6  2  0
  5  7  1  0
  1  2  1  0
  1  3  1  0
  1  4  1  0
  8 12  1  0
 12 13  2  0
 13 15  1  0
 15 17  2  0
 17 19  1  0
 19 21  2  0
 21 12  1  0
  8  9  1  0
  8 10  1  0
  8 11  1  0
 13 14  1  0
 15 16  1  0
 17 18  1  0
 19 20  1  0
 21 22  1  0
M  CHG  1   7  -1
V    7 [O&-]
M  END
>  <PDB_ID>  (3024) 
pdb1rbl

>  <RESIDUE_NAME>  (3024) 
ASP   PHE

>  <FRAG_NAME>  (3024) 
ACET   MBZ

>  <FRAG_ATOM_NUM>  (3024) 
fragi: 7 fragj: 15

>  <atom.prop.CHAIN_ID>  (3024) 
A A A A A A A Z Z Z Z Z Z Z Z Z Z Z Z Z Z Z

>  <atom.prop.IS_HEAVY_ATOM>  (3024) 
1 0 0 0 1 1 1 1 0 0 0 1 1 0 1 0 1 0 1 0 1 0

>  <DIFUSE_FUNC_ATOM>  (3024) 
n/a

>  <FINAL_SINGLE_POINT_ENERGY>  (3024) 
0

>  <NONCOV_INTER_ENERGY_QM>  (3024) 
0

>  <FF_Energy>  (3024) 
-1.03

>  <QM_Energy>  (3024) 
-7.11

>  <source>  (3024) 
ACET_MBZ_03

>  <Index>  (3024) 
17474

$$$$
ACEH-pdb2zds-A-GLH-183:MBZ-pdb2zds-A-PHE-130
     RDKit          3D

 22 21  0  0  0  0  0  0  0  0999 V2000
   -2.6038    0.8884    3.3722 C   0  0  0  0  0  0  0  0  0  0  0  0
   -2.4964   -0.0909    3.5016 H   0  0  0  0  0  0  0  0  0  0  0  0
   -3.0732    1.0753    2.5160 H   0  0  0  0  0  0  0  0  0  0  0  0
   -3.2097    1.2781    4.1903 H   0  0  0  0  0  0  0  0  0  0  0  0
   -1.2205    1.4832    3.2657 C   0  0  0  0  0  0  0  0  0  0  0  0
   -1.0637    2.6966    3.1549 O   0  0  0  0  0  0  0  0  0  0  0  0
   -0.2554    0.7199    3.2695 O   0  0  0  0  0  0  0  0  0  0  0  0
    0.0013    2.9188    0.0782 C   0  0  0  0  0  0  0  0  0  0  0  0
    0.7538    3.2522   -0.4704 H   0  0  0  0  0  0  0  0  0  0  0  0
    0.1006    3.1870    1.0252 H   0  0  0  0  0  0  0  0  0  0  0  0
   -0.9085    3.3861   -0.2986 H   0  0  0  0  0  0  0  0  0  0  0  0
   -0.0019    1.4189    0.0108 C   0  0  0  0  0  0  0  0  0  0  0  0
   -1.2118    0.7055   -0.0026 C   0  0  0  0  0  0  0  0  0  0  0  0
   -2.0743    1.1902   -0.0154 H   0  0  0  0  0  0  0  0  0  0  0  0
   -1.2186   -0.7078   -0.0000 C   0  0  0  0  0  0  0  0  0  0  0  0
   -2.0880   -1.1973    0.0198 H   0  0  0  0  0  0  0  0  0  0  0  0
    0.0032   -1.4169   -0.0242 C   0  0  0  0  0  0  0  0  0  0  0  0
    0.0040   -2.4028   -0.0581 H   0  0  0  0  0  0  0  0  0  0  0  0
    1.2186   -0.6968   -0.0000 C   0  0  0  0  0  0  0  0  0  0  0  0
    2.0959   -1.1968    0.0074 H   0  0  0  0  0  0  0  0  0  0  0  0
    1.2106    0.6970    0.0160 C   0  0  0  0  0  0  0  0  0  0  0  0
    2.0729    1.1992    0.0306 H   0  0  0  0  0  0  0  0  0  0  0  0
  1  5  1  0
  5  6  2  0
  5  7  1  0
  1  2  1  0
  1  3  1  0
  1  4  1  0
  8 12  1  0
 12 13  2  0
 13 15  1  0
 15 17  2  0
 17 19  1  0
 19 21  2  0
 21 12  1  0
  8  9  1  0
  8 10  1  0
  8 11  1  0
 13 14  1  0
 15 16  1  0
 17 18  1  0
 19 20  1  0
 21 22  1  0
M  CHG  1   7  -1
V    7 [O&-]
M  END
>  <PDB_ID>  (3025) 
pdb2zds

>  <RESIDUE_NAME>  (3025) 
GLU   PHE

>  <FRAG_NAME>  (3025) 
ACET   MBZ

>  <FRAG_ATOM_NUM>  (3025) 
fragi: 7 fragj: 15

>  <atom.prop.CHAIN_ID>  (3025) 
A A A A A A A Z Z Z Z Z Z Z Z Z Z Z Z Z Z Z

>  <atom.prop.IS_HEAVY_ATOM>  (3025) 
1 0 0 0 1 1 1 1 0 0 0 1 1 0 1 0 1 0 1 0 1 0

>  <DIFUSE_FUNC_ATOM>  (3025) 
n/a

>  <FINAL_SINGLE_POINT_ENERGY>  (3025) 
0

>  <NONCOV_INTER_ENERGY_QM>  (3025) 
0

>  <FF_Energy>  (3025) 
3.15

>  <QM_Energy>  (3025) 
-3.87

>  <source>  (3025) 
ACET_MBZ_03

>  <Index>  (3025) 
17507

$$$$
ACEH-pdb2zds-B-GLH-32:MBZ-pdb2zds-B-PHE-7
     RDKit          3D

 22 21  0  0  0  0  0  0  0  0999 V2000
   -4.1496    2.0252   -2.0917 C   0  0  0  0  0  0  0  0  0  0  0  0
   -4.2745    1.2139   -1.5734 H   0  0  0  0  0  0  0  0  0  0  0  0
   -4.7893    2.1452   -2.8123 H   0  0  0  0  0  0  0  0  0  0  0  0
   -4.2054    2.8837   -1.4224 H   0  0  0  0  0  0  0  0  0  0  0  0
   -2.7556    1.9456   -2.7313 C   0  0  0  0  0  0  0  0  0  0  0  0
   -2.3316    0.8388   -3.1196 O   0  0  0  0  0  0  0  0  0  0  0  0
   -2.0255    2.9928   -2.7923 O   0  0  0  0  0  0  0  0  0  0  0  0
   -0.0065    2.9256    0.0085 C   0  0  0  0  0  0  0  0  0  0  0  0
   -0.3239    3.2232   -0.8807 H   0  0  0  0  0  0  0  0  0  0  0  0
    0.9223    3.2242    0.1747 H   0  0  0  0  0  0  0  0  0  0  0  0
   -0.6486    3.3738    0.7667 H   0  0  0  0  0  0  0  0  0  0  0  0
   -0.0050    1.4066    0.0080 C   0  0  0  0  0  0  0  0  0  0  0  0
   -1.1973    0.6891    0.0007 C   0  0  0  0  0  0  0  0  0  0  0  0
   -2.0670    1.1857   -0.0051 H   0  0  0  0  0  0  0  0  0  0  0  0
   -1.2048   -0.6882   -0.0000 C   0  0  0  0  0  0  0  0  0  0  0  0
   -2.0798   -1.1898    0.0186 H   0  0  0  0  0  0  0  0  0  0  0  0
    0.0031   -1.4028   -0.0252 C   0  0  0  0  0  0  0  0  0  0  0  0
   -0.0068   -2.3904   -0.0608 H   0  0  0  0  0  0  0  0  0  0  0  0
    1.2048   -0.6963   -0.0000 C   0  0  0  0  0  0  0  0  0  0  0  0
    2.0873   -1.1953    0.0078 H   0  0  0  0  0  0  0  0  0  0  0  0
    1.1993    0.6915    0.0166 C   0  0  0  0  0  0  0  0  0  0  0  0
    2.0640    1.1925    0.0342 H   0  0  0  0  0  0  0  0  0  0  0  0
  1  5  1  0
  5  6  2  0
  5  7  1  0
  1  2  1  0
  1  3  1  0
  1  4  1  0
  8 12  1  0
 12 13  2  0
 13 15  1  0
 15 17  2  0
 17 19  1  0
 19 21  2  0
 21 12  1  0
  8  9  1  0
  8 10  1  0
  8 11  1  0
 13 14  1  0
 15 16  1  0
 17 18  1  0
 19 20  1  0
 21 22  1  0
M  CHG  1   7  -1
V    7 [O&-]
M  END
>  <PDB_ID>  (3026) 
pdb2zds

>  <RESIDUE_NAME>  (3026) 
GLU   PHE

>  <FRAG_NAME>  (3026) 
ACET   MBZ

>  <FRAG_ATOM_NUM>  (3026) 
fragi: 7 fragj: 15

>  <atom.prop.CHAIN_ID>  (3026) 
A A A A A A A Z Z Z Z Z Z Z Z Z Z Z Z Z Z Z

>  <atom.prop.IS_HEAVY_ATOM>  (3026) 
1 0 0 0 1 1 1 1 0 0 0 1 1 0 1 0 1 0 1 0 1 0

>  <DIFUSE_FUNC_ATOM>  (3026) 
n/a

>  <FINAL_SINGLE_POINT_ENERGY>  (3026) 
0

>  <NONCOV_INTER_ENERGY_QM>  (3026) 
0

>  <FF_Energy>  (3026) 
0.88

>  <QM_Energy>  (3026) 
-4.77

>  <source>  (3026) 
ACET_MBZ_03

>  <Index>  (3026) 
17509

$$$$
ACEH-pdb2zds-C-GLH-32:MBZ-pdb2zds-C-PHE-7
     RDKit          3D

 22 21  0  0  0  0  0  0  0  0999 V2000
   -4.2069    2.1352   -1.8834 C   0  0  0  0  0  0  0  0  0  0  0  0
   -4.2394    1.3334   -1.3341 H   0  0  0  0  0  0  0  0  0  0  0  0
   -4.9142    2.1910   -2.5489 H   0  0  0  0  0  0  0  0  0  0  0  0
   -4.2656    3.0082   -1.2335 H   0  0  0  0  0  0  0  0  0  0  0  0
   -2.8588    2.0931   -2.6620 C   0  0  0  0  0  0  0  0  0  0  0  0
   -2.4717    0.9910   -3.1800 O   0  0  0  0  0  0  0  0  0  0  0  0
   -2.1620    3.1554   -2.7096 O   0  0  0  0  0  0  0  0  0  0  0  0
   -0.0028    2.9359    0.0020 C   0  0  0  0  0  0  0  0  0  0  0  0
   -0.3558    3.2287   -0.8692 H   0  0  0  0  0  0  0  0  0  0  0  0
    0.9267    3.2285    0.1426 H   0  0  0  0  0  0  0  0  0  0  0  0
   -0.6195    3.3783    0.7844 H   0  0  0  0  0  0  0  0  0  0  0  0
   -0.0089    1.4072    0.0091 C   0  0  0  0  0  0  0  0  0  0  0  0
   -1.2115    0.6984    0.0162 C   0  0  0  0  0  0  0  0  0  0  0  0
   -2.0741    1.1954    0.0319 H   0  0  0  0  0  0  0  0  0  0  0  0
   -1.2162   -0.6826    0.0000 C   0  0  0  0  0  0  0  0  0  0  0  0
   -2.0788   -1.1934   -0.0092 H   0  0  0  0  0  0  0  0  0  0  0  0
    0.0180   -1.4048   -0.0025 C   0  0  0  0  0  0  0  0  0  0  0  0
   -0.0060   -2.3935   -0.0070 H   0  0  0  0  0  0  0  0  0  0  0  0
    1.2162   -0.7041    0.0000 C   0  0  0  0  0  0  0  0  0  0  0  0
    2.0991   -1.1964    0.0193 H   0  0  0  0  0  0  0  0  0  0  0  0
    1.2025    0.6859   -0.0228 C   0  0  0  0  0  0  0  0  0  0  0  0
    2.0645    1.1921   -0.0627 H   0  0  0  0  0  0  0  0  0  0  0  0
  1  5  1  0
  5  6  2  0
  5  7  1  0
  1  2  1  0
  1  3  1  0
  1  4  1  0
  8 12  1  0
 12 13  2  0
 13 15  1  0
 15 17  2  0
 17 19  1  0
 19 21  2  0
 21 12  1  0
  8  9  1  0
  8 10  1  0
  8 11  1  0
 13 14  1  0
 15 16  1  0
 17 18  1  0
 19 20  1  0
 21 22  1  0
M  CHG  1   7  -1
V    7 [O&-]
M  END
>  <PDB_ID>  (3027) 
pdb2zds

>  <RESIDUE_NAME>  (3027) 
GLU   PHE

>  <FRAG_NAME>  (3027) 
ACET   MBZ

>  <FRAG_ATOM_NUM>  (3027) 
fragi: 7 fragj: 15

>  <atom.prop.CHAIN_ID>  (3027) 
A A A A A A A Z Z Z Z Z Z Z Z Z Z Z Z Z Z Z

>  <atom.prop.IS_HEAVY_ATOM>  (3027) 
1 0 0 0 1 1 1 1 0 0 0 1 1 0 1 0 1 0 1 0 1 0

>  <DIFUSE_FUNC_ATOM>  (3027) 
n/a

>  <FINAL_SINGLE_POINT_ENERGY>  (3027) 
0

>  <NONCOV_INTER_ENERGY_QM>  (3027) 
0

>  <FF_Energy>  (3027) 
0.39

>  <QM_Energy>  (3027) 
-4.83

>  <source>  (3027) 
ACET_MBZ_03

>  <Index>  (3027) 
17513

$$$$
ACEH-pdb2zds-E-GLH-183:MBZ-pdb2zds-E-PHE-130
     RDKit          3D

 22 21  0  0  0  0  0  0  0  0999 V2000
   -2.3630    0.8817    3.5077 C   0  0  0  0  0  0  0  0  0  0  0  0
   -2.1249    0.0294    3.9081 H   0  0  0  0  0  0  0  0  0  0  0  0
   -2.8729    0.8080    2.6841 H   0  0  0  0  0  0  0  0  0  0  0  0
   -2.9870    1.4113    4.2275 H   0  0  0  0  0  0  0  0  0  0  0  0
   -1.0945    1.6522    3.2209 C   0  0  0  0  0  0  0  0  0  0  0  0
   -1.1797    2.8757    2.9677 O   0  0  0  0  0  0  0  0  0  0  0  0
   -0.0110    1.0418    3.2839 O   0  0  0  0  0  0  0  0  0  0  0  0
    0.0064    2.9160    0.0451 C   0  0  0  0  0  0  0  0  0  0  0  0
    0.7543    3.2393   -0.5133 H   0  0  0  0  0  0  0  0  0  0  0  0
    0.1042    3.2040    0.9852 H   0  0  0  0  0  0  0  0  0  0  0  0
   -0.9050    3.3735   -0.3398 H   0  0  0  0  0  0  0  0  0  0  0  0
    0.0016    1.4139    0.0080 C   0  0  0  0  0  0  0  0  0  0  0  0
   -1.2105    0.6902   -0.0015 C   0  0  0  0  0  0  0  0  0  0  0  0
   -2.0724    1.1775   -0.0109 H   0  0  0  0  0  0  0  0  0  0  0  0
   -1.2084   -0.7124    0.0000 C   0  0  0  0  0  0  0  0  0  0  0  0
   -2.0782   -1.2086    0.0063 H   0  0  0  0  0  0  0  0  0  0  0  0
    0.0083   -1.4084   -0.0049 C   0  0  0  0  0  0  0  0  0  0  0  0
    0.0140   -2.3985   -0.0118 H   0  0  0  0  0  0  0  0  0  0  0  0
    1.2084   -0.6877   -0.0000 C   0  0  0  0  0  0  0  0  0  0  0  0
    2.0946   -1.1831    0.0060 H   0  0  0  0  0  0  0  0  0  0  0  0
    1.2006    0.7043   -0.0016 C   0  0  0  0  0  0  0  0  0  0  0  0
    2.0682    1.2024   -0.0108 H   0  0  0  0  0  0  0  0  0  0  0  0
  1  5  1  0
  5  6  2  0
  5  7  1  0
  1  2  1  0
  1  3  1  0
  1  4  1  0
  8 12  1  0
 12 13  2  0
 13 15  1  0
 15 17  2  0
 17 19  1  0
 19 21  2  0
 21 12  1  0
  8  9  1  0
  8 10  1  0
  8 11  1  0
 13 14  1  0
 15 16  1  0
 17 18  1  0
 19 20  1  0
 21 22  1  0
M  CHG  1   7  -1
V    7 [O&-]
M  END
>  <PDB_ID>  (3028) 
pdb2zds

>  <RESIDUE_NAME>  (3028) 
GLU   PHE

>  <FRAG_NAME>  (3028) 
ACET   MBZ

>  <FRAG_ATOM_NUM>  (3028) 
fragi: 7 fragj: 15

>  <atom.prop.CHAIN_ID>  (3028) 
A A A A A A A Z Z Z Z Z Z Z Z Z Z Z Z Z Z Z

>  <atom.prop.IS_HEAVY_ATOM>  (3028) 
1 0 0 0 1 1 1 1 0 0 0 1 1 0 1 0 1 0 1 0 1 0

>  <DIFUSE_FUNC_ATOM>  (3028) 
n/a

>  <FINAL_SINGLE_POINT_ENERGY>  (3028) 
0

>  <NONCOV_INTER_ENERGY_QM>  (3028) 
0

>  <FF_Energy>  (3028) 
3.22

>  <QM_Energy>  (3028) 
-4.6

>  <source>  (3028) 
ACET_MBZ_03

>  <Index>  (3028) 
17519

$$$$
ACEH-pdb2zds-F-GLH-183:MBZ-pdb2zds-F-PHE-130
     RDKit          3D

 22 21  0  0  0  0  0  0  0  0999 V2000
   -2.6396    0.8683    3.4059 C   0  0  0  0  0  0  0  0  0  0  0  0
   -2.4377    0.0336    3.8697 H   0  0  0  0  0  0  0  0  0  0  0  0
   -3.0814    0.7370    2.5449 H   0  0  0  0  0  0  0  0  0  0  0  0
   -3.3178    1.4394    4.0399 H   0  0  0  0  0  0  0  0  0  0  0  0
   -1.3613    1.6100    3.1782 C   0  0  0  0  0  0  0  0  0  0  0  0
   -1.3746    2.8442    2.9113 O   0  0  0  0  0  0  0  0  0  0  0  0
   -0.3236    0.9750    3.3122 O   0  0  0  0  0  0  0  0  0  0  0  0
    0.0205    2.9320    0.0746 C   0  0  0  0  0  0  0  0  0  0  0  0
    0.8417    3.2377   -0.3856 H   0  0  0  0  0  0  0  0  0  0  0  0
    0.0307    3.1889    1.0300 H   0  0  0  0  0  0  0  0  0  0  0  0
   -0.8317    3.4215   -0.3967 H   0  0  0  0  0  0  0  0  0  0  0  0
    0.0031    1.4031    0.0125 C   0  0  0  0  0  0  0  0  0  0  0  0
   -1.2270    0.6818   -0.0217 C   0  0  0  0  0  0  0  0  0  0  0  0
   -2.0756    1.1988   -0.0633 H   0  0  0  0  0  0  0  0  0  0  0  0
   -1.2444   -0.6903    0.0000 C   0  0  0  0  0  0  0  0  0  0  0  0
   -2.1023   -1.2003    0.0200 H   0  0  0  0  0  0  0  0  0  0  0  0
   -0.0062   -1.4059   -0.0039 C   0  0  0  0  0  0  0  0  0  0  0  0
    0.0008   -2.3867   -0.0095 H   0  0  0  0  0  0  0  0  0  0  0  0
    1.2444   -0.6760    0.0000 C   0  0  0  0  0  0  0  0  0  0  0  0
    2.1022   -1.2007   -0.0055 H   0  0  0  0  0  0  0  0  0  0  0  0
    1.2301    0.6873    0.0131 C   0  0  0  0  0  0  0  0  0  0  0  0
    2.0816    1.2131    0.0230 H   0  0  0  0  0  0  0  0  0  0  0  0
  1  5  1  0
  5  6  2  0
  5  7  1  0
  1  2  1  0
  1  3  1  0
  1  4  1  0
  8 12  1  0
 12 13  2  0
 13 15  1  0
 15 17  2  0
 17 19  1  0
 19 21  2  0
 21 12  1  0
  8  9  1  0
  8 10  1  0
  8 11  1  0
 13 14  1  0
 15 16  1  0
 17 18  1  0
 19 20  1  0
 21 22  1  0
M  CHG  1   7  -1
V    7 [O&-]
M  END
>  <PDB_ID>  (3029) 
pdb2zds

>  <RESIDUE_NAME>  (3029) 
GLU   PHE

>  <FRAG_NAME>  (3029) 
ACET   MBZ

>  <FRAG_ATOM_NUM>  (3029) 
fragi: 7 fragj: 15

>  <atom.prop.CHAIN_ID>  (3029) 
A A A A A A A Z Z Z Z Z Z Z Z Z Z Z Z Z Z Z

>  <atom.prop.IS_HEAVY_ATOM>  (3029) 
1 0 0 0 1 1 1 1 0 0 0 1 1 0 1 0 1 0 1 0 1 0

>  <DIFUSE_FUNC_ATOM>  (3029) 
n/a

>  <FINAL_SINGLE_POINT_ENERGY>  (3029) 
0

>  <NONCOV_INTER_ENERGY_QM>  (3029) 
0

>  <FF_Energy>  (3029) 
3.12

>  <QM_Energy>  (3029) 
-4.66

>  <source>  (3029) 
ACET_MBZ_03

>  <Index>  (3029) 
17524

$$$$
ACEH-pdb3pqa-D-GLH-241:MBZ-pdb3pqa-D-PHE-434
     RDKit          3D

 22 21  0  0  0  0  0  0  0  0999 V2000
    4.2529   -1.8965    1.9621 C   0  0  0  0  0  0  0  0  0  0  0  0
    4.1786   -2.8183    1.6300 H   0  0  0  0  0  0  0  0  0  0  0  0
    3.4429   -1.6010    2.4323 H   0  0  0  0  0  0  0  0  0  0  0  0
    5.0952   -1.8436    2.6520 H   0  0  0  0  0  0  0  0  0  0  0  0
    4.4358   -0.9924    0.7599 C   0  0  0  0  0  0  0  0  0  0  0  0
    4.6242   -1.5162   -0.3589 O   0  0  0  0  0  0  0  0  0  0  0  0
    4.3842    0.2439    0.9345 O   0  0  0  0  0  0  0  0  0  0  0  0
    0.0007    2.9091    0.0241 C   0  0  0  0  0  0  0  0  0  0  0  0
   -0.6322    3.2222   -0.6636 H   0  0  0  0  0  0  0  0  0  0  0  0
    0.9199    3.2174   -0.1562 H   0  0  0  0  0  0  0  0  0  0  0  0
   -0.3107    3.3271    0.9814 H   0  0  0  0  0  0  0  0  0  0  0  0
    0.0022    1.4024    0.0047 C   0  0  0  0  0  0  0  0  0  0  0  0
   -1.1940    0.7006   -0.0002 C   0  0  0  0  0  0  0  0  0  0  0  0
   -2.0611    1.1854   -0.0052 H   0  0  0  0  0  0  0  0  0  0  0  0
   -1.1986   -0.7001   -0.0000 C   0  0  0  0  0  0  0  0  0  0  0  0
   -2.0800   -1.1852    0.0068 H   0  0  0  0  0  0  0  0  0  0  0  0
   -0.0065   -1.3932   -0.0073 C   0  0  0  0  0  0  0  0  0  0  0  0
   -0.0070   -2.3939   -0.0186 H   0  0  0  0  0  0  0  0  0  0  0  0
    1.1986   -0.6998   -0.0000 C   0  0  0  0  0  0  0  0  0  0  0  0
    2.0776   -1.2007    0.0051 H   0  0  0  0  0  0  0  0  0  0  0  0
    1.1983    0.6901    0.0029 C   0  0  0  0  0  0  0  0  0  0  0  0
    2.0672    1.1849    0.0029 H   0  0  0  0  0  0  0  0  0  0  0  0
  1  5  1  0
  5  6  2  0
  5  7  1  0
  1  2  1  0
  1  3  1  0
  1  4  1  0
  8 12  1  0
 12 13  2  0
 13 15  1  0
 15 17  2  0
 17 19  1  0
 19 21  2  0
 21 12  1  0
  8  9  1  0
  8 10  1  0
  8 11  1  0
 13 14  1  0
 15 16  1  0
 17 18  1  0
 19 20  1  0
 21 22  1  0
M  CHG  1   7  -1
V    7 [O&-]
M  END
>  <PDB_ID>  (3030) 
pdb3pqa

>  <RESIDUE_NAME>  (3030) 
GLU   PHE

>  <FRAG_NAME>  (3030) 
ACET   MBZ

>  <FRAG_ATOM_NUM>  (3030) 
fragi: 7 fragj: 15

>  <atom.prop.CHAIN_ID>  (3030) 
A A A A A A A Z Z Z Z Z Z Z Z Z Z Z Z Z Z Z

>  <atom.prop.IS_HEAVY_ATOM>  (3030) 
1 0 0 0 1 1 1 1 0 0 0 1 1 0 1 0 1 0 1 0 1 0

>  <DIFUSE_FUNC_ATOM>  (3030) 
n/a

>  <FINAL_SINGLE_POINT_ENERGY>  (3030) 
0

>  <NONCOV_INTER_ENERGY_QM>  (3030) 
0

>  <FF_Energy>  (3030) 
-1.93

>  <QM_Energy>  (3030) 
-6.97

>  <source>  (3030) 
ACET_MBZ_03

>  <Index>  (3030) 
17550

$$$$
ACEH-pdb3ps4-A-ASH-1018:MBZ-pdb3ps4-A-PHE-1054
     RDKit          3D

 22 21  0  0  0  0  0  0  0  0999 V2000
   -1.7951    5.2874    3.6409 C   0  0  0  0  0  0  0  0  0  0  0  0
   -1.2238    5.2432    4.4689 H   0  0  0  0  0  0  0  0  0  0  0  0
   -2.5741    5.8971    3.8260 H   0  0  0  0  0  0  0  0  0  0  0  0
   -1.1967    5.7541    2.8584 H   0  0  0  0  0  0  0  0  0  0  0  0
   -2.3303    3.8904    3.3462 C   0  0  0  0  0  0  0  0  0  0  0  0
   -2.3203    3.4869    2.1718 O   0  0  0  0  0  0  0  0  0  0  0  0
   -2.7676    3.2080    4.3035 O   0  0  0  0  0  0  0  0  0  0  0  0
    0.0030    2.9210    0.0060 C   0  0  0  0  0  0  0  0  0  0  0  0
    0.9488    3.2250   -0.0137 H   0  0  0  0  0  0  0  0  0  0  0  0
   -0.4400    3.2168    0.8454 H   0  0  0  0  0  0  0  0  0  0  0  0
   -0.5134    3.4033   -0.8239 H   0  0  0  0  0  0  0  0  0  0  0  0
    0.0014    1.4070   -0.0104 C   0  0  0  0  0  0  0  0  0  0  0  0
   -1.1950    0.6918    0.0099 C   0  0  0  0  0  0  0  0  0  0  0  0
   -2.0626    1.1770    0.0310 H   0  0  0  0  0  0  0  0  0  0  0  0
   -1.1942   -0.7038   -0.0000 C   0  0  0  0  0  0  0  0  0  0  0  0
   -2.0736   -1.1945   -0.0084 H   0  0  0  0  0  0  0  0  0  0  0  0
   -0.0007   -1.3905    0.0040 C   0  0  0  0  0  0  0  0  0  0  0  0
   -0.0026   -2.3949    0.0088 H   0  0  0  0  0  0  0  0  0  0  0  0
    1.1942   -0.7011    0.0000 C   0  0  0  0  0  0  0  0  0  0  0  0
    2.0788   -1.1952    0.0008 H   0  0  0  0  0  0  0  0  0  0  0  0
    1.1943    0.6966   -0.0034 C   0  0  0  0  0  0  0  0  0  0  0  0
    2.0649    1.1862   -0.0016 H   0  0  0  0  0  0  0  0  0  0  0  0
  1  5  1  0
  5  6  2  0
  5  7  1  0
  1  2  1  0
  1  3  1  0
  1  4  1  0
  8 12  1  0
 12 13  2  0
 13 15  1  0
 15 17  2  0
 17 19  1  0
 19 21  2  0
 21 12  1  0
  8  9  1  0
  8 10  1  0
  8 11  1  0
 13 14  1  0
 15 16  1  0
 17 18  1  0
 19 20  1  0
 21 22  1  0
M  CHG  1   7  -1
V    7 [O&-]
M  END
>  <PDB_ID>  (3031) 
pdb3ps4

>  <RESIDUE_NAME>  (3031) 
ASP   PHE

>  <FRAG_NAME>  (3031) 
ACET   MBZ

>  <FRAG_ATOM_NUM>  (3031) 
fragi: 7 fragj: 15

>  <atom.prop.CHAIN_ID>  (3031) 
A A A A A A A Z Z Z Z Z Z Z Z Z Z Z Z Z Z Z

>  <atom.prop.IS_HEAVY_ATOM>  (3031) 
1 0 0 0 1 1 1 1 0 0 0 1 1 0 1 0 1 0 1 0 1 0

>  <DIFUSE_FUNC_ATOM>  (3031) 
n/a

>  <FINAL_SINGLE_POINT_ENERGY>  (3031) 
0

>  <NONCOV_INTER_ENERGY_QM>  (3031) 
0

>  <FF_Energy>  (3031) 
0.1

>  <QM_Energy>  (3031) 
-5.69

>  <source>  (3031) 
ACET_MBZ_03

>  <Index>  (3031) 
17559

$$$$
ACEH-pdb4tqg-A-GLH-265:MBZ-pdb4tqg-A-PHE-204
     RDKit          3D

 22 21  0  0  0  0  0  0  0  0999 V2000
   -4.7700    2.0671    2.4368 C   0  0  0  0  0  0  0  0  0  0  0  0
   -5.7111    2.0807    2.1593 H   0  0  0  0  0  0  0  0  0  0  0  0
   -4.6578    2.2269    3.3984 H   0  0  0  0  0  0  0  0  0  0  0  0
   -4.3583    1.0857    2.2012 H   0  0  0  0  0  0  0  0  0  0  0  0
   -4.0604    3.2183    1.6986 C   0  0  0  0  0  0  0  0  0  0  0  0
   -3.0925    2.9516    0.9669 O   0  0  0  0  0  0  0  0  0  0  0  0
   -4.4729    4.3899    1.8418 O   0  0  0  0  0  0  0  0  0  0  0  0
    0.0026    2.8757    0.0088 C   0  0  0  0  0  0  0  0  0  0  0  0
   -0.9209    3.1886   -0.1677 H   0  0  0  0  0  0  0  0  0  0  0  0
    0.6233    3.1899   -0.6964 H   0  0  0  0  0  0  0  0  0  0  0  0
    0.3260    3.3127    0.9535 H   0  0  0  0  0  0  0  0  0  0  0  0
    0.0015    1.3875    0.0019 C   0  0  0  0  0  0  0  0  0  0  0  0
   -1.1941    0.6861   -0.0010 C   0  0  0  0  0  0  0  0  0  0  0  0
   -2.0584    1.1839   -0.0053 H   0  0  0  0  0  0  0  0  0  0  0  0
   -1.1992   -0.6875   -0.0000 C   0  0  0  0  0  0  0  0  0  0  0  0
   -2.0766   -1.1864    0.0067 H   0  0  0  0  0  0  0  0  0  0  0  0
   -0.0042   -1.3770   -0.0058 C   0  0  0  0  0  0  0  0  0  0  0  0
   -0.0084   -2.3815   -0.0151 H   0  0  0  0  0  0  0  0  0  0  0  0
    1.1992   -0.6921   -0.0000 C   0  0  0  0  0  0  0  0  0  0  0  0
    2.0761   -1.1993    0.0018 H   0  0  0  0  0  0  0  0  0  0  0  0
    1.1967    0.6830    0.0048 C   0  0  0  0  0  0  0  0  0  0  0  0
    2.0632    1.1863    0.0101 H   0  0  0  0  0  0  0  0  0  0  0  0
  1  5  1  0
  5  6  2  0
  5  7  1  0
  1  2  1  0
  1  3  1  0
  1  4  1  0
  8 12  1  0
 12 13  2  0
 13 15  1  0
 15 17  2  0
 17 19  1  0
 19 21  2  0
 21 12  1  0
  8  9  1  0
  8 10  1  0
  8 11  1  0
 13 14  1  0
 15 16  1  0
 17 18  1  0
 19 20  1  0
 21 22  1  0
M  CHG  1   7  -1
V    7 [O&-]
M  END
>  <PDB_ID>  (3032) 
pdb4tqg

>  <RESIDUE_NAME>  (3032) 
GLU   PHE

>  <FRAG_NAME>  (3032) 
ACET   MBZ

>  <FRAG_ATOM_NUM>  (3032) 
fragi: 7 fragj: 15

>  <atom.prop.CHAIN_ID>  (3032) 
A A A A A A A Z Z Z Z Z Z Z Z Z Z Z Z Z Z Z

>  <atom.prop.IS_HEAVY_ATOM>  (3032) 
1 0 0 0 1 1 1 1 0 0 0 1 1 0 1 0 1 0 1 0 1 0

>  <DIFUSE_FUNC_ATOM>  (3032) 
n/a

>  <FINAL_SINGLE_POINT_ENERGY>  (3032) 
0

>  <NONCOV_INTER_ENERGY_QM>  (3032) 
0

>  <FF_Energy>  (3032) 
-0.53

>  <QM_Energy>  (3032) 
-7.7

>  <source>  (3032) 
ACET_MBZ_03

>  <Index>  (3032) 
17632

$$$$
ACEH-pdb2zuk-A-GLH-239:MBZ-pdb2zuk-A-PHE-253
     RDKit          3D

 22 21  0  0  0  0  0  0  0  0999 V2000
    5.8685    3.2132    0.8906 C   0  0  0  0  0  0  0  0  0  0  0  0
    5.7657    4.1846    0.7695 H   0  0  0  0  0  0  0  0  0  0  0  0
    5.9851    2.7445    0.0327 H   0  0  0  0  0  0  0  0  0  0  0  0
    6.7451    3.0299    1.5121 H   0  0  0  0  0  0  0  0  0  0  0  0
    4.5652    2.6972    1.5111 C   0  0  0  0  0  0  0  0  0  0  0  0
    4.5544    2.3812    2.7258 O   0  0  0  0  0  0  0  0  0  0  0  0
    3.5457    2.6114    0.7734 O   0  0  0  0  0  0  0  0  0  0  0  0
    0.0030    2.9164    0.0027 C   0  0  0  0  0  0  0  0  0  0  0  0
   -0.6286    3.2273   -0.6924 H   0  0  0  0  0  0  0  0  0  0  0  0
    0.9244    3.2252   -0.1871 H   0  0  0  0  0  0  0  0  0  0  0  0
   -0.3038    3.3661    0.9470 H   0  0  0  0  0  0  0  0  0  0  0  0
    0.0008    1.4139    0.0024 C   0  0  0  0  0  0  0  0  0  0  0  0
   -1.2056    0.6956   -0.0205 C   0  0  0  0  0  0  0  0  0  0  0  0
   -2.0696    1.1804   -0.0532 H   0  0  0  0  0  0  0  0  0  0  0  0
   -1.2087   -0.7118   -0.0000 C   0  0  0  0  0  0  0  0  0  0  0  0
   -2.0797   -1.2031    0.0117 H   0  0  0  0  0  0  0  0  0  0  0  0
    0.0058   -1.4073    0.0053 C   0  0  0  0  0  0  0  0  0  0  0  0
    0.0084   -2.4010    0.0123 H   0  0  0  0  0  0  0  0  0  0  0  0
    1.2087   -0.6948    0.0000 C   0  0  0  0  0  0  0  0  0  0  0  0
    2.0920   -1.1864   -0.0113 H   0  0  0  0  0  0  0  0  0  0  0  0
    1.1991    0.7045    0.0128 C   0  0  0  0  0  0  0  0  0  0  0  0
    2.0676    1.1999    0.0288 H   0  0  0  0  0  0  0  0  0  0  0  0
  1  5  1  0
  5  6  2  0
  5  7  1  0
  1  2  1  0
  1  3  1  0
  1  4  1  0
  8 12  1  0
 12 13  2  0
 13 15  1  0
 15 17  2  0
 17 19  1  0
 19 21  2  0
 21 12  1  0
  8  9  1  0
  8 10  1  0
  8 11  1  0
 13 14  1  0
 15 16  1  0
 17 18  1  0
 19 20  1  0
 21 22  1  0
M  CHG  1   7  -1
V    7 [O&-]
M  END
>  <PDB_ID>  (3033) 
pdb2zuk

>  <RESIDUE_NAME>  (3033) 
GLU   PHE

>  <FRAG_NAME>  (3033) 
ACET   MBZ

>  <FRAG_ATOM_NUM>  (3033) 
fragi: 7 fragj: 15

>  <atom.prop.CHAIN_ID>  (3033) 
A A A A A A A Z Z Z Z Z Z Z Z Z Z Z Z Z Z Z

>  <atom.prop.IS_HEAVY_ATOM>  (3033) 
1 0 0 0 1 1 1 1 0 0 0 1 1 0 1 0 1 0 1 0 1 0

>  <DIFUSE_FUNC_ATOM>  (3033) 
n/a

>  <FINAL_SINGLE_POINT_ENERGY>  (3033) 
0

>  <NONCOV_INTER_ENERGY_QM>  (3033) 
0

>  <FF_Energy>  (3033) 
0.19

>  <QM_Energy>  (3033) 
-7.3

>  <source>  (3033) 
ACET_MBZ_03

>  <Index>  (3033) 
17682

$$$$
ACEH-pdb3q9b-D-GLH-17:MBZ-pdb3q9b-D-PHE-27
     RDKit          3D

 22 21  0  0  0  0  0  0  0  0999 V2000
    4.4694    0.6641   -3.7554 C   0  0  0  0  0  0  0  0  0  0  0  0
    4.9638   -0.1575   -3.5138 H   0  0  0  0  0  0  0  0  0  0  0  0
    5.0858    1.3881   -4.0266 H   0  0  0  0  0  0  0  0  0  0  0  0
    3.8150    0.4359   -4.5967 H   0  0  0  0  0  0  0  0  0  0  0  0
    3.7364    1.1332   -2.5167 C   0  0  0  0  0  0  0  0  0  0  0  0
    2.8440    2.0054   -2.6260 O   0  0  0  0  0  0  0  0  0  0  0  0
    4.0717    0.6382   -1.4183 O   0  0  0  0  0  0  0  0  0  0  0  0
   -0.0098    2.9094   -0.0427 C   0  0  0  0  0  0  0  0  0  0  0  0
    0.9259    3.2204   -0.0069 H   0  0  0  0  0  0  0  0  0  0  0  0
   -0.5298    3.2338    0.7312 H   0  0  0  0  0  0  0  0  0  0  0  0
   -0.4640    3.3161   -0.9462 H   0  0  0  0  0  0  0  0  0  0  0  0
   -0.0021    1.4065   -0.0012 C   0  0  0  0  0  0  0  0  0  0  0  0
   -1.1967    0.6935    0.0001 C   0  0  0  0  0  0  0  0  0  0  0  0
   -2.0656    1.1782    0.0005 H   0  0  0  0  0  0  0  0  0  0  0  0
   -1.1996   -0.7047   -0.0000 C   0  0  0  0  0  0  0  0  0  0  0  0
   -2.0764   -1.1954    0.0021 H   0  0  0  0  0  0  0  0  0  0  0  0
    0.0027   -1.3994   -0.0011 C   0  0  0  0  0  0  0  0  0  0  0  0
    0.0024   -2.3958   -0.0037 H   0  0  0  0  0  0  0  0  0  0  0  0
    1.1996   -0.6958    0.0000 C   0  0  0  0  0  0  0  0  0  0  0  0
    2.0846   -1.1899    0.0013 H   0  0  0  0  0  0  0  0  0  0  0  0
    1.1961    0.6999    0.0021 C   0  0  0  0  0  0  0  0  0  0  0  0
    2.0636    1.1938    0.0049 H   0  0  0  0  0  0  0  0  0  0  0  0
  1  5  1  0
  5  6  2  0
  5  7  1  0
  1  2  1  0
  1  3  1  0
  1  4  1  0
  8 12  1  0
 12 13  2  0
 13 15  1  0
 15 17  2  0
 17 19  1  0
 19 21  2  0
 21 12  1  0
  8  9  1  0
  8 10  1  0
  8 11  1  0
 13 14  1  0
 15 16  1  0
 17 18  1  0
 19 20  1  0
 21 22  1  0
M  CHG  1   7  -1
V    7 [O&-]
M  END
>  <PDB_ID>  (3034) 
pdb3q9b

>  <RESIDUE_NAME>  (3034) 
GLU   PHE

>  <FRAG_NAME>  (3034) 
ACET   MBZ

>  <FRAG_ATOM_NUM>  (3034) 
fragi: 7 fragj: 15

>  <atom.prop.CHAIN_ID>  (3034) 
A A A A A A A Z Z Z Z Z Z Z Z Z Z Z Z Z Z Z

>  <atom.prop.IS_HEAVY_ATOM>  (3034) 
1 0 0 0 1 1 1 1 0 0 0 1 1 0 1 0 1 0 1 0 1 0

>  <DIFUSE_FUNC_ATOM>  (3034) 
n/a

>  <FINAL_SINGLE_POINT_ENERGY>  (3034) 
0

>  <NONCOV_INTER_ENERGY_QM>  (3034) 
0

>  <FF_Energy>  (3034) 
-1.3

>  <QM_Energy>  (3034) 
-7.04

>  <source>  (3034) 
ACET_MBZ_03

>  <Index>  (3034) 
17733

$$$$
ACEH-pdb3q9b-G-GLH-17:MBZ-pdb3q9b-G-PHE-27
     RDKit          3D

 22 21  0  0  0  0  0  0  0  0999 V2000
    4.8599    0.4479   -3.0962 C   0  0  0  0  0  0  0  0  0  0  0  0
    5.1248   -0.4410   -2.7699 H   0  0  0  0  0  0  0  0  0  0  0  0
    5.6313    1.0454   -3.2161 H   0  0  0  0  0  0  0  0  0  0  0  0
    4.3660    0.3255   -4.0601 H   0  0  0  0  0  0  0  0  0  0  0  0
    3.9595    1.0741   -2.0361 C   0  0  0  0  0  0  0  0  0  0  0  0
    4.1278    0.7468   -0.8395 O   0  0  0  0  0  0  0  0  0  0  0  0
    3.0969    1.9046   -2.4044 O   0  0  0  0  0  0  0  0  0  0  0  0
   -0.0082    2.9002   -0.1004 C   0  0  0  0  0  0  0  0  0  0  0  0
    0.9167    3.2235    0.0216 H   0  0  0  0  0  0  0  0  0  0  0  0
   -0.6123    3.2535    0.5963 H   0  0  0  0  0  0  0  0  0  0  0  0
   -0.3629    3.2693   -1.0627 H   0  0  0  0  0  0  0  0  0  0  0  0
    0.0002    1.4042   -0.0013 C   0  0  0  0  0  0  0  0  0  0  0  0
   -1.1971    0.6933    0.0028 C   0  0  0  0  0  0  0  0  0  0  0  0
   -2.0648    1.1821    0.0064 H   0  0  0  0  0  0  0  0  0  0  0  0
   -1.2032   -0.7015    0.0000 C   0  0  0  0  0  0  0  0  0  0  0  0
   -2.0801   -1.1926    0.0026 H   0  0  0  0  0  0  0  0  0  0  0  0
   -0.0019   -1.3970   -0.0043 C   0  0  0  0  0  0  0  0  0  0  0  0
   -0.0023   -2.3948   -0.0107 H   0  0  0  0  0  0  0  0  0  0  0  0
    1.2032   -0.6974    0.0000 C   0  0  0  0  0  0  0  0  0  0  0  0
    2.0834   -1.1947    0.0026 H   0  0  0  0  0  0  0  0  0  0  0  0
    1.1988    0.6984    0.0028 C   0  0  0  0  0  0  0  0  0  0  0  0
    2.0660    1.1927    0.0070 H   0  0  0  0  0  0  0  0  0  0  0  0
  1  5  1  0
  5  6  2  0
  5  7  1  0
  1  2  1  0
  1  3  1  0
  1  4  1  0
  8 12  1  0
 12 13  2  0
 13 15  1  0
 15 17  2  0
 17 19  1  0
 19 21  2  0
 21 12  1  0
  8  9  1  0
  8 10  1  0
  8 11  1  0
 13 14  1  0
 15 16  1  0
 17 18  1  0
 19 20  1  0
 21 22  1  0
M  CHG  1   7  -1
V    7 [O&-]
M  END
>  <PDB_ID>  (3035) 
pdb3q9b

>  <RESIDUE_NAME>  (3035) 
GLU   PHE

>  <FRAG_NAME>  (3035) 
ACET   MBZ

>  <FRAG_ATOM_NUM>  (3035) 
fragi: 7 fragj: 15

>  <atom.prop.CHAIN_ID>  (3035) 
A A A A A A A Z Z Z Z Z Z Z Z Z Z Z Z Z Z Z

>  <atom.prop.IS_HEAVY_ATOM>  (3035) 
1 0 0 0 1 1 1 1 0 0 0 1 1 0 1 0 1 0 1 0 1 0

>  <DIFUSE_FUNC_ATOM>  (3035) 
n/a

>  <FINAL_SINGLE_POINT_ENERGY>  (3035) 
0

>  <NONCOV_INTER_ENERGY_QM>  (3035) 
0

>  <FF_Energy>  (3035) 
-0.38

>  <QM_Energy>  (3035) 
-7.61

>  <source>  (3035) 
ACET_MBZ_03

>  <Index>  (3035) 
17738

$$$$
ACEH-pdb3q9b-J-GLH-17:MBZ-pdb3q9b-J-PHE-27
     RDKit          3D

 22 21  0  0  0  0  0  0  0  0999 V2000
    4.6022    0.9186   -3.5094 C   0  0  0  0  0  0  0  0  0  0  0  0
    5.0707    0.0886   -3.2559 H   0  0  0  0  0  0  0  0  0  0  0  0
    5.2357    1.6408   -3.7337 H   0  0  0  0  0  0  0  0  0  0  0  0
    3.9876    0.7134   -4.3859 H   0  0  0  0  0  0  0  0  0  0  0  0
    3.8021    1.3736   -2.3089 C   0  0  0  0  0  0  0  0  0  0  0  0
    2.8780    2.1986   -2.4863 O   0  0  0  0  0  0  0  0  0  0  0  0
    4.1102    0.9180   -1.1840 O   0  0  0  0  0  0  0  0  0  0  0  0
    0.0063    2.9085   -0.0285 C   0  0  0  0  0  0  0  0  0  0  0  0
    0.9455    3.2132    0.0092 H   0  0  0  0  0  0  0  0  0  0  0  0
   -0.5096    3.2318    0.7504 H   0  0  0  0  0  0  0  0  0  0  0  0
   -0.4446    3.3352   -0.9244 H   0  0  0  0  0  0  0  0  0  0  0  0
    0.0007    1.4057   -0.0007 C   0  0  0  0  0  0  0  0  0  0  0  0
   -1.1990    0.6985    0.0005 C   0  0  0  0  0  0  0  0  0  0  0  0
   -2.0647    1.1873    0.0004 H   0  0  0  0  0  0  0  0  0  0  0  0
   -1.2051   -0.6990   -0.0000 C   0  0  0  0  0  0  0  0  0  0  0  0
   -2.0808   -1.1905    0.0013 H   0  0  0  0  0  0  0  0  0  0  0  0
    0.0005   -1.3994   -0.0005 C   0  0  0  0  0  0  0  0  0  0  0  0
   -0.0046   -2.3962   -0.0016 H   0  0  0  0  0  0  0  0  0  0  0  0
    1.2051   -0.7006   -0.0000 C   0  0  0  0  0  0  0  0  0  0  0  0
    2.0848   -1.1963    0.0010 H   0  0  0  0  0  0  0  0  0  0  0  0
    1.1978    0.6947    0.0007 C   0  0  0  0  0  0  0  0  0  0  0  0
    2.0666    1.1907    0.0013 H   0  0  0  0  0  0  0  0  0  0  0  0
  1  5  1  0
  5  6  2  0
  5  7  1  0
  1  2  1  0
  1  3  1  0
  1  4  1  0
  8 12  1  0
 12 13  2  0
 13 15  1  0
 15 17  2  0
 17 19  1  0
 19 21  2  0
 21 12  1  0
  8  9  1  0
  8 10  1  0
  8 11  1  0
 13 14  1  0
 15 16  1  0
 17 18  1  0
 19 20  1  0
 21 22  1  0
M  CHG  1   7  -1
V    7 [O&-]
M  END
>  <PDB_ID>  (3036) 
pdb3q9b

>  <RESIDUE_NAME>  (3036) 
GLU   PHE

>  <FRAG_NAME>  (3036) 
ACET   MBZ

>  <FRAG_ATOM_NUM>  (3036) 
fragi: 7 fragj: 15

>  <atom.prop.CHAIN_ID>  (3036) 
A A A A A A A Z Z Z Z Z Z Z Z Z Z Z Z Z Z Z

>  <atom.prop.IS_HEAVY_ATOM>  (3036) 
1 0 0 0 1 1 1 1 0 0 0 1 1 0 1 0 1 0 1 0 1 0

>  <DIFUSE_FUNC_ATOM>  (3036) 
n/a

>  <FINAL_SINGLE_POINT_ENERGY>  (3036) 
0

>  <NONCOV_INTER_ENERGY_QM>  (3036) 
0

>  <FF_Energy>  (3036) 
-1.15

>  <QM_Energy>  (3036) 
-7.59

>  <source>  (3036) 
ACET_MBZ_03

>  <Index>  (3036) 
17745

$$$$
ACEH-pdb3q9b-K-GLH-17:MBZ-pdb3q9b-K-PHE-27
     RDKit          3D

 22 21  0  0  0  0  0  0  0  0999 V2000
    4.3674    0.5253   -3.7090 C   0  0  0  0  0  0  0  0  0  0  0  0
    4.8157   -0.3192   -3.4701 H   0  0  0  0  0  0  0  0  0  0  0  0
    5.0141    1.2239   -3.9657 H   0  0  0  0  0  0  0  0  0  0  0  0
    3.7093    0.3367   -4.5573 H   0  0  0  0  0  0  0  0  0  0  0  0
    3.6360    1.0181   -2.4661 C   0  0  0  0  0  0  0  0  0  0  0  0
    2.7749    1.9155   -2.5910 O   0  0  0  0  0  0  0  0  0  0  0  0
    3.9413    0.5110   -1.3655 O   0  0  0  0  0  0  0  0  0  0  0  0
   -0.0052    2.9085   -0.0863 C   0  0  0  0  0  0  0  0  0  0  0  0
    0.9309    3.2200   -0.0623 H   0  0  0  0  0  0  0  0  0  0  0  0
   -0.5243    3.2570    0.6773 H   0  0  0  0  0  0  0  0  0  0  0  0
   -0.4598    3.2940   -0.9989 H   0  0  0  0  0  0  0  0  0  0  0  0
   -0.0002    1.4057   -0.0014 C   0  0  0  0  0  0  0  0  0  0  0  0
   -1.2002    0.6935    0.0033 C   0  0  0  0  0  0  0  0  0  0  0  0
   -2.0657    1.1817    0.0079 H   0  0  0  0  0  0  0  0  0  0  0  0
   -1.2040   -0.7019   -0.0000 C   0  0  0  0  0  0  0  0  0  0  0  0
   -2.0782   -1.1953    0.0020 H   0  0  0  0  0  0  0  0  0  0  0  0
    0.0024   -1.3978   -0.0039 C   0  0  0  0  0  0  0  0  0  0  0  0
    0.0007   -2.3951   -0.0101 H   0  0  0  0  0  0  0  0  0  0  0  0
    1.2040   -0.6964    0.0000 C   0  0  0  0  0  0  0  0  0  0  0  0
    2.0859   -1.1925    0.0026 H   0  0  0  0  0  0  0  0  0  0  0  0
    1.1979    0.6970    0.0020 C   0  0  0  0  0  0  0  0  0  0  0  0
    2.0654    1.1933    0.0052 H   0  0  0  0  0  0  0  0  0  0  0  0
  1  5  1  0
  5  6  2  0
  5  7  1  0
  1  2  1  0
  1  3  1  0
  1  4  1  0
  8 12  1  0
 12 13  2  0
 13 15  1  0
 15 17  2  0
 17 19  1  0
 19 21  2  0
 21 12  1  0
  8  9  1  0
  8 10  1  0
  8 11  1  0
 13 14  1  0
 15 16  1  0
 17 18  1  0
 19 20  1  0
 21 22  1  0
M  CHG  1   7  -1
V    7 [O&-]
M  END
>  <PDB_ID>  (3037) 
pdb3q9b

>  <RESIDUE_NAME>  (3037) 
GLU   PHE

>  <FRAG_NAME>  (3037) 
ACET   MBZ

>  <FRAG_ATOM_NUM>  (3037) 
fragi: 7 fragj: 15

>  <atom.prop.CHAIN_ID>  (3037) 
A A A A A A A Z Z Z Z Z Z Z Z Z Z Z Z Z Z Z

>  <atom.prop.IS_HEAVY_ATOM>  (3037) 
1 0 0 0 1 1 1 1 0 0 0 1 1 0 1 0 1 0 1 0 1 0

>  <DIFUSE_FUNC_ATOM>  (3037) 
n/a

>  <FINAL_SINGLE_POINT_ENERGY>  (3037) 
0

>  <NONCOV_INTER_ENERGY_QM>  (3037) 
0

>  <FF_Energy>  (3037) 
-0.65

>  <QM_Energy>  (3037) 
-7.09

>  <source>  (3037) 
ACET_MBZ_03

>  <Index>  (3037) 
17748

$$$$
ACEH-pdb3qae-A-ASH-270:MBZ-pdb3qae-A-PHE-266
     RDKit          3D

 22 21  0  0  0  0  0  0  0  0999 V2000
   -5.0671    3.7916   -0.5965 C   0  0  0  0  0  0  0  0  0  0  0  0
   -4.3921    4.4961   -0.7827 H   0  0  0  0  0  0  0  0  0  0  0  0
   -5.9041    4.1950   -0.2470 H   0  0  0  0  0  0  0  0  0  0  0  0
   -5.2985    3.2872   -1.5346 H   0  0  0  0  0  0  0  0  0  0  0  0
   -4.5048    2.8483    0.4602 C   0  0  0  0  0  0  0  0  0  0  0  0
   -4.3296    3.3099    1.6120 O   0  0  0  0  0  0  0  0  0  0  0  0
   -4.2391    1.6570    0.1538 O   0  0  0  0  0  0  0  0  0  0  0  0
   -0.0076    2.8881   -0.0339 C   0  0  0  0  0  0  0  0  0  0  0  0
    0.7749    3.2101    0.4726 H   0  0  0  0  0  0  0  0  0  0  0  0
   -0.8547    3.1991    0.3656 H   0  0  0  0  0  0  0  0  0  0  0  0
    0.0560    3.2911   -1.0446 H   0  0  0  0  0  0  0  0  0  0  0  0
    0.0002    1.3920   -0.0007 C   0  0  0  0  0  0  0  0  0  0  0  0
   -1.1944    0.6848   -0.0076 C   0  0  0  0  0  0  0  0  0  0  0  0
   -2.0605    1.1814   -0.0196 H   0  0  0  0  0  0  0  0  0  0  0  0
   -1.2017   -0.6941    0.0000 C   0  0  0  0  0  0  0  0  0  0  0  0
   -2.0768   -1.1913    0.0032 H   0  0  0  0  0  0  0  0  0  0  0  0
   -0.0025   -1.3847    0.0046 C   0  0  0  0  0  0  0  0  0  0  0  0
   -0.0038   -2.3860    0.0108 H   0  0  0  0  0  0  0  0  0  0  0  0
    1.2017   -0.6912   -0.0000 C   0  0  0  0  0  0  0  0  0  0  0  0
    2.0803   -1.1927   -0.0052 H   0  0  0  0  0  0  0  0  0  0  0  0
    1.1967    0.6931    0.0038 C   0  0  0  0  0  0  0  0  0  0  0  0
    2.0623    1.1927    0.0094 H   0  0  0  0  0  0  0  0  0  0  0  0
  1  5  1  0
  5  6  2  0
  5  7  1  0
  1  2  1  0
  1  3  1  0
  1  4  1  0
  8 12  1  0
 12 13  2  0
 13 15  1  0
 15 17  2  0
 17 19  1  0
 19 21  2  0
 21 12  1  0
  8  9  1  0
  8 10  1  0
  8 11  1  0
 13 14  1  0
 15 16  1  0
 17 18  1  0
 19 20  1  0
 21 22  1  0
M  CHG  1   7  -1
V    7 [O&-]
M  END
>  <PDB_ID>  (3038) 
pdb3qae

>  <RESIDUE_NAME>  (3038) 
ASP   PHE

>  <FRAG_NAME>  (3038) 
ACET   MBZ

>  <FRAG_ATOM_NUM>  (3038) 
fragi: 7 fragj: 15

>  <atom.prop.CHAIN_ID>  (3038) 
A A A A A A A Z Z Z Z Z Z Z Z Z Z Z Z Z Z Z

>  <atom.prop.IS_HEAVY_ATOM>  (3038) 
1 0 0 0 1 1 1 1 0 0 0 1 1 0 1 0 1 0 1 0 1 0

>  <DIFUSE_FUNC_ATOM>  (3038) 
n/a

>  <FINAL_SINGLE_POINT_ENERGY>  (3038) 
0

>  <NONCOV_INTER_ENERGY_QM>  (3038) 
0

>  <FF_Energy>  (3038) 
-1.27

>  <QM_Energy>  (3038) 
-7.23

>  <source>  (3038) 
ACET_MBZ_03

>  <Index>  (3038) 
17765

$$$$
ACEH-pdb3qan-B-GLH-286:MBZ-pdb3qan-B-PHE-484
     RDKit          3D

 22 21  0  0  0  0  0  0  0  0999 V2000
    6.1661   -1.1593    1.1050 C   0  0  0  0  0  0  0  0  0  0  0  0
    6.1018   -0.5266    0.3400 H   0  0  0  0  0  0  0  0  0  0  0  0
    6.8008   -1.8949    0.8908 H   0  0  0  0  0  0  0  0  0  0  0  0
    6.5606   -0.6127    1.9616 H   0  0  0  0  0  0  0  0  0  0  0  0
    4.7993   -1.7801    1.2976 C   0  0  0  0  0  0  0  0  0  0  0  0
    4.4142   -2.0806    2.4473 O   0  0  0  0  0  0  0  0  0  0  0  0
    4.1144   -1.9739    0.2637 O   0  0  0  0  0  0  0  0  0  0  0  0
   -0.0048    2.9118   -0.0062 C   0  0  0  0  0  0  0  0  0  0  0  0
   -0.7282    3.2142   -0.6054 H   0  0  0  0  0  0  0  0  0  0  0  0
    0.8803    3.2167   -0.3209 H   0  0  0  0  0  0  0  0  0  0  0  0
   -0.1795    3.3492    0.9768 H   0  0  0  0  0  0  0  0  0  0  0  0
   -0.0027    1.4027   -0.0055 C   0  0  0  0  0  0  0  0  0  0  0  0
   -1.1995    0.6936    0.0002 C   0  0  0  0  0  0  0  0  0  0  0  0
   -2.0666    1.1833    0.0027 H   0  0  0  0  0  0  0  0  0  0  0  0
   -1.2058   -0.7013   -0.0000 C   0  0  0  0  0  0  0  0  0  0  0  0
   -2.0788   -1.1943   -0.0025 H   0  0  0  0  0  0  0  0  0  0  0  0
    0.0026   -1.3960    0.0047 C   0  0  0  0  0  0  0  0  0  0  0  0
    0.0007   -2.3934    0.0109 H   0  0  0  0  0  0  0  0  0  0  0  0
    1.2058   -0.6950    0.0000 C   0  0  0  0  0  0  0  0  0  0  0  0
    2.0869   -1.1924   -0.0025 H   0  0  0  0  0  0  0  0  0  0  0  0
    1.1996    0.6959    0.0006 C   0  0  0  0  0  0  0  0  0  0  0  0
    2.0642    1.1949    0.0043 H   0  0  0  0  0  0  0  0  0  0  0  0
  1  5  1  0
  5  6  2  0
  5  7  1  0
  1  2  1  0
  1  3  1  0
  1  4  1  0
  8 12  1  0
 12 13  2  0
 13 15  1  0
 15 17  2  0
 17 19  1  0
 19 21  2  0
 21 12  1  0
  8  9  1  0
  8 10  1  0
  8 11  1  0
 13 14  1  0
 15 16  1  0
 17 18  1  0
 19 20  1  0
 21 22  1  0
M  CHG  1   7  -1
V    7 [O&-]
M  END
>  <PDB_ID>  (3039) 
pdb3qan

>  <RESIDUE_NAME>  (3039) 
GLU   PHE

>  <FRAG_NAME>  (3039) 
ACET   MBZ

>  <FRAG_ATOM_NUM>  (3039) 
fragi: 7 fragj: 15

>  <atom.prop.CHAIN_ID>  (3039) 
A A A A A A A Z Z Z Z Z Z Z Z Z Z Z Z Z Z Z

>  <atom.prop.IS_HEAVY_ATOM>  (3039) 
1 0 0 0 1 1 1 1 0 0 0 1 1 0 1 0 1 0 1 0 1 0

>  <DIFUSE_FUNC_ATOM>  (3039) 
n/a

>  <FINAL_SINGLE_POINT_ENERGY>  (3039) 
0

>  <NONCOV_INTER_ENERGY_QM>  (3039) 
0

>  <FF_Energy>  (3039) 
-0.66

>  <QM_Energy>  (3039) 
-6.14

>  <source>  (3039) 
ACET_MBZ_03

>  <Index>  (3039) 
17770

$$$$
ACEH-pdb1sgl-A-ASH-133:MBZ-pdb1sgl-A-PHE-40
     RDKit          3D

 22 21  0  0  0  0  0  0  0  0999 V2000
   -5.0441    5.0353    0.1023 C   0  0  0  0  0  0  0  0  0  0  0  0
   -5.2534    5.8707   -0.3899 H   0  0  0  0  0  0  0  0  0  0  0  0
   -5.4959    5.0226    0.9845 H   0  0  0  0  0  0  0  0  0  0  0  0
   -5.4171    4.1944   -0.4823 H   0  0  0  0  0  0  0  0  0  0  0  0
   -3.5379    4.9665    0.3250 C   0  0  0  0  0  0  0  0  0  0  0  0
   -3.0504    3.9344    0.8311 O   0  0  0  0  0  0  0  0  0  0  0  0
   -2.8437    5.9484   -0.0092 O   0  0  0  0  0  0  0  0  0  0  0  0
    0.0016    2.9070    0.0181 C   0  0  0  0  0  0  0  0  0  0  0  0
   -0.9169    3.2192   -0.1814 H   0  0  0  0  0  0  0  0  0  0  0  0
    0.6420    3.2219   -0.6690 H   0  0  0  0  0  0  0  0  0  0  0  0
    0.2993    3.3425    0.9719 H   0  0  0  0  0  0  0  0  0  0  0  0
   -0.0011    1.4058    0.0008 C   0  0  0  0  0  0  0  0  0  0  0  0
   -1.1998    0.6978    0.0021 C   0  0  0  0  0  0  0  0  0  0  0  0
   -2.0658    1.1813    0.0036 H   0  0  0  0  0  0  0  0  0  0  0  0
   -1.2025   -0.7052    0.0000 C   0  0  0  0  0  0  0  0  0  0  0  0
   -2.0749   -1.1965    0.0007 H   0  0  0  0  0  0  0  0  0  0  0  0
    0.0075   -1.3995   -0.0011 C   0  0  0  0  0  0  0  0  0  0  0  0
    0.0043   -2.3970   -0.0027 H   0  0  0  0  0  0  0  0  0  0  0  0
    1.2025   -0.6981    0.0000 C   0  0  0  0  0  0  0  0  0  0  0  0
    2.0883   -1.1888    0.0030 H   0  0  0  0  0  0  0  0  0  0  0  0
    1.1934    0.6992   -0.0019 C   0  0  0  0  0  0  0  0  0  0  0  0
    2.0636    1.1941   -0.0065 H   0  0  0  0  0  0  0  0  0  0  0  0
  1  5  1  0
  5  6  2  0
  5  7  1  0
  1  2  1  0
  1  3  1  0
  1  4  1  0
  8 12  1  0
 12 13  2  0
 13 15  1  0
 15 17  2  0
 17 19  1  0
 19 21  2  0
 21 12  1  0
  8  9  1  0
  8 10  1  0
  8 11  1  0
 13 14  1  0
 15 16  1  0
 17 18  1  0
 19 20  1  0
 21 22  1  0
M  CHG  1   7  -1
V    7 [O&-]
M  END
>  <PDB_ID>  (3040) 
pdb1sgl

>  <RESIDUE_NAME>  (3040) 
ASP   PHE

>  <FRAG_NAME>  (3040) 
ACET   MBZ

>  <FRAG_ATOM_NUM>  (3040) 
fragi: 7 fragj: 15

>  <atom.prop.CHAIN_ID>  (3040) 
A A A A A A A Z Z Z Z Z Z Z Z Z Z Z Z Z Z Z

>  <atom.prop.IS_HEAVY_ATOM>  (3040) 
1 0 0 0 1 1 1 1 0 0 0 1 1 0 1 0 1 0 1 0 1 0

>  <DIFUSE_FUNC_ATOM>  (3040) 
n/a

>  <FINAL_SINGLE_POINT_ENERGY>  (3040) 
0

>  <NONCOV_INTER_ENERGY_QM>  (3040) 
0

>  <FF_Energy>  (3040) 
-1.77

>  <QM_Energy>  (3040) 
-7.01

>  <source>  (3040) 
ACET_MBZ_03

>  <Index>  (3040) 
17805

$$$$
ACEH-pdb1sgl-A-GLH-95:MBZ-pdb1sgl-A-PHE-63
     RDKit          3D

 22 21  0  0  0  0  0  0  0  0999 V2000
    3.9128    4.1481   -3.7144 C   0  0  0  0  0  0  0  0  0  0  0  0
    4.7753    4.5799   -3.5355 H   0  0  0  0  0  0  0  0  0  0  0  0
    3.2659    4.7581   -4.1288 H   0  0  0  0  0  0  0  0  0  0  0  0
    4.0797    3.3078   -4.3882 H   0  0  0  0  0  0  0  0  0  0  0  0
    3.3395    3.7036   -2.3923 C   0  0  0  0  0  0  0  0  0  0  0  0
    3.8722    2.7234   -1.8239 O   0  0  0  0  0  0  0  0  0  0  0  0
    2.3634    4.3311   -1.9214 O   0  0  0  0  0  0  0  0  0  0  0  0
    0.0018    2.8977    0.0226 C   0  0  0  0  0  0  0  0  0  0  0  0
   -0.5493    3.2179   -0.7330 H   0  0  0  0  0  0  0  0  0  0  0  0
    0.9386    3.2050   -0.0607 H   0  0  0  0  0  0  0  0  0  0  0  0
   -0.4087    3.3213    0.9393 H   0  0  0  0  0  0  0  0  0  0  0  0
   -0.0009    1.4003   -0.0003 C   0  0  0  0  0  0  0  0  0  0  0  0
   -1.1977    0.6942    0.0004 C   0  0  0  0  0  0  0  0  0  0  0  0
   -2.0641    1.1820   -0.0002 H   0  0  0  0  0  0  0  0  0  0  0  0
   -1.1996   -0.6989   -0.0000 C   0  0  0  0  0  0  0  0  0  0  0  0
   -2.0737   -1.1940    0.0009 H   0  0  0  0  0  0  0  0  0  0  0  0
    0.0048   -1.3908    0.0003 C   0  0  0  0  0  0  0  0  0  0  0  0
   -0.0002   -2.3917    0.0000 H   0  0  0  0  0  0  0  0  0  0  0  0
    1.1996   -0.6967    0.0000 C   0  0  0  0  0  0  0  0  0  0  0  0
    2.0833   -1.1924    0.0014 H   0  0  0  0  0  0  0  0  0  0  0  0
    1.1939    0.6919   -0.0004 C   0  0  0  0  0  0  0  0  0  0  0  0
    2.0628    1.1896   -0.0017 H   0  0  0  0  0  0  0  0  0  0  0  0
  1  5  1  0
  5  6  2  0
  5  7  1  0
  1  2  1  0
  1  3  1  0
  1  4  1  0
  8 12  1  0
 12 13  2  0
 13 15  1  0
 15 17  2  0
 17 19  1  0
 19 21  2  0
 21 12  1  0
  8  9  1  0
  8 10  1  0
  8 11  1  0
 13 14  1  0
 15 16  1  0
 17 18  1  0
 19 20  1  0
 21 22  1  0
M  CHG  1   7  -1
V    7 [O&-]
M  END
>  <PDB_ID>  (3041) 
pdb1sgl

>  <RESIDUE_NAME>  (3041) 
GLU   PHE

>  <FRAG_NAME>  (3041) 
ACET   MBZ

>  <FRAG_ATOM_NUM>  (3041) 
fragi: 7 fragj: 15

>  <atom.prop.CHAIN_ID>  (3041) 
A A A A A A A Z Z Z Z Z Z Z Z Z Z Z Z Z Z Z

>  <atom.prop.IS_HEAVY_ATOM>  (3041) 
1 0 0 0 1 1 1 1 0 0 0 1 1 0 1 0 1 0 1 0 1 0

>  <DIFUSE_FUNC_ATOM>  (3041) 
n/a

>  <FINAL_SINGLE_POINT_ENERGY>  (3041) 
0

>  <NONCOV_INTER_ENERGY_QM>  (3041) 
0

>  <FF_Energy>  (3041) 
-1.85

>  <QM_Energy>  (3041) 
-7.12

>  <source>  (3041) 
ACET_MBZ_03

>  <Index>  (3041) 
17807

$$$$
ACEH-pdb1sje-A-GLH-21:MBZ-pdb1sje-A-PHE-137
     RDKit          3D

 22 21  0  0  0  0  0  0  0  0999 V2000
    5.4764    4.6468    0.5006 C   0  0  0  0  0  0  0  0  0  0  0  0
    5.7157    5.5999    0.5805 H   0  0  0  0  0  0  0  0  0  0  0  0
    6.0428    4.1817   -0.1596 H   0  0  0  0  0  0  0  0  0  0  0  0
    5.6288    4.1764    1.4720 H   0  0  0  0  0  0  0  0  0  0  0  0
    4.0434    4.5735    0.0075 C   0  0  0  0  0  0  0  0  0  0  0  0
    3.5769    3.4704   -0.3666 O   0  0  0  0  0  0  0  0  0  0  0  0
    3.3798    5.6289   -0.0060 O   0  0  0  0  0  0  0  0  0  0  0  0
    0.0054    2.9143   -0.0936 C   0  0  0  0  0  0  0  0  0  0  0  0
    0.8120    3.2449    0.3642 H   0  0  0  0  0  0  0  0  0  0  0  0
   -0.8196    3.2482    0.3271 H   0  0  0  0  0  0  0  0  0  0  0  0
    0.0289    3.2801   -1.1201 H   0  0  0  0  0  0  0  0  0  0  0  0
    0.0002    1.4092   -0.0010 C   0  0  0  0  0  0  0  0  0  0  0  0
   -1.2045    0.6993    0.0009 C   0  0  0  0  0  0  0  0  0  0  0  0
   -2.0687    1.1878    0.0013 H   0  0  0  0  0  0  0  0  0  0  0  0
   -1.2109   -0.7017   -0.0000 C   0  0  0  0  0  0  0  0  0  0  0  0
   -2.0826   -1.1941    0.0020 H   0  0  0  0  0  0  0  0  0  0  0  0
    0.0027   -1.4033   -0.0024 C   0  0  0  0  0  0  0  0  0  0  0  0
   -0.0022   -2.3974   -0.0063 H   0  0  0  0  0  0  0  0  0  0  0  0
    1.2109   -0.7008    0.0000 C   0  0  0  0  0  0  0  0  0  0  0  0
    2.0901   -1.1957    0.0012 H   0  0  0  0  0  0  0  0  0  0  0  0
    1.2016    0.6973    0.0026 C   0  0  0  0  0  0  0  0  0  0  0  0
    2.0684    1.1946    0.0063 H   0  0  0  0  0  0  0  0  0  0  0  0
  1  5  1  0
  5  6  2  0
  5  7  1  0
  1  2  1  0
  1  3  1  0
  1  4  1  0
  8 12  1  0
 12 13  2  0
 13 15  1  0
 15 17  2  0
 17 19  1  0
 19 21  2  0
 21 12  1  0
  8  9  1  0
  8 10  1  0
  8 11  1  0
 13 14  1  0
 15 16  1  0
 17 18  1  0
 19 20  1  0
 21 22  1  0
M  CHG  1   7  -1
V    7 [O&-]
M  END
>  <PDB_ID>  (3042) 
pdb1sje

>  <RESIDUE_NAME>  (3042) 
GLU   PHE

>  <FRAG_NAME>  (3042) 
ACET   MBZ

>  <FRAG_ATOM_NUM>  (3042) 
fragi: 7 fragj: 15

>  <atom.prop.CHAIN_ID>  (3042) 
A A A A A A A Z Z Z Z Z Z Z Z Z Z Z Z Z Z Z

>  <atom.prop.IS_HEAVY_ATOM>  (3042) 
1 0 0 0 1 1 1 1 0 0 0 1 1 0 1 0 1 0 1 0 1 0

>  <DIFUSE_FUNC_ATOM>  (3042) 
n/a

>  <FINAL_SINGLE_POINT_ENERGY>  (3042) 
0

>  <NONCOV_INTER_ENERGY_QM>  (3042) 
0

>  <FF_Energy>  (3042) 
-2.32

>  <QM_Energy>  (3042) 
-7.35

>  <source>  (3042) 
ACET_MBZ_03

>  <Index>  (3042) 
17822

$$$$
ACEH-pdb3qmn-X-GLH-57:MBZ-pdb3qmn-X-PHE-53
     RDKit          3D

 22 21  0  0  0  0  0  0  0  0999 V2000
    0.8766   -1.3072    4.0919 C   0  0  0  0  0  0  0  0  0  0  0  0
    0.2443   -1.8288    4.6336 H   0  0  0  0  0  0  0  0  0  0  0  0
    0.4409   -0.5644    3.6196 H   0  0  0  0  0  0  0  0  0  0  0  0
    1.6357   -0.8938    4.7560 H   0  0  0  0  0  0  0  0  0  0  0  0
    1.4561   -2.2420    3.0382 C   0  0  0  0  0  0  0  0  0  0  0  0
    2.7039   -2.4323    2.9755 O   0  0  0  0  0  0  0  0  0  0  0  0
    0.6533   -2.7942    2.2654 O   0  0  0  0  0  0  0  0  0  0  0  0
   -0.0097    2.8575   -0.0301 C   0  0  0  0  0  0  0  0  0  0  0  0
   -0.7788    3.1586   -0.5789 H   0  0  0  0  0  0  0  0  0  0  0  0
    0.8460    3.1743   -0.4190 H   0  0  0  0  0  0  0  0  0  0  0  0
   -0.1114    3.3111    0.9558 H   0  0  0  0  0  0  0  0  0  0  0  0
    0.0018    1.3846   -0.0027 C   0  0  0  0  0  0  0  0  0  0  0  0
   -1.1845    0.6851   -0.0041 C   0  0  0  0  0  0  0  0  0  0  0  0
   -2.0544    1.1765   -0.0091 H   0  0  0  0  0  0  0  0  0  0  0  0
   -1.1878   -0.6935    0.0000 C   0  0  0  0  0  0  0  0  0  0  0  0
   -2.0719   -1.1861   -0.0058 H   0  0  0  0  0  0  0  0  0  0  0  0
   -0.0078   -1.3736    0.0137 C   0  0  0  0  0  0  0  0  0  0  0  0
   -0.0047   -2.3809    0.0335 H   0  0  0  0  0  0  0  0  0  0  0  0
    1.1878   -0.6876   -0.0000 C   0  0  0  0  0  0  0  0  0  0  0  0
    2.0685   -1.1953   -0.0035 H   0  0  0  0  0  0  0  0  0  0  0  0
    1.1905    0.6851   -0.0070 C   0  0  0  0  0  0  0  0  0  0  0  0
    2.0591    1.1835   -0.0158 H   0  0  0  0  0  0  0  0  0  0  0  0
  1  5  1  0
  5  6  2  0
  5  7  1  0
  1  2  1  0
  1  3  1  0
  1  4  1  0
  8 12  1  0
 12 13  2  0
 13 15  1  0
 15 17  2  0
 17 19  1  0
 19 21  2  0
 21 12  1  0
  8  9  1  0
  8 10  1  0
  8 11  1  0
 13 14  1  0
 15 16  1  0
 17 18  1  0
 19 20  1  0
 21 22  1  0
M  CHG  1   7  -1
V    7 [O&-]
M  END
>  <PDB_ID>  (3043) 
pdb3qmn

>  <RESIDUE_NAME>  (3043) 
GLU   PHE

>  <FRAG_NAME>  (3043) 
ACET   MBZ

>  <FRAG_ATOM_NUM>  (3043) 
fragi: 7 fragj: 15

>  <atom.prop.CHAIN_ID>  (3043) 
A A A A A A A Z Z Z Z Z Z Z Z Z Z Z Z Z Z Z

>  <atom.prop.IS_HEAVY_ATOM>  (3043) 
1 0 0 0 1 1 1 1 0 0 0 1 1 0 1 0 1 0 1 0 1 0

>  <DIFUSE_FUNC_ATOM>  (3043) 
n/a

>  <FINAL_SINGLE_POINT_ENERGY>  (3043) 
0

>  <NONCOV_INTER_ENERGY_QM>  (3043) 
0

>  <FF_Energy>  (3043) 
2.11

>  <QM_Energy>  (3043) 
-2.97

>  <source>  (3043) 
ACET_MBZ_03

>  <Index>  (3043) 
17902

$$$$
ACEH-pdb1t0q-A-GLH-103:MBZ-pdb1t0q-A-PHE-176
     RDKit          3D

 22 21  0  0  0  0  0  0  0  0999 V2000
    2.5348    0.5846    3.0998 C   0  0  0  0  0  0  0  0  0  0  0  0
    3.2525    0.5274    3.7712 H   0  0  0  0  0  0  0  0  0  0  0  0
    2.7643    0.1031    2.2718 H   0  0  0  0  0  0  0  0  0  0  0  0
    1.6437    0.1202    3.5222 H   0  0  0  0  0  0  0  0  0  0  0  0
    2.3587    2.0627    2.7388 C   0  0  0  0  0  0  0  0  0  0  0  0
    3.1550    2.5687    1.9232 O   0  0  0  0  0  0  0  0  0  0  0  0
    1.4449    2.7373    3.2624 O   0  0  0  0  0  0  0  0  0  0  0  0
   -0.0053    2.9108   -0.0184 C   0  0  0  0  0  0  0  0  0  0  0  0
    0.9284    3.2200    0.0599 H   0  0  0  0  0  0  0  0  0  0  0  0
   -0.5575    3.2234    0.7381 H   0  0  0  0  0  0  0  0  0  0  0  0
   -0.4217    3.3336   -0.9327 H   0  0  0  0  0  0  0  0  0  0  0  0
   -0.0001    1.4041   -0.0000 C   0  0  0  0  0  0  0  0  0  0  0  0
   -1.1990    0.6938    0.0002 C   0  0  0  0  0  0  0  0  0  0  0  0
   -2.0652    1.1851   -0.0011 H   0  0  0  0  0  0  0  0  0  0  0  0
   -1.2067   -0.6996    0.0000 C   0  0  0  0  0  0  0  0  0  0  0  0
   -2.0821   -1.1923    0.0014 H   0  0  0  0  0  0  0  0  0  0  0  0
   -0.0018   -1.3990   -0.0006 C   0  0  0  0  0  0  0  0  0  0  0  0
   -0.0023   -2.3934   -0.0024 H   0  0  0  0  0  0  0  0  0  0  0  0
    1.2067   -0.6946    0.0000 C   0  0  0  0  0  0  0  0  0  0  0  0
    2.0854   -1.1946    0.0013 H   0  0  0  0  0  0  0  0  0  0  0  0
    1.2009    0.6954    0.0005 C   0  0  0  0  0  0  0  0  0  0  0  0
    2.0668    1.1943    0.0006 H   0  0  0  0  0  0  0  0  0  0  0  0
  1  5  1  0
  5  6  2  0
  5  7  1  0
  1  2  1  0
  1  3  1  0
  1  4  1  0
  8 12  1  0
 12 13  2  0
 13 15  1  0
 15 17  2  0
 17 19  1  0
 19 21  2  0
 21 12  1  0
  8  9  1  0
  8 10  1  0
  8 11  1  0
 13 14  1  0
 15 16  1  0
 17 18  1  0
 19 20  1  0
 21 22  1  0
M  CHG  1   7  -1
V    7 [O&-]
M  END
>  <PDB_ID>  (3044) 
pdb1t0q

>  <RESIDUE_NAME>  (3044) 
GLU   PHE

>  <FRAG_NAME>  (3044) 
ACET   MBZ

>  <FRAG_ATOM_NUM>  (3044) 
fragi: 7 fragj: 15

>  <atom.prop.CHAIN_ID>  (3044) 
A A A A A A A Z Z Z Z Z Z Z Z Z Z Z Z Z Z Z

>  <atom.prop.IS_HEAVY_ATOM>  (3044) 
1 0 0 0 1 1 1 1 0 0 0 1 1 0 1 0 1 0 1 0 1 0

>  <DIFUSE_FUNC_ATOM>  (3044) 
n/a

>  <FINAL_SINGLE_POINT_ENERGY>  (3044) 
0

>  <NONCOV_INTER_ENERGY_QM>  (3044) 
0

>  <FF_Energy>  (3044) 
-0.64

>  <QM_Energy>  (3044) 
-6.96

>  <source>  (3044) 
ACET_MBZ_03

>  <Index>  (3044) 
17915

$$$$
ACEH-pdb1t5w-A-GLH-21:MBZ-pdb1t5w-A-PHE-137
     RDKit          3D

 22 21  0  0  0  0  0  0  0  0999 V2000
    5.2937    4.9219    0.0223 C   0  0  0  0  0  0  0  0  0  0  0  0
    5.3800    5.8986    0.1031 H   0  0  0  0  0  0  0  0  0  0  0  0
    5.8683    4.5577   -0.6890 H   0  0  0  0  0  0  0  0  0  0  0  0
    5.5917    4.4724    0.9695 H   0  0  0  0  0  0  0  0  0  0  0  0
    3.8584    4.6179   -0.3480 C   0  0  0  0  0  0  0  0  0  0  0  0
    3.5489    3.4390   -0.6264 O   0  0  0  0  0  0  0  0  0  0  0  0
    3.0390    5.5613   -0.3556 O   0  0  0  0  0  0  0  0  0  0  0  0
    0.0043    2.9019   -0.0529 C   0  0  0  0  0  0  0  0  0  0  0  0
    0.8800    3.2180    0.2757 H   0  0  0  0  0  0  0  0  0  0  0  0
   -0.7359    3.2305    0.5105 H   0  0  0  0  0  0  0  0  0  0  0  0
   -0.1387    3.2969   -1.0587 H   0  0  0  0  0  0  0  0  0  0  0  0
    0.0000    1.4035   -0.0011 C   0  0  0  0  0  0  0  0  0  0  0  0
   -1.2006    0.7040    0.0006 C   0  0  0  0  0  0  0  0  0  0  0  0
   -2.0645    1.2004    0.0010 H   0  0  0  0  0  0  0  0  0  0  0  0
   -1.2148   -0.6859    0.0000 C   0  0  0  0  0  0  0  0  0  0  0  0
   -2.0892   -1.1795    0.0016 H   0  0  0  0  0  0  0  0  0  0  0  0
   -0.0037   -1.4028   -0.0006 C   0  0  0  0  0  0  0  0  0  0  0  0
   -0.0173   -2.3949   -0.0018 H   0  0  0  0  0  0  0  0  0  0  0  0
    1.2148   -0.7079    0.0000 C   0  0  0  0  0  0  0  0  0  0  0  0
    2.0862   -1.2065    0.0009 H   0  0  0  0  0  0  0  0  0  0  0  0
    1.2043    0.6891    0.0011 C   0  0  0  0  0  0  0  0  0  0  0  0
    2.0707    1.1879    0.0029 H   0  0  0  0  0  0  0  0  0  0  0  0
  1  5  1  0
  5  6  2  0
  5  7  1  0
  1  2  1  0
  1  3  1  0
  1  4  1  0
  8 12  1  0
 12 13  2  0
 13 15  1  0
 15 17  2  0
 17 19  1  0
 19 21  2  0
 21 12  1  0
  8  9  1  0
  8 10  1  0
  8 11  1  0
 13 14  1  0
 15 16  1  0
 17 18  1  0
 19 20  1  0
 21 22  1  0
M  CHG  1   7  -1
V    7 [O&-]
M  END
>  <PDB_ID>  (3045) 
pdb1t5w

>  <RESIDUE_NAME>  (3045) 
GLU   PHE

>  <FRAG_NAME>  (3045) 
ACET   MBZ

>  <FRAG_ATOM_NUM>  (3045) 
fragi: 7 fragj: 15

>  <atom.prop.CHAIN_ID>  (3045) 
A A A A A A A Z Z Z Z Z Z Z Z Z Z Z Z Z Z Z

>  <atom.prop.IS_HEAVY_ATOM>  (3045) 
1 0 0 0 1 1 1 1 0 0 0 1 1 0 1 0 1 0 1 0 1 0

>  <DIFUSE_FUNC_ATOM>  (3045) 
n/a

>  <FINAL_SINGLE_POINT_ENERGY>  (3045) 
0

>  <NONCOV_INTER_ENERGY_QM>  (3045) 
0

>  <FF_Energy>  (3045) 
-2.41

>  <QM_Energy>  (3045) 
-7.55

>  <source>  (3045) 
ACET_MBZ_03

>  <Index>  (3045) 
17959

$$$$
ACEH-pdb3qs3-L-GLH-194:MBZ-pdb3qs3-L-PHE-42
     RDKit          3D

 22 21  0  0  0  0  0  0  0  0999 V2000
   -1.1355   -3.6308   -1.8915 C   0  0  0  0  0  0  0  0  0  0  0  0
   -1.1279   -2.6741   -2.1835 H   0  0  0  0  0  0  0  0  0  0  0  0
   -1.5044   -3.6923   -0.9638 H   0  0  0  0  0  0  0  0  0  0  0  0
   -1.8112   -4.1724   -2.5534 H   0  0  0  0  0  0  0  0  0  0  0  0
    0.2832   -4.1080   -1.8522 C   0  0  0  0  0  0  0  0  0  0  0  0
    0.9857   -3.4441   -1.0618 O   0  0  0  0  0  0  0  0  0  0  0  0
    0.7049   -5.0488   -2.5104 O   0  0  0  0  0  0  0  0  0  0  0  0
   -0.0032    2.8875   -0.0021 C   0  0  0  0  0  0  0  0  0  0  0  0
    0.8084    3.1991    0.4699 H   0  0  0  0  0  0  0  0  0  0  0  0
   -0.8245    3.1961    0.4564 H   0  0  0  0  0  0  0  0  0  0  0  0
    0.0043    3.3246   -1.0006 H   0  0  0  0  0  0  0  0  0  0  0  0
   -0.0004    1.3963   -0.0019 C   0  0  0  0  0  0  0  0  0  0  0  0
   -1.1935    0.6932    0.0010 C   0  0  0  0  0  0  0  0  0  0  0  0
   -2.0609    1.1863    0.0030 H   0  0  0  0  0  0  0  0  0  0  0  0
   -1.2017   -0.6922   -0.0000 C   0  0  0  0  0  0  0  0  0  0  0  0
   -2.0793   -1.1859    0.0003 H   0  0  0  0  0  0  0  0  0  0  0  0
   -0.0030   -1.3910   -0.0003 C   0  0  0  0  0  0  0  0  0  0  0  0
   -0.0088   -2.3899   -0.0017 H   0  0  0  0  0  0  0  0  0  0  0  0
    1.2017   -0.6976   -0.0000 C   0  0  0  0  0  0  0  0  0  0  0  0
    2.0800   -1.1977    0.0006 H   0  0  0  0  0  0  0  0  0  0  0  0
    1.1970    0.6912    0.0012 C   0  0  0  0  0  0  0  0  0  0  0  0
    2.0644    1.1888    0.0034 H   0  0  0  0  0  0  0  0  0  0  0  0
  1  5  1  0
  5  6  2  0
  5  7  1  0
  1  2  1  0
  1  3  1  0
  1  4  1  0
  8 12  1  0
 12 13  2  0
 13 15  1  0
 15 17  2  0
 17 19  1  0
 19 21  2  0
 21 12  1  0
  8  9  1  0
  8 10  1  0
  8 11  1  0
 13 14  1  0
 15 16  1  0
 17 18  1  0
 19 20  1  0
 21 22  1  0
M  CHG  1   7  -1
V    7 [O&-]
M  END
>  <PDB_ID>  (3046) 
pdb3qs3

>  <RESIDUE_NAME>  (3046) 
GLU   PHE

>  <FRAG_NAME>  (3046) 
ACET   MBZ

>  <FRAG_ATOM_NUM>  (3046) 
fragi: 7 fragj: 15

>  <atom.prop.CHAIN_ID>  (3046) 
A A A A A A A Z Z Z Z Z Z Z Z Z Z Z Z Z Z Z

>  <atom.prop.IS_HEAVY_ATOM>  (3046) 
1 0 0 0 1 1 1 1 0 0 0 1 1 0 1 0 1 0 1 0 1 0

>  <DIFUSE_FUNC_ATOM>  (3046) 
n/a

>  <FINAL_SINGLE_POINT_ENERGY>  (3046) 
0

>  <NONCOV_INTER_ENERGY_QM>  (3046) 
0

>  <FF_Energy>  (3046) 
40.6

>  <QM_Energy>  (3046) 
2.77

>  <source>  (3046) 
ACET_MBZ_03

>  <Index>  (3046) 
17981

$$$$
ACEH-pdb1tjl-G-GLH-65:MBZ-pdb1tjl-G-PHE-82
     RDKit          3D

 22 21  0  0  0  0  0  0  0  0999 V2000
   -5.5764    1.9053   -0.1688 C   0  0  0  0  0  0  0  0  0  0  0  0
   -6.1267    2.5894   -0.6098 H   0  0  0  0  0  0  0  0  0  0  0  0
   -6.0812    1.3961    0.5028 H   0  0  0  0  0  0  0  0  0  0  0  0
   -5.2179    1.2117   -0.9294 H   0  0  0  0  0  0  0  0  0  0  0  0
   -4.4475    2.6371    0.5709 C   0  0  0  0  0  0  0  0  0  0  0  0
   -3.6755    1.9866    1.3112 O   0  0  0  0  0  0  0  0  0  0  0  0
   -4.3272    3.8763    0.4079 O   0  0  0  0  0  0  0  0  0  0  0  0
   -0.0012    2.9097   -0.0478 C   0  0  0  0  0  0  0  0  0  0  0  0
   -0.8243    3.1999   -0.5169 H   0  0  0  0  0  0  0  0  0  0  0  0
    0.8080    3.1992   -0.5416 H   0  0  0  0  0  0  0  0  0  0  0  0
    0.0135    3.3888    0.9311 H   0  0  0  0  0  0  0  0  0  0  0  0
   -0.0010    1.4087   -0.0011 C   0  0  0  0  0  0  0  0  0  0  0  0
   -1.2009    0.6995    0.0004 C   0  0  0  0  0  0  0  0  0  0  0  0
   -2.0665    1.1868    0.0003 H   0  0  0  0  0  0  0  0  0  0  0  0
   -1.2052   -0.7000    0.0000 C   0  0  0  0  0  0  0  0  0  0  0  0
   -2.0785   -1.1931    0.0029 H   0  0  0  0  0  0  0  0  0  0  0  0
    0.0049   -1.3990   -0.0021 C   0  0  0  0  0  0  0  0  0  0  0  0
   -0.0049   -2.3988   -0.0056 H   0  0  0  0  0  0  0  0  0  0  0  0
    1.2052   -0.7076   -0.0000 C   0  0  0  0  0  0  0  0  0  0  0  0
    2.0874   -1.1959    0.0007 H   0  0  0  0  0  0  0  0  0  0  0  0
    1.1969    0.6984    0.0028 C   0  0  0  0  0  0  0  0  0  0  0  0
    2.0660    1.1895    0.0073 H   0  0  0  0  0  0  0  0  0  0  0  0
  1  5  1  0
  5  6  2  0
  5  7  1  0
  1  2  1  0
  1  3  1  0
  1  4  1  0
  8 12  1  0
 12 13  2  0
 13 15  1  0
 15 17  2  0
 17 19  1  0
 19 21  2  0
 21 12  1  0
  8  9  1  0
  8 10  1  0
  8 11  1  0
 13 14  1  0
 15 16  1  0
 17 18  1  0
 19 20  1  0
 21 22  1  0
M  CHG  1   7  -1
V    7 [O&-]
M  END
>  <PDB_ID>  (3047) 
pdb1tjl

>  <RESIDUE_NAME>  (3047) 
GLU   PHE

>  <FRAG_NAME>  (3047) 
ACET   MBZ

>  <FRAG_ATOM_NUM>  (3047) 
fragi: 7 fragj: 15

>  <atom.prop.CHAIN_ID>  (3047) 
A A A A A A A Z Z Z Z Z Z Z Z Z Z Z Z Z Z Z

>  <atom.prop.IS_HEAVY_ATOM>  (3047) 
1 0 0 0 1 1 1 1 0 0 0 1 1 0 1 0 1 0 1 0 1 0

>  <DIFUSE_FUNC_ATOM>  (3047) 
n/a

>  <FINAL_SINGLE_POINT_ENERGY>  (3047) 
0

>  <NONCOV_INTER_ENERGY_QM>  (3047) 
0

>  <FF_Energy>  (3047) 
-0.28

>  <QM_Energy>  (3047) 
-6.48

>  <source>  (3047) 
ACET_MBZ_03

>  <Index>  (3047) 
18048

$$$$
ACEH-pdb4weo-A-ASH-252:MBZ-pdb4weo-A-PHE-255
     RDKit          3D

 22 21  0  0  0  0  0  0  0  0999 V2000
    2.7841    5.3755   -1.8119 C   0  0  0  0  0  0  0  0  0  0  0  0
    2.1390    4.6959   -2.1432 H   0  0  0  0  0  0  0  0  0  0  0  0
    3.6949    5.1884   -2.1625 H   0  0  0  0  0  0  0  0  0  0  0  0
    2.4706    6.3498   -2.1866 H   0  0  0  0  0  0  0  0  0  0  0  0
    2.8276    5.2956   -0.2821 C   0  0  0  0  0  0  0  0  0  0  0  0
    2.7237    6.3319    0.4160 O   0  0  0  0  0  0  0  0  0  0  0  0
    2.9767    4.1626    0.2302 O   0  0  0  0  0  0  0  0  0  0  0  0
    0.0155    2.8800    0.0234 C   0  0  0  0  0  0  0  0  0  0  0  0
   -0.6851    3.2073   -0.5907 H   0  0  0  0  0  0  0  0  0  0  0  0
    0.9128    3.1843   -0.2534 H   0  0  0  0  0  0  0  0  0  0  0  0
   -0.1873    3.2856    1.0145 H   0  0  0  0  0  0  0  0  0  0  0  0
    0.0003    1.3883   -0.0064 C   0  0  0  0  0  0  0  0  0  0  0  0
   -1.1886    0.6952    0.0044 C   0  0  0  0  0  0  0  0  0  0  0  0
   -2.0560    1.1863    0.0143 H   0  0  0  0  0  0  0  0  0  0  0  0
   -1.1897   -0.6851   -0.0000 C   0  0  0  0  0  0  0  0  0  0  0  0
   -2.0729   -1.1798   -0.0007 H   0  0  0  0  0  0  0  0  0  0  0  0
   -0.0041   -1.3761   -0.0018 C   0  0  0  0  0  0  0  0  0  0  0  0
   -0.0134   -2.3822   -0.0047 H   0  0  0  0  0  0  0  0  0  0  0  0
    1.1897   -0.6982    0.0000 C   0  0  0  0  0  0  0  0  0  0  0  0
    2.0699   -1.2043    0.0001 H   0  0  0  0  0  0  0  0  0  0  0  0
    1.1924    0.6758    0.0037 C   0  0  0  0  0  0  0  0  0  0  0  0
    2.0617    1.1754    0.0131 H   0  0  0  0  0  0  0  0  0  0  0  0
  1  5  1  0
  5  6  2  0
  5  7  1  0
  1  2  1  0
  1  3  1  0
  1  4  1  0
  8 12  1  0
 12 13  2  0
 13 15  1  0
 15 17  2  0
 17 19  1  0
 19 21  2  0
 21 12  1  0
  8  9  1  0
  8 10  1  0
  8 11  1  0
 13 14  1  0
 15 16  1  0
 17 18  1  0
 19 20  1  0
 21 22  1  0
M  CHG  1   7  -1
V    7 [O&-]
M  END
>  <PDB_ID>  (3048) 
pdb4weo

>  <RESIDUE_NAME>  (3048) 
ASP   PHE

>  <FRAG_NAME>  (3048) 
ACET   MBZ

>  <FRAG_ATOM_NUM>  (3048) 
fragi: 7 fragj: 15

>  <atom.prop.CHAIN_ID>  (3048) 
A A A A A A A Z Z Z Z Z Z Z Z Z Z Z Z Z Z Z

>  <atom.prop.IS_HEAVY_ATOM>  (3048) 
1 0 0 0 1 1 1 1 0 0 0 1 1 0 1 0 1 0 1 0 1 0

>  <DIFUSE_FUNC_ATOM>  (3048) 
n/a

>  <FINAL_SINGLE_POINT_ENERGY>  (3048) 
0

>  <NONCOV_INTER_ENERGY_QM>  (3048) 
0

>  <FF_Energy>  (3048) 
-1.42

>  <QM_Energy>  (3048) 
-6.43

>  <source>  (3048) 
ACET_MBZ_03

>  <Index>  (3048) 
18054

$$$$
ACEH-pdb1tqn-A-ASH-270:MBZ-pdb1tqn-A-PHE-189
     RDKit          3D

 22 21  0  0  0  0  0  0  0  0999 V2000
   -4.4016    3.8445    2.5883 C   0  0  0  0  0  0  0  0  0  0  0  0
   -4.4198    4.5702    1.9101 H   0  0  0  0  0  0  0  0  0  0  0  0
   -3.8387    4.1050    3.3636 H   0  0  0  0  0  0  0  0  0  0  0  0
   -5.4197    3.6891    2.9451 H   0  0  0  0  0  0  0  0  0  0  0  0
   -3.8103    2.5996    1.9532 C   0  0  0  0  0  0  0  0  0  0  0  0
   -4.5291    1.8997    1.2076 O   0  0  0  0  0  0  0  0  0  0  0  0
   -2.6172    2.3220    2.1956 O   0  0  0  0  0  0  0  0  0  0  0  0
   -0.0072    2.9350   -0.0380 C   0  0  0  0  0  0  0  0  0  0  0  0
   -0.5615    3.2123   -0.8041 H   0  0  0  0  0  0  0  0  0  0  0  0
    0.9267    3.2348   -0.1311 H   0  0  0  0  0  0  0  0  0  0  0  0
   -0.4204    3.3932    0.8606 H   0  0  0  0  0  0  0  0  0  0  0  0
   -0.0011    1.4119   -0.0003 C   0  0  0  0  0  0  0  0  0  0  0  0
   -1.2021    0.6907    0.0025 C   0  0  0  0  0  0  0  0  0  0  0  0
   -2.0686    1.1801    0.0051 H   0  0  0  0  0  0  0  0  0  0  0  0
   -1.2046   -0.7028    0.0000 C   0  0  0  0  0  0  0  0  0  0  0  0
   -2.0791   -1.1977    0.0014 H   0  0  0  0  0  0  0  0  0  0  0  0
    0.0014   -1.4002   -0.0026 C   0  0  0  0  0  0  0  0  0  0  0  0
   -0.0028   -2.3976   -0.0070 H   0  0  0  0  0  0  0  0  0  0  0  0
    1.2046   -0.7015   -0.0000 C   0  0  0  0  0  0  0  0  0  0  0  0
    2.0864   -1.1943    0.0033 H   0  0  0  0  0  0  0  0  0  0  0  0
    1.2018    0.7019    0.0004 C   0  0  0  0  0  0  0  0  0  0  0  0
    2.0679    1.1938    0.0004 H   0  0  0  0  0  0  0  0  0  0  0  0
  1  5  1  0
  5  6  2  0
  5  7  1  0
  1  2  1  0
  1  3  1  0
  1  4  1  0
  8 12  1  0
 12 13  2  0
 13 15  1  0
 15 17  2  0
 17 19  1  0
 19 21  2  0
 21 12  1  0
  8  9  1  0
  8 10  1  0
  8 11  1  0
 13 14  1  0
 15 16  1  0
 17 18  1  0
 19 20  1  0
 21 22  1  0
M  CHG  1   7  -1
V    7 [O&-]
M  END
>  <PDB_ID>  (3049) 
pdb1tqn

>  <RESIDUE_NAME>  (3049) 
ASP   PHE

>  <FRAG_NAME>  (3049) 
ACET   MBZ

>  <FRAG_ATOM_NUM>  (3049) 
fragi: 7 fragj: 15

>  <atom.prop.CHAIN_ID>  (3049) 
A A A A A A A Z Z Z Z Z Z Z Z Z Z Z Z Z Z Z

>  <atom.prop.IS_HEAVY_ATOM>  (3049) 
1 0 0 0 1 1 1 1 0 0 0 1 1 0 1 0 1 0 1 0 1 0

>  <DIFUSE_FUNC_ATOM>  (3049) 
n/a

>  <FINAL_SINGLE_POINT_ENERGY>  (3049) 
0

>  <NONCOV_INTER_ENERGY_QM>  (3049) 
0

>  <FF_Energy>  (3049) 
-0.92

>  <QM_Energy>  (3049) 
-6.8

>  <source>  (3049) 
ACET_MBZ_03

>  <Index>  (3049) 
18060

$$$$
ACEH-pdb1tt0-C-GLH-178:MBZ-pdb1tt0-C-PHE-439
     RDKit          3D

 22 21  0  0  0  0  0  0  0  0999 V2000
   -3.8071   -1.5705    2.0588 C   0  0  0  0  0  0  0  0  0  0  0  0
   -3.9713   -0.7047    2.5050 H   0  0  0  0  0  0  0  0  0  0  0  0
   -2.8486   -1.8102    2.0760 H   0  0  0  0  0  0  0  0  0  0  0  0
   -4.3721   -2.3441    2.5789 H   0  0  0  0  0  0  0  0  0  0  0  0
   -4.1949   -1.3938    0.5857 C   0  0  0  0  0  0  0  0  0  0  0  0
   -4.3910   -2.4373   -0.1043 O   0  0  0  0  0  0  0  0  0  0  0  0
   -4.2868   -0.2000    0.1372 O   0  0  0  0  0  0  0  0  0  0  0  0
    0.0534    2.8845    0.0604 C   0  0  0  0  0  0  0  0  0  0  0  0
    0.9936    3.1566    0.2486 H   0  0  0  0  0  0  0  0  0  0  0  0
   -0.5427    3.1787    0.8019 H   0  0  0  0  0  0  0  0  0  0  0  0
   -0.2679    3.3918   -0.8493 H   0  0  0  0  0  0  0  0  0  0  0  0
    0.0111    1.3900    0.0032 C   0  0  0  0  0  0  0  0  0  0  0  0
   -1.1795    0.7090    0.0185 C   0  0  0  0  0  0  0  0  0  0  0  0
   -2.0464    1.1754    0.0410 H   0  0  0  0  0  0  0  0  0  0  0  0
   -1.1719   -0.7130    0.0000 C   0  0  0  0  0  0  0  0  0  0  0  0
   -2.0701   -1.1793    0.0166 H   0  0  0  0  0  0  0  0  0  0  0  0
   -0.0179   -1.3675   -0.0358 C   0  0  0  0  0  0  0  0  0  0  0  0
   -0.0004   -2.3843   -0.0911 H   0  0  0  0  0  0  0  0  0  0  0  0
    1.1719   -0.6901   -0.0000 C   0  0  0  0  0  0  0  0  0  0  0  0
    2.0541   -1.2064    0.0179 H   0  0  0  0  0  0  0  0  0  0  0  0
    1.1863    0.6716    0.0141 C   0  0  0  0  0  0  0  0  0  0  0  0
    2.0640    1.1656    0.0321 H   0  0  0  0  0  0  0  0  0  0  0  0
  1  5  1  0
  5  6  2  0
  5  7  1  0
  1  2  1  0
  1  3  1  0
  1  4  1  0
  8 12  1  0
 12 13  2  0
 13 15  1  0
 15 17  2  0
 17 19  1  0
 19 21  2  0
 21 12  1  0
  8  9  1  0
  8 10  1  0
  8 11  1  0
 13 14  1  0
 15 16  1  0
 17 18  1  0
 19 20  1  0
 21 22  1  0
M  CHG  1   7  -1
V    7 [O&-]
M  END
>  <PDB_ID>  (3050) 
pdb1tt0

>  <RESIDUE_NAME>  (3050) 
GLU   PHE

>  <FRAG_NAME>  (3050) 
ACET   MBZ

>  <FRAG_ATOM_NUM>  (3050) 
fragi: 7 fragj: 15

>  <atom.prop.CHAIN_ID>  (3050) 
A A A A A A A Z Z Z Z Z Z Z Z Z Z Z Z Z Z Z

>  <atom.prop.IS_HEAVY_ATOM>  (3050) 
1 0 0 0 1 1 1 1 0 0 0 1 1 0 1 0 1 0 1 0 1 0

>  <DIFUSE_FUNC_ATOM>  (3050) 
n/a

>  <FINAL_SINGLE_POINT_ENERGY>  (3050) 
0

>  <NONCOV_INTER_ENERGY_QM>  (3050) 
0

>  <FF_Energy>  (3050) 
4.18

>  <QM_Energy>  (3050) 
-5.65

>  <source>  (3050) 
ACET_MBZ_03

>  <Index>  (3050) 
18084

$$$$
ACEH-pdb1tt0-D-GLH-178:MBZ-pdb1tt0-D-PHE-439
     RDKit          3D

 22 21  0  0  0  0  0  0  0  0999 V2000
   -3.8428   -1.5557    2.1250 C   0  0  0  0  0  0  0  0  0  0  0  0
   -4.1913   -0.7535    2.5806 H   0  0  0  0  0  0  0  0  0  0  0  0
   -2.8587   -1.6053    2.1749 H   0  0  0  0  0  0  0  0  0  0  0  0
   -4.2686   -2.4432    2.5931 H   0  0  0  0  0  0  0  0  0  0  0  0
   -4.2024   -1.4117    0.6401 C   0  0  0  0  0  0  0  0  0  0  0  0
   -4.2376   -2.4697   -0.0553 O   0  0  0  0  0  0  0  0  0  0  0  0
   -4.4310   -0.2394    0.1773 O   0  0  0  0  0  0  0  0  0  0  0  0
    0.0145    2.8921    0.0452 C   0  0  0  0  0  0  0  0  0  0  0  0
    0.9519    3.1891    0.1779 H   0  0  0  0  0  0  0  0  0  0  0  0
   -0.5571    3.1821    0.8026 H   0  0  0  0  0  0  0  0  0  0  0  0
   -0.3586    3.3896   -0.8501 H   0  0  0  0  0  0  0  0  0  0  0  0
   -0.0031    1.3981   -0.0140 C   0  0  0  0  0  0  0  0  0  0  0  0
   -1.2078    0.6784    0.0336 C   0  0  0  0  0  0  0  0  0  0  0  0
   -2.0674    1.1555    0.0890 H   0  0  0  0  0  0  0  0  0  0  0  0
   -1.1822   -0.7161   -0.0000 C   0  0  0  0  0  0  0  0  0  0  0  0
   -2.0561   -1.2197    0.0007 H   0  0  0  0  0  0  0  0  0  0  0  0
    0.0147   -1.3728   -0.0318 C   0  0  0  0  0  0  0  0  0  0  0  0
    0.0155   -2.3896   -0.0808 H   0  0  0  0  0  0  0  0  0  0  0  0
    1.1822   -0.6951   -0.0000 C   0  0  0  0  0  0  0  0  0  0  0  0
    2.0807   -1.1833    0.0174 H   0  0  0  0  0  0  0  0  0  0  0  0
    1.1962    0.7075    0.0122 C   0  0  0  0  0  0  0  0  0  0  0  0
    2.0585    1.1905    0.0388 H   0  0  0  0  0  0  0  0  0  0  0  0
  1  5  1  0
  5  6  2  0
  5  7  1  0
  1  2  1  0
  1  3  1  0
  1  4  1  0
  8 12  1  0
 12 13  2  0
 13 15  1  0
 15 17  2  0
 17 19  1  0
 19 21  2  0
 21 12  1  0
  8  9  1  0
  8 10  1  0
  8 11  1  0
 13 14  1  0
 15 16  1  0
 17 18  1  0
 19 20  1  0
 21 22  1  0
M  CHG  1   7  -1
V    7 [O&-]
M  END
>  <PDB_ID>  (3051) 
pdb1tt0

>  <RESIDUE_NAME>  (3051) 
GLU   PHE

>  <FRAG_NAME>  (3051) 
ACET   MBZ

>  <FRAG_ATOM_NUM>  (3051) 
fragi: 7 fragj: 15

>  <atom.prop.CHAIN_ID>  (3051) 
A A A A A A A Z Z Z Z Z Z Z Z Z Z Z Z Z Z Z

>  <atom.prop.IS_HEAVY_ATOM>  (3051) 
1 0 0 0 1 1 1 1 0 0 0 1 1 0 1 0 1 0 1 0 1 0

>  <DIFUSE_FUNC_ATOM>  (3051) 
n/a

>  <FINAL_SINGLE_POINT_ENERGY>  (3051) 
0

>  <NONCOV_INTER_ENERGY_QM>  (3051) 
0

>  <FF_Energy>  (3051) 
2.34

>  <QM_Energy>  (3051) 
-6.25

>  <source>  (3051) 
ACET_MBZ_03

>  <Index>  (3051) 
18089

$$$$
ACEH-pdb4wl3-B-GLH-152:MBZ-pdb4wl3-B-PHE-161
     RDKit          3D

 22 21  0  0  0  0  0  0  0  0999 V2000
   -4.5641   -1.0325   -0.9735 C   0  0  0  0  0  0  0  0  0  0  0  0
   -5.1722   -0.5248   -1.5861 H   0  0  0  0  0  0  0  0  0  0  0  0
   -4.2673   -0.4280   -0.2317 H   0  0  0  0  0  0  0  0  0  0  0  0
   -5.1193   -1.8667   -0.5447 H   0  0  0  0  0  0  0  0  0  0  0  0
   -3.3182   -1.3763   -1.7799 C   0  0  0  0  0  0  0  0  0  0  0  0
   -2.6652   -0.3937   -2.2300 O   0  0  0  0  0  0  0  0  0  0  0  0
   -2.8852   -2.5425   -1.8411 O   0  0  0  0  0  0  0  0  0  0  0  0
    0.0362    2.9104   -0.0220 C   0  0  0  0  0  0  0  0  0  0  0  0
   -0.7160    3.2137   -0.5995 H   0  0  0  0  0  0  0  0  0  0  0  0
    0.9072    3.1820   -0.4207 H   0  0  0  0  0  0  0  0  0  0  0  0
   -0.0609    3.4020    0.9460 H   0  0  0  0  0  0  0  0  0  0  0  0
    0.0025    1.4012    0.0137 C   0  0  0  0  0  0  0  0  0  0  0  0
   -1.1922    0.7237   -0.0264 C   0  0  0  0  0  0  0  0  0  0  0  0
   -2.0529    1.2178   -0.0760 H   0  0  0  0  0  0  0  0  0  0  0  0
   -1.2047   -0.6621   -0.0000 C   0  0  0  0  0  0  0  0  0  0  0  0
   -2.0919   -1.1526    0.0063 H   0  0  0  0  0  0  0  0  0  0  0  0
   -0.0112   -1.4019    0.0200 C   0  0  0  0  0  0  0  0  0  0  0  0
   -0.0481   -2.3936    0.0480 H   0  0  0  0  0  0  0  0  0  0  0  0
    1.2047   -0.7319   -0.0000 C   0  0  0  0  0  0  0  0  0  0  0  0
    2.0743   -1.2290   -0.0078 H   0  0  0  0  0  0  0  0  0  0  0  0
    1.2010    0.6711   -0.0072 C   0  0  0  0  0  0  0  0  0  0  0  0
    2.0730    1.1622   -0.0286 H   0  0  0  0  0  0  0  0  0  0  0  0
  1  5  1  0
  5  6  2  0
  5  7  1  0
  1  2  1  0
  1  3  1  0
  1  4  1  0
  8 12  1  0
 12 13  2  0
 13 15  1  0
 15 17  2  0
 17 19  1  0
 19 21  2  0
 21 12  1  0
  8  9  1  0
  8 10  1  0
  8 11  1  0
 13 14  1  0
 15 16  1  0
 17 18  1  0
 19 20  1  0
 21 22  1  0
M  CHG  1   7  -1
V    7 [O&-]
M  END
>  <PDB_ID>  (3052) 
pdb4wl3

>  <RESIDUE_NAME>  (3052) 
GLU   PHE

>  <FRAG_NAME>  (3052) 
ACET   MBZ

>  <FRAG_ATOM_NUM>  (3052) 
fragi: 7 fragj: 15

>  <atom.prop.CHAIN_ID>  (3052) 
A A A A A A A Z Z Z Z Z Z Z Z Z Z Z Z Z Z Z

>  <atom.prop.IS_HEAVY_ATOM>  (3052) 
1 0 0 0 1 1 1 1 0 0 0 1 1 0 1 0 1 0 1 0 1 0

>  <DIFUSE_FUNC_ATOM>  (3052) 
n/a

>  <FINAL_SINGLE_POINT_ENERGY>  (3052) 
0

>  <NONCOV_INTER_ENERGY_QM>  (3052) 
0

>  <FF_Energy>  (3052) 
15.92

>  <QM_Energy>  (3052) 
0.21

>  <source>  (3052) 
ACET_MBZ_03

>  <Index>  (3052) 
18098

$$$$
ACEH-pdb4wl3-C-GLH-152:MBZ-pdb4wl3-C-PHE-174
     RDKit          3D

 22 21  0  0  0  0  0  0  0  0999 V2000
    0.5627    5.7173   -3.7100 C   0  0  0  0  0  0  0  0  0  0  0  0
   -0.1929    5.2427   -4.1513 H   0  0  0  0  0  0  0  0  0  0  0  0
    1.4313    5.3628   -4.0432 H   0  0  0  0  0  0  0  0  0  0  0  0
    0.5032    6.7667   -3.9988 H   0  0  0  0  0  0  0  0  0  0  0  0
    0.4857    5.4185   -2.2206 C   0  0  0  0  0  0  0  0  0  0  0  0
    0.5540    4.1757   -1.8878 O   0  0  0  0  0  0  0  0  0  0  0  0
    0.5477    6.3358   -1.3723 O   0  0  0  0  0  0  0  0  0  0  0  0
    0.0145    2.8748   -0.0184 C   0  0  0  0  0  0  0  0  0  0  0  0
   -0.5153    3.1957   -0.7896 H   0  0  0  0  0  0  0  0  0  0  0  0
    0.9527    3.1846   -0.0757 H   0  0  0  0  0  0  0  0  0  0  0  0
   -0.4166    3.3276    0.8745 H   0  0  0  0  0  0  0  0  0  0  0  0
   -0.0013    1.3926   -0.0097 C   0  0  0  0  0  0  0  0  0  0  0  0
   -1.1844    0.6941    0.0000 C   0  0  0  0  0  0  0  0  0  0  0  0
   -2.0563    1.1848    0.0063 H   0  0  0  0  0  0  0  0  0  0  0  0
   -1.1957   -0.6917    0.0000 C   0  0  0  0  0  0  0  0  0  0  0  0
   -2.0784   -1.1797   -0.0182 H   0  0  0  0  0  0  0  0  0  0  0  0
   -0.0086   -1.3852    0.0269 C   0  0  0  0  0  0  0  0  0  0  0  0
   -0.0054   -2.3823    0.0646 H   0  0  0  0  0  0  0  0  0  0  0  0
    1.1957   -0.6859   -0.0000 C   0  0  0  0  0  0  0  0  0  0  0  0
    2.0732   -1.2004   -0.0056 H   0  0  0  0  0  0  0  0  0  0  0  0
    1.1943    0.6761   -0.0172 C   0  0  0  0  0  0  0  0  0  0  0  0
    2.0611    1.1845   -0.0366 H   0  0  0  0  0  0  0  0  0  0  0  0
  1  5  1  0
  5  6  2  0
  5  7  1  0
  1  2  1  0
  1  3  1  0
  1  4  1  0
  8 12  1  0
 12 13  2  0
 13 15  1  0
 15 17  2  0
 17 19  1  0
 19 21  2  0
 21 12  1  0
  8  9  1  0
  8 10  1  0
  8 11  1  0
 13 14  1  0
 15 16  1  0
 17 18  1  0
 19 20  1  0
 21 22  1  0
M  CHG  1   7  -1
V    7 [O&-]
M  END
>  <PDB_ID>  (3053) 
pdb4wl3

>  <RESIDUE_NAME>  (3053) 
GLU   PHE

>  <FRAG_NAME>  (3053) 
ACET   MBZ

>  <FRAG_ATOM_NUM>  (3053) 
fragi: 7 fragj: 15

>  <atom.prop.CHAIN_ID>  (3053) 
A A A A A A A Z Z Z Z Z Z Z Z Z Z Z Z Z Z Z

>  <atom.prop.IS_HEAVY_ATOM>  (3053) 
1 0 0 0 1 1 1 1 0 0 0 1 1 0 1 0 1 0 1 0 1 0

>  <DIFUSE_FUNC_ATOM>  (3053) 
n/a

>  <FINAL_SINGLE_POINT_ENERGY>  (3053) 
0

>  <NONCOV_INTER_ENERGY_QM>  (3053) 
0

>  <FF_Energy>  (3053) 
49.25

>  <QM_Energy>  (3053) 
8.54

>  <source>  (3053) 
ACET_MBZ_03

>  <Index>  (3053) 
18101

$$$$
ACEH-pdb3re8-B-ASH-388:MBZ-pdb3re8-D-PHE-325
     RDKit          3D

 22 21  0  0  0  0  0  0  0  0999 V2000
    0.2325    0.0694   -3.4960 C   0  0  0  0  0  0  0  0  0  0  0  0
   -0.1054   -0.3293   -4.3362 H   0  0  0  0  0  0  0  0  0  0  0  0
   -0.1001   -0.4240   -2.7065 H   0  0  0  0  0  0  0  0  0  0  0  0
    1.3208    0.0100   -3.5033 H   0  0  0  0  0  0  0  0  0  0  0  0
   -0.2712    1.5179   -3.4099 C   0  0  0  0  0  0  0  0  0  0  0  0
    0.5471    2.4209   -3.1276 O   0  0  0  0  0  0  0  0  0  0  0  0
   -1.4771    1.7540   -3.6158 O   0  0  0  0  0  0  0  0  0  0  0  0
   -0.0108    2.9130    0.0080 C   0  0  0  0  0  0  0  0  0  0  0  0
   -0.7665    3.2171   -0.5483 H   0  0  0  0  0  0  0  0  0  0  0  0
    0.8545    3.2242   -0.3508 H   0  0  0  0  0  0  0  0  0  0  0  0
   -0.1336    3.3406    1.0031 H   0  0  0  0  0  0  0  0  0  0  0  0
   -0.0038    1.4074    0.0005 C   0  0  0  0  0  0  0  0  0  0  0  0
   -1.2034    0.6956    0.0004 C   0  0  0  0  0  0  0  0  0  0  0  0
   -2.0698    1.1846   -0.0007 H   0  0  0  0  0  0  0  0  0  0  0  0
   -1.2081   -0.6991    0.0000 C   0  0  0  0  0  0  0  0  0  0  0  0
   -2.0795   -1.1950    0.0021 H   0  0  0  0  0  0  0  0  0  0  0  0
    0.0044   -1.3987   -0.0019 C   0  0  0  0  0  0  0  0  0  0  0  0
   -0.0041   -2.3971   -0.0050 H   0  0  0  0  0  0  0  0  0  0  0  0
    1.2081   -0.7034   -0.0000 C   0  0  0  0  0  0  0  0  0  0  0  0
    2.0888   -1.1962    0.0017 H   0  0  0  0  0  0  0  0  0  0  0  0
    1.2028    0.6982    0.0010 C   0  0  0  0  0  0  0  0  0  0  0  0
    2.0662    1.1934    0.0009 H   0  0  0  0  0  0  0  0  0  0  0  0
  1  5  1  0
  5  6  2  0
  5  7  1  0
  1  2  1  0
  1  3  1  0
  1  4  1  0
  8 12  1  0
 12 13  2  0
 13 15  1  0
 15 17  2  0
 17 19  1  0
 19 21  2  0
 21 12  1  0
  8  9  1  0
  8 10  1  0
  8 11  1  0
 13 14  1  0
 15 16  1  0
 17 18  1  0
 19 20  1  0
 21 22  1  0
M  CHG  1   7  -1
V    7 [O&-]
M  END
>  <PDB_ID>  (3054) 
pdb3re8

>  <RESIDUE_NAME>  (3054) 
ASP   PHE

>  <FRAG_NAME>  (3054) 
ACET   MBZ

>  <FRAG_ATOM_NUM>  (3054) 
fragi: 7 fragj: 15

>  <atom.prop.CHAIN_ID>  (3054) 
A A A A A A A Z Z Z Z Z Z Z Z Z Z Z Z Z Z Z

>  <atom.prop.IS_HEAVY_ATOM>  (3054) 
1 0 0 0 1 1 1 1 0 0 0 1 1 0 1 0 1 0 1 0 1 0

>  <DIFUSE_FUNC_ATOM>  (3054) 
n/a

>  <FINAL_SINGLE_POINT_ENERGY>  (3054) 
0

>  <NONCOV_INTER_ENERGY_QM>  (3054) 
0

>  <FF_Energy>  (3054) 
0.94

>  <QM_Energy>  (3054) 
-5.48

>  <source>  (3054) 
ACET_MBZ_03

>  <Index>  (3054) 
18172

$$$$
ACEH-pdb3reo-B-ASH-209:MBZ-pdb3reo-B-PHE-266
     RDKit          3D

 22 21  0  0  0  0  0  0  0  0999 V2000
   -4.7694    3.5890    0.4328 C   0  0  0  0  0  0  0  0  0  0  0  0
   -4.4050    3.5092    1.3433 H   0  0  0  0  0  0  0  0  0  0  0  0
   -5.7277    3.8099    0.4350 H   0  0  0  0  0  0  0  0  0  0  0  0
   -4.2149    4.3444   -0.1241 H   0  0  0  0  0  0  0  0  0  0  0  0
   -4.6355    2.1515   -0.2366 C   0  0  0  0  0  0  0  0  0  0  0  0
   -3.8449    1.9910   -1.1849 O   0  0  0  0  0  0  0  0  0  0  0  0
   -5.2963    1.1607    0.1708 O   0  0  0  0  0  0  0  0  0  0  0  0
    0.0146    2.9068    0.0055 C   0  0  0  0  0  0  0  0  0  0  0  0
    0.5812    3.2012    0.7630 H   0  0  0  0  0  0  0  0  0  0  0  0
   -0.9188    3.2180    0.1175 H   0  0  0  0  0  0  0  0  0  0  0  0
    0.4141    3.3408   -0.9110 H   0  0  0  0  0  0  0  0  0  0  0  0
   -0.0039    1.4020    0.0074 C   0  0  0  0  0  0  0  0  0  0  0  0
   -1.1898    0.7068   -0.0123 C   0  0  0  0  0  0  0  0  0  0  0  0
   -2.0597    1.1946   -0.0367 H   0  0  0  0  0  0  0  0  0  0  0  0
   -1.1958   -0.6819    0.0000 C   0  0  0  0  0  0  0  0  0  0  0  0
   -2.0716   -1.1786   -0.0016 H   0  0  0  0  0  0  0  0  0  0  0  0
    0.0132   -1.3994    0.0168 C   0  0  0  0  0  0  0  0  0  0  0  0
   -0.0219   -2.3986    0.0400 H   0  0  0  0  0  0  0  0  0  0  0  0
    1.1958   -0.7276    0.0000 C   0  0  0  0  0  0  0  0  0  0  0  0
    2.0854   -1.1952   -0.0029 H   0  0  0  0  0  0  0  0  0  0  0  0
    1.1805    0.7001   -0.0119 C   0  0  0  0  0  0  0  0  0  0  0  0
    2.0582    1.1790   -0.0357 H   0  0  0  0  0  0  0  0  0  0  0  0
  1  5  1  0
  5  6  2  0
  5  7  1  0
  1  2  1  0
  1  3  1  0
  1  4  1  0
  8 12  1  0
 12 13  2  0
 13 15  1  0
 15 17  2  0
 17 19  1  0
 19 21  2  0
 21 12  1  0
  8  9  1  0
  8 10  1  0
  8 11  1  0
 13 14  1  0
 15 16  1  0
 17 18  1  0
 19 20  1  0
 21 22  1  0
M  CHG  1   7  -1
V    7 [O&-]
M  END
>  <PDB_ID>  (3055) 
pdb3reo

>  <RESIDUE_NAME>  (3055) 
ASP   PHE

>  <FRAG_NAME>  (3055) 
ACET   MBZ

>  <FRAG_ATOM_NUM>  (3055) 
fragi: 7 fragj: 15

>  <atom.prop.CHAIN_ID>  (3055) 
A A A A A A A Z Z Z Z Z Z Z Z Z Z Z Z Z Z Z

>  <atom.prop.IS_HEAVY_ATOM>  (3055) 
1 0 0 0 1 1 1 1 0 0 0 1 1 0 1 0 1 0 1 0 1 0

>  <DIFUSE_FUNC_ATOM>  (3055) 
n/a

>  <FINAL_SINGLE_POINT_ENERGY>  (3055) 
0

>  <NONCOV_INTER_ENERGY_QM>  (3055) 
0

>  <FF_Energy>  (3055) 
-1.31

>  <QM_Energy>  (3055) 
-6.72

>  <source>  (3055) 
ACET_MBZ_03

>  <Index>  (3055) 
18176

$$$$
ACEH-pdb1ubv-A-GLH-332:MBZ-pdb1ubv-A-PHE-328
     RDKit          3D

 22 21  0  0  0  0  0  0  0  0999 V2000
    0.4864   -2.4368    3.9189 C   0  0  0  0  0  0  0  0  0  0  0  0
    0.8575   -2.8457    4.7234 H   0  0  0  0  0  0  0  0  0  0  0  0
   -0.2577   -2.9388    3.5348 H   0  0  0  0  0  0  0  0  0  0  0  0
    0.1240   -1.4433    4.1828 H   0  0  0  0  0  0  0  0  0  0  0  0
    1.6233   -2.4128    2.8498 C   0  0  0  0  0  0  0  0  0  0  0  0
    2.6858   -1.7714    3.0636 O   0  0  0  0  0  0  0  0  0  0  0  0
    1.4390   -3.0248    1.7734 O   0  0  0  0  0  0  0  0  0  0  0  0
   -0.0066    2.8936   -0.0446 C   0  0  0  0  0  0  0  0  0  0  0  0
   -0.5351    3.1828   -0.8260 H   0  0  0  0  0  0  0  0  0  0  0  0
    0.9290    3.2040   -0.1026 H   0  0  0  0  0  0  0  0  0  0  0  0
   -0.4553    3.3237    0.8508 H   0  0  0  0  0  0  0  0  0  0  0  0
    0.0041    1.3988   -0.0224 C   0  0  0  0  0  0  0  0  0  0  0  0
   -1.1812    0.7011    0.0264 C   0  0  0  0  0  0  0  0  0  0  0  0
   -2.0509    1.1852    0.0801 H   0  0  0  0  0  0  0  0  0  0  0  0
   -1.1870   -0.6932   -0.0000 C   0  0  0  0  0  0  0  0  0  0  0  0
   -2.0760   -1.1772   -0.0136 H   0  0  0  0  0  0  0  0  0  0  0  0
   -0.0070   -1.3941   -0.0054 C   0  0  0  0  0  0  0  0  0  0  0  0
   -0.0131   -2.3927   -0.0138 H   0  0  0  0  0  0  0  0  0  0  0  0
    1.1870   -0.7034   -0.0000 C   0  0  0  0  0  0  0  0  0  0  0  0
    2.0717   -1.1976    0.0041 H   0  0  0  0  0  0  0  0  0  0  0  0
    1.1840    0.6908    0.0014 C   0  0  0  0  0  0  0  0  0  0  0  0
    2.0605    1.1787    0.0194 H   0  0  0  0  0  0  0  0  0  0  0  0
  1  5  1  0
  5  6  2  0
  5  7  1  0
  1  2  1  0
  1  3  1  0
  1  4  1  0
  8 12  1  0
 12 13  2  0
 13 15  1  0
 15 17  2  0
 17 19  1  0
 19 21  2  0
 21 12  1  0
  8  9  1  0
  8 10  1  0
  8 11  1  0
 13 14  1  0
 15 16  1  0
 17 18  1  0
 19 20  1  0
 21 22  1  0
M  CHG  1   7  -1
V    7 [O&-]
M  END
>  <PDB_ID>  (3056) 
pdb1ubv

>  <RESIDUE_NAME>  (3056) 
GLU   PHE

>  <FRAG_NAME>  (3056) 
ACET   MBZ

>  <FRAG_ATOM_NUM>  (3056) 
fragi: 7 fragj: 15

>  <atom.prop.CHAIN_ID>  (3056) 
A A A A A A A Z Z Z Z Z Z Z Z Z Z Z Z Z Z Z

>  <atom.prop.IS_HEAVY_ATOM>  (3056) 
1 0 0 0 1 1 1 1 0 0 0 1 1 0 1 0 1 0 1 0 1 0

>  <DIFUSE_FUNC_ATOM>  (3056) 
n/a

>  <FINAL_SINGLE_POINT_ENERGY>  (3056) 
0

>  <NONCOV_INTER_ENERGY_QM>  (3056) 
0

>  <FF_Energy>  (3056) 
1.57

>  <QM_Energy>  (3056) 
-3.91

>  <source>  (3056) 
ACET_MBZ_03

>  <Index>  (3056) 
18198

$$$$
ACEH-pdb1uc7-B-GLH-1047:MBZ-pdb1uc7-B-PHE-1051
     RDKit          3D

 22 21  0  0  0  0  0  0  0  0999 V2000
    5.0914    1.3792   -2.1446 C   0  0  0  0  0  0  0  0  0  0  0  0
    4.6677    0.5843   -2.5347 H   0  0  0  0  0  0  0  0  0  0  0  0
    6.0681    1.3713   -2.2416 H   0  0  0  0  0  0  0  0  0  0  0  0
    4.7035    2.2587   -2.6585 H   0  0  0  0  0  0  0  0  0  0  0  0
    4.7781    1.3835   -0.6561 C   0  0  0  0  0  0  0  0  0  0  0  0
    5.0134    2.4211    0.0039 O   0  0  0  0  0  0  0  0  0  0  0  0
    4.3013    0.3485   -0.1457 O   0  0  0  0  0  0  0  0  0  0  0  0
    0.0001    2.9168    0.0171 C   0  0  0  0  0  0  0  0  0  0  0  0
    0.7120    3.2264   -0.5940 H   0  0  0  0  0  0  0  0  0  0  0  0
    0.1667    3.2093    0.9460 H   0  0  0  0  0  0  0  0  0  0  0  0
   -0.9394    3.3620   -0.3106 H   0  0  0  0  0  0  0  0  0  0  0  0
   -0.0017    1.4063    0.0003 C   0  0  0  0  0  0  0  0  0  0  0  0
   -1.1980    0.6946    0.0007 C   0  0  0  0  0  0  0  0  0  0  0  0
   -2.0664    1.1800    0.0004 H   0  0  0  0  0  0  0  0  0  0  0  0
   -1.2027   -0.7060    0.0000 C   0  0  0  0  0  0  0  0  0  0  0  0
   -2.0777   -1.1961    0.0012 H   0  0  0  0  0  0  0  0  0  0  0  0
    0.0019   -1.3978   -0.0006 C   0  0  0  0  0  0  0  0  0  0  0  0
    0.0027   -2.3956   -0.0017 H   0  0  0  0  0  0  0  0  0  0  0  0
    1.2027   -0.6955   -0.0000 C   0  0  0  0  0  0  0  0  0  0  0  0
    2.0858   -1.1915    0.0020 H   0  0  0  0  0  0  0  0  0  0  0  0
    1.1978    0.6984   -0.0004 C   0  0  0  0  0  0  0  0  0  0  0  0
    2.0645    1.1942   -0.0019 H   0  0  0  0  0  0  0  0  0  0  0  0
  1  5  1  0
  5  6  2  0
  5  7  1  0
  1  2  1  0
  1  3  1  0
  1  4  1  0
  8 12  1  0
 12 13  2  0
 13 15  1  0
 15 17  2  0
 17 19  1  0
 19 21  2  0
 21 12  1  0
  8  9  1  0
  8 10  1  0
  8 11  1  0
 13 14  1  0
 15 16  1  0
 17 18  1  0
 19 20  1  0
 21 22  1  0
M  CHG  1   7  -1
V    7 [O&-]
M  END
>  <PDB_ID>  (3057) 
pdb1uc7

>  <RESIDUE_NAME>  (3057) 
GLU   PHE

>  <FRAG_NAME>  (3057) 
ACET   MBZ

>  <FRAG_ATOM_NUM>  (3057) 
fragi: 7 fragj: 15

>  <atom.prop.CHAIN_ID>  (3057) 
A A A A A A A Z Z Z Z Z Z Z Z Z Z Z Z Z Z Z

>  <atom.prop.IS_HEAVY_ATOM>  (3057) 
1 0 0 0 1 1 1 1 0 0 0 1 1 0 1 0 1 0 1 0 1 0

>  <DIFUSE_FUNC_ATOM>  (3057) 
n/a

>  <FINAL_SINGLE_POINT_ENERGY>  (3057) 
0

>  <NONCOV_INTER_ENERGY_QM>  (3057) 
0

>  <FF_Energy>  (3057) 
-2.26

>  <QM_Energy>  (3057) 
-7.33

>  <source>  (3057) 
ACET_MBZ_03

>  <Index>  (3057) 
18201

$$$$
ACEH-pdb3rjl-H-GLH-287:MBZ-pdb3rjl-H-PHE-485
     RDKit          3D

 22 21  0  0  0  0  0  0  0  0999 V2000
    5.2534    0.4067    2.3211 C   0  0  0  0  0  0  0  0  0  0  0  0
    5.0107    0.1606    3.2582 H   0  0  0  0  0  0  0  0  0  0  0  0
    5.5935    1.3463    2.2985 H   0  0  0  0  0  0  0  0  0  0  0  0
    6.0655   -0.2485    2.0061 H   0  0  0  0  0  0  0  0  0  0  0  0
    4.0028    0.3549    1.4962 C   0  0  0  0  0  0  0  0  0  0  0  0
    3.8570   -0.3651    0.5205 O   0  0  0  0  0  0  0  0  0  0  0  0
    3.1280    1.1429    1.9142 O   0  0  0  0  0  0  0  0  0  0  0  0
   -0.0057    2.9038    0.0018 C   0  0  0  0  0  0  0  0  0  0  0  0
   -0.7413    3.2120   -0.5823 H   0  0  0  0  0  0  0  0  0  0  0  0
    0.8719    3.2140   -0.3306 H   0  0  0  0  0  0  0  0  0  0  0  0
   -0.1595    3.3448    0.9867 H   0  0  0  0  0  0  0  0  0  0  0  0
   -0.0040    1.4037    0.0007 C   0  0  0  0  0  0  0  0  0  0  0  0
   -1.2045    0.6931    0.0044 C   0  0  0  0  0  0  0  0  0  0  0  0
   -2.0692    1.1841    0.0093 H   0  0  0  0  0  0  0  0  0  0  0  0
   -1.2077   -0.6963   -0.0000 C   0  0  0  0  0  0  0  0  0  0  0  0
   -2.0772   -1.1964   -0.0025 H   0  0  0  0  0  0  0  0  0  0  0  0
    0.0083   -1.3988    0.0011 C   0  0  0  0  0  0  0  0  0  0  0  0
   -0.0003   -2.3935    0.0025 H   0  0  0  0  0  0  0  0  0  0  0  0
    1.2077   -0.6979    0.0000 C   0  0  0  0  0  0  0  0  0  0  0  0
    2.0902   -1.1918    0.0047 H   0  0  0  0  0  0  0  0  0  0  0  0
    1.2003    0.6962   -0.0062 C   0  0  0  0  0  0  0  0  0  0  0  0
    2.0643    1.1948   -0.0162 H   0  0  0  0  0  0  0  0  0  0  0  0
  1  5  1  0
  5  6  2  0
  5  7  1  0
  1  2  1  0
  1  3  1  0
  1  4  1  0
  8 12  1  0
 12 13  2  0
 13 15  1  0
 15 17  2  0
 17 19  1  0
 19 21  2  0
 21 12  1  0
  8  9  1  0
  8 10  1  0
  8 11  1  0
 13 14  1  0
 15 16  1  0
 17 18  1  0
 19 20  1  0
 21 22  1  0
M  CHG  1   7  -1
V    7 [O&-]
M  END
>  <PDB_ID>  (3058) 
pdb3rjl

>  <RESIDUE_NAME>  (3058) 
GLU   PHE

>  <FRAG_NAME>  (3058) 
ACET   MBZ

>  <FRAG_ATOM_NUM>  (3058) 
fragi: 7 fragj: 15

>  <atom.prop.CHAIN_ID>  (3058) 
A A A A A A A Z Z Z Z Z Z Z Z Z Z Z Z Z Z Z

>  <atom.prop.IS_HEAVY_ATOM>  (3058) 
1 0 0 0 1 1 1 1 0 0 0 1 1 0 1 0 1 0 1 0 1 0

>  <DIFUSE_FUNC_ATOM>  (3058) 
n/a

>  <FINAL_SINGLE_POINT_ENERGY>  (3058) 
0

>  <NONCOV_INTER_ENERGY_QM>  (3058) 
0

>  <FF_Energy>  (3058) 
13.77

>  <QM_Energy>  (3058) 
-2.56

>  <source>  (3058) 
ACET_MBZ_03

>  <Index>  (3058) 
18218

$$$$
ACEH-pdb1uyr-A-ASH-1601:MBZ-pdb1uyr-A-PHE-1596
     RDKit          3D

 22 21  0  0  0  0  0  0  0  0999 V2000
    5.4362    4.4235   -0.7191 C   0  0  0  0  0  0  0  0  0  0  0  0
    5.6404    5.3551   -0.4354 H   0  0  0  0  0  0  0  0  0  0  0  0
    6.0183    4.1596   -1.4804 H   0  0  0  0  0  0  0  0  0  0  0  0
    5.6500    3.7593    0.1182 H   0  0  0  0  0  0  0  0  0  0  0  0
    3.9904    4.3581   -1.1661 C   0  0  0  0  0  0  0  0  0  0  0  0
    3.2821    3.3941   -0.8060 O   0  0  0  0  0  0  0  0  0  0  0  0
    3.5620    5.2785   -1.8916 O   0  0  0  0  0  0  0  0  0  0  0  0
    0.0089    2.9023   -0.0890 C   0  0  0  0  0  0  0  0  0  0  0  0
   -0.6263    3.1745   -0.8000 H   0  0  0  0  0  0  0  0  0  0  0  0
    0.9309    3.1937   -0.3101 H   0  0  0  0  0  0  0  0  0  0  0  0
   -0.2857    3.4119    0.8284 H   0  0  0  0  0  0  0  0  0  0  0  0
   -0.0005    1.4083   -0.0011 C   0  0  0  0  0  0  0  0  0  0  0  0
   -1.1998    0.7010    0.0019 C   0  0  0  0  0  0  0  0  0  0  0  0
   -2.0647    1.1859    0.0040 H   0  0  0  0  0  0  0  0  0  0  0  0
   -1.2007   -0.6986   -0.0000 C   0  0  0  0  0  0  0  0  0  0  0  0
   -2.0785   -1.1907    0.0033 H   0  0  0  0  0  0  0  0  0  0  0  0
    0.0035   -1.4009   -0.0042 C   0  0  0  0  0  0  0  0  0  0  0  0
   -0.0058   -2.3981   -0.0114 H   0  0  0  0  0  0  0  0  0  0  0  0
    1.2007   -0.7056    0.0000 C   0  0  0  0  0  0  0  0  0  0  0  0
    2.0844   -1.1973    0.0019 H   0  0  0  0  0  0  0  0  0  0  0  0
    1.1968    0.6959    0.0035 C   0  0  0  0  0  0  0  0  0  0  0  0
    2.0660    1.1874    0.0080 H   0  0  0  0  0  0  0  0  0  0  0  0
  1  5  1  0
  5  6  2  0
  5  7  1  0
  1  2  1  0
  1  3  1  0
  1  4  1  0
  8 12  1  0
 12 13  2  0
 13 15  1  0
 15 17  2  0
 17 19  1  0
 19 21  2  0
 21 12  1  0
  8  9  1  0
  8 10  1  0
  8 11  1  0
 13 14  1  0
 15 16  1  0
 17 18  1  0
 19 20  1  0
 21 22  1  0
M  CHG  1   7  -1
V    7 [O&-]
M  END
>  <PDB_ID>  (3059) 
pdb1uyr

>  <RESIDUE_NAME>  (3059) 
ASP   PHE

>  <FRAG_NAME>  (3059) 
ACET   MBZ

>  <FRAG_ATOM_NUM>  (3059) 
fragi: 7 fragj: 15

>  <atom.prop.CHAIN_ID>  (3059) 
A A A A A A A Z Z Z Z Z Z Z Z Z Z Z Z Z Z Z

>  <atom.prop.IS_HEAVY_ATOM>  (3059) 
1 0 0 0 1 1 1 1 0 0 0 1 1 0 1 0 1 0 1 0 1 0

>  <DIFUSE_FUNC_ATOM>  (3059) 
n/a

>  <FINAL_SINGLE_POINT_ENERGY>  (3059) 
0

>  <NONCOV_INTER_ENERGY_QM>  (3059) 
0

>  <FF_Energy>  (3059) 
-1.85

>  <QM_Energy>  (3059) 
-8.03

>  <source>  (3059) 
ACET_MBZ_03

>  <Index>  (3059) 
18276

$$$$
ACEH-pdb1uyr-B-ASH-1601:MBZ-pdb1uyr-B-PHE-1596
     RDKit          3D

 22 21  0  0  0  0  0  0  0  0999 V2000
    5.1259    4.6705   -1.3251 C   0  0  0  0  0  0  0  0  0  0  0  0
    5.3431    5.6152   -1.1023 H   0  0  0  0  0  0  0  0  0  0  0  0
    5.5766    4.4020   -2.1689 H   0  0  0  0  0  0  0  0  0  0  0  0
    5.5022    4.0370   -0.5219 H   0  0  0  0  0  0  0  0  0  0  0  0
    3.6310    4.5467   -1.5106 C   0  0  0  0  0  0  0  0  0  0  0  0
    3.0570    3.5031   -1.1347 O   0  0  0  0  0  0  0  0  0  0  0  0
    3.0221    5.4936   -2.0450 O   0  0  0  0  0  0  0  0  0  0  0  0
    0.0104    2.9088   -0.1229 C   0  0  0  0  0  0  0  0  0  0  0  0
   -0.6418    3.1641   -0.8261 H   0  0  0  0  0  0  0  0  0  0  0  0
    0.9285    3.1886   -0.3772 H   0  0  0  0  0  0  0  0  0  0  0  0
   -0.2589    3.4405    0.7897 H   0  0  0  0  0  0  0  0  0  0  0  0
   -0.0003    1.4114   -0.0023 C   0  0  0  0  0  0  0  0  0  0  0  0
   -1.2030    0.7017    0.0036 C   0  0  0  0  0  0  0  0  0  0  0  0
   -2.0675    1.1855    0.0092 H   0  0  0  0  0  0  0  0  0  0  0  0
   -1.2062   -0.7048   -0.0000 C   0  0  0  0  0  0  0  0  0  0  0  0
   -2.0800   -1.1947    0.0022 H   0  0  0  0  0  0  0  0  0  0  0  0
    0.0050   -1.4041   -0.0044 C   0  0  0  0  0  0  0  0  0  0  0  0
    0.0005   -2.3995   -0.0110 H   0  0  0  0  0  0  0  0  0  0  0  0
    1.2062   -0.7020    0.0000 C   0  0  0  0  0  0  0  0  0  0  0  0
    2.0888   -1.1937    0.0023 H   0  0  0  0  0  0  0  0  0  0  0  0
    1.1983    0.6979    0.0032 C   0  0  0  0  0  0  0  0  0  0  0  0
    2.0673    1.1921    0.0091 H   0  0  0  0  0  0  0  0  0  0  0  0
  1  5  1  0
  5  6  2  0
  5  7  1  0
  1  2  1  0
  1  3  1  0
  1  4  1  0
  8 12  1  0
 12 13  2  0
 13 15  1  0
 15 17  2  0
 17 19  1  0
 19 21  2  0
 21 12  1  0
  8  9  1  0
  8 10  1  0
  8 11  1  0
 13 14  1  0
 15 16  1  0
 17 18  1  0
 19 20  1  0
 21 22  1  0
M  CHG  1   7  -1
V    7 [O&-]
M  END
>  <PDB_ID>  (3060) 
pdb1uyr

>  <RESIDUE_NAME>  (3060) 
ASP   PHE

>  <FRAG_NAME>  (3060) 
ACET   MBZ

>  <FRAG_ATOM_NUM>  (3060) 
fragi: 7 fragj: 15

>  <atom.prop.CHAIN_ID>  (3060) 
A A A A A A A Z Z Z Z Z Z Z Z Z Z Z Z Z Z Z

>  <atom.prop.IS_HEAVY_ATOM>  (3060) 
1 0 0 0 1 1 1 1 0 0 0 1 1 0 1 0 1 0 1 0 1 0

>  <DIFUSE_FUNC_ATOM>  (3060) 
n/a

>  <FINAL_SINGLE_POINT_ENERGY>  (3060) 
0

>  <NONCOV_INTER_ENERGY_QM>  (3060) 
0

>  <FF_Energy>  (3060) 
-1.1

>  <QM_Energy>  (3060) 
-7.85

>  <source>  (3060) 
ACET_MBZ_03

>  <Index>  (3060) 
18277

$$$$
ACEH-pdb1v8c-A-GLH-157:MBZ-pdb1v8c-A-PHE-56
     RDKit          3D

 22 21  0  0  0  0  0  0  0  0999 V2000
    0.1222    0.2898   -3.2848 C   0  0  0  0  0  0  0  0  0  0  0  0
   -0.4220   -0.3050   -3.8488 H   0  0  0  0  0  0  0  0  0  0  0  0
    0.0032    0.1042   -2.3265 H   0  0  0  0  0  0  0  0  0  0  0  0
    1.1706    0.1280   -3.5351 H   0  0  0  0  0  0  0  0  0  0  0  0
   -0.3426    1.7158   -3.5374 C   0  0  0  0  0  0  0  0  0  0  0  0
    0.4138    2.6659   -3.2353 O   0  0  0  0  0  0  0  0  0  0  0  0
   -1.4789    1.9007   -4.0201 O   0  0  0  0  0  0  0  0  0  0  0  0
    0.0136    2.9160   -0.0361 C   0  0  0  0  0  0  0  0  0  0  0  0
   -0.7141    3.2148   -0.6354 H   0  0  0  0  0  0  0  0  0  0  0  0
    0.8975    3.2056   -0.3728 H   0  0  0  0  0  0  0  0  0  0  0  0
   -0.1415    3.3917    0.9323 H   0  0  0  0  0  0  0  0  0  0  0  0
   -0.0006    1.4067    0.0000 C   0  0  0  0  0  0  0  0  0  0  0  0
   -1.2002    0.6973    0.0009 C   0  0  0  0  0  0  0  0  0  0  0  0
   -2.0672    1.1801    0.0010 H   0  0  0  0  0  0  0  0  0  0  0  0
   -1.2049   -0.7095    0.0000 C   0  0  0  0  0  0  0  0  0  0  0  0
   -2.0779   -1.1976    0.0025 H   0  0  0  0  0  0  0  0  0  0  0  0
    0.0030   -1.3991   -0.0022 C   0  0  0  0  0  0  0  0  0  0  0  0
    0.0066   -2.3969   -0.0060 H   0  0  0  0  0  0  0  0  0  0  0  0
    1.2049   -0.6935   -0.0000 C   0  0  0  0  0  0  0  0  0  0  0  0
    2.0874   -1.1897    0.0023 H   0  0  0  0  0  0  0  0  0  0  0  0
    1.1978    0.6981    0.0012 C   0  0  0  0  0  0  0  0  0  0  0  0
    2.0655    1.1960    0.0024 H   0  0  0  0  0  0  0  0  0  0  0  0
  1  5  1  0
  5  6  2  0
  5  7  1  0
  1  2  1  0
  1  3  1  0
  1  4  1  0
  8 12  1  0
 12 13  2  0
 13 15  1  0
 15 17  2  0
 17 19  1  0
 19 21  2  0
 21 12  1  0
  8  9  1  0
  8 10  1  0
  8 11  1  0
 13 14  1  0
 15 16  1  0
 17 18  1  0
 19 20  1  0
 21 22  1  0
M  CHG  1   7  -1
V    7 [O&-]
M  END
>  <PDB_ID>  (3061) 
pdb1v8c

>  <RESIDUE_NAME>  (3061) 
GLU   PHE

>  <FRAG_NAME>  (3061) 
ACET   MBZ

>  <FRAG_ATOM_NUM>  (3061) 
fragi: 7 fragj: 15

>  <atom.prop.CHAIN_ID>  (3061) 
A A A A A A A Z Z Z Z Z Z Z Z Z Z Z Z Z Z Z

>  <atom.prop.IS_HEAVY_ATOM>  (3061) 
1 0 0 0 1 1 1 1 0 0 0 1 1 0 1 0 1 0 1 0 1 0

>  <DIFUSE_FUNC_ATOM>  (3061) 
n/a

>  <FINAL_SINGLE_POINT_ENERGY>  (3061) 
0

>  <NONCOV_INTER_ENERGY_QM>  (3061) 
0

>  <FF_Energy>  (3061) 
1.76

>  <QM_Energy>  (3061) 
-4.43

>  <source>  (3061) 
ACET_MBZ_03

>  <Index>  (3061) 
18336

$$$$
ACEH-pdb1v8c-C-GLH-157:MBZ-pdb1v8c-C-PHE-56
     RDKit          3D

 22 21  0  0  0  0  0  0  0  0999 V2000
    0.1289    0.5138   -3.2979 C   0  0  0  0  0  0  0  0  0  0  0  0
   -0.3570   -0.0699   -3.9158 H   0  0  0  0  0  0  0  0  0  0  0  0
   -0.0619    0.3160   -2.3575 H   0  0  0  0  0  0  0  0  0  0  0  0
    1.1963    0.3711   -3.4662 H   0  0  0  0  0  0  0  0  0  0  0  0
   -0.3073    1.9417   -3.5681 C   0  0  0  0  0  0  0  0  0  0  0  0
    0.3806    2.8644   -3.0819 O   0  0  0  0  0  0  0  0  0  0  0  0
   -1.3348    2.1459   -4.2594 O   0  0  0  0  0  0  0  0  0  0  0  0
    0.0005    2.8942   -0.0104 C   0  0  0  0  0  0  0  0  0  0  0  0
   -0.7398    3.2005   -0.5920 H   0  0  0  0  0  0  0  0  0  0  0  0
    0.8760    3.2020   -0.3579 H   0  0  0  0  0  0  0  0  0  0  0  0
   -0.1421    3.3468    0.9709 H   0  0  0  0  0  0  0  0  0  0  0  0
    0.0000    1.3995   -0.0002 C   0  0  0  0  0  0  0  0  0  0  0  0
   -1.1999    0.6941    0.0018 C   0  0  0  0  0  0  0  0  0  0  0  0
   -2.0638    1.1861    0.0036 H   0  0  0  0  0  0  0  0  0  0  0  0
   -1.2043   -0.6948   -0.0000 C   0  0  0  0  0  0  0  0  0  0  0  0
   -2.0796   -1.1907   -0.0004 H   0  0  0  0  0  0  0  0  0  0  0  0
   -0.0006   -1.3913    0.0001 C   0  0  0  0  0  0  0  0  0  0  0  0
   -0.0061   -2.3917   -0.0000 H   0  0  0  0  0  0  0  0  0  0  0  0
    1.2043   -0.6988    0.0000 C   0  0  0  0  0  0  0  0  0  0  0  0
    2.0825   -1.1986    0.0030 H   0  0  0  0  0  0  0  0  0  0  0  0
    1.2005    0.6912   -0.0018 C   0  0  0  0  0  0  0  0  0  0  0  0
    2.0662    1.1885   -0.0048 H   0  0  0  0  0  0  0  0  0  0  0  0
  1  5  1  0
  5  6  2  0
  5  7  1  0
  1  2  1  0
  1  3  1  0
  1  4  1  0
  8 12  1  0
 12 13  2  0
 13 15  1  0
 15 17  2  0
 17 19  1  0
 19 21  2  0
 21 12  1  0
  8  9  1  0
  8 10  1  0
  8 11  1  0
 13 14  1  0
 15 16  1  0
 17 18  1  0
 19 20  1  0
 21 22  1  0
M  CHG  1   7  -1
V    7 [O&-]
M  END
>  <PDB_ID>  (3062) 
pdb1v8c

>  <RESIDUE_NAME>  (3062) 
GLU   PHE

>  <FRAG_NAME>  (3062) 
ACET   MBZ

>  <FRAG_ATOM_NUM>  (3062) 
fragi: 7 fragj: 15

>  <atom.prop.CHAIN_ID>  (3062) 
A A A A A A A Z Z Z Z Z Z Z Z Z Z Z Z Z Z Z

>  <atom.prop.IS_HEAVY_ATOM>  (3062) 
1 0 0 0 1 1 1 1 0 0 0 1 1 0 1 0 1 0 1 0 1 0

>  <DIFUSE_FUNC_ATOM>  (3062) 
n/a

>  <FINAL_SINGLE_POINT_ENERGY>  (3062) 
0

>  <NONCOV_INTER_ENERGY_QM>  (3062) 
0

>  <FF_Energy>  (3062) 
1.89

>  <QM_Energy>  (3062) 
-4.35

>  <source>  (3062) 
ACET_MBZ_03

>  <Index>  (3062) 
18344

$$$$
ACEH-pdb1v8c-D-GLH-157:MBZ-pdb1v8c-D-PHE-56
     RDKit          3D

 22 21  0  0  0  0  0  0  0  0999 V2000
    0.1581    0.3052   -3.3102 C   0  0  0  0  0  0  0  0  0  0  0  0
   -0.3529   -0.2567   -3.9323 H   0  0  0  0  0  0  0  0  0  0  0  0
   -0.0520    0.1107   -2.3705 H   0  0  0  0  0  0  0  0  0  0  0  0
    1.2187    0.1114   -3.4705 H   0  0  0  0  0  0  0  0  0  0  0  0
   -0.2268    1.7543   -3.5759 C   0  0  0  0  0  0  0  0  0  0  0  0
    0.5720    2.6571   -3.2468 O   0  0  0  0  0  0  0  0  0  0  0  0
   -1.3343    1.9938   -4.0996 O   0  0  0  0  0  0  0  0  0  0  0  0
    0.0114    2.8989   -0.0267 C   0  0  0  0  0  0  0  0  0  0  0  0
   -0.7116    3.2009   -0.6333 H   0  0  0  0  0  0  0  0  0  0  0  0
    0.8980    3.1966   -0.3534 H   0  0  0  0  0  0  0  0  0  0  0  0
   -0.1556    3.3647    0.9444 H   0  0  0  0  0  0  0  0  0  0  0  0
    0.0026    1.3999   -0.0002 C   0  0  0  0  0  0  0  0  0  0  0  0
   -1.1987    0.6947    0.0011 C   0  0  0  0  0  0  0  0  0  0  0  0
   -2.0620    1.1862    0.0012 H   0  0  0  0  0  0  0  0  0  0  0  0
   -1.2025   -0.6962   -0.0000 C   0  0  0  0  0  0  0  0  0  0  0  0
   -2.0790   -1.1903    0.0014 H   0  0  0  0  0  0  0  0  0  0  0  0
   -0.0011   -1.3905   -0.0015 C   0  0  0  0  0  0  0  0  0  0  0  0
   -0.0062   -2.3912   -0.0047 H   0  0  0  0  0  0  0  0  0  0  0  0
    1.2025   -0.6987    0.0000 C   0  0  0  0  0  0  0  0  0  0  0  0
    2.0815   -1.1976    0.0026 H   0  0  0  0  0  0  0  0  0  0  0  0
    1.1972    0.6908    0.0006 C   0  0  0  0  0  0  0  0  0  0  0  0
    2.0666    1.1877    0.0009 H   0  0  0  0  0  0  0  0  0  0  0  0
  1  5  1  0
  5  6  2  0
  5  7  1  0
  1  2  1  0
  1  3  1  0
  1  4  1  0
  8 12  1  0
 12 13  2  0
 13 15  1  0
 15 17  2  0
 17 19  1  0
 19 21  2  0
 21 12  1  0
  8  9  1  0
  8 10  1  0
  8 11  1  0
 13 14  1  0
 15 16  1  0
 17 18  1  0
 19 20  1  0
 21 22  1  0
M  CHG  1   7  -1
V    7 [O&-]
M  END
>  <PDB_ID>  (3063) 
pdb1v8c

>  <RESIDUE_NAME>  (3063) 
GLU   PHE

>  <FRAG_NAME>  (3063) 
ACET   MBZ

>  <FRAG_ATOM_NUM>  (3063) 
fragi: 7 fragj: 15

>  <atom.prop.CHAIN_ID>  (3063) 
A A A A A A A Z Z Z Z Z Z Z Z Z Z Z Z Z Z Z

>  <atom.prop.IS_HEAVY_ATOM>  (3063) 
1 0 0 0 1 1 1 1 0 0 0 1 1 0 1 0 1 0 1 0 1 0

>  <DIFUSE_FUNC_ATOM>  (3063) 
n/a

>  <FINAL_SINGLE_POINT_ENERGY>  (3063) 
0

>  <NONCOV_INTER_ENERGY_QM>  (3063) 
0

>  <FF_Energy>  (3063) 
1.33

>  <QM_Energy>  (3063) 
-4.51

>  <source>  (3063) 
ACET_MBZ_03

>  <Index>  (3063) 
18352

$$$$
ACEH-pdb3si2-A-ASH-307:MBZ-pdb3si2-A-PHE-199
     RDKit          3D

 22 21  0  0  0  0  0  0  0  0999 V2000
    2.1854    0.4523    3.2379 C   0  0  0  0  0  0  0  0  0  0  0  0
    3.1228    0.3554    2.9316 H   0  0  0  0  0  0  0  0  0  0  0  0
    1.5703   -0.0721    2.6658 H   0  0  0  0  0  0  0  0  0  0  0  0
    2.1191    0.0617    4.2533 H   0  0  0  0  0  0  0  0  0  0  0  0
    1.7974    1.9005    3.1800 C   0  0  0  0  0  0  0  0  0  0  0  0
    2.4801    2.5842    2.4269 O   0  0  0  0  0  0  0  0  0  0  0  0
    0.8044    2.3224    3.8466 O   0  0  0  0  0  0  0  0  0  0  0  0
    0.0229    2.9103    0.0231 C   0  0  0  0  0  0  0  0  0  0  0  0
    0.9496    3.1913    0.1931 H   0  0  0  0  0  0  0  0  0  0  0  0
   -0.5910    3.2020    0.7345 H   0  0  0  0  0  0  0  0  0  0  0  0
   -0.3062    3.3427   -0.9219 H   0  0  0  0  0  0  0  0  0  0  0  0
    0.0073    1.3853    0.0097 C   0  0  0  0  0  0  0  0  0  0  0  0
   -1.2008    0.7167   -0.0522 C   0  0  0  0  0  0  0  0  0  0  0  0
   -2.0509    1.2038   -0.1329 H   0  0  0  0  0  0  0  0  0  0  0  0
   -1.2068   -0.6834    0.0000 C   0  0  0  0  0  0  0  0  0  0  0  0
   -2.0853   -1.1671    0.0457 H   0  0  0  0  0  0  0  0  0  0  0  0
   -0.0127   -1.3675   -0.0097 C   0  0  0  0  0  0  0  0  0  0  0  0
   -0.0348   -2.3884   -0.0260 H   0  0  0  0  0  0  0  0  0  0  0  0
    1.2068   -0.7271   -0.0000 C   0  0  0  0  0  0  0  0  0  0  0  0
    2.0685   -1.2257   -0.0270 H   0  0  0  0  0  0  0  0  0  0  0  0
    1.2062    0.6760    0.0522 C   0  0  0  0  0  0  0  0  0  0  0  0
    2.0711    1.1633    0.1190 H   0  0  0  0  0  0  0  0  0  0  0  0
  1  5  1  0
  5  6  2  0
  5  7  1  0
  1  2  1  0
  1  3  1  0
  1  4  1  0
  8 12  1  0
 12 13  2  0
 13 15  1  0
 15 17  2  0
 17 19  1  0
 19 21  2  0
 21 12  1  0
  8  9  1  0
  8 10  1  0
  8 11  1  0
 13 14  1  0
 15 16  1  0
 17 18  1  0
 19 20  1  0
 21 22  1  0
M  CHG  1   7  -1
V    7 [O&-]
M  END
>  <PDB_ID>  (3064) 
pdb3si2

>  <RESIDUE_NAME>  (3064) 
ASP   PHE

>  <FRAG_NAME>  (3064) 
ACET   MBZ

>  <FRAG_ATOM_NUM>  (3064) 
fragi: 7 fragj: 15

>  <atom.prop.CHAIN_ID>  (3064) 
A A A A A A A Z Z Z Z Z Z Z Z Z Z Z Z Z Z Z

>  <atom.prop.IS_HEAVY_ATOM>  (3064) 
1 0 0 0 1 1 1 1 0 0 0 1 1 0 1 0 1 0 1 0 1 0

>  <DIFUSE_FUNC_ATOM>  (3064) 
n/a

>  <FINAL_SINGLE_POINT_ENERGY>  (3064) 
0

>  <NONCOV_INTER_ENERGY_QM>  (3064) 
0

>  <FF_Energy>  (3064) 
-0.11

>  <QM_Energy>  (3064) 
-5.88

>  <source>  (3064) 
ACET_MBZ_03

>  <Index>  (3064) 
18414

$$$$
ACEH-pdb3si2-A-GLH-276:MBZ-pdb3si2-A-PHE-295
     RDKit          3D

 22 21  0  0  0  0  0  0  0  0999 V2000
    4.4855    2.9098    1.1268 C   0  0  0  0  0  0  0  0  0  0  0  0
    4.0782    2.5154    1.9282 H   0  0  0  0  0  0  0  0  0  0  0  0
    5.1368    3.6126    1.3436 H   0  0  0  0  0  0  0  0  0  0  0  0
    5.0398    2.1108    0.6343 H   0  0  0  0  0  0  0  0  0  0  0  0
    3.4172    3.4831    0.2675 C   0  0  0  0  0  0  0  0  0  0  0  0
    3.1249    2.8915   -0.7738 O   0  0  0  0  0  0  0  0  0  0  0  0
    2.9055    4.5418    0.6353 O   0  0  0  0  0  0  0  0  0  0  0  0
   -0.0180    2.8509   -0.1063 C   0  0  0  0  0  0  0  0  0  0  0  0
    0.8649    3.1942    0.1481 H   0  0  0  0  0  0  0  0  0  0  0  0
   -0.7364    3.1955    0.4664 H   0  0  0  0  0  0  0  0  0  0  0  0
   -0.2218    3.1590   -1.1318 H   0  0  0  0  0  0  0  0  0  0  0  0
    0.0016    1.3805   -0.0002 C   0  0  0  0  0  0  0  0  0  0  0  0
   -1.1830    0.6973   -0.0027 C   0  0  0  0  0  0  0  0  0  0  0  0
   -2.0519    1.1936   -0.0075 H   0  0  0  0  0  0  0  0  0  0  0  0
   -1.2031   -0.6861   -0.0000 C   0  0  0  0  0  0  0  0  0  0  0  0
   -2.0857   -1.1685   -0.0199 H   0  0  0  0  0  0  0  0  0  0  0  0
   -0.0231   -1.3643    0.0313 C   0  0  0  0  0  0  0  0  0  0  0  0
   -0.0316   -2.3830    0.0787 H   0  0  0  0  0  0  0  0  0  0  0  0
    1.2031   -0.7142    0.0000 C   0  0  0  0  0  0  0  0  0  0  0  0
    2.0638   -1.2183   -0.0008 H   0  0  0  0  0  0  0  0  0  0  0  0
    1.2045    0.6867   -0.0285 C   0  0  0  0  0  0  0  0  0  0  0  0
    2.0657    1.1767   -0.0690 H   0  0  0  0  0  0  0  0  0  0  0  0
  1  5  1  0
  5  6  2  0
  5  7  1  0
  1  2  1  0
  1  3  1  0
  1  4  1  0
  8 12  1  0
 12 13  2  0
 13 15  1  0
 15 17  2  0
 17 19  1  0
 19 21  2  0
 21 12  1  0
  8  9  1  0
  8 10  1  0
  8 11  1  0
 13 14  1  0
 15 16  1  0
 17 18  1  0
 19 20  1  0
 21 22  1  0
M  CHG  1   7  -1
V    7 [O&-]
M  END
>  <PDB_ID>  (3065) 
pdb3si2

>  <RESIDUE_NAME>  (3065) 
GLU   PHE

>  <FRAG_NAME>  (3065) 
ACET   MBZ

>  <FRAG_ATOM_NUM>  (3065) 
fragi: 7 fragj: 15

>  <atom.prop.CHAIN_ID>  (3065) 
A A A A A A A Z Z Z Z Z Z Z Z Z Z Z Z Z Z Z

>  <atom.prop.IS_HEAVY_ATOM>  (3065) 
1 0 0 0 1 1 1 1 0 0 0 1 1 0 1 0 1 0 1 0 1 0

>  <DIFUSE_FUNC_ATOM>  (3065) 
n/a

>  <FINAL_SINGLE_POINT_ENERGY>  (3065) 
0

>  <NONCOV_INTER_ENERGY_QM>  (3065) 
0

>  <FF_Energy>  (3065) 
2.24

>  <QM_Energy>  (3065) 
-8.1

>  <source>  (3065) 
ACET_MBZ_03

>  <Index>  (3065) 
18415

$$$$
ACEH-pdb1viz-A-GLH-116:MBZ-pdb1viz-A-PHE-80
     RDKit          3D

 22 21  0  0  0  0  0  0  0  0999 V2000
    2.6591    2.6532    3.7886 C   0  0  0  0  0  0  0  0  0  0  0  0
    3.3269    3.0218    4.4052 H   0  0  0  0  0  0  0  0  0  0  0  0
    2.5693    1.6795    3.8669 H   0  0  0  0  0  0  0  0  0  0  0  0
    1.6947    3.1108    4.0090 H   0  0  0  0  0  0  0  0  0  0  0  0
    3.1154    2.9586    2.3825 C   0  0  0  0  0  0  0  0  0  0  0  0
    3.7533    2.0678    1.8075 O   0  0  0  0  0  0  0  0  0  0  0  0
    2.8212    4.0683    1.8590 O   0  0  0  0  0  0  0  0  0  0  0  0
    0.0199    2.9101   -0.0209 C   0  0  0  0  0  0  0  0  0  0  0  0
    0.3750    3.2000   -0.9021 H   0  0  0  0  0  0  0  0  0  0  0  0
    0.6163    3.2110    0.7136 H   0  0  0  0  0  0  0  0  0  0  0  0
   -0.9483    3.3902    0.1209 H   0  0  0  0  0  0  0  0  0  0  0  0
   -0.0067    1.4005   -0.0066 C   0  0  0  0  0  0  0  0  0  0  0  0
   -1.1957    0.7013   -0.0151 C   0  0  0  0  0  0  0  0  0  0  0  0
   -2.0637    1.1912   -0.0338 H   0  0  0  0  0  0  0  0  0  0  0  0
   -1.1994   -0.6832    0.0000 C   0  0  0  0  0  0  0  0  0  0  0  0
   -2.0793   -1.1783    0.0067 H   0  0  0  0  0  0  0  0  0  0  0  0
   -0.0038   -1.3842    0.0072 C   0  0  0  0  0  0  0  0  0  0  0  0
   -0.0222   -2.3893    0.0177 H   0  0  0  0  0  0  0  0  0  0  0  0
    1.1994   -0.7133   -0.0000 C   0  0  0  0  0  0  0  0  0  0  0  0
    2.0753   -1.2163   -0.0143 H   0  0  0  0  0  0  0  0  0  0  0  0
    1.2062    0.6790    0.0144 C   0  0  0  0  0  0  0  0  0  0  0  0
    2.0662    1.1755    0.0385 H   0  0  0  0  0  0  0  0  0  0  0  0
  1  5  1  0
  5  6  2  0
  5  7  1  0
  1  2  1  0
  1  3  1  0
  1  4  1  0
  8 12  1  0
 12 13  2  0
 13 15  1  0
 15 17  2  0
 17 19  1  0
 19 21  2  0
 21 12  1  0
  8  9  1  0
  8 10  1  0
  8 11  1  0
 13 14  1  0
 15 16  1  0
 17 18  1  0
 19 20  1  0
 21 22  1  0
M  CHG  1   7  -1
V    7 [O&-]
M  END
>  <PDB_ID>  (3066) 
pdb1viz

>  <RESIDUE_NAME>  (3066) 
GLU   PHE

>  <FRAG_NAME>  (3066) 
ACET   MBZ

>  <FRAG_ATOM_NUM>  (3066) 
fragi: 7 fragj: 15

>  <atom.prop.CHAIN_ID>  (3066) 
A A A A A A A Z Z Z Z Z Z Z Z Z Z Z Z Z Z Z

>  <atom.prop.IS_HEAVY_ATOM>  (3066) 
1 0 0 0 1 1 1 1 0 0 0 1 1 0 1 0 1 0 1 0 1 0

>  <DIFUSE_FUNC_ATOM>  (3066) 
n/a

>  <FINAL_SINGLE_POINT_ENERGY>  (3066) 
0

>  <NONCOV_INTER_ENERGY_QM>  (3066) 
0

>  <FF_Energy>  (3066) 
-2.56

>  <QM_Energy>  (3066) 
-7.75

>  <source>  (3066) 
ACET_MBZ_03

>  <Index>  (3066) 
18425

$$$$
ACEH-pdb1vkf-A-ASH-50:MBZ-pdb1vkf-A-PHE-53
     RDKit          3D

 22 21  0  0  0  0  0  0  0  0999 V2000
    4.5020    3.3768    1.5718 C   0  0  0  0  0  0  0  0  0  0  0  0
    4.9214    3.2355    2.4570 H   0  0  0  0  0  0  0  0  0  0  0  0
    3.6286    3.8324    1.6588 H   0  0  0  0  0  0  0  0  0  0  0  0
    5.1611    4.0092    0.9769 H   0  0  0  0  0  0  0  0  0  0  0  0
    4.2806    2.0207    0.9173 C   0  0  0  0  0  0  0  0  0  0  0  0
    4.4710    1.9072   -0.3032 O   0  0  0  0  0  0  0  0  0  0  0  0
    3.9040    1.0061    1.5497 O   0  0  0  0  0  0  0  0  0  0  0  0
    0.0379    2.9125   -0.0283 C   0  0  0  0  0  0  0  0  0  0  0  0
    0.8360    3.2159    0.4588 H   0  0  0  0  0  0  0  0  0  0  0  0
   -0.7950    3.2428    0.3776 H   0  0  0  0  0  0  0  0  0  0  0  0
    0.0948    3.3046   -1.0438 H   0  0  0  0  0  0  0  0  0  0  0  0
    0.0111    1.4008    0.0177 C   0  0  0  0  0  0  0  0  0  0  0  0
   -1.1921    0.7058   -0.0053 C   0  0  0  0  0  0  0  0  0  0  0  0
   -2.0539    1.1931   -0.0268 H   0  0  0  0  0  0  0  0  0  0  0  0
   -1.2007   -0.6994    0.0000 C   0  0  0  0  0  0  0  0  0  0  0  0
   -2.0818   -1.1813    0.0073 H   0  0  0  0  0  0  0  0  0  0  0  0
   -0.0059   -1.3949   -0.0026 C   0  0  0  0  0  0  0  0  0  0  0  0
   -0.0029   -2.3921   -0.0068 H   0  0  0  0  0  0  0  0  0  0  0  0
    1.2007   -0.6923   -0.0000 C   0  0  0  0  0  0  0  0  0  0  0  0
    2.0774   -1.1964    0.0103 H   0  0  0  0  0  0  0  0  0  0  0  0
    1.1870    0.6800   -0.0098 C   0  0  0  0  0  0  0  0  0  0  0  0
    2.0672    1.1827   -0.0393 H   0  0  0  0  0  0  0  0  0  0  0  0
  1  5  1  0
  5  6  2  0
  5  7  1  0
  1  2  1  0
  1  3  1  0
  1  4  1  0
  8 12  1  0
 12 13  2  0
 13 15  1  0
 15 17  2  0
 17 19  1  0
 19 21  2  0
 21 12  1  0
  8  9  1  0
  8 10  1  0
  8 11  1  0
 13 14  1  0
 15 16  1  0
 17 18  1  0
 19 20  1  0
 21 22  1  0
M  CHG  1   7  -1
V    7 [O&-]
M  END
>  <PDB_ID>  (3067) 
pdb1vkf

>  <RESIDUE_NAME>  (3067) 
ASP   PHE

>  <FRAG_NAME>  (3067) 
ACET   MBZ

>  <FRAG_ATOM_NUM>  (3067) 
fragi: 7 fragj: 15

>  <atom.prop.CHAIN_ID>  (3067) 
A A A A A A A Z Z Z Z Z Z Z Z Z Z Z Z Z Z Z

>  <atom.prop.IS_HEAVY_ATOM>  (3067) 
1 0 0 0 1 1 1 1 0 0 0 1 1 0 1 0 1 0 1 0 1 0

>  <DIFUSE_FUNC_ATOM>  (3067) 
n/a

>  <FINAL_SINGLE_POINT_ENERGY>  (3067) 
0

>  <NONCOV_INTER_ENERGY_QM>  (3067) 
0

>  <FF_Energy>  (3067) 
-1.4

>  <QM_Energy>  (3067) 
-7.15

>  <source>  (3067) 
ACET_MBZ_03

>  <Index>  (3067) 
18435

$$$$
ACEH-pdb3sqn-A-GLH-415:MBZ-pdb3sqn-A-PHE-411
     RDKit          3D

 22 21  0  0  0  0  0  0  0  0999 V2000
    0.1368   -0.8460    3.8684 C   0  0  0  0  0  0  0  0  0  0  0  0
   -0.6645   -1.4161    3.9312 H   0  0  0  0  0  0  0  0  0  0  0  0
   -0.0758    0.0445    3.5025 H   0  0  0  0  0  0  0  0  0  0  0  0
    0.5580   -0.7239    4.8662 H   0  0  0  0  0  0  0  0  0  0  0  0
    1.0917   -1.5161    2.8934 C   0  0  0  0  0  0  0  0  0  0  0  0
    2.2549   -1.0741    2.6910 O   0  0  0  0  0  0  0  0  0  0  0  0
    0.6402   -2.5050    2.2870 O   0  0  0  0  0  0  0  0  0  0  0  0
    0.0008    2.8962   -0.0461 C   0  0  0  0  0  0  0  0  0  0  0  0
   -0.6433    3.1648   -0.7539 H   0  0  0  0  0  0  0  0  0  0  0  0
    0.9214    3.1835   -0.2858 H   0  0  0  0  0  0  0  0  0  0  0  0
   -0.2827    3.3935    0.8814 H   0  0  0  0  0  0  0  0  0  0  0  0
    0.0003    1.3836    0.0157 C   0  0  0  0  0  0  0  0  0  0  0  0
   -1.1663    0.6758   -0.0100 C   0  0  0  0  0  0  0  0  0  0  0  0
   -2.0455    1.1794   -0.0384 H   0  0  0  0  0  0  0  0  0  0  0  0
   -1.1821   -0.6753    0.0000 C   0  0  0  0  0  0  0  0  0  0  0  0
   -2.0727   -1.1699    0.0211 H   0  0  0  0  0  0  0  0  0  0  0  0
   -0.0147   -1.3715   -0.0163 C   0  0  0  0  0  0  0  0  0  0  0  0
   -0.0277   -2.3792   -0.0405 H   0  0  0  0  0  0  0  0  0  0  0  0
    1.1821   -0.7040    0.0000 C   0  0  0  0  0  0  0  0  0  0  0  0
    2.0611   -1.1995    0.0062 H   0  0  0  0  0  0  0  0  0  0  0  0
    1.1808    0.6915    0.0106 C   0  0  0  0  0  0  0  0  0  0  0  0
    2.0545    1.1779    0.0136 H   0  0  0  0  0  0  0  0  0  0  0  0
  1  5  1  0
  5  6  2  0
  5  7  1  0
  1  2  1  0
  1  3  1  0
  1  4  1  0
  8 12  1  0
 12 13  2  0
 13 15  1  0
 15 17  2  0
 17 19  1  0
 19 21  2  0
 21 12  1  0
  8  9  1  0
  8 10  1  0
  8 11  1  0
 13 14  1  0
 15 16  1  0
 17 18  1  0
 19 20  1  0
 21 22  1  0
M  CHG  1   7  -1
V    7 [O&-]
M  END
>  <PDB_ID>  (3068) 
pdb3sqn

>  <RESIDUE_NAME>  (3068) 
GLU   PHE

>  <FRAG_NAME>  (3068) 
ACET   MBZ

>  <FRAG_ATOM_NUM>  (3068) 
fragi: 7 fragj: 15

>  <atom.prop.CHAIN_ID>  (3068) 
A A A A A A A Z Z Z Z Z Z Z Z Z Z Z Z Z Z Z

>  <atom.prop.IS_HEAVY_ATOM>  (3068) 
1 0 0 0 1 1 1 1 0 0 0 1 1 0 1 0 1 0 1 0 1 0

>  <DIFUSE_FUNC_ATOM>  (3068) 
n/a

>  <FINAL_SINGLE_POINT_ENERGY>  (3068) 
0

>  <NONCOV_INTER_ENERGY_QM>  (3068) 
0

>  <FF_Energy>  (3068) 
7.85

>  <QM_Energy>  (3068) 
-1.75

>  <source>  (3068) 
ACET_MBZ_03

>  <Index>  (3068) 
18449

$$$$
ACEH-pdb1vlm-B-GLH-41:MBZ-pdb1vlm-B-PHE-49
     RDKit          3D

 22 21  0  0  0  0  0  0  0  0999 V2000
    1.9283    5.9853    3.7155 C   0  0  0  0  0  0  0  0  0  0  0  0
    2.7935    5.9007    4.1881 H   0  0  0  0  0  0  0  0  0  0  0  0
    1.1891    5.6074    4.2540 H   0  0  0  0  0  0  0  0  0  0  0  0
    1.7301    7.0492    3.5854 H   0  0  0  0  0  0  0  0  0  0  0  0
    2.0255    5.1570    2.4220 C   0  0  0  0  0  0  0  0  0  0  0  0
    1.9636    5.7371    1.3112 O   0  0  0  0  0  0  0  0  0  0  0  0
    2.1727    3.8996    2.5213 O   0  0  0  0  0  0  0  0  0  0  0  0
   -0.0124    2.8737   -0.0559 C   0  0  0  0  0  0  0  0  0  0  0  0
    0.8002    3.2121    0.3834 H   0  0  0  0  0  0  0  0  0  0  0  0
   -0.8330    3.1970    0.3822 H   0  0  0  0  0  0  0  0  0  0  0  0
   -0.0153    3.2343   -1.0845 H   0  0  0  0  0  0  0  0  0  0  0  0
    0.0016    1.3900    0.0115 C   0  0  0  0  0  0  0  0  0  0  0  0
   -1.1855    0.6821   -0.0115 C   0  0  0  0  0  0  0  0  0  0  0  0
   -2.0554    1.1776   -0.0377 H   0  0  0  0  0  0  0  0  0  0  0  0
   -1.1926   -0.6934    0.0000 C   0  0  0  0  0  0  0  0  0  0  0  0
   -2.0783   -1.1845    0.0230 H   0  0  0  0  0  0  0  0  0  0  0  0
   -0.0148   -1.3824   -0.0177 C   0  0  0  0  0  0  0  0  0  0  0  0
   -0.0093   -2.3844   -0.0435 H   0  0  0  0  0  0  0  0  0  0  0  0
    1.1926   -0.6888   -0.0000 C   0  0  0  0  0  0  0  0  0  0  0  0
    2.0698   -1.1981    0.0019 H   0  0  0  0  0  0  0  0  0  0  0  0
    1.1987    0.6926    0.0177 C   0  0  0  0  0  0  0  0  0  0  0  0
    2.0623    1.1885    0.0340 H   0  0  0  0  0  0  0  0  0  0  0  0
  1  5  1  0
  5  6  2  0
  5  7  1  0
  1  2  1  0
  1  3  1  0
  1  4  1  0
  8 12  1  0
 12 13  2  0
 13 15  1  0
 15 17  2  0
 17 19  1  0
 19 21  2  0
 21 12  1  0
  8  9  1  0
  8 10  1  0
  8 11  1  0
 13 14  1  0
 15 16  1  0
 17 18  1  0
 19 20  1  0
 21 22  1  0
M  CHG  1   7  -1
V    7 [O&-]
M  END
>  <PDB_ID>  (3069) 
pdb1vlm

>  <RESIDUE_NAME>  (3069) 
GLU   PHE

>  <FRAG_NAME>  (3069) 
ACET   MBZ

>  <FRAG_ATOM_NUM>  (3069) 
fragi: 7 fragj: 15

>  <atom.prop.CHAIN_ID>  (3069) 
A A A A A A A Z Z Z Z Z Z Z Z Z Z Z Z Z Z Z

>  <atom.prop.IS_HEAVY_ATOM>  (3069) 
1 0 0 0 1 1 1 1 0 0 0 1 1 0 1 0 1 0 1 0 1 0

>  <DIFUSE_FUNC_ATOM>  (3069) 
n/a

>  <FINAL_SINGLE_POINT_ENERGY>  (3069) 
0

>  <NONCOV_INTER_ENERGY_QM>  (3069) 
0

>  <FF_Energy>  (3069) 
-1.11

>  <QM_Energy>  (3069) 
-6.31

>  <source>  (3069) 
ACET_MBZ_03

>  <Index>  (3069) 
18480

$$$$
ACEH-pdb1vrq-A-GLH-252:MBZ-pdb1vrq-A-PHE-380
     RDKit          3D

 22 21  0  0  0  0  0  0  0  0999 V2000
   -2.2319   -1.6764   -2.8153 C   0  0  0  0  0  0  0  0  0  0  0  0
   -1.8822   -1.8435   -3.7178 H   0  0  0  0  0  0  0  0  0  0  0  0
   -1.6157   -1.1405   -2.2687 H   0  0  0  0  0  0  0  0  0  0  0  0
   -3.1714   -1.1315   -2.9085 H   0  0  0  0  0  0  0  0  0  0  0  0
   -2.4141   -3.0028   -2.1370 C   0  0  0  0  0  0  0  0  0  0  0  0
   -3.3931   -3.6944   -2.4754 O   0  0  0  0  0  0  0  0  0  0  0  0
   -1.5795   -3.3591   -1.2671 O   0  0  0  0  0  0  0  0  0  0  0  0
   -0.0048    2.9032   -0.1305 C   0  0  0  0  0  0  0  0  0  0  0  0
    0.8386    3.2482    0.2465 H   0  0  0  0  0  0  0  0  0  0  0  0
   -0.7903    3.2532    0.3528 H   0  0  0  0  0  0  0  0  0  0  0  0
   -0.0712    3.2500   -1.1618 H   0  0  0  0  0  0  0  0  0  0  0  0
   -0.0009    1.4089   -0.0022 C   0  0  0  0  0  0  0  0  0  0  0  0
   -1.1986    0.7045    0.0030 C   0  0  0  0  0  0  0  0  0  0  0  0
   -2.0652    1.1923    0.0071 H   0  0  0  0  0  0  0  0  0  0  0  0
   -1.2074   -0.6957   -0.0000 C   0  0  0  0  0  0  0  0  0  0  0  0
   -2.0849   -1.1846    0.0020 H   0  0  0  0  0  0  0  0  0  0  0  0
   -0.0030   -1.4043   -0.0042 C   0  0  0  0  0  0  0  0  0  0  0  0
   -0.0126   -2.3988   -0.0105 H   0  0  0  0  0  0  0  0  0  0  0  0
    1.2074   -0.7076    0.0000 C   0  0  0  0  0  0  0  0  0  0  0  0
    2.0845   -1.2031    0.0015 H   0  0  0  0  0  0  0  0  0  0  0  0
    1.2025    0.6942    0.0034 C   0  0  0  0  0  0  0  0  0  0  0  0
    2.0688    1.1881    0.0092 H   0  0  0  0  0  0  0  0  0  0  0  0
  1  5  1  0
  5  6  2  0
  5  7  1  0
  1  2  1  0
  1  3  1  0
  1  4  1  0
  8 12  1  0
 12 13  2  0
 13 15  1  0
 15 17  2  0
 17 19  1  0
 19 21  2  0
 21 12  1  0
  8  9  1  0
  8 10  1  0
  8 11  1  0
 13 14  1  0
 15 16  1  0
 17 18  1  0
 19 20  1  0
 21 22  1  0
M  CHG  1   7  -1
V    7 [O&-]
M  END
>  <PDB_ID>  (3070) 
pdb1vrq

>  <RESIDUE_NAME>  (3070) 
GLU   PHE

>  <FRAG_NAME>  (3070) 
ACET   MBZ

>  <FRAG_ATOM_NUM>  (3070) 
fragi: 7 fragj: 15

>  <atom.prop.CHAIN_ID>  (3070) 
A A A A A A A Z Z Z Z Z Z Z Z Z Z Z Z Z Z Z

>  <atom.prop.IS_HEAVY_ATOM>  (3070) 
1 0 0 0 1 1 1 1 0 0 0 1 1 0 1 0 1 0 1 0 1 0

>  <DIFUSE_FUNC_ATOM>  (3070) 
n/a

>  <FINAL_SINGLE_POINT_ENERGY>  (3070) 
0

>  <NONCOV_INTER_ENERGY_QM>  (3070) 
0

>  <FF_Energy>  (3070) 
4.42

>  <QM_Energy>  (3070) 
-2.73

>  <source>  (3070) 
ACET_MBZ_03

>  <Index>  (3070) 
18501

$$$$
ACEH-pdb1w0d-D-GLH-146:MBZ-pdb1w0d-C-PHE-184
     RDKit          3D

 22 21  0  0  0  0  0  0  0  0999 V2000
    4.6844    4.2315   -0.4609 C   0  0  0  0  0  0  0  0  0  0  0  0
    4.0540    4.6598    0.1788 H   0  0  0  0  0  0  0  0  0  0  0  0
    4.9404    4.8750   -1.1755 H   0  0  0  0  0  0  0  0  0  0  0  0
    5.5839    3.9425    0.0828 H   0  0  0  0  0  0  0  0  0  0  0  0
    3.9342    3.0933   -1.1325 C   0  0  0  0  0  0  0  0  0  0  0  0
    2.8571    3.3898   -1.6326 O   0  0  0  0  0  0  0  0  0  0  0  0
    4.3788    1.9246   -1.1596 O   0  0  0  0  0  0  0  0  0  0  0  0
    0.0236    2.8739    0.0197 C   0  0  0  0  0  0  0  0  0  0  0  0
    0.9502    3.1764    0.1545 H   0  0  0  0  0  0  0  0  0  0  0  0
   -0.5817    3.2136    0.7174 H   0  0  0  0  0  0  0  0  0  0  0  0
   -0.3195    3.2600   -0.9401 H   0  0  0  0  0  0  0  0  0  0  0  0
    0.0028    1.3908    0.0605 C   0  0  0  0  0  0  0  0  0  0  0  0
   -1.1831    0.7395   -0.0232 C   0  0  0  0  0  0  0  0  0  0  0  0
   -2.0466    1.1975   -0.1006 H   0  0  0  0  0  0  0  0  0  0  0  0
   -1.1968   -0.7142    0.0000 C   0  0  0  0  0  0  0  0  0  0  0  0
   -2.0865   -1.1633    0.0390 H   0  0  0  0  0  0  0  0  0  0  0  0
   -0.0192   -1.3917   -0.0300 C   0  0  0  0  0  0  0  0  0  0  0  0
   -0.0077   -2.3979   -0.0749 H   0  0  0  0  0  0  0  0  0  0  0  0
    1.1968   -0.7018    0.0000 C   0  0  0  0  0  0  0  0  0  0  0  0
    2.0679   -1.2136    0.0282 H   0  0  0  0  0  0  0  0  0  0  0  0
    1.1995    0.6774   -0.0072 C   0  0  0  0  0  0  0  0  0  0  0  0
    2.0638    1.1766   -0.0628 H   0  0  0  0  0  0  0  0  0  0  0  0
  1  5  1  0
  5  6  2  0
  5  7  1  0
  1  2  1  0
  1  3  1  0
  1  4  1  0
  8 12  1  0
 12 13  2  0
 13 15  1  0
 15 17  2  0
 17 19  1  0
 19 21  2  0
 21 12  1  0
  8  9  1  0
  8 10  1  0
  8 11  1  0
 13 14  1  0
 15 16  1  0
 17 18  1  0
 19 20  1  0
 21 22  1  0
M  CHG  1   7  -1
V    7 [O&-]
M  END
>  <PDB_ID>  (3071) 
pdb1w0d

>  <RESIDUE_NAME>  (3071) 
GLU   PHE

>  <FRAG_NAME>  (3071) 
ACET   MBZ

>  <FRAG_ATOM_NUM>  (3071) 
fragi: 7 fragj: 15

>  <atom.prop.CHAIN_ID>  (3071) 
A A A A A A A Z Z Z Z Z Z Z Z Z Z Z Z Z Z Z

>  <atom.prop.IS_HEAVY_ATOM>  (3071) 
1 0 0 0 1 1 1 1 0 0 0 1 1 0 1 0 1 0 1 0 1 0

>  <DIFUSE_FUNC_ATOM>  (3071) 
n/a

>  <FINAL_SINGLE_POINT_ENERGY>  (3071) 
0

>  <NONCOV_INTER_ENERGY_QM>  (3071) 
0

>  <FF_Energy>  (3071) 
-2.33

>  <QM_Energy>  (3071) 
-7.89

>  <source>  (3071) 
ACET_MBZ_03

>  <Index>  (3071) 
18521

$$$$
ACEH-pdb1w0d-C-ASH-230:MBZ-pdb1w0d-C-PHE-233
     RDKit          3D

 22 21  0  0  0  0  0  0  0  0999 V2000
    3.9686    2.4564   -3.6539 C   0  0  0  0  0  0  0  0  0  0  0  0
    4.2078    2.3134   -4.6032 H   0  0  0  0  0  0  0  0  0  0  0  0
    4.6371    2.0464   -3.0515 H   0  0  0  0  0  0  0  0  0  0  0  0
    3.9732    3.5310   -3.4710 H   0  0  0  0  0  0  0  0  0  0  0  0
    2.6135    1.8421   -3.3854 C   0  0  0  0  0  0  0  0  0  0  0  0
    2.2725    0.7784   -3.8884 O   0  0  0  0  0  0  0  0  0  0  0  0
    1.7488    2.4308   -2.6955 O   0  0  0  0  0  0  0  0  0  0  0  0
    0.0851    2.9224    0.0202 C   0  0  0  0  0  0  0  0  0  0  0  0
    0.9587    3.1998   -0.3481 H   0  0  0  0  0  0  0  0  0  0  0  0
   -0.0171    3.2037    0.9608 H   0  0  0  0  0  0  0  0  0  0  0  0
   -0.6984    3.4038   -0.5649 H   0  0  0  0  0  0  0  0  0  0  0  0
    0.0230    1.4192   -0.0212 C   0  0  0  0  0  0  0  0  0  0  0  0
   -1.2078    0.7424    0.0403 C   0  0  0  0  0  0  0  0  0  0  0  0
   -2.0554    1.2249    0.1090 H   0  0  0  0  0  0  0  0  0  0  0  0
   -1.2434   -0.7123   -0.0000 C   0  0  0  0  0  0  0  0  0  0  0  0
   -2.1165   -1.1665   -0.0386 H   0  0  0  0  0  0  0  0  0  0  0  0
   -0.0247   -1.4278    0.0193 C   0  0  0  0  0  0  0  0  0  0  0  0
   -0.0243   -2.4177    0.0462 H   0  0  0  0  0  0  0  0  0  0  0  0
    1.2434   -0.7264   -0.0000 C   0  0  0  0  0  0  0  0  0  0  0  0
    2.0910   -1.2149    0.0143 H   0  0  0  0  0  0  0  0  0  0  0  0
    1.2095    0.7048   -0.0385 C   0  0  0  0  0  0  0  0  0  0  0  0
    2.0889    1.1899   -0.0801 H   0  0  0  0  0  0  0  0  0  0  0  0
  1  5  1  0
  5  6  2  0
  5  7  1  0
  1  2  1  0
  1  3  1  0
  1  4  1  0
  8 12  1  0
 12 13  2  0
 13 15  1  0
 15 17  2  0
 17 19  1  0
 19 21  2  0
 21 12  1  0
  8  9  1  0
  8 10  1  0
  8 11  1  0
 13 14  1  0
 15 16  1  0
 17 18  1  0
 19 20  1  0
 21 22  1  0
M  CHG  1   7  -1
V    7 [O&-]
M  END
>  <PDB_ID>  (3072) 
pdb1w0d

>  <RESIDUE_NAME>  (3072) 
ASP   PHE

>  <FRAG_NAME>  (3072) 
ACET   MBZ

>  <FRAG_ATOM_NUM>  (3072) 
fragi: 7 fragj: 15

>  <atom.prop.CHAIN_ID>  (3072) 
A A A A A A A Z Z Z Z Z Z Z Z Z Z Z Z Z Z Z

>  <atom.prop.IS_HEAVY_ATOM>  (3072) 
1 0 0 0 1 1 1 1 0 0 0 1 1 0 1 0 1 0 1 0 1 0

>  <DIFUSE_FUNC_ATOM>  (3072) 
n/a

>  <FINAL_SINGLE_POINT_ENERGY>  (3072) 
0

>  <NONCOV_INTER_ENERGY_QM>  (3072) 
0

>  <FF_Energy>  (3072) 
2.02

>  <QM_Energy>  (3072) 
-3.82

>  <source>  (3072) 
ACET_MBZ_03

>  <Index>  (3072) 
18522

$$$$
ACEH-pdb1wdk-B-GLH-120:MBZ-pdb1wdk-B-PHE-149
     RDKit          3D

 22 21  0  0  0  0  0  0  0  0999 V2000
    2.9189    5.3956   -1.6168 C   0  0  0  0  0  0  0  0  0  0  0  0
    2.5735    6.3094   -1.7679 H   0  0  0  0  0  0  0  0  0  0  0  0
    3.7847    5.2587   -2.0740 H   0  0  0  0  0  0  0  0  0  0  0  0
    3.0767    5.2667   -0.5460 H   0  0  0  0  0  0  0  0  0  0  0  0
    1.9301    4.4277   -2.2050 C   0  0  0  0  0  0  0  0  0  0  0  0
    0.8467    4.8780   -2.6350 O   0  0  0  0  0  0  0  0  0  0  0  0
    2.2310    3.2182   -2.2491 O   0  0  0  0  0  0  0  0  0  0  0  0
    0.0151    2.9157    0.0631 C   0  0  0  0  0  0  0  0  0  0  0  0
    0.8311    3.2318   -0.3990 H   0  0  0  0  0  0  0  0  0  0  0  0
    0.0198    3.1819    1.0166 H   0  0  0  0  0  0  0  0  0  0  0  0
   -0.8408    3.3962   -0.4108 H   0  0  0  0  0  0  0  0  0  0  0  0
    0.0002    1.4066    0.0016 C   0  0  0  0  0  0  0  0  0  0  0  0
   -1.1954    0.6968    0.0000 C   0  0  0  0  0  0  0  0  0  0  0  0
   -2.0631    1.1830   -0.0025 H   0  0  0  0  0  0  0  0  0  0  0  0
   -1.1987   -0.6991    0.0000 C   0  0  0  0  0  0  0  0  0  0  0  0
   -2.0774   -1.1906    0.0020 H   0  0  0  0  0  0  0  0  0  0  0  0
    0.0010   -1.3973   -0.0007 C   0  0  0  0  0  0  0  0  0  0  0  0
   -0.0045   -2.3956   -0.0020 H   0  0  0  0  0  0  0  0  0  0  0  0
    1.1987   -0.7009    0.0000 C   0  0  0  0  0  0  0  0  0  0  0  0
    2.0820   -1.1952    0.0022 H   0  0  0  0  0  0  0  0  0  0  0  0
    1.1941    0.6940   -0.0009 C   0  0  0  0  0  0  0  0  0  0  0  0
    2.0646    1.1874   -0.0042 H   0  0  0  0  0  0  0  0  0  0  0  0
  1  5  1  0
  5  6  2  0
  5  7  1  0
  1  2  1  0
  1  3  1  0
  1  4  1  0
  8 12  1  0
 12 13  2  0
 13 15  1  0
 15 17  2  0
 17 19  1  0
 19 21  2  0
 21 12  1  0
  8  9  1  0
  8 10  1  0
  8 11  1  0
 13 14  1  0
 15 16  1  0
 17 18  1  0
 19 20  1  0
 21 22  1  0
M  CHG  1   7  -1
V    7 [O&-]
M  END
>  <PDB_ID>  (3073) 
pdb1wdk

>  <RESIDUE_NAME>  (3073) 
GLU   PHE

>  <FRAG_NAME>  (3073) 
ACET   MBZ

>  <FRAG_ATOM_NUM>  (3073) 
fragi: 7 fragj: 15

>  <atom.prop.CHAIN_ID>  (3073) 
A A A A A A A Z Z Z Z Z Z Z Z Z Z Z Z Z Z Z

>  <atom.prop.IS_HEAVY_ATOM>  (3073) 
1 0 0 0 1 1 1 1 0 0 0 1 1 0 1 0 1 0 1 0 1 0

>  <DIFUSE_FUNC_ATOM>  (3073) 
n/a

>  <FINAL_SINGLE_POINT_ENERGY>  (3073) 
0

>  <NONCOV_INTER_ENERGY_QM>  (3073) 
0

>  <FF_Energy>  (3073) 
1.63

>  <QM_Energy>  (3073) 
-5.84

>  <source>  (3073) 
ACET_MBZ_03

>  <Index>  (3073) 
18572

$$$$
ACEH-pdb1weh-B-GLH-113:MBZ-pdb1weh-B-PHE-7
     RDKit          3D

 22 21  0  0  0  0  0  0  0  0999 V2000
    1.6526    1.0219   -4.0212 C   0  0  0  0  0  0  0  0  0  0  0  0
    2.1744    0.1932   -4.1198 H   0  0  0  0  0  0  0  0  0  0  0  0
    1.4800    1.4545   -4.8895 H   0  0  0  0  0  0  0  0  0  0  0  0
    0.6922    0.7635   -3.5752 H   0  0  0  0  0  0  0  0  0  0  0  0
    2.4627    1.9817   -3.1801 C   0  0  0  0  0  0  0  0  0  0  0  0
    3.7093    1.8603   -3.1724 O   0  0  0  0  0  0  0  0  0  0  0  0
    1.8552    2.8685   -2.5399 O   0  0  0  0  0  0  0  0  0  0  0  0
   -0.0088    2.9279    0.0007 C   0  0  0  0  0  0  0  0  0  0  0  0
   -0.9153    3.2229    0.2543 H   0  0  0  0  0  0  0  0  0  0  0  0
    0.2331    3.2304   -0.9071 H   0  0  0  0  0  0  0  0  0  0  0  0
    0.6972    3.3736    0.7013 H   0  0  0  0  0  0  0  0  0  0  0  0
    0.0007    1.4093    0.0003 C   0  0  0  0  0  0  0  0  0  0  0  0
   -1.1949    0.6963   -0.0021 C   0  0  0  0  0  0  0  0  0  0  0  0
   -2.0636    1.1848   -0.0066 H   0  0  0  0  0  0  0  0  0  0  0  0
   -1.2025   -0.7007    0.0000 C   0  0  0  0  0  0  0  0  0  0  0  0
   -2.0815   -1.1894    0.0014 H   0  0  0  0  0  0  0  0  0  0  0  0
   -0.0031   -1.4007    0.0020 C   0  0  0  0  0  0  0  0  0  0  0  0
   -0.0072   -2.3973    0.0043 H   0  0  0  0  0  0  0  0  0  0  0  0
    1.2025   -0.7037    0.0000 C   0  0  0  0  0  0  0  0  0  0  0  0
    2.0824   -1.1970    0.0004 H   0  0  0  0  0  0  0  0  0  0  0  0
    1.1974    0.6996   -0.0001 C   0  0  0  0  0  0  0  0  0  0  0  0
    2.0666    1.1903   -0.0014 H   0  0  0  0  0  0  0  0  0  0  0  0
  1  5  1  0
  5  6  2  0
  5  7  1  0
  1  2  1  0
  1  3  1  0
  1  4  1  0
  8 12  1  0
 12 13  2  0
 13 15  1  0
 15 17  2  0
 17 19  1  0
 19 21  2  0
 21 12  1  0
  8  9  1  0
  8 10  1  0
  8 11  1  0
 13 14  1  0
 15 16  1  0
 17 18  1  0
 19 20  1  0
 21 22  1  0
M  CHG  1   7  -1
V    7 [O&-]
M  END
>  <PDB_ID>  (3074) 
pdb1weh

>  <RESIDUE_NAME>  (3074) 
GLU   PHE

>  <FRAG_NAME>  (3074) 
ACET   MBZ

>  <FRAG_ATOM_NUM>  (3074) 
fragi: 7 fragj: 15

>  <atom.prop.CHAIN_ID>  (3074) 
A A A A A A A Z Z Z Z Z Z Z Z Z Z Z Z Z Z Z

>  <atom.prop.IS_HEAVY_ATOM>  (3074) 
1 0 0 0 1 1 1 1 0 0 0 1 1 0 1 0 1 0 1 0 1 0

>  <DIFUSE_FUNC_ATOM>  (3074) 
n/a

>  <FINAL_SINGLE_POINT_ENERGY>  (3074) 
0

>  <NONCOV_INTER_ENERGY_QM>  (3074) 
0

>  <FF_Energy>  (3074) 
-0.2

>  <QM_Energy>  (3074) 
-6.73

>  <source>  (3074) 
ACET_MBZ_03

>  <Index>  (3074) 
18578

$$$$
ACEH-pdb3teo-M-ASH-141:MBZ-pdb3teo-M-PHE-138
     RDKit          3D

 22 21  0  0  0  0  0  0  0  0999 V2000
    2.8477    6.6528    0.9901 C   0  0  0  0  0  0  0  0  0  0  0  0
    2.7865    6.4363    0.0226 H   0  0  0  0  0  0  0  0  0  0  0  0
    3.7739    6.9137    1.2327 H   0  0  0  0  0  0  0  0  0  0  0  0
    2.1950    7.5034    1.1866 H   0  0  0  0  0  0  0  0  0  0  0  0
    2.4577    5.4291    1.7911 C   0  0  0  0  0  0  0  0  0  0  0  0
    2.1899    5.5711    3.0031 O   0  0  0  0  0  0  0  0  0  0  0  0
    2.4090    4.3275    1.2089 O   0  0  0  0  0  0  0  0  0  0  0  0
   -0.0080    2.9055   -0.0092 C   0  0  0  0  0  0  0  0  0  0  0  0
    0.8680    3.2163    0.3227 H   0  0  0  0  0  0  0  0  0  0  0  0
   -0.7457    3.2100    0.5711 H   0  0  0  0  0  0  0  0  0  0  0  0
   -0.1626    3.3345   -0.9992 H   0  0  0  0  0  0  0  0  0  0  0  0
   -0.0008    1.3987   -0.0003 C   0  0  0  0  0  0  0  0  0  0  0  0
   -1.1943    0.6902    0.0002 C   0  0  0  0  0  0  0  0  0  0  0  0
   -2.0621    1.1825    0.0001 H   0  0  0  0  0  0  0  0  0  0  0  0
   -1.1993   -0.6940   -0.0000 C   0  0  0  0  0  0  0  0  0  0  0  0
   -2.0759   -1.1905   -0.0008 H   0  0  0  0  0  0  0  0  0  0  0  0
    0.0010   -1.3900    0.0021 C   0  0  0  0  0  0  0  0  0  0  0  0
   -0.0049   -2.3899    0.0048 H   0  0  0  0  0  0  0  0  0  0  0  0
    1.1993   -0.6965    0.0000 C   0  0  0  0  0  0  0  0  0  0  0  0
    2.0812   -1.1942    0.0021 H   0  0  0  0  0  0  0  0  0  0  0  0
    1.1941    0.6915   -0.0021 C   0  0  0  0  0  0  0  0  0  0  0  0
    2.0630    1.1890   -0.0060 H   0  0  0  0  0  0  0  0  0  0  0  0
  1  5  1  0
  5  6  2  0
  5  7  1  0
  1  2  1  0
  1  3  1  0
  1  4  1  0
  8 12  1  0
 12 13  2  0
 13 15  1  0
 15 17  2  0
 17 19  1  0
 19 21  2  0
 21 12  1  0
  8  9  1  0
  8 10  1  0
  8 11  1  0
 13 14  1  0
 15 16  1  0
 17 18  1  0
 19 20  1  0
 21 22  1  0
M  CHG  1   7  -1
V    7 [O&-]
M  END
>  <PDB_ID>  (3075) 
pdb3teo

>  <RESIDUE_NAME>  (3075) 
ASP   PHE

>  <FRAG_NAME>  (3075) 
ACET   MBZ

>  <FRAG_ATOM_NUM>  (3075) 
fragi: 7 fragj: 15

>  <atom.prop.CHAIN_ID>  (3075) 
A A A A A A A Z Z Z Z Z Z Z Z Z Z Z Z Z Z Z

>  <atom.prop.IS_HEAVY_ATOM>  (3075) 
1 0 0 0 1 1 1 1 0 0 0 1 1 0 1 0 1 0 1 0 1 0

>  <DIFUSE_FUNC_ATOM>  (3075) 
n/a

>  <FINAL_SINGLE_POINT_ENERGY>  (3075) 
0

>  <NONCOV_INTER_ENERGY_QM>  (3075) 
0

>  <FF_Energy>  (3075) 
2.29

>  <QM_Energy>  (3075) 
-5.65

>  <source>  (3075) 
ACET_MBZ_03

>  <Index>  (3075) 
18606

$$$$
ACEH-pdb1wu4-A-GLH-243:MBZ-pdb1wu4-A-PHE-261
     RDKit          3D

 22 21  0  0  0  0  0  0  0  0999 V2000
   -2.2851    6.2831   -0.0825 C   0  0  0  0  0  0  0  0  0  0  0  0
   -2.1798    6.4364   -1.0479 H   0  0  0  0  0  0  0  0  0  0  0  0
   -1.4279    6.3220    0.3965 H   0  0  0  0  0  0  0  0  0  0  0  0
   -2.9377    7.0590    0.3176 H   0  0  0  0  0  0  0  0  0  0  0  0
   -2.8533    4.8968    0.1042 C   0  0  0  0  0  0  0  0  0  0  0  0
   -3.2703    4.2905   -0.9060 O   0  0  0  0  0  0  0  0  0  0  0  0
   -2.8887    4.4179    1.2573 O   0  0  0  0  0  0  0  0  0  0  0  0
   -0.0032    2.9166    0.0175 C   0  0  0  0  0  0  0  0  0  0  0  0
    0.3397    3.2110    0.8955 H   0  0  0  0  0  0  0  0  0  0  0  0
   -0.9305    3.2209   -0.1308 H   0  0  0  0  0  0  0  0  0  0  0  0
    0.6226    3.3672   -0.7528 H   0  0  0  0  0  0  0  0  0  0  0  0
   -0.0008    1.4063    0.0002 C   0  0  0  0  0  0  0  0  0  0  0  0
   -1.1960    0.6989    0.0004 C   0  0  0  0  0  0  0  0  0  0  0  0
   -2.0640    1.1871   -0.0007 H   0  0  0  0  0  0  0  0  0  0  0  0
   -1.2017   -0.6961    0.0000 C   0  0  0  0  0  0  0  0  0  0  0  0
   -2.0809   -1.1867    0.0015 H   0  0  0  0  0  0  0  0  0  0  0  0
   -0.0022   -1.3976   -0.0001 C   0  0  0  0  0  0  0  0  0  0  0  0
   -0.0093   -2.3951   -0.0002 H   0  0  0  0  0  0  0  0  0  0  0  0
    1.2017   -0.7041   -0.0000 C   0  0  0  0  0  0  0  0  0  0  0  0
    2.0814   -1.2008    0.0020 H   0  0  0  0  0  0  0  0  0  0  0  0
    1.1990    0.6927   -0.0006 C   0  0  0  0  0  0  0  0  0  0  0  0
    2.0668    1.1868   -0.0027 H   0  0  0  0  0  0  0  0  0  0  0  0
  1  5  1  0
  5  6  2  0
  5  7  1  0
  1  2  1  0
  1  3  1  0
  1  4  1  0
  8 12  1  0
 12 13  2  0
 13 15  1  0
 15 17  2  0
 17 19  1  0
 19 21  2  0
 21 12  1  0
  8  9  1  0
  8 10  1  0
  8 11  1  0
 13 14  1  0
 15 16  1  0
 17 18  1  0
 19 20  1  0
 21 22  1  0
M  CHG  1   7  -1
V    7 [O&-]
M  END
>  <PDB_ID>  (3076) 
pdb1wu4

>  <RESIDUE_NAME>  (3076) 
GLU   PHE

>  <FRAG_NAME>  (3076) 
ACET   MBZ

>  <FRAG_ATOM_NUM>  (3076) 
fragi: 7 fragj: 15

>  <atom.prop.CHAIN_ID>  (3076) 
A A A A A A A Z Z Z Z Z Z Z Z Z Z Z Z Z Z Z

>  <atom.prop.IS_HEAVY_ATOM>  (3076) 
1 0 0 0 1 1 1 1 0 0 0 1 1 0 1 0 1 0 1 0 1 0

>  <DIFUSE_FUNC_ATOM>  (3076) 
n/a

>  <FINAL_SINGLE_POINT_ENERGY>  (3076) 
0

>  <NONCOV_INTER_ENERGY_QM>  (3076) 
0

>  <FF_Energy>  (3076) 
-1.45

>  <QM_Energy>  (3076) 
-6.88

>  <source>  (3076) 
ACET_MBZ_03

>  <Index>  (3076) 
18700

$$$$
ACEH-pdb1wuv-J-ASH-139:MBZ-pdb1wuv-J-PHE-130
     RDKit          3D

 22 21  0  0  0  0  0  0  0  0999 V2000
   -2.7318   -5.0508    0.9116 C   0  0  0  0  0  0  0  0  0  0  0  0
   -1.9309   -5.2411    0.3575 H   0  0  0  0  0  0  0  0  0  0  0  0
   -3.5294   -5.5142    0.5456 H   0  0  0  0  0  0  0  0  0  0  0  0
   -2.5473   -5.4404    1.9127 H   0  0  0  0  0  0  0  0  0  0  0  0
   -2.9828   -3.5697    0.9214 C   0  0  0  0  0  0  0  0  0  0  0  0
   -2.8601   -2.9580    2.0237 O   0  0  0  0  0  0  0  0  0  0  0  0
   -3.3446   -2.9490   -0.0955 O   0  0  0  0  0  0  0  0  0  0  0  0
    0.0252    2.9028    0.0016 C   0  0  0  0  0  0  0  0  0  0  0  0
    0.9488    3.1988    0.2080 H   0  0  0  0  0  0  0  0  0  0  0  0
   -0.6091    3.2149    0.6975 H   0  0  0  0  0  0  0  0  0  0  0  0
   -0.2671    3.3607   -0.9433 H   0  0  0  0  0  0  0  0  0  0  0  0
    0.0072    1.4040   -0.0040 C   0  0  0  0  0  0  0  0  0  0  0  0
   -1.1948    0.7006    0.0185 C   0  0  0  0  0  0  0  0  0  0  0  0
   -2.0576    1.1871    0.0464 H   0  0  0  0  0  0  0  0  0  0  0  0
   -1.1956   -0.6986    0.0000 C   0  0  0  0  0  0  0  0  0  0  0  0
   -2.0796   -1.1856   -0.0146 H   0  0  0  0  0  0  0  0  0  0  0  0
   -0.0053   -1.3969    0.0031 C   0  0  0  0  0  0  0  0  0  0  0  0
   -0.0036   -2.3928    0.0069 H   0  0  0  0  0  0  0  0  0  0  0  0
    1.1956   -0.6934   -0.0000 C   0  0  0  0  0  0  0  0  0  0  0  0
    2.0771   -1.1978    0.0125 H   0  0  0  0  0  0  0  0  0  0  0  0
    1.1929    0.6843   -0.0176 C   0  0  0  0  0  0  0  0  0  0  0  0
    2.0673    1.1821   -0.0421 H   0  0  0  0  0  0  0  0  0  0  0  0
  1  5  1  0
  5  6  2  0
  5  7  1  0
  1  2  1  0
  1  3  1  0
  1  4  1  0
  8 12  1  0
 12 13  2  0
 13 15  1  0
 15 17  2  0
 17 19  1  0
 19 21  2  0
 21 12  1  0
  8  9  1  0
  8 10  1  0
  8 11  1  0
 13 14  1  0
 15 16  1  0
 17 18  1  0
 19 20  1  0
 21 22  1  0
M  CHG  1   7  -1
V    7 [O&-]
M  END
>  <PDB_ID>  (3077) 
pdb1wuv

>  <RESIDUE_NAME>  (3077) 
ASP   PHE

>  <FRAG_NAME>  (3077) 
ACET   MBZ

>  <FRAG_ATOM_NUM>  (3077) 
fragi: 7 fragj: 15

>  <atom.prop.CHAIN_ID>  (3077) 
A A A A A A A Z Z Z Z Z Z Z Z Z Z Z Z Z Z Z

>  <atom.prop.IS_HEAVY_ATOM>  (3077) 
1 0 0 0 1 1 1 1 0 0 0 1 1 0 1 0 1 0 1 0 1 0

>  <DIFUSE_FUNC_ATOM>  (3077) 
n/a

>  <FINAL_SINGLE_POINT_ENERGY>  (3077) 
0

>  <NONCOV_INTER_ENERGY_QM>  (3077) 
0

>  <FF_Energy>  (3077) 
-0.09

>  <QM_Energy>  (3077) 
-6.57

>  <source>  (3077) 
ACET_MBZ_03

>  <Index>  (3077) 
18719

$$$$
ACEH-pdb1xme-B-GLH-15:MBZ-pdb1xme-A-PHE-314
     RDKit          3D

 22 21  0  0  0  0  0  0  0  0999 V2000
   -3.2849    1.2680    4.3351 C   0  0  0  0  0  0  0  0  0  0  0  0
   -4.2183    1.3033    4.6432 H   0  0  0  0  0  0  0  0  0  0  0  0
   -2.6518    1.5428    5.0354 H   0  0  0  0  0  0  0  0  0  0  0  0
   -3.0574    0.2410    4.0493 H   0  0  0  0  0  0  0  0  0  0  0  0
   -3.1455    2.2459    3.1839 C   0  0  0  0  0  0  0  0  0  0  0  0
   -2.9964    1.7891    2.0291 O   0  0  0  0  0  0  0  0  0  0  0  0
   -3.1968    3.4699    3.4368 O   0  0  0  0  0  0  0  0  0  0  0  0
    0.0111    2.9183   -0.0157 C   0  0  0  0  0  0  0  0  0  0  0  0
    0.8944    3.2203    0.3098 H   0  0  0  0  0  0  0  0  0  0  0  0
   -0.7176    3.2347    0.5732 H   0  0  0  0  0  0  0  0  0  0  0  0
   -0.1459    3.3559   -1.0016 H   0  0  0  0  0  0  0  0  0  0  0  0
   -0.0001    1.4082   -0.0003 C   0  0  0  0  0  0  0  0  0  0  0  0
   -1.2024    0.7015   -0.0005 C   0  0  0  0  0  0  0  0  0  0  0  0
   -2.0660    1.1912   -0.0023 H   0  0  0  0  0  0  0  0  0  0  0  0
   -1.2099   -0.6969   -0.0000 C   0  0  0  0  0  0  0  0  0  0  0  0
   -2.0823   -1.1895    0.0017 H   0  0  0  0  0  0  0  0  0  0  0  0
    0.0026   -1.4023    0.0004 C   0  0  0  0  0  0  0  0  0  0  0  0
   -0.0052   -2.3972    0.0002 H   0  0  0  0  0  0  0  0  0  0  0  0
    1.2099   -0.7020    0.0000 C   0  0  0  0  0  0  0  0  0  0  0  0
    2.0882   -1.1983    0.0014 H   0  0  0  0  0  0  0  0  0  0  0  0
    1.1999    0.6916    0.0004 C   0  0  0  0  0  0  0  0  0  0  0  0
    2.0683    1.1899    0.0002 H   0  0  0  0  0  0  0  0  0  0  0  0
  1  5  1  0
  5  6  2  0
  5  7  1  0
  1  2  1  0
  1  3  1  0
  1  4  1  0
  8 12  1  0
 12 13  2  0
 13 15  1  0
 15 17  2  0
 17 19  1  0
 19 21  2  0
 21 12  1  0
  8  9  1  0
  8 10  1  0
  8 11  1  0
 13 14  1  0
 15 16  1  0
 17 18  1  0
 19 20  1  0
 21 22  1  0
M  CHG  1   7  -1
V    7 [O&-]
M  END
>  <PDB_ID>  (3078) 
pdb1xme

>  <RESIDUE_NAME>  (3078) 
GLU   PHE

>  <FRAG_NAME>  (3078) 
ACET   MBZ

>  <FRAG_ATOM_NUM>  (3078) 
fragi: 7 fragj: 15

>  <atom.prop.CHAIN_ID>  (3078) 
A A A A A A A Z Z Z Z Z Z Z Z Z Z Z Z Z Z Z

>  <atom.prop.IS_HEAVY_ATOM>  (3078) 
1 0 0 0 1 1 1 1 0 0 0 1 1 0 1 0 1 0 1 0 1 0

>  <DIFUSE_FUNC_ATOM>  (3078) 
n/a

>  <FINAL_SINGLE_POINT_ENERGY>  (3078) 
0

>  <NONCOV_INTER_ENERGY_QM>  (3078) 
0

>  <FF_Energy>  (3078) 
0.59

>  <QM_Energy>  (3078) 
-5.71

>  <source>  (3078) 
ACET_MBZ_03

>  <Index>  (3078) 
18824

$$$$
ACEH-pdb1xoc-A-GLH-229:MBZ-pdb1xoc-A-PHE-240
     RDKit          3D

 22 21  0  0  0  0  0  0  0  0999 V2000
    4.8730   -1.3739   -1.7839 C   0  0  0  0  0  0  0  0  0  0  0  0
    4.0254   -1.8642   -1.7089 H   0  0  0  0  0  0  0  0  0  0  0  0
    5.6213   -1.8524   -1.3652 H   0  0  0  0  0  0  0  0  0  0  0  0
    5.0977   -1.2127   -2.8383 H   0  0  0  0  0  0  0  0  0  0  0  0
    4.7039   -0.0661   -1.0387 C   0  0  0  0  0  0  0  0  0  0  0  0
    5.2024    0.9862   -1.5271 O   0  0  0  0  0  0  0  0  0  0  0  0
    4.0730   -0.0723    0.0417 O   0  0  0  0  0  0  0  0  0  0  0  0
   -0.0190    2.8976    0.0299 C   0  0  0  0  0  0  0  0  0  0  0  0
   -0.4847    3.2311   -0.7726 H   0  0  0  0  0  0  0  0  0  0  0  0
    0.9126    3.2179    0.0730 H   0  0  0  0  0  0  0  0  0  0  0  0
   -0.5407    3.2994    0.8985 H   0  0  0  0  0  0  0  0  0  0  0  0
   -0.0047    1.3998   -0.0177 C   0  0  0  0  0  0  0  0  0  0  0  0
   -1.1876    0.7029    0.0190 C   0  0  0  0  0  0  0  0  0  0  0  0
   -2.0579    1.1783    0.0579 H   0  0  0  0  0  0  0  0  0  0  0  0
   -1.1766   -0.6928   -0.0000 C   0  0  0  0  0  0  0  0  0  0  0  0
   -2.0568   -1.1888   -0.0181 H   0  0  0  0  0  0  0  0  0  0  0  0
    0.0193   -1.3845    0.0075 C   0  0  0  0  0  0  0  0  0  0  0  0
   -0.0093   -2.3952    0.0182 H   0  0  0  0  0  0  0  0  0  0  0  0
    1.1766   -0.7211   -0.0000 C   0  0  0  0  0  0  0  0  0  0  0  0
    2.0779   -1.1898    0.0024 H   0  0  0  0  0  0  0  0  0  0  0  0
    1.1729    0.6957   -0.0088 C   0  0  0  0  0  0  0  0  0  0  0  0
    2.0532    1.1718   -0.0097 H   0  0  0  0  0  0  0  0  0  0  0  0
  1  5  1  0
  5  6  2  0
  5  7  1  0
  1  2  1  0
  1  3  1  0
  1  4  1  0
  8 12  1  0
 12 13  2  0
 13 15  1  0
 15 17  2  0
 17 19  1  0
 19 21  2  0
 21 12  1  0
  8  9  1  0
  8 10  1  0
  8 11  1  0
 13 14  1  0
 15 16  1  0
 17 18  1  0
 19 20  1  0
 21 22  1  0
M  CHG  1   7  -1
V    7 [O&-]
M  END
>  <PDB_ID>  (3079) 
pdb1xoc

>  <RESIDUE_NAME>  (3079) 
GLU   PHE

>  <FRAG_NAME>  (3079) 
ACET   MBZ

>  <FRAG_ATOM_NUM>  (3079) 
fragi: 7 fragj: 15

>  <atom.prop.CHAIN_ID>  (3079) 
A A A A A A A Z Z Z Z Z Z Z Z Z Z Z Z Z Z Z

>  <atom.prop.IS_HEAVY_ATOM>  (3079) 
1 0 0 0 1 1 1 1 0 0 0 1 1 0 1 0 1 0 1 0 1 0

>  <DIFUSE_FUNC_ATOM>  (3079) 
n/a

>  <FINAL_SINGLE_POINT_ENERGY>  (3079) 
0

>  <NONCOV_INTER_ENERGY_QM>  (3079) 
0

>  <FF_Energy>  (3079) 
-0.53

>  <QM_Energy>  (3079) 
-6.8

>  <source>  (3079) 
ACET_MBZ_03

>  <Index>  (3079) 
18834

$$$$
ACEH-pdb1y7b-A-GLH-187:MBZ-pdb1y7b-A-PHE-127
     RDKit          3D

 22 21  0  0  0  0  0  0  0  0999 V2000
   -5.6326   -2.6542    1.2680 C   0  0  0  0  0  0  0  0  0  0  0  0
   -6.0862   -3.4630    1.5936 H   0  0  0  0  0  0  0  0  0  0  0  0
   -6.2656   -1.9404    1.0330 H   0  0  0  0  0  0  0  0  0  0  0  0
   -4.9886   -2.2857    2.0665 H   0  0  0  0  0  0  0  0  0  0  0  0
   -4.8764   -3.0382   -0.0195 C   0  0  0  0  0  0  0  0  0  0  0  0
   -3.7577   -2.5823   -0.2486 O   0  0  0  0  0  0  0  0  0  0  0  0
   -5.3992   -3.8118   -0.8200 O   0  0  0  0  0  0  0  0  0  0  0  0
   -0.0212    2.8923    0.0086 C   0  0  0  0  0  0  0  0  0  0  0  0
   -0.8350    3.2084   -0.4474 H   0  0  0  0  0  0  0  0  0  0  0  0
    0.7983    3.2254   -0.4244 H   0  0  0  0  0  0  0  0  0  0  0  0
   -0.0396    3.2998    1.0194 H   0  0  0  0  0  0  0  0  0  0  0  0
   -0.0051    1.4003   -0.0190 C   0  0  0  0  0  0  0  0  0  0  0  0
   -1.2107    0.6943    0.0010 C   0  0  0  0  0  0  0  0  0  0  0  0
   -2.0712    1.1885    0.0149 H   0  0  0  0  0  0  0  0  0  0  0  0
   -1.2137   -0.6932    0.0000 C   0  0  0  0  0  0  0  0  0  0  0  0
   -2.0849   -1.1921   -0.0195 H   0  0  0  0  0  0  0  0  0  0  0  0
   -0.0046   -1.3847    0.0276 C   0  0  0  0  0  0  0  0  0  0  0  0
   -0.0109   -2.3880    0.0677 H   0  0  0  0  0  0  0  0  0  0  0  0
    1.2137   -0.7023    0.0000 C   0  0  0  0  0  0  0  0  0  0  0  0
    2.0830   -1.2131   -0.0117 H   0  0  0  0  0  0  0  0  0  0  0  0
    1.2204    0.6856   -0.0097 C   0  0  0  0  0  0  0  0  0  0  0  0
    2.0731    1.1889   -0.0113 H   0  0  0  0  0  0  0  0  0  0  0  0
  1  5  1  0
  5  6  2  0
  5  7  1  0
  1  2  1  0
  1  3  1  0
  1  4  1  0
  8 12  1  0
 12 13  2  0
 13 15  1  0
 15 17  2  0
 17 19  1  0
 19 21  2  0
 21 12  1  0
  8  9  1  0
  8 10  1  0
  8 11  1  0
 13 14  1  0
 15 16  1  0
 17 18  1  0
 19 20  1  0
 21 22  1  0
M  CHG  1   7  -1
V    7 [O&-]
M  END
>  <PDB_ID>  (3080) 
pdb1y7b

>  <RESIDUE_NAME>  (3080) 
GLU   PHE

>  <FRAG_NAME>  (3080) 
ACET   MBZ

>  <FRAG_ATOM_NUM>  (3080) 
fragi: 7 fragj: 15

>  <atom.prop.CHAIN_ID>  (3080) 
A A A A A A A Z Z Z Z Z Z Z Z Z Z Z Z Z Z Z

>  <atom.prop.IS_HEAVY_ATOM>  (3080) 
1 0 0 0 1 1 1 1 0 0 0 1 1 0 1 0 1 0 1 0 1 0

>  <DIFUSE_FUNC_ATOM>  (3080) 
n/a

>  <FINAL_SINGLE_POINT_ENERGY>  (3080) 
0

>  <NONCOV_INTER_ENERGY_QM>  (3080) 
0

>  <FF_Energy>  (3080) 
-0.73

>  <QM_Energy>  (3080) 
-6.29

>  <source>  (3080) 
ACET_MBZ_03

>  <Index>  (3080) 
18867

$$$$
ACEH-pdb1y7b-B-GLH-187:MBZ-pdb1y7b-B-PHE-127
     RDKit          3D

 22 21  0  0  0  0  0  0  0  0999 V2000
   -5.5761   -2.7567    1.1710 C   0  0  0  0  0  0  0  0  0  0  0  0
   -5.9955   -3.5825    1.4843 H   0  0  0  0  0  0  0  0  0  0  0  0
   -6.2235   -2.0639    0.9309 H   0  0  0  0  0  0  0  0  0  0  0  0
   -4.9400   -2.3722    1.9682 H   0  0  0  0  0  0  0  0  0  0  0  0
   -4.7860   -3.1054   -0.1138 C   0  0  0  0  0  0  0  0  0  0  0  0
   -3.6554   -2.6318   -0.2672 O   0  0  0  0  0  0  0  0  0  0  0  0
   -5.2884   -3.8606   -0.9711 O   0  0  0  0  0  0  0  0  0  0  0  0
   -0.0040    2.9072    0.0463 C   0  0  0  0  0  0  0  0  0  0  0  0
   -0.8189    3.2284   -0.4054 H   0  0  0  0  0  0  0  0  0  0  0  0
    0.8145    3.2363   -0.3925 H   0  0  0  0  0  0  0  0  0  0  0  0
   -0.0138    3.3103    1.0589 H   0  0  0  0  0  0  0  0  0  0  0  0
    0.0030    1.4095    0.0040 C   0  0  0  0  0  0  0  0  0  0  0  0
   -1.1964    0.7071    0.0054 C   0  0  0  0  0  0  0  0  0  0  0  0
   -2.0622    1.2041    0.0096 H   0  0  0  0  0  0  0  0  0  0  0  0
   -1.2186   -0.6882   -0.0000 C   0  0  0  0  0  0  0  0  0  0  0  0
   -2.1001   -1.1698    0.0036 H   0  0  0  0  0  0  0  0  0  0  0  0
   -0.0215   -1.4044   -0.0079 C   0  0  0  0  0  0  0  0  0  0  0  0
   -0.0298   -2.3984   -0.0193 H   0  0  0  0  0  0  0  0  0  0  0  0
    1.2186   -0.7155    0.0000 C   0  0  0  0  0  0  0  0  0  0  0  0
    2.0790   -1.2197    0.0075 H   0  0  0  0  0  0  0  0  0  0  0  0
    1.2148    0.6914   -0.0014 C   0  0  0  0  0  0  0  0  0  0  0  0
    2.0776    1.1852   -0.0067 H   0  0  0  0  0  0  0  0  0  0  0  0
  1  5  1  0
  5  6  2  0
  5  7  1  0
  1  2  1  0
  1  3  1  0
  1  4  1  0
  8 12  1  0
 12 13  2  0
 13 15  1  0
 15 17  2  0
 17 19  1  0
 19 21  2  0
 21 12  1  0
  8  9  1  0
  8 10  1  0
  8 11  1  0
 13 14  1  0
 15 16  1  0
 17 18  1  0
 19 20  1  0
 21 22  1  0
M  CHG  1   7  -1
V    7 [O&-]
M  END
>  <PDB_ID>  (3081) 
pdb1y7b

>  <RESIDUE_NAME>  (3081) 
GLU   PHE

>  <FRAG_NAME>  (3081) 
ACET   MBZ

>  <FRAG_ATOM_NUM>  (3081) 
fragi: 7 fragj: 15

>  <atom.prop.CHAIN_ID>  (3081) 
A A A A A A A Z Z Z Z Z Z Z Z Z Z Z Z Z Z Z

>  <atom.prop.IS_HEAVY_ATOM>  (3081) 
1 0 0 0 1 1 1 1 0 0 0 1 1 0 1 0 1 0 1 0 1 0

>  <DIFUSE_FUNC_ATOM>  (3081) 
n/a

>  <FINAL_SINGLE_POINT_ENERGY>  (3081) 
0

>  <NONCOV_INTER_ENERGY_QM>  (3081) 
0

>  <FF_Energy>  (3081) 
-0.1

>  <QM_Energy>  (3081) 
-6.2

>  <source>  (3081) 
ACET_MBZ_03

>  <Index>  (3081) 
18870

$$$$
ACEH-pdb1y7b-C-GLH-187:MBZ-pdb1y7b-C-PHE-127
     RDKit          3D

 22 21  0  0  0  0  0  0  0  0999 V2000
   -5.5731   -2.7873    1.2164 C   0  0  0  0  0  0  0  0  0  0  0  0
   -6.0053   -3.6176    1.5144 H   0  0  0  0  0  0  0  0  0  0  0  0
   -6.2231   -2.0817    1.0031 H   0  0  0  0  0  0  0  0  0  0  0  0
   -4.9376   -2.4290    2.0263 H   0  0  0  0  0  0  0  0  0  0  0  0
   -4.7933   -3.0936   -0.0388 C   0  0  0  0  0  0  0  0  0  0  0  0
   -5.2259   -3.9725   -0.7971 O   0  0  0  0  0  0  0  0  0  0  0  0
   -3.7658   -2.4543   -0.2826 O   0  0  0  0  0  0  0  0  0  0  0  0
   -0.0532    2.9348    0.0150 C   0  0  0  0  0  0  0  0  0  0  0  0
   -0.8704    3.2216   -0.4538 H   0  0  0  0  0  0  0  0  0  0  0  0
    0.7621    3.2625   -0.4289 H   0  0  0  0  0  0  0  0  0  0  0  0
   -0.0784    3.3463    1.0240 H   0  0  0  0  0  0  0  0  0  0  0  0
   -0.0150    1.4090   -0.0195 C   0  0  0  0  0  0  0  0  0  0  0  0
   -1.1860    0.6952    0.0287 C   0  0  0  0  0  0  0  0  0  0  0  0
   -2.0656    1.1856    0.0857 H   0  0  0  0  0  0  0  0  0  0  0  0
   -1.2078   -0.6916    0.0000 C   0  0  0  0  0  0  0  0  0  0  0  0
   -2.0822   -1.1814   -0.0171 H   0  0  0  0  0  0  0  0  0  0  0  0
    0.0002   -1.4055   -0.0032 C   0  0  0  0  0  0  0  0  0  0  0  0
   -0.0065   -2.3941   -0.0080 H   0  0  0  0  0  0  0  0  0  0  0  0
    1.2078   -0.6971    0.0000 C   0  0  0  0  0  0  0  0  0  0  0  0
    2.0876   -1.1984    0.0081 H   0  0  0  0  0  0  0  0  0  0  0  0
    1.2007    0.6899   -0.0059 C   0  0  0  0  0  0  0  0  0  0  0  0
    2.0602    1.1970   -0.0009 H   0  0  0  0  0  0  0  0  0  0  0  0
  1  5  1  0
  5  6  2  0
  5  7  1  0
  1  2  1  0
  1  3  1  0
  1  4  1  0
  8 12  1  0
 12 13  2  0
 13 15  1  0
 15 17  2  0
 17 19  1  0
 19 21  2  0
 21 12  1  0
  8  9  1  0
  8 10  1  0
  8 11  1  0
 13 14  1  0
 15 16  1  0
 17 18  1  0
 19 20  1  0
 21 22  1  0
M  CHG  1   7  -1
V    7 [O&-]
M  END
>  <PDB_ID>  (3082) 
pdb1y7b

>  <RESIDUE_NAME>  (3082) 
GLU   PHE

>  <FRAG_NAME>  (3082) 
ACET   MBZ

>  <FRAG_ATOM_NUM>  (3082) 
fragi: 7 fragj: 15

>  <atom.prop.CHAIN_ID>  (3082) 
A A A A A A A Z Z Z Z Z Z Z Z Z Z Z Z Z Z Z

>  <atom.prop.IS_HEAVY_ATOM>  (3082) 
1 0 0 0 1 1 1 1 0 0 0 1 1 0 1 0 1 0 1 0 1 0

>  <DIFUSE_FUNC_ATOM>  (3082) 
n/a

>  <FINAL_SINGLE_POINT_ENERGY>  (3082) 
0

>  <NONCOV_INTER_ENERGY_QM>  (3082) 
0

>  <FF_Energy>  (3082) 
0.35

>  <QM_Energy>  (3082) 
-6.31

>  <source>  (3082) 
ACET_MBZ_03

>  <Index>  (3082) 
18873

$$$$
ACEH-pdb1y8a-A-GLH-250:MBZ-pdb1y8a-A-PHE-228
     RDKit          3D

 22 21  0  0  0  0  0  0  0  0999 V2000
   -1.8590    0.6787   -3.2726 C   0  0  0  0  0  0  0  0  0  0  0  0
   -2.1388    1.5599   -2.9498 H   0  0  0  0  0  0  0  0  0  0  0  0
   -2.0907   -0.0445   -2.6534 H   0  0  0  0  0  0  0  0  0  0  0  0
   -2.3380    0.4879   -4.2329 H   0  0  0  0  0  0  0  0  0  0  0  0
   -0.3670    0.6973   -3.4148 C   0  0  0  0  0  0  0  0  0  0  0  0
    0.1822    1.8089   -3.3461 O   0  0  0  0  0  0  0  0  0  0  0  0
    0.2383   -0.3957   -3.5936 O   0  0  0  0  0  0  0  0  0  0  0  0
   -0.0010    2.9040   -0.0207 C   0  0  0  0  0  0  0  0  0  0  0  0
   -0.6059    3.1983   -0.7473 H   0  0  0  0  0  0  0  0  0  0  0  0
    0.9274    3.2086   -0.1848 H   0  0  0  0  0  0  0  0  0  0  0  0
   -0.3439    3.3628    0.9066 H   0  0  0  0  0  0  0  0  0  0  0  0
    0.0006    1.4034    0.0017 C   0  0  0  0  0  0  0  0  0  0  0  0
   -1.1966    0.6933   -0.0099 C   0  0  0  0  0  0  0  0  0  0  0  0
   -2.0628    1.1862   -0.0271 H   0  0  0  0  0  0  0  0  0  0  0  0
   -1.2030   -0.6934    0.0000 C   0  0  0  0  0  0  0  0  0  0  0  0
   -2.0823   -1.1872    0.0060 H   0  0  0  0  0  0  0  0  0  0  0  0
   -0.0048   -1.3969    0.0028 C   0  0  0  0  0  0  0  0  0  0  0  0
   -0.0100   -2.3932    0.0068 H   0  0  0  0  0  0  0  0  0  0  0  0
    1.2030   -0.7002   -0.0000 C   0  0  0  0  0  0  0  0  0  0  0  0
    2.0807   -1.1998   -0.0049 H   0  0  0  0  0  0  0  0  0  0  0  0
    1.2008    0.6938    0.0054 C   0  0  0  0  0  0  0  0  0  0  0  0
    2.0677    1.1887    0.0110 H   0  0  0  0  0  0  0  0  0  0  0  0
  1  5  1  0
  5  6  2  0
  5  7  1  0
  1  2  1  0
  1  3  1  0
  1  4  1  0
  8 12  1  0
 12 13  2  0
 13 15  1  0
 15 17  2  0
 17 19  1  0
 19 21  2  0
 21 12  1  0
  8  9  1  0
  8 10  1  0
  8 11  1  0
 13 14  1  0
 15 16  1  0
 17 18  1  0
 19 20  1  0
 21 22  1  0
M  CHG  1   7  -1
V    7 [O&-]
M  END
>  <PDB_ID>  (3083) 
pdb1y8a

>  <RESIDUE_NAME>  (3083) 
GLU   PHE

>  <FRAG_NAME>  (3083) 
ACET   MBZ

>  <FRAG_ATOM_NUM>  (3083) 
fragi: 7 fragj: 15

>  <atom.prop.CHAIN_ID>  (3083) 
A A A A A A A Z Z Z Z Z Z Z Z Z Z Z Z Z Z Z

>  <atom.prop.IS_HEAVY_ATOM>  (3083) 
1 0 0 0 1 1 1 1 0 0 0 1 1 0 1 0 1 0 1 0 1 0

>  <DIFUSE_FUNC_ATOM>  (3083) 
n/a

>  <FINAL_SINGLE_POINT_ENERGY>  (3083) 
0

>  <NONCOV_INTER_ENERGY_QM>  (3083) 
0

>  <FF_Energy>  (3083) 
2.93

>  <QM_Energy>  (3083) 
-2.19

>  <source>  (3083) 
ACET_MBZ_03

>  <Index>  (3083) 
18880

$$$$
ACEH-pdb1y9i-A-ASH-72:MBZ-pdb1y9i-A-PHE-142
     RDKit          3D

 22 21  0  0  0  0  0  0  0  0999 V2000
    4.4878    4.3045    1.7365 C   0  0  0  0  0  0  0  0  0  0  0  0
    4.1584    4.7981    2.5370 H   0  0  0  0  0  0  0  0  0  0  0  0
    5.2433    4.7987    1.3173 H   0  0  0  0  0  0  0  0  0  0  0  0
    4.8682    3.3406    2.0746 H   0  0  0  0  0  0  0  0  0  0  0  0
    3.3672    4.1799    0.7405 C   0  0  0  0  0  0  0  0  0  0  0  0
    3.1911    3.0802    0.1784 O   0  0  0  0  0  0  0  0  0  0  0  0
    2.6745    5.1986    0.5102 O   0  0  0  0  0  0  0  0  0  0  0  0
   -0.0027    2.8869   -0.0654 C   0  0  0  0  0  0  0  0  0  0  0  0
    0.7923    3.2209    0.4196 H   0  0  0  0  0  0  0  0  0  0  0  0
   -0.8387    3.2151    0.3499 H   0  0  0  0  0  0  0  0  0  0  0  0
    0.0397    3.2777   -1.0821 H   0  0  0  0  0  0  0  0  0  0  0  0
   -0.0011    1.4013   -0.0016 C   0  0  0  0  0  0  0  0  0  0  0  0
   -1.1993    0.6954    0.0004 C   0  0  0  0  0  0  0  0  0  0  0  0
   -2.0642    1.1861    0.0007 H   0  0  0  0  0  0  0  0  0  0  0  0
   -1.2044   -0.6959    0.0000 C   0  0  0  0  0  0  0  0  0  0  0  0
   -2.0797   -1.1909    0.0018 H   0  0  0  0  0  0  0  0  0  0  0  0
    0.0002   -1.3940   -0.0009 C   0  0  0  0  0  0  0  0  0  0  0  0
   -0.0065   -2.3932   -0.0032 H   0  0  0  0  0  0  0  0  0  0  0  0
    1.2044   -0.7010   -0.0000 C   0  0  0  0  0  0  0  0  0  0  0  0
    2.0838   -1.1977    0.0004 H   0  0  0  0  0  0  0  0  0  0  0  0
    1.2002    0.6942    0.0021 C   0  0  0  0  0  0  0  0  0  0  0  0
    2.0658    1.1896    0.0055 H   0  0  0  0  0  0  0  0  0  0  0  0
  1  5  1  0
  5  6  2  0
  5  7  1  0
  1  2  1  0
  1  3  1  0
  1  4  1  0
  8 12  1  0
 12 13  2  0
 13 15  1  0
 15 17  2  0
 17 19  1  0
 19 21  2  0
 21 12  1  0
  8  9  1  0
  8 10  1  0
  8 11  1  0
 13 14  1  0
 15 16  1  0
 17 18  1  0
 19 20  1  0
 21 22  1  0
M  CHG  1   7  -1
V    7 [O&-]
M  END
>  <PDB_ID>  (3084) 
pdb1y9i

>  <RESIDUE_NAME>  (3084) 
ASP   PHE

>  <FRAG_NAME>  (3084) 
ACET   MBZ

>  <FRAG_ATOM_NUM>  (3084) 
fragi: 7 fragj: 15

>  <atom.prop.CHAIN_ID>  (3084) 
A A A A A A A Z Z Z Z Z Z Z Z Z Z Z Z Z Z Z

>  <atom.prop.IS_HEAVY_ATOM>  (3084) 
1 0 0 0 1 1 1 1 0 0 0 1 1 0 1 0 1 0 1 0 1 0

>  <DIFUSE_FUNC_ATOM>  (3084) 
n/a

>  <FINAL_SINGLE_POINT_ENERGY>  (3084) 
0

>  <NONCOV_INTER_ENERGY_QM>  (3084) 
0

>  <FF_Energy>  (3084) 
-0.17

>  <QM_Energy>  (3084) 
-9.05

>  <source>  (3084) 
ACET_MBZ_03

>  <Index>  (3084) 
18882

$$$$
ACEH-pdb1ybi-A-GLH-46:MBZ-pdb1ybi-A-PHE-27
     RDKit          3D

 22 21  0  0  0  0  0  0  0  0999 V2000
   -0.9584    4.6033    3.6310 C   0  0  0  0  0  0  0  0  0  0  0  0
   -0.8944    5.3067    2.9316 H   0  0  0  0  0  0  0  0  0  0  0  0
   -0.8417    5.0008    4.5348 H   0  0  0  0  0  0  0  0  0  0  0  0
   -1.9523    4.1592    3.5781 H   0  0  0  0  0  0  0  0  0  0  0  0
    0.1913    3.6413    3.4102 C   0  0  0  0  0  0  0  0  0  0  0  0
   -0.0199    2.4152    3.3902 O   0  0  0  0  0  0  0  0  0  0  0  0
    1.3360    4.1468    3.2656 O   0  0  0  0  0  0  0  0  0  0  0  0
    0.0007    2.8820    0.0196 C   0  0  0  0  0  0  0  0  0  0  0  0
    0.6844    3.1918    0.6638 H   0  0  0  0  0  0  0  0  0  0  0  0
   -0.9024    3.1943    0.2785 H   0  0  0  0  0  0  0  0  0  0  0  0
    0.2366    3.3228   -0.9491 H   0  0  0  0  0  0  0  0  0  0  0  0
   -0.0002    1.3922    0.0157 C   0  0  0  0  0  0  0  0  0  0  0  0
   -1.1919    0.6884    0.0058 C   0  0  0  0  0  0  0  0  0  0  0  0
   -2.0596    1.1794    0.0015 H   0  0  0  0  0  0  0  0  0  0  0  0
   -1.1936   -0.6949    0.0000 C   0  0  0  0  0  0  0  0  0  0  0  0
   -2.0721   -1.1903    0.0149 H   0  0  0  0  0  0  0  0  0  0  0  0
    0.0001   -1.3830   -0.0244 C   0  0  0  0  0  0  0  0  0  0  0  0
   -0.0015   -2.3843   -0.0602 H   0  0  0  0  0  0  0  0  0  0  0  0
    1.1936   -0.6903    0.0000 C   0  0  0  0  0  0  0  0  0  0  0  0
    2.0768   -1.1929    0.0177 H   0  0  0  0  0  0  0  0  0  0  0  0
    1.1920    0.6876    0.0029 C   0  0  0  0  0  0  0  0  0  0  0  0
    2.0610    1.1876   -0.0051 H   0  0  0  0  0  0  0  0  0  0  0  0
  1  5  1  0
  5  6  2  0
  5  7  1  0
  1  2  1  0
  1  3  1  0
  1  4  1  0
  8 12  1  0
 12 13  2  0
 13 15  1  0
 15 17  2  0
 17 19  1  0
 19 21  2  0
 21 12  1  0
  8  9  1  0
  8 10  1  0
  8 11  1  0
 13 14  1  0
 15 16  1  0
 17 18  1  0
 19 20  1  0
 21 22  1  0
M  CHG  1   7  -1
V    7 [O&-]
M  END
>  <PDB_ID>  (3085) 
pdb1ybi

>  <RESIDUE_NAME>  (3085) 
GLU   PHE

>  <FRAG_NAME>  (3085) 
ACET   MBZ

>  <FRAG_ATOM_NUM>  (3085) 
fragi: 7 fragj: 15

>  <atom.prop.CHAIN_ID>  (3085) 
A A A A A A A Z Z Z Z Z Z Z Z Z Z Z Z Z Z Z

>  <atom.prop.IS_HEAVY_ATOM>  (3085) 
1 0 0 0 1 1 1 1 0 0 0 1 1 0 1 0 1 0 1 0 1 0

>  <DIFUSE_FUNC_ATOM>  (3085) 
n/a

>  <FINAL_SINGLE_POINT_ENERGY>  (3085) 
0

>  <NONCOV_INTER_ENERGY_QM>  (3085) 
0

>  <FF_Energy>  (3085) 
1.22

>  <QM_Energy>  (3085) 
-4.22

>  <source>  (3085) 
ACET_MBZ_03

>  <Index>  (3085) 
18891

$$$$
ACEH-pdb1ydh-A-GLH-121:MBZ-pdb1ydh-A-PHE-15
     RDKit          3D

 22 21  0  0  0  0  0  0  0  0999 V2000
   -1.9272    0.4421    3.8687 C   0  0  0  0  0  0  0  0  0  0  0  0
   -2.3550   -0.4089    3.5958 H   0  0  0  0  0  0  0  0  0  0  0  0
   -1.9987    0.5743    4.8490 H   0  0  0  0  0  0  0  0  0  0  0  0
   -0.8762    0.4264    3.5803 H   0  0  0  0  0  0  0  0  0  0  0  0
   -2.7329    1.5637    3.2193 C   0  0  0  0  0  0  0  0  0  0  0  0
   -3.9467    1.5526    3.4890 O   0  0  0  0  0  0  0  0  0  0  0  0
   -2.1955    2.4392    2.4782 O   0  0  0  0  0  0  0  0  0  0  0  0
   -0.0098    2.9194    0.0200 C   0  0  0  0  0  0  0  0  0  0  0  0
    0.9161    3.2391   -0.1221 H   0  0  0  0  0  0  0  0  0  0  0  0
   -0.3545    3.2049    0.9036 H   0  0  0  0  0  0  0  0  0  0  0  0
   -0.6368    3.3840   -0.7410 H   0  0  0  0  0  0  0  0  0  0  0  0
    0.0017    1.4160   -0.0161 C   0  0  0  0  0  0  0  0  0  0  0  0
   -1.2060    0.6921   -0.0064 C   0  0  0  0  0  0  0  0  0  0  0  0
   -2.0700    1.1933   -0.0049 H   0  0  0  0  0  0  0  0  0  0  0  0
   -1.2231   -0.6964   -0.0000 C   0  0  0  0  0  0  0  0  0  0  0  0
   -2.0986   -1.1876   -0.0069 H   0  0  0  0  0  0  0  0  0  0  0  0
   -0.0161   -1.4114    0.0178 C   0  0  0  0  0  0  0  0  0  0  0  0
   -0.0223   -2.4029    0.0423 H   0  0  0  0  0  0  0  0  0  0  0  0
    1.2231   -0.7135    0.0000 C   0  0  0  0  0  0  0  0  0  0  0  0
    2.0868   -1.2087   -0.0141 H   0  0  0  0  0  0  0  0  0  0  0  0
    1.2204    0.7132    0.0047 C   0  0  0  0  0  0  0  0  0  0  0  0
    2.0782    1.1986    0.0218 H   0  0  0  0  0  0  0  0  0  0  0  0
  1  5  1  0
  5  6  2  0
  5  7  1  0
  1  2  1  0
  1  3  1  0
  1  4  1  0
  8 12  1  0
 12 13  2  0
 13 15  1  0
 15 17  2  0
 17 19  1  0
 19 21  2  0
 21 12  1  0
  8  9  1  0
  8 10  1  0
  8 11  1  0
 13 14  1  0
 15 16  1  0
 17 18  1  0
 19 20  1  0
 21 22  1  0
M  CHG  1   7  -1
V    7 [O&-]
M  END
>  <PDB_ID>  (3086) 
pdb1ydh

>  <RESIDUE_NAME>  (3086) 
GLU   PHE

>  <FRAG_NAME>  (3086) 
ACET   MBZ

>  <FRAG_ATOM_NUM>  (3086) 
fragi: 7 fragj: 15

>  <atom.prop.CHAIN_ID>  (3086) 
A A A A A A A Z Z Z Z Z Z Z Z Z Z Z Z Z Z Z

>  <atom.prop.IS_HEAVY_ATOM>  (3086) 
1 0 0 0 1 1 1 1 0 0 0 1 1 0 1 0 1 0 1 0 1 0

>  <DIFUSE_FUNC_ATOM>  (3086) 
n/a

>  <FINAL_SINGLE_POINT_ENERGY>  (3086) 
0

>  <NONCOV_INTER_ENERGY_QM>  (3086) 
0

>  <FF_Energy>  (3086) 
-0.69

>  <QM_Energy>  (3086) 
-6.35

>  <source>  (3086) 
ACET_MBZ_03

>  <Index>  (3086) 
18895

$$$$
ACEH-pdb1yh3-A-GLH-226:MBZ-pdb1yh3-A-PHE-222
     RDKit          3D

 22 21  0  0  0  0  0  0  0  0999 V2000
   -4.8074    2.8902    1.9458 C   0  0  0  0  0  0  0  0  0  0  0  0
   -5.7732    2.8101    2.1532 H   0  0  0  0  0  0  0  0  0  0  0  0
   -4.4007    3.6452    2.4427 H   0  0  0  0  0  0  0  0  0  0  0  0
   -4.3082    1.9658    2.2362 H   0  0  0  0  0  0  0  0  0  0  0  0
   -4.7000    3.2301    0.4603 C   0  0  0  0  0  0  0  0  0  0  0  0
   -5.5349    4.0016   -0.0765 O   0  0  0  0  0  0  0  0  0  0  0  0
   -3.7695    2.7554   -0.1882 O   0  0  0  0  0  0  0  0  0  0  0  0
   -0.0238    2.8934    0.0642 C   0  0  0  0  0  0  0  0  0  0  0  0
   -0.5698    3.2356   -0.6766 H   0  0  0  0  0  0  0  0  0  0  0  0
    0.9016    3.2213    0.0320 H   0  0  0  0  0  0  0  0  0  0  0  0
   -0.4643    3.2703    0.9872 H   0  0  0  0  0  0  0  0  0  0  0  0
   -0.0146    1.4129    0.0141 C   0  0  0  0  0  0  0  0  0  0  0  0
   -1.2144    0.7350   -0.0090 C   0  0  0  0  0  0  0  0  0  0  0  0
   -2.0765    1.2257   -0.0333 H   0  0  0  0  0  0  0  0  0  0  0  0
   -1.2374   -0.6722    0.0000 C   0  0  0  0  0  0  0  0  0  0  0  0
   -2.1048   -1.1628    0.0051 H   0  0  0  0  0  0  0  0  0  0  0  0
   -0.0014   -1.4240    0.0038 C   0  0  0  0  0  0  0  0  0  0  0  0
   -0.0345   -2.4046    0.0086 H   0  0  0  0  0  0  0  0  0  0  0  0
    1.2374   -0.7284   -0.0000 C   0  0  0  0  0  0  0  0  0  0  0  0
    2.0988   -1.2318    0.0054 H   0  0  0  0  0  0  0  0  0  0  0  0
    1.2304    0.6768   -0.0089 C   0  0  0  0  0  0  0  0  0  0  0  0
    2.0781    1.1853   -0.0321 H   0  0  0  0  0  0  0  0  0  0  0  0
  1  5  1  0
  5  6  2  0
  5  7  1  0
  1  2  1  0
  1  3  1  0
  1  4  1  0
  8 12  1  0
 12 13  2  0
 13 15  1  0
 15 17  2  0
 17 19  1  0
 19 21  2  0
 21 12  1  0
  8  9  1  0
  8 10  1  0
  8 11  1  0
 13 14  1  0
 15 16  1  0
 17 18  1  0
 19 20  1  0
 21 22  1  0
M  CHG  1   7  -1
V    7 [O&-]
M  END
>  <PDB_ID>  (3087) 
pdb1yh3

>  <RESIDUE_NAME>  (3087) 
GLU   PHE

>  <FRAG_NAME>  (3087) 
ACET   MBZ

>  <FRAG_ATOM_NUM>  (3087) 
fragi: 7 fragj: 15

>  <atom.prop.CHAIN_ID>  (3087) 
A A A A A A A Z Z Z Z Z Z Z Z Z Z Z Z Z Z Z

>  <atom.prop.IS_HEAVY_ATOM>  (3087) 
1 0 0 0 1 1 1 1 0 0 0 1 1 0 1 0 1 0 1 0 1 0

>  <DIFUSE_FUNC_ATOM>  (3087) 
n/a

>  <FINAL_SINGLE_POINT_ENERGY>  (3087) 
0

>  <NONCOV_INTER_ENERGY_QM>  (3087) 
0

>  <FF_Energy>  (3087) 
-1.69

>  <QM_Energy>  (3087) 
-7.71

>  <source>  (3087) 
ACET_MBZ_03

>  <Index>  (3087) 
18903

$$$$
ACEH-pdb1yif-D-GLH-186:MBZ-pdb1yif-D-PHE-126
     RDKit          3D

 22 21  0  0  0  0  0  0  0  0999 V2000
   -5.6678   -2.7663    1.4128 C   0  0  0  0  0  0  0  0  0  0  0  0
   -5.9664   -3.6338    1.7651 H   0  0  0  0  0  0  0  0  0  0  0  0
   -6.4208   -2.1657    1.2148 H   0  0  0  0  0  0  0  0  0  0  0  0
   -5.0408   -2.2907    2.1669 H   0  0  0  0  0  0  0  0  0  0  0  0
   -4.9348   -3.0296    0.1041 C   0  0  0  0  0  0  0  0  0  0  0  0
   -3.8891   -2.3933   -0.1481 O   0  0  0  0  0  0  0  0  0  0  0  0
   -5.4080   -3.8801   -0.6792 O   0  0  0  0  0  0  0  0  0  0  0  0
    0.0034    2.9031    0.0111 C   0  0  0  0  0  0  0  0  0  0  0  0
   -0.8183    3.2164   -0.4392 H   0  0  0  0  0  0  0  0  0  0  0  0
    0.8148    3.2122   -0.4619 H   0  0  0  0  0  0  0  0  0  0  0  0
    0.0179    3.3372    1.0109 H   0  0  0  0  0  0  0  0  0  0  0  0
   -0.0004    1.4002   -0.0001 C   0  0  0  0  0  0  0  0  0  0  0  0
   -1.1975    0.6933    0.0000 C   0  0  0  0  0  0  0  0  0  0  0  0
   -2.0631    1.1863   -0.0011 H   0  0  0  0  0  0  0  0  0  0  0  0
   -1.2039   -0.6947   -0.0000 C   0  0  0  0  0  0  0  0  0  0  0  0
   -2.0785   -1.1899    0.0007 H   0  0  0  0  0  0  0  0  0  0  0  0
    0.0001   -1.3930    0.0009 C   0  0  0  0  0  0  0  0  0  0  0  0
   -0.0049   -2.3906    0.0016 H   0  0  0  0  0  0  0  0  0  0  0  0
    1.2039   -0.6968   -0.0000 C   0  0  0  0  0  0  0  0  0  0  0  0
    2.0833   -1.1966    0.0013 H   0  0  0  0  0  0  0  0  0  0  0  0
    1.1978    0.6910   -0.0008 C   0  0  0  0  0  0  0  0  0  0  0  0
    2.0654    1.1905   -0.0028 H   0  0  0  0  0  0  0  0  0  0  0  0
  1  5  1  0
  5  6  2  0
  5  7  1  0
  1  2  1  0
  1  3  1  0
  1  4  1  0
  8 12  1  0
 12 13  2  0
 13 15  1  0
 15 17  2  0
 17 19  1  0
 19 21  2  0
 21 12  1  0
  8  9  1  0
  8 10  1  0
  8 11  1  0
 13 14  1  0
 15 16  1  0
 17 18  1  0
 19 20  1  0
 21 22  1  0
M  CHG  1   7  -1
V    7 [O&-]
M  END
>  <PDB_ID>  (3088) 
pdb1yif

>  <RESIDUE_NAME>  (3088) 
GLU   PHE

>  <FRAG_NAME>  (3088) 
ACET   MBZ

>  <FRAG_ATOM_NUM>  (3088) 
fragi: 7 fragj: 15

>  <atom.prop.CHAIN_ID>  (3088) 
A A A A A A A Z Z Z Z Z Z Z Z Z Z Z Z Z Z Z

>  <atom.prop.IS_HEAVY_ATOM>  (3088) 
1 0 0 0 1 1 1 1 0 0 0 1 1 0 1 0 1 0 1 0 1 0

>  <DIFUSE_FUNC_ATOM>  (3088) 
n/a

>  <FINAL_SINGLE_POINT_ENERGY>  (3088) 
0

>  <NONCOV_INTER_ENERGY_QM>  (3088) 
0

>  <FF_Energy>  (3088) 
-0.6

>  <QM_Energy>  (3088) 
-6.25

>  <source>  (3088) 
ACET_MBZ_03

>  <Index>  (3088) 
18913

$$$$
ACEH-pdb1z54-A-GLH-48:MBZ-pdb1z54-A-PHE-53
     RDKit          3D

 22 21  0  0  0  0  0  0  0  0999 V2000
   -4.0153    0.7870   -2.0955 C   0  0  0  0  0  0  0  0  0  0  0  0
   -3.1696    1.2743   -2.1725 H   0  0  0  0  0  0  0  0  0  0  0  0
   -4.7470    1.2135   -2.5881 H   0  0  0  0  0  0  0  0  0  0  0  0
   -3.8702   -0.2170   -2.4944 H   0  0  0  0  0  0  0  0  0  0  0  0
   -4.4042    0.7728   -0.6213 C   0  0  0  0  0  0  0  0  0  0  0  0
   -3.9880    1.6967    0.1162 O   0  0  0  0  0  0  0  0  0  0  0  0
   -5.1308   -0.1584   -0.2037 O   0  0  0  0  0  0  0  0  0  0  0  0
    0.0044    2.9060   -0.0412 C   0  0  0  0  0  0  0  0  0  0  0  0
    0.8557    3.2208    0.3484 H   0  0  0  0  0  0  0  0  0  0  0  0
   -0.7725    3.2296    0.4762 H   0  0  0  0  0  0  0  0  0  0  0  0
   -0.0726    3.3176   -1.0476 H   0  0  0  0  0  0  0  0  0  0  0  0
   -0.0006    1.4043   -0.0004 C   0  0  0  0  0  0  0  0  0  0  0  0
   -1.1955    0.6962   -0.0010 C   0  0  0  0  0  0  0  0  0  0  0  0
   -2.0641    1.1833   -0.0035 H   0  0  0  0  0  0  0  0  0  0  0  0
   -1.2044   -0.7026   -0.0000 C   0  0  0  0  0  0  0  0  0  0  0  0
   -2.0813   -1.1907    0.0021 H   0  0  0  0  0  0  0  0  0  0  0  0
   -0.0021   -1.4003    0.0005 C   0  0  0  0  0  0  0  0  0  0  0  0
   -0.0014   -2.3964    0.0003 H   0  0  0  0  0  0  0  0  0  0  0  0
    1.2044   -0.6957   -0.0000 C   0  0  0  0  0  0  0  0  0  0  0  0
    2.0842   -1.1929    0.0007 H   0  0  0  0  0  0  0  0  0  0  0  0
    1.1982    0.6982    0.0009 C   0  0  0  0  0  0  0  0  0  0  0  0
    2.0653    1.1949    0.0022 H   0  0  0  0  0  0  0  0  0  0  0  0
  1  5  1  0
  5  6  2  0
  5  7  1  0
  1  2  1  0
  1  3  1  0
  1  4  1  0
  8 12  1  0
 12 13  2  0
 13 15  1  0
 15 17  2  0
 17 19  1  0
 19 21  2  0
 21 12  1  0
  8  9  1  0
  8 10  1  0
  8 11  1  0
 13 14  1  0
 15 16  1  0
 17 18  1  0
 19 20  1  0
 21 22  1  0
M  CHG  1   7  -1
V    7 [O&-]
M  END
>  <PDB_ID>  (3089) 
pdb1z54

>  <RESIDUE_NAME>  (3089) 
GLU   PHE

>  <FRAG_NAME>  (3089) 
ACET   MBZ

>  <FRAG_ATOM_NUM>  (3089) 
fragi: 7 fragj: 15

>  <atom.prop.CHAIN_ID>  (3089) 
A A A A A A A Z Z Z Z Z Z Z Z Z Z Z Z Z Z Z

>  <atom.prop.IS_HEAVY_ATOM>  (3089) 
1 0 0 0 1 1 1 1 0 0 0 1 1 0 1 0 1 0 1 0 1 0

>  <DIFUSE_FUNC_ATOM>  (3089) 
n/a

>  <FINAL_SINGLE_POINT_ENERGY>  (3089) 
0

>  <NONCOV_INTER_ENERGY_QM>  (3089) 
0

>  <FF_Energy>  (3089) 
6.56

>  <QM_Energy>  (3089) 
-6.49

>  <source>  (3089) 
ACET_MBZ_03

>  <Index>  (3089) 
18971

$$$$
ACEH-pdb1z54-B-GLH-48:MBZ-pdb1z54-B-PHE-53
     RDKit          3D

 22 21  0  0  0  0  0  0  0  0999 V2000
   -3.2958    0.5283   -2.6284 C   0  0  0  0  0  0  0  0  0  0  0  0
   -2.4413    0.9027   -2.3231 H   0  0  0  0  0  0  0  0  0  0  0  0
   -3.7499    1.1090   -3.2776 H   0  0  0  0  0  0  0  0  0  0  0  0
   -3.0998   -0.4329   -3.1035 H   0  0  0  0  0  0  0  0  0  0  0  0
   -4.2006    0.4044   -1.4152 C   0  0  0  0  0  0  0  0  0  0  0  0
   -4.7819   -0.6874   -1.2109 O   0  0  0  0  0  0  0  0  0  0  0  0
   -4.3317    1.4000   -0.6687 O   0  0  0  0  0  0  0  0  0  0  0  0
    0.0033    2.9064   -0.0148 C   0  0  0  0  0  0  0  0  0  0  0  0
    0.7694    3.2155    0.5284 H   0  0  0  0  0  0  0  0  0  0  0  0
   -0.8552    3.2204    0.3623 H   0  0  0  0  0  0  0  0  0  0  0  0
    0.1065    3.3385   -1.0101 H   0  0  0  0  0  0  0  0  0  0  0  0
   -0.0023    1.4038   -0.0000 C   0  0  0  0  0  0  0  0  0  0  0  0
   -1.2003    0.6996   -0.0007 C   0  0  0  0  0  0  0  0  0  0  0  0
   -2.0665    1.1914   -0.0031 H   0  0  0  0  0  0  0  0  0  0  0  0
   -1.2099   -0.6935    0.0000 C   0  0  0  0  0  0  0  0  0  0  0  0
   -2.0819   -1.1878    0.0021 H   0  0  0  0  0  0  0  0  0  0  0  0
    0.0033   -1.4006    0.0001 C   0  0  0  0  0  0  0  0  0  0  0  0
   -0.0061   -2.3946   -0.0005 H   0  0  0  0  0  0  0  0  0  0  0  0
    1.2099   -0.7017   -0.0000 C   0  0  0  0  0  0  0  0  0  0  0  0
    2.0887   -1.1969    0.0012 H   0  0  0  0  0  0  0  0  0  0  0  0
    1.1993    0.6924    0.0007 C   0  0  0  0  0  0  0  0  0  0  0  0
    2.0661    1.1923    0.0008 H   0  0  0  0  0  0  0  0  0  0  0  0
  1  5  1  0
  5  6  2  0
  5  7  1  0
  1  2  1  0
  1  3  1  0
  1  4  1  0
  8 12  1  0
 12 13  2  0
 13 15  1  0
 15 17  2  0
 17 19  1  0
 19 21  2  0
 21 12  1  0
  8  9  1  0
  8 10  1  0
  8 11  1  0
 13 14  1  0
 15 16  1  0
 17 18  1  0
 19 20  1  0
 21 22  1  0
M  CHG  1   7  -1
V    7 [O&-]
M  END
>  <PDB_ID>  (3090) 
pdb1z54

>  <RESIDUE_NAME>  (3090) 
GLU   PHE

>  <FRAG_NAME>  (3090) 
ACET   MBZ

>  <FRAG_ATOM_NUM>  (3090) 
fragi: 7 fragj: 15

>  <atom.prop.CHAIN_ID>  (3090) 
A A A A A A A Z Z Z Z Z Z Z Z Z Z Z Z Z Z Z

>  <atom.prop.IS_HEAVY_ATOM>  (3090) 
1 0 0 0 1 1 1 1 0 0 0 1 1 0 1 0 1 0 1 0 1 0

>  <DIFUSE_FUNC_ATOM>  (3090) 
n/a

>  <FINAL_SINGLE_POINT_ENERGY>  (3090) 
0

>  <NONCOV_INTER_ENERGY_QM>  (3090) 
0

>  <FF_Energy>  (3090) 
-1.84

>  <QM_Energy>  (3090) 
-7.09

>  <source>  (3090) 
ACET_MBZ_03

>  <Index>  (3090) 
18972

$$$$
ACEH-pdb1z94-E-ASH-84:MBZ-pdb1z94-E-PHE-67
     RDKit          3D

 22 21  0  0  0  0  0  0  0  0999 V2000
    4.6921    3.8999    2.6006 C   0  0  0  0  0  0  0  0  0  0  0  0
    5.3031    3.1260    2.4954 H   0  0  0  0  0  0  0  0  0  0  0  0
    4.6710    4.2064    3.5426 H   0  0  0  0  0  0  0  0  0  0  0  0
    5.0681    4.7166    1.9845 H   0  0  0  0  0  0  0  0  0  0  0  0
    3.2818    3.4609    2.2018 C   0  0  0  0  0  0  0  0  0  0  0  0
    2.9209    2.2987    2.4827 O   0  0  0  0  0  0  0  0  0  0  0  0
    2.5305    4.2720    1.6184 O   0  0  0  0  0  0  0  0  0  0  0  0
    0.0033    2.9100    0.0004 C   0  0  0  0  0  0  0  0  0  0  0  0
    0.9019    3.2157    0.2809 H   0  0  0  0  0  0  0  0  0  0  0  0
   -0.6931    3.2189    0.6321 H   0  0  0  0  0  0  0  0  0  0  0  0
   -0.2098    3.3586   -0.9699 H   0  0  0  0  0  0  0  0  0  0  0  0
    0.0008    1.4055   -0.0001 C   0  0  0  0  0  0  0  0  0  0  0  0
   -1.1983    0.6959   -0.0001 C   0  0  0  0  0  0  0  0  0  0  0  0
   -2.0645    1.1851   -0.0014 H   0  0  0  0  0  0  0  0  0  0  0  0
   -1.2063   -0.7010   -0.0000 C   0  0  0  0  0  0  0  0  0  0  0  0
   -2.0819   -1.1918    0.0015 H   0  0  0  0  0  0  0  0  0  0  0  0
   -0.0010   -1.4001    0.0002 C   0  0  0  0  0  0  0  0  0  0  0  0
   -0.0024   -2.3958    0.0003 H   0  0  0  0  0  0  0  0  0  0  0  0
    1.2063   -0.6980   -0.0000 C   0  0  0  0  0  0  0  0  0  0  0  0
    2.0853   -1.1936    0.0011 H   0  0  0  0  0  0  0  0  0  0  0  0
    1.1985    0.6977    0.0000 C   0  0  0  0  0  0  0  0  0  0  0  0
    2.0663    1.1940   -0.0002 H   0  0  0  0  0  0  0  0  0  0  0  0
  1  5  1  0
  5  6  2  0
  5  7  1  0
  1  2  1  0
  1  3  1  0
  1  4  1  0
  8 12  1  0
 12 13  2  0
 13 15  1  0
 15 17  2  0
 17 19  1  0
 19 21  2  0
 21 12  1  0
  8  9  1  0
  8 10  1  0
  8 11  1  0
 13 14  1  0
 15 16  1  0
 17 18  1  0
 19 20  1  0
 21 22  1  0
M  CHG  1   7  -1
V    7 [O&-]
M  END
>  <PDB_ID>  (3091) 
pdb1z94

>  <RESIDUE_NAME>  (3091) 
ASP   PHE

>  <FRAG_NAME>  (3091) 
ACET   MBZ

>  <FRAG_ATOM_NUM>  (3091) 
fragi: 7 fragj: 15

>  <atom.prop.CHAIN_ID>  (3091) 
A A A A A A A Z Z Z Z Z Z Z Z Z Z Z Z Z Z Z

>  <atom.prop.IS_HEAVY_ATOM>  (3091) 
1 0 0 0 1 1 1 1 0 0 0 1 1 0 1 0 1 0 1 0 1 0

>  <DIFUSE_FUNC_ATOM>  (3091) 
n/a

>  <FINAL_SINGLE_POINT_ENERGY>  (3091) 
0

>  <NONCOV_INTER_ENERGY_QM>  (3091) 
0

>  <FF_Energy>  (3091) 
-0.67

>  <QM_Energy>  (3091) 
-6.94

>  <source>  (3091) 
ACET_MBZ_03

>  <Index>  (3091) 
19001

$$$$
ACEH-pdb1zcj-A-ASH-505:MBZ-pdb1zcj-A-PHE-518
     RDKit          3D

 22 21  0  0  0  0  0  0  0  0999 V2000
    4.9804    4.2699    0.0919 C   0  0  0  0  0  0  0  0  0  0  0  0
    5.0796    4.3108    1.0813 H   0  0  0  0  0  0  0  0  0  0  0  0
    5.2245    5.1435   -0.3154 H   0  0  0  0  0  0  0  0  0  0  0  0
    5.6532    3.5043   -0.2947 H   0  0  0  0  0  0  0  0  0  0  0  0
    3.5422    3.9727   -0.2341 C   0  0  0  0  0  0  0  0  0  0  0  0
    3.2676    2.9826   -0.9423 O   0  0  0  0  0  0  0  0  0  0  0  0
    2.6404    4.6812    0.2042 O   0  0  0  0  0  0  0  0  0  0  0  0
   -0.0254    2.8616    0.0089 C   0  0  0  0  0  0  0  0  0  0  0  0
    0.8676    3.1897    0.2657 H   0  0  0  0  0  0  0  0  0  0  0  0
   -0.7235    3.1674    0.6332 H   0  0  0  0  0  0  0  0  0  0  0  0
   -0.2600    3.2555   -0.9800 H   0  0  0  0  0  0  0  0  0  0  0  0
   -0.0015    1.3819    0.0213 C   0  0  0  0  0  0  0  0  0  0  0  0
   -1.1912    0.6708   -0.0091 C   0  0  0  0  0  0  0  0  0  0  0  0
   -2.0581    1.1792   -0.0401 H   0  0  0  0  0  0  0  0  0  0  0  0
   -1.1967   -0.6785   -0.0000 C   0  0  0  0  0  0  0  0  0  0  0  0
   -2.0746   -1.1879    0.0058 H   0  0  0  0  0  0  0  0  0  0  0  0
   -0.0068   -1.3695    0.0033 C   0  0  0  0  0  0  0  0  0  0  0  0
   -0.0173   -2.3780    0.0072 H   0  0  0  0  0  0  0  0  0  0  0  0
    1.1967   -0.6958    0.0000 C   0  0  0  0  0  0  0  0  0  0  0  0
    2.0728   -1.1997    0.0104 H   0  0  0  0  0  0  0  0  0  0  0  0
    1.1995    0.6911   -0.0155 C   0  0  0  0  0  0  0  0  0  0  0  0
    2.0604    1.1871   -0.0539 H   0  0  0  0  0  0  0  0  0  0  0  0
  1  5  1  0
  5  6  2  0
  5  7  1  0
  1  2  1  0
  1  3  1  0
  1  4  1  0
  8 12  1  0
 12 13  2  0
 13 15  1  0
 15 17  2  0
 17 19  1  0
 19 21  2  0
 21 12  1  0
  8  9  1  0
  8 10  1  0
  8 11  1  0
 13 14  1  0
 15 16  1  0
 17 18  1  0
 19 20  1  0
 21 22  1  0
M  CHG  1   7  -1
V    7 [O&-]
M  END
>  <PDB_ID>  (3092) 
pdb1zcj

>  <RESIDUE_NAME>  (3092) 
ASP   PHE

>  <FRAG_NAME>  (3092) 
ACET   MBZ

>  <FRAG_ATOM_NUM>  (3092) 
fragi: 7 fragj: 15

>  <atom.prop.CHAIN_ID>  (3092) 
A A A A A A A Z Z Z Z Z Z Z Z Z Z Z Z Z Z Z

>  <atom.prop.IS_HEAVY_ATOM>  (3092) 
1 0 0 0 1 1 1 1 0 0 0 1 1 0 1 0 1 0 1 0 1 0

>  <DIFUSE_FUNC_ATOM>  (3092) 
n/a

>  <FINAL_SINGLE_POINT_ENERGY>  (3092) 
0

>  <NONCOV_INTER_ENERGY_QM>  (3092) 
0

>  <FF_Energy>  (3092) 
-0.97

>  <QM_Energy>  (3092) 
-9.14

>  <source>  (3092) 
ACET_MBZ_03

>  <Index>  (3092) 
19009

$$$$
