ACET-pdb12ca-A-GLU-239:MBZ-pdb12ca-A-PHE-231
     RDKit          3D

 22 21  0  0  0  0  0  0  0  0999 V2000
    4.2006    2.2882    0.3502 C   0  0  0  0  0  0  0  0  0  0  0  0
    3.4982    1.7784   -0.1161 H   0  0  0  0  0  0  0  0  0  0  0  0
    5.0562    1.7998    0.3701 H   0  0  0  0  0  0  0  0  0  0  0  0
    4.3634    3.2055   -0.2157 H   0  0  0  0  0  0  0  0  0  0  0  0
    3.7517    2.5097    1.7819 C   0  0  0  0  0  0  0  0  0  0  0  0
    3.3930    3.6219    2.2087 O   0  0  0  0  0  1  0  0  0  0  0  0
    3.7783    1.4051    2.4836 O   0  0  0  0  0  0  0  0  0  0  0  0
   -0.0179    2.8930   -0.0257 C   0  0  0  0  0  0  0  0  0  0  0  0
    0.9588    3.1950   -0.0250 H   0  0  0  0  0  0  0  0  0  0  0  0
   -0.4132    3.2135    0.8612 H   0  0  0  0  0  0  0  0  0  0  0  0
   -0.5222    3.4458   -0.8182 H   0  0  0  0  0  0  0  0  0  0  0  0
   -0.0172    1.3898    0.0070 C   0  0  0  0  0  0  0  0  0  0  0  0
   -1.2244    0.6787   -0.0041 C   0  0  0  0  0  0  0  0  0  0  0  0
   -2.0812    1.1819   -0.0159 H   0  0  0  0  0  0  0  0  0  0  0  0
   -1.2092   -0.6755   -0.0000 C   0  0  0  0  0  0  0  0  0  0  0  0
   -2.0728   -1.2082   -0.0113 H   0  0  0  0  0  0  0  0  0  0  0  0
    0.0229   -1.4020    0.0221 C   0  0  0  0  0  0  0  0  0  0  0  0
   -0.0077   -2.3901    0.0518 H   0  0  0  0  0  0  0  0  0  0  0  0
    1.2092   -0.7056   -0.0000 C   0  0  0  0  0  0  0  0  0  0  0  0
    2.1014   -1.1900    0.0026 H   0  0  0  0  0  0  0  0  0  0  0  0
    1.2187    0.7146   -0.0250 C   0  0  0  0  0  0  0  0  0  0  0  0
    2.0603    1.2035   -0.0637 H   0  0  0  0  0  0  0  0  0  0  0  0
  1  5  1  0
  5  6  1  0
  5  7  2  0
  1  2  1  0
  1  3  1  0
  1  4  1  0
  8 12  1  0
 12 13  2  0
 13 15  1  0
 15 17  2  0
 17 19  1  0
 19 21  2  0
 21 12  1  0
  8  9  1  0
  8 10  1  0
  8 11  1  0
 13 14  1  0
 15 16  1  0
 17 18  1  0
 19 20  1  0
 21 22  1  0
M  CHG  1   6  -1
M  END
>  <PDB_ID>  (1) 
pdb12ca

>  <RESIDUE_NAME>  (1) 
GLU   PHE

>  <FRAG_NAME>  (1) 
ACET   MBZ

>  <FRAG_ATOM_NUM>  (1) 
fragi: 7  fragj: 15

>  <atom.prop.CHAIN_ID>  (1) 
A A A A A A A Z Z Z Z Z Z Z Z Z Z Z Z Z Z Z

>  <atom.prop.IS_HEAVY_ATOM>  (1) 
1 0 0 0 1 1 1 1 0 0 0 1 1 0 1 0 1 0 1 0 1 0

>  <DIFUSE_FUNC_ATOM>  (1) 
atom 6   atom 7   

>  <FINAL_SINGLE_POINT_ENERGY>  (1) 
0

>  <NONCOV_INTER_ENERGY_QM>  (1) 
0

>  <FF_Energy>  (1) 
20.94

>  <QM_Energy>  (1) 
-0.56

>  <source>  (1) 
ACET_MBZ_00

>  <Index>  (1) 
163

$$$$
ACET-pdb13pk-D-GLU-196:MBZ-pdb13pk-D-PHE-200
     RDKit          3D

 22 21  0  0  0  0  0  0  0  0999 V2000
    5.9575   -1.5060   -0.3242 C   0  0  0  0  0  0  0  0  0  0  0  0
    6.6622   -1.4744   -1.0077 H   0  0  0  0  0  0  0  0  0  0  0  0
    6.2588   -1.9424    0.5028 H   0  0  0  0  0  0  0  0  0  0  0  0
    5.6720   -0.4817   -0.0841 H   0  0  0  0  0  0  0  0  0  0  0  0
    4.8082   -2.3218   -0.8838 C   0  0  0  0  0  0  0  0  0  0  0  0
    3.6664   -1.8295   -0.8922 O   0  0  0  0  0  1  0  0  0  0  0  0
    5.0451   -3.4652   -1.3189 O   0  0  0  0  0  0  0  0  0  0  0  0
   -0.0051    2.9126    0.0354 C   0  0  0  0  0  0  0  0  0  0  0  0
    0.8914    3.2108    0.3257 H   0  0  0  0  0  0  0  0  0  0  0  0
   -0.7036    3.1977    0.6742 H   0  0  0  0  0  0  0  0  0  0  0  0
   -0.2197    3.3745   -0.9283 H   0  0  0  0  0  0  0  0  0  0  0  0
   -0.0004    1.4063   -0.0006 C   0  0  0  0  0  0  0  0  0  0  0  0
   -1.1984    0.6925   -0.0005 C   0  0  0  0  0  0  0  0  0  0  0  0
   -2.0652    1.1815   -0.0024 H   0  0  0  0  0  0  0  0  0  0  0  0
   -1.2023   -0.7015    0.0000 C   0  0  0  0  0  0  0  0  0  0  0  0
   -2.0791   -1.1934    0.0011 H   0  0  0  0  0  0  0  0  0  0  0  0
   -0.0014   -1.3934    0.0009 C   0  0  0  0  0  0  0  0  0  0  0  0
   -0.0042   -2.3941    0.0014 H   0  0  0  0  0  0  0  0  0  0  0  0
    1.2023   -0.6998   -0.0000 C   0  0  0  0  0  0  0  0  0  0  0  0
    2.0818   -1.1970    0.0011 H   0  0  0  0  0  0  0  0  0  0  0  0
    1.2003    0.6958    0.0002 C   0  0  0  0  0  0  0  0  0  0  0  0
    2.0667    1.1905   -0.0001 H   0  0  0  0  0  0  0  0  0  0  0  0
  1  5  1  0
  5  6  1  0
  5  7  2  0
  1  2  1  0
  1  3  1  0
  1  4  1  0
  8 12  1  0
 12 13  2  0
 13 15  1  0
 15 17  2  0
 17 19  1  0
 19 21  2  0
 21 12  1  0
  8  9  1  0
  8 10  1  0
  8 11  1  0
 13 14  1  0
 15 16  1  0
 17 18  1  0
 19 20  1  0
 21 22  1  0
M  CHG  1   6  -1
M  END
>  <PDB_ID>  (2) 
pdb13pk

>  <RESIDUE_NAME>  (2) 
GLU   PHE

>  <FRAG_NAME>  (2) 
ACET   MBZ

>  <FRAG_ATOM_NUM>  (2) 
fragi: 7  fragj: 15

>  <atom.prop.CHAIN_ID>  (2) 
A A A A A A A Z Z Z Z Z Z Z Z Z Z Z Z Z Z Z

>  <atom.prop.IS_HEAVY_ATOM>  (2) 
1 0 0 0 1 1 1 1 0 0 0 1 1 0 1 0 1 0 1 0 1 0

>  <DIFUSE_FUNC_ATOM>  (2) 
atom 6   atom 7   

>  <FINAL_SINGLE_POINT_ENERGY>  (2) 
0

>  <NONCOV_INTER_ENERGY_QM>  (2) 
0

>  <FF_Energy>  (2) 
10.99

>  <QM_Energy>  (2) 
-4.96

>  <source>  (2) 
ACET_MBZ_00

>  <Index>  (2) 
195

$$$$
ACET-pdb2a1x-A-GLU-62:MBZ-pdb2a1x-A-PHE-44
     RDKit          3D

 22 21  0  0  0  0  0  0  0  0999 V2000
   -4.0420    2.2255    1.1713 C   0  0  0  0  0  0  0  0  0  0  0  0
   -4.1629    2.4812    2.1113 H   0  0  0  0  0  0  0  0  0  0  0  0
   -3.4063    1.4857    1.0609 H   0  0  0  0  0  0  0  0  0  0  0  0
   -5.0074    1.9182    0.7691 H   0  0  0  0  0  0  0  0  0  0  0  0
   -3.4621    3.4340    0.4422 C   0  0  0  0  0  0  0  0  0  0  0  0
   -3.6669    3.5889   -0.7998 O   0  0  0  0  0  1  0  0  0  0  0  0
   -2.7982    4.2356    1.1344 O   0  0  0  0  0  0  0  0  0  0  0  0
   -0.0087    2.9492   -0.0195 C   0  0  0  0  0  0  0  0  0  0  0  0
    0.8638    3.2525    0.3200 H   0  0  0  0  0  0  0  0  0  0  0  0
   -0.7526    3.2495    0.5495 H   0  0  0  0  0  0  0  0  0  0  0  0
   -0.1510    3.3751   -1.0127 H   0  0  0  0  0  0  0  0  0  0  0  0
   -0.0036    1.4186   -0.0016 C   0  0  0  0  0  0  0  0  0  0  0  0
   -1.1986    0.6980   -0.0009 C   0  0  0  0  0  0  0  0  0  0  0  0
   -2.0697    1.1827   -0.0021 H   0  0  0  0  0  0  0  0  0  0  0  0
   -1.2069   -0.7063    0.0000 C   0  0  0  0  0  0  0  0  0  0  0  0
   -2.0830   -1.1940   -0.0010 H   0  0  0  0  0  0  0  0  0  0  0  0
    0.0003   -1.4101    0.0039 C   0  0  0  0  0  0  0  0  0  0  0  0
   -0.0025   -2.4032    0.0094 H   0  0  0  0  0  0  0  0  0  0  0  0
    1.2069   -0.7041   -0.0000 C   0  0  0  0  0  0  0  0  0  0  0  0
    2.0882   -1.1948   -0.0002 H   0  0  0  0  0  0  0  0  0  0  0  0
    1.2018    0.7040   -0.0015 C   0  0  0  0  0  0  0  0  0  0  0  0
    2.0678    1.1954   -0.0036 H   0  0  0  0  0  0  0  0  0  0  0  0
  1  5  1  0
  5  6  1  0
  5  7  2  0
  1  2  1  0
  1  3  1  0
  1  4  1  0
  8 12  1  0
 12 13  2  0
 13 15  1  0
 15 17  2  0
 17 19  1  0
 19 21  2  0
 21 12  1  0
  8  9  1  0
  8 10  1  0
  8 11  1  0
 13 14  1  0
 15 16  1  0
 17 18  1  0
 19 20  1  0
 21 22  1  0
M  CHG  1   6  -1
M  END
>  <PDB_ID>  (3) 
pdb2a1x

>  <RESIDUE_NAME>  (3) 
GLU   PHE

>  <FRAG_NAME>  (3) 
ACET   MBZ

>  <FRAG_ATOM_NUM>  (3) 
fragi: 7  fragj: 15

>  <atom.prop.CHAIN_ID>  (3) 
A A A A A A A Z Z Z Z Z Z Z Z Z Z Z Z Z Z Z

>  <atom.prop.IS_HEAVY_ATOM>  (3) 
1 0 0 0 1 1 1 1 0 0 0 1 1 0 1 0 1 0 1 0 1 0

>  <DIFUSE_FUNC_ATOM>  (3) 
atom 6   atom 7   

>  <FINAL_SINGLE_POINT_ENERGY>  (3) 
0

>  <NONCOV_INTER_ENERGY_QM>  (3) 
0

>  <FF_Energy>  (3) 
5.12

>  <QM_Energy>  (3) 
-5.25

>  <source>  (3) 
ACET_MBZ_00

>  <Index>  (3) 
342

$$$$
ACET-pdb2awi-K-GLU-60:MBZ-pdb2awi-L-PHE-149
     RDKit          3D

 22 21  0  0  0  0  0  0  0  0999 V2000
    4.7222    4.8648   -1.1187 C   0  0  0  0  0  0  0  0  0  0  0  0
    4.9864    3.9210   -1.2318 H   0  0  0  0  0  0  0  0  0  0  0  0
    5.2536    5.3107   -0.4173 H   0  0  0  0  0  0  0  0  0  0  0  0
    4.8887    5.3848   -2.0621 H   0  0  0  0  0  0  0  0  0  0  0  0
    3.2795    4.8839   -0.6765 C   0  0  0  0  0  0  0  0  0  0  0  0
    2.6698    5.9680   -0.6720 O   0  0  0  0  0  1  0  0  0  0  0  0
    2.7553    3.8115   -0.3184 O   0  0  0  0  0  0  0  0  0  0  0  0
   -0.0001    2.9027    0.0703 C   0  0  0  0  0  0  0  0  0  0  0  0
   -0.7956    3.2315   -0.4113 H   0  0  0  0  0  0  0  0  0  0  0  0
    0.8352    3.2294   -0.3407 H   0  0  0  0  0  0  0  0  0  0  0  0
   -0.0437    3.2852    1.0900 H   0  0  0  0  0  0  0  0  0  0  0  0
    0.0008    1.4037    0.0004 C   0  0  0  0  0  0  0  0  0  0  0  0
   -1.1986    0.6954   -0.0008 C   0  0  0  0  0  0  0  0  0  0  0  0
   -2.0638    1.1868   -0.0033 H   0  0  0  0  0  0  0  0  0  0  0  0
   -1.2066   -0.6987   -0.0000 C   0  0  0  0  0  0  0  0  0  0  0  0
   -2.0812   -1.1904    0.0007 H   0  0  0  0  0  0  0  0  0  0  0  0
   -0.0012   -1.3971    0.0022 C   0  0  0  0  0  0  0  0  0  0  0  0
   -0.0051   -2.3946    0.0049 H   0  0  0  0  0  0  0  0  0  0  0  0
    1.2066   -0.6988   -0.0000 C   0  0  0  0  0  0  0  0  0  0  0  0
    2.0850   -1.1954    0.0012 H   0  0  0  0  0  0  0  0  0  0  0  0
    1.1990    0.6956   -0.0017 C   0  0  0  0  0  0  0  0  0  0  0  0
    2.0667    1.1926   -0.0058 H   0  0  0  0  0  0  0  0  0  0  0  0
  1  5  1  0
  5  6  1  0
  5  7  2  0
  1  2  1  0
  1  3  1  0
  1  4  1  0
  8 12  1  0
 12 13  2  0
 13 15  1  0
 15 17  2  0
 17 19  1  0
 19 21  2  0
 21 12  1  0
  8  9  1  0
  8 10  1  0
  8 11  1  0
 13 14  1  0
 15 16  1  0
 17 18  1  0
 19 20  1  0
 21 22  1  0
M  CHG  1   6  -1
M  END
>  <PDB_ID>  (4) 
pdb2awi

>  <RESIDUE_NAME>  (4) 
GLU   PHE

>  <FRAG_NAME>  (4) 
ACET   MBZ

>  <FRAG_ATOM_NUM>  (4) 
fragi: 7  fragj: 15

>  <atom.prop.CHAIN_ID>  (4) 
A A A A A A A Z Z Z Z Z Z Z Z Z Z Z Z Z Z Z

>  <atom.prop.IS_HEAVY_ATOM>  (4) 
1 0 0 0 1 1 1 1 0 0 0 1 1 0 1 0 1 0 1 0 1 0

>  <DIFUSE_FUNC_ATOM>  (4) 
atom 6   atom 7   

>  <FINAL_SINGLE_POINT_ENERGY>  (4) 
0

>  <NONCOV_INTER_ENERGY_QM>  (4) 
0

>  <FF_Energy>  (4) 
4.88

>  <QM_Energy>  (4) 
-6.79

>  <source>  (4) 
ACET_MBZ_00

>  <Index>  (4) 
1989

$$$$
ACET-pdb2bht-A-ASP-284:MBZ-pdb2bht-A-PHE-251
     RDKit          3D

 22 21  0  0  0  0  0  0  0  0999 V2000
    4.2862   -3.5198    1.2607 C   0  0  0  0  0  0  0  0  0  0  0  0
    4.9697   -3.4602    1.9730 H   0  0  0  0  0  0  0  0  0  0  0  0
    4.5369   -4.1882    0.5777 H   0  0  0  0  0  0  0  0  0  0  0  0
    3.3477   -3.8353    1.7166 H   0  0  0  0  0  0  0  0  0  0  0  0
    4.1553   -2.1627    0.5941 C   0  0  0  0  0  0  0  0  0  0  0  0
    3.6467   -1.2250    1.2432 O   0  0  0  0  0  1  0  0  0  0  0  0
    4.5529   -2.0388   -0.5813 O   0  0  0  0  0  0  0  0  0  0  0  0
   -0.0129    2.9126   -0.0149 C   0  0  0  0  0  0  0  0  0  0  0  0
   -0.5167    3.1937   -0.8159 H   0  0  0  0  0  0  0  0  0  0  0  0
    0.9258    3.2162   -0.0517 H   0  0  0  0  0  0  0  0  0  0  0  0
   -0.4820    3.3665    0.8581 H   0  0  0  0  0  0  0  0  0  0  0  0
   -0.0035    1.3934    0.0106 C   0  0  0  0  0  0  0  0  0  0  0  0
   -1.1896    0.6832    0.0078 C   0  0  0  0  0  0  0  0  0  0  0  0
   -2.0619    1.1742    0.0101 H   0  0  0  0  0  0  0  0  0  0  0  0
   -1.1951   -0.6980   -0.0000 C   0  0  0  0  0  0  0  0  0  0  0  0
   -2.0701   -1.1949    0.0230 H   0  0  0  0  0  0  0  0  0  0  0  0
    0.0032   -1.3858   -0.0370 C   0  0  0  0  0  0  0  0  0  0  0  0
    0.0043   -2.3847   -0.0905 H   0  0  0  0  0  0  0  0  0  0  0  0
    1.1951   -0.6869    0.0000 C   0  0  0  0  0  0  0  0  0  0  0  0
    2.0806   -1.1860    0.0157 H   0  0  0  0  0  0  0  0  0  0  0  0
    1.1899    0.6941    0.0185 C   0  0  0  0  0  0  0  0  0  0  0  0
    2.0573    1.1945    0.0369 H   0  0  0  0  0  0  0  0  0  0  0  0
  1  5  1  0
  5  6  1  0
  5  7  2  0
  1  2  1  0
  1  3  1  0
  1  4  1  0
  8 12  1  0
 12 13  2  0
 13 15  1  0
 15 17  2  0
 17 19  1  0
 19 21  2  0
 21 12  1  0
  8  9  1  0
  8 10  1  0
  8 11  1  0
 13 14  1  0
 15 16  1  0
 17 18  1  0
 19 20  1  0
 21 22  1  0
M  CHG  1   6  -1
M  END
>  <PDB_ID>  (5) 
pdb2bht

>  <RESIDUE_NAME>  (5) 
ASP   PHE

>  <FRAG_NAME>  (5) 
ACET   MBZ

>  <FRAG_ATOM_NUM>  (5) 
fragi: 7  fragj: 15

>  <atom.prop.CHAIN_ID>  (5) 
A A A A A A A Z Z Z Z Z Z Z Z Z Z Z Z Z Z Z

>  <atom.prop.IS_HEAVY_ATOM>  (5) 
1 0 0 0 1 1 1 1 0 0 0 1 1 0 1 0 1 0 1 0 1 0

>  <DIFUSE_FUNC_ATOM>  (5) 
atom 6   atom 7   

>  <FINAL_SINGLE_POINT_ENERGY>  (5) 
0

>  <NONCOV_INTER_ENERGY_QM>  (5) 
0

>  <FF_Energy>  (5) 
9.42

>  <QM_Energy>  (5) 
-4.09

>  <source>  (5) 
ACET_MBZ_00

>  <Index>  (5) 
3033

$$$$
ACET-pdb1b7t-A-GLU-482:MBZ-pdb1b7t-A-PHE-464
     RDKit          3D

 22 21  0  0  0  0  0  0  0  0999 V2000
   -0.7309   -5.9625   -0.5372 C   0  0  0  0  0  0  0  0  0  0  0  0
   -1.5076   -6.5658   -0.4907 H   0  0  0  0  0  0  0  0  0  0  0  0
    0.1167   -6.4398   -0.3808 H   0  0  0  0  0  0  0  0  0  0  0  0
   -0.6979   -5.5321   -1.5380 H   0  0  0  0  0  0  0  0  0  0  0  0
   -0.8861   -4.9278    0.5734 C   0  0  0  0  0  0  0  0  0  0  0  0
    0.0394   -4.1114    0.7618 O   0  0  0  0  0  1  0  0  0  0  0  0
   -1.9309   -4.9315    1.2606 O   0  0  0  0  0  0  0  0  0  0  0  0
    0.0135    2.9186    0.0139 C   0  0  0  0  0  0  0  0  0  0  0  0
    0.9471    3.2153    0.1507 H   0  0  0  0  0  0  0  0  0  0  0  0
   -0.5710    3.2233    0.7512 H   0  0  0  0  0  0  0  0  0  0  0  0
   -0.3483    3.3781   -0.9059 H   0  0  0  0  0  0  0  0  0  0  0  0
   -0.0000    1.4117    0.0000 C   0  0  0  0  0  0  0  0  0  0  0  0
   -1.2027    0.7095    0.0007 C   0  0  0  0  0  0  0  0  0  0  0  0
   -2.0663    1.1972    0.0007 H   0  0  0  0  0  0  0  0  0  0  0  0
   -1.2101   -0.6925    0.0000 C   0  0  0  0  0  0  0  0  0  0  0  0
   -2.0847   -1.1835    0.0010 H   0  0  0  0  0  0  0  0  0  0  0  0
    0.0003   -1.4018    0.0000 C   0  0  0  0  0  0  0  0  0  0  0  0
   -0.0154   -2.3992   -0.0006 H   0  0  0  0  0  0  0  0  0  0  0  0
    1.2101   -0.7137   -0.0000 C   0  0  0  0  0  0  0  0  0  0  0  0
    2.0861   -1.2082    0.0017 H   0  0  0  0  0  0  0  0  0  0  0  0
    1.2025    0.6868   -0.0007 C   0  0  0  0  0  0  0  0  0  0  0  0
    2.0716    1.1826   -0.0025 H   0  0  0  0  0  0  0  0  0  0  0  0
  1  5  1  0
  5  6  1  0
  5  7  2  0
  1  2  1  0
  1  3  1  0
  1  4  1  0
  8 12  1  0
 12 13  2  0
 13 15  1  0
 15 17  2  0
 17 19  1  0
 19 21  2  0
 21 12  1  0
  8  9  1  0
  8 10  1  0
  8 11  1  0
 13 14  1  0
 15 16  1  0
 17 18  1  0
 19 20  1  0
 21 22  1  0
M  CHG  1   6  -1
M  END
>  <PDB_ID>  (6) 
pdb1b7t

>  <RESIDUE_NAME>  (6) 
GLU   PHE

>  <FRAG_NAME>  (6) 
ACET   MBZ

>  <FRAG_ATOM_NUM>  (6) 
fragi: 7  fragj: 15

>  <atom.prop.CHAIN_ID>  (6) 
A A A A A A A Z Z Z Z Z Z Z Z Z Z Z Z Z Z Z

>  <atom.prop.IS_HEAVY_ATOM>  (6) 
1 0 0 0 1 1 1 1 0 0 0 1 1 0 1 0 1 0 1 0 1 0

>  <DIFUSE_FUNC_ATOM>  (6) 
atom 6   atom 7   

>  <FINAL_SINGLE_POINT_ENERGY>  (6) 
0

>  <NONCOV_INTER_ENERGY_QM>  (6) 
0

>  <FF_Energy>  (6) 
16.51

>  <QM_Energy>  (6) 
-4.09

>  <source>  (6) 
ACET_MBZ_00

>  <Index>  (6) 
3477

$$$$
ACET-pdb1be4-B-GLU-129:MBZ-pdb1be4-B-PHE-8
     RDKit          3D

 22 21  0  0  0  0  0  0  0  0999 V2000
    3.6586    2.6058   -2.6037 C   0  0  0  0  0  0  0  0  0  0  0  0
    4.4219    2.1041   -2.9530 H   0  0  0  0  0  0  0  0  0  0  0  0
    3.6009    3.5150   -2.9575 H   0  0  0  0  0  0  0  0  0  0  0  0
    2.7470    2.0735   -2.8751 H   0  0  0  0  0  0  0  0  0  0  0  0
    3.8105    2.7001   -1.1064 C   0  0  0  0  0  0  0  0  0  0  0  0
    3.0019    3.0215   -0.2386 O   0  0  0  0  0  1  0  0  0  0  0  0
    5.0716    2.6950   -0.8863 O   0  0  0  0  0  0  0  0  0  0  0  0
   -0.0499    2.9430   -0.0807 C   0  0  0  0  0  0  0  0  0  0  0  0
   -0.2766    3.2267   -0.9784 H   0  0  0  0  0  0  0  0  0  0  0  0
    0.7903    3.2878    0.2558 H   0  0  0  0  0  0  0  0  0  0  0  0
   -0.8391    3.2944    0.5841 H   0  0  0  0  0  0  0  0  0  0  0  0
   -0.0031    1.4427   -0.0473 C   0  0  0  0  0  0  0  0  0  0  0  0
   -1.1811    0.6975   -0.0138 C   0  0  0  0  0  0  0  0  0  0  0  0
   -2.0636    1.1724   -0.0001 H   0  0  0  0  0  0  0  0  0  0  0  0
   -1.1759   -0.7047   -0.0000 C   0  0  0  0  0  0  0  0  0  0  0  0
   -2.0763   -1.1908   -0.0071 H   0  0  0  0  0  0  0  0  0  0  0  0
    0.0036   -1.4580    0.0250 C   0  0  0  0  0  0  0  0  0  0  0  0
    0.0052   -2.4136    0.0562 H   0  0  0  0  0  0  0  0  0  0  0  0
    1.1759   -0.6917    0.0000 C   0  0  0  0  0  0  0  0  0  0  0  0
    2.0860   -1.1762   -0.0456 H   0  0  0  0  0  0  0  0  0  0  0  0
    1.1805    0.7142    0.0360 C   0  0  0  0  0  0  0  0  0  0  0  0
    2.0544    1.1945    0.1225 H   0  0  0  0  0  0  0  0  0  0  0  0
  1  5  1  0
  5  6  1  0
  5  7  2  0
  1  2  1  0
  1  3  1  0
  1  4  1  0
  8 12  1  0
 12 13  2  0
 13 15  1  0
 15 17  2  0
 17 19  1  0
 19 21  2  0
 21 12  1  0
  8  9  1  0
  8 10  1  0
  8 11  1  0
 13 14  1  0
 15 16  1  0
 17 18  1  0
 19 20  1  0
 21 22  1  0
M  CHG  1   6  -1
M  END
>  <PDB_ID>  (7) 
pdb1be4

>  <RESIDUE_NAME>  (7) 
GLU   PHE

>  <FRAG_NAME>  (7) 
ACET   MBZ

>  <FRAG_ATOM_NUM>  (7) 
fragi: 7  fragj: 15

>  <atom.prop.CHAIN_ID>  (7) 
A A A A A A A Z Z Z Z Z Z Z Z Z Z Z Z Z Z Z

>  <atom.prop.IS_HEAVY_ATOM>  (7) 
1 0 0 0 1 1 1 1 0 0 0 1 1 0 1 0 1 0 1 0 1 0

>  <DIFUSE_FUNC_ATOM>  (7) 
atom 6   atom 7   

>  <FINAL_SINGLE_POINT_ENERGY>  (7) 
0

>  <NONCOV_INTER_ENERGY_QM>  (7) 
0

>  <FF_Energy>  (7) 
4.07

>  <QM_Energy>  (7) 
-6.35

>  <source>  (7) 
ACET_MBZ_00

>  <Index>  (7) 
3829

$$$$
ACET-pdb1bvu-C-GLU-38:MBZ-pdb1bvu-C-PHE-56
     RDKit          3D

 22 21  0  0  0  0  0  0  0  0999 V2000
   -5.2785    0.5662   -0.8922 C   0  0  0  0  0  0  0  0  0  0  0  0
   -6.2568    0.6380   -0.9331 H   0  0  0  0  0  0  0  0  0  0  0  0
   -4.8680    0.5094   -1.7828 H   0  0  0  0  0  0  0  0  0  0  0  0
   -4.8871    1.4474   -0.3838 H   0  0  0  0  0  0  0  0  0  0  0  0
   -4.9422   -0.6962   -0.1521 C   0  0  0  0  0  0  0  0  0  0  0  0
   -3.9311   -0.6882    0.5673 O   0  0  0  0  0  1  0  0  0  0  0  0
   -5.6427   -1.7136   -0.3339 O   0  0  0  0  0  0  0  0  0  0  0  0
   -0.0092    2.8566    0.1282 C   0  0  0  0  0  0  0  0  0  0  0  0
    0.8601    3.1335    0.5293 H   0  0  0  0  0  0  0  0  0  0  0  0
   -0.7601    3.1028    0.7356 H   0  0  0  0  0  0  0  0  0  0  0  0
   -0.1382    3.4117   -0.8009 H   0  0  0  0  0  0  0  0  0  0  0  0
   -0.0013    1.3822   -0.0251 C   0  0  0  0  0  0  0  0  0  0  0  0
   -1.1920    0.6806   -0.0028 C   0  0  0  0  0  0  0  0  0  0  0  0
   -2.0594    1.1763    0.0103 H   0  0  0  0  0  0  0  0  0  0  0  0
   -1.1962   -0.6935    0.0000 C   0  0  0  0  0  0  0  0  0  0  0  0
   -2.0706   -1.1940   -0.0001 H   0  0  0  0  0  0  0  0  0  0  0  0
    0.0022   -1.3778    0.0046 C   0  0  0  0  0  0  0  0  0  0  0  0
    0.0046   -2.3805    0.0104 H   0  0  0  0  0  0  0  0  0  0  0  0
    1.1962   -0.6808    0.0000 C   0  0  0  0  0  0  0  0  0  0  0  0
    2.0793   -1.1850   -0.0196 H   0  0  0  0  0  0  0  0  0  0  0  0
    1.1911    0.6892    0.0233 C   0  0  0  0  0  0  0  0  0  0  0  0
    2.0549    1.1945    0.0746 H   0  0  0  0  0  0  0  0  0  0  0  0
  1  5  1  0
  5  6  1  0
  5  7  2  0
  1  2  1  0
  1  3  1  0
  1  4  1  0
  8 12  1  0
 12 13  2  0
 13 15  1  0
 15 17  2  0
 17 19  1  0
 19 21  2  0
 21 12  1  0
  8  9  1  0
  8 10  1  0
  8 11  1  0
 13 14  1  0
 15 16  1  0
 17 18  1  0
 19 20  1  0
 21 22  1  0
M  CHG  1   6  -1
M  END
>  <PDB_ID>  (8) 
pdb1bvu

>  <RESIDUE_NAME>  (8) 
GLU   PHE

>  <FRAG_NAME>  (8) 
ACET   MBZ

>  <FRAG_ATOM_NUM>  (8) 
fragi: 7  fragj: 15

>  <atom.prop.CHAIN_ID>  (8) 
A A A A A A A Z Z Z Z Z Z Z Z Z Z Z Z Z Z Z

>  <atom.prop.IS_HEAVY_ATOM>  (8) 
1 0 0 0 1 1 1 1 0 0 0 1 1 0 1 0 1 0 1 0 1 0

>  <DIFUSE_FUNC_ATOM>  (8) 
atom 6   atom 7   

>  <FINAL_SINGLE_POINT_ENERGY>  (8) 
0

>  <NONCOV_INTER_ENERGY_QM>  (8) 
0

>  <FF_Energy>  (8) 
5.88

>  <QM_Energy>  (8) 
-5.43

>  <source>  (8) 
ACET_MBZ_00

>  <Index>  (8) 
4751

$$$$
ACET-pdb1cau-B-GLU-321:MBZ-pdb1cau-B-PHE-352
     RDKit          3D

 22 21  0  0  0  0  0  0  0  0999 V2000
    1.0654   -4.6048    0.0086 C   0  0  0  0  0  0  0  0  0  0  0  0
    1.3486   -4.5656   -0.9304 H   0  0  0  0  0  0  0  0  0  0  0  0
    0.5381   -3.8209    0.2747 H   0  0  0  0  0  0  0  0  0  0  0  0
    0.4414   -5.4896    0.1342 H   0  0  0  0  0  0  0  0  0  0  0  0
    2.2920   -4.6558    0.8653 C   0  0  0  0  0  0  0  0  0  0  0  0
    2.6643   -5.6581    1.4514 O   0  0  0  0  0  1  0  0  0  0  0  0
    2.9043   -3.4948    0.9279 O   0  0  0  0  0  0  0  0  0  0  0  0
   -0.0334    2.9117    0.0834 C   0  0  0  0  0  0  0  0  0  0  0  0
   -0.0581    3.2631   -0.8322 H   0  0  0  0  0  0  0  0  0  0  0  0
    0.7584    3.2092    0.5806 H   0  0  0  0  0  0  0  0  0  0  0  0
   -0.9090    3.2990    0.6044 H   0  0  0  0  0  0  0  0  0  0  0  0
   -0.0092    1.4003    0.0113 C   0  0  0  0  0  0  0  0  0  0  0  0
   -1.1967    0.6741   -0.0192 C   0  0  0  0  0  0  0  0  0  0  0  0
   -2.0709    1.1650   -0.0571 H   0  0  0  0  0  0  0  0  0  0  0  0
   -1.2105   -0.7167    0.0000 C   0  0  0  0  0  0  0  0  0  0  0  0
   -2.0720   -1.2115    0.0176 H   0  0  0  0  0  0  0  0  0  0  0  0
    0.0076   -1.3848   -0.0036 C   0  0  0  0  0  0  0  0  0  0  0  0
    0.0197   -2.3904   -0.0098 H   0  0  0  0  0  0  0  0  0  0  0  0
    1.2105   -0.6810    0.0000 C   0  0  0  0  0  0  0  0  0  0  0  0
    2.0918   -1.1762   -0.0042 H   0  0  0  0  0  0  0  0  0  0  0  0
    1.1983    0.7081    0.0116 C   0  0  0  0  0  0  0  0  0  0  0  0
    2.0581    1.2128    0.0190 H   0  0  0  0  0  0  0  0  0  0  0  0
  1  5  1  0
  5  6  1  0
  5  7  2  0
  1  2  1  0
  1  3  1  0
  1  4  1  0
  8 12  1  0
 12 13  2  0
 13 15  1  0
 15 17  2  0
 17 19  1  0
 19 21  2  0
 21 12  1  0
  8  9  1  0
  8 10  1  0
  8 11  1  0
 13 14  1  0
 15 16  1  0
 17 18  1  0
 19 20  1  0
 21 22  1  0
M  CHG  1   6  -1
M  END
>  <PDB_ID>  (9) 
pdb1cau

>  <RESIDUE_NAME>  (9) 
GLU   PHE

>  <FRAG_NAME>  (9) 
ACET   MBZ

>  <FRAG_ATOM_NUM>  (9) 
fragi: 7  fragj: 15

>  <atom.prop.CHAIN_ID>  (9) 
A A A A A A A Z Z Z Z Z Z Z Z Z Z Z Z Z Z Z

>  <atom.prop.IS_HEAVY_ATOM>  (9) 
1 0 0 0 1 1 1 1 0 0 0 1 1 0 1 0 1 0 1 0 1 0

>  <DIFUSE_FUNC_ATOM>  (9) 
atom 6   atom 7   

>  <FINAL_SINGLE_POINT_ENERGY>  (9) 
0

>  <NONCOV_INTER_ENERGY_QM>  (9) 
0

>  <FF_Energy>  (9) 
19.64

>  <QM_Energy>  (9) 
-1.25

>  <source>  (9) 
ACET_MBZ_00

>  <Index>  (9) 
5454

$$$$
ACET-pdb1ciu-A-GLU-188:MBZ-pdb1ciu-A-PHE-623
     RDKit          3D

 22 21  0  0  0  0  0  0  0  0999 V2000
    0.4687    1.7496    3.9105 C   0  0  0  0  0  0  0  0  0  0  0  0
    0.4201    1.8932    4.8803 H   0  0  0  0  0  0  0  0  0  0  0  0
    1.3815    1.5575    3.6039 H   0  0  0  0  0  0  0  0  0  0  0  0
   -0.1625    0.8966    3.6612 H   0  0  0  0  0  0  0  0  0  0  0  0
    0.0151    3.0274    3.2309 C   0  0  0  0  0  0  0  0  0  0  0  0
   -1.1274    3.0686    2.7302 O   0  0  0  0  0  1  0  0  0  0  0  0
    0.8058    3.9889    3.1911 O   0  0  0  0  0  0  0  0  0  0  0  0
   -0.0057    2.8985    0.0101 C   0  0  0  0  0  0  0  0  0  0  0  0
    0.7116    3.2108   -0.5924 H   0  0  0  0  0  0  0  0  0  0  0  0
    0.1448    3.1997    0.9387 H   0  0  0  0  0  0  0  0  0  0  0  0
   -0.9447    3.3323   -0.3337 H   0  0  0  0  0  0  0  0  0  0  0  0
   -0.0002    1.3964    0.0010 C   0  0  0  0  0  0  0  0  0  0  0  0
   -1.1888    0.6877   -0.0013 C   0  0  0  0  0  0  0  0  0  0  0  0
   -2.0592    1.1766   -0.0054 H   0  0  0  0  0  0  0  0  0  0  0  0
   -1.1908   -0.6965    0.0000 C   0  0  0  0  0  0  0  0  0  0  0  0
   -2.0714   -1.1909    0.0024 H   0  0  0  0  0  0  0  0  0  0  0  0
    0.0002   -1.3852   -0.0005 C   0  0  0  0  0  0  0  0  0  0  0  0
   -0.0023   -2.3882   -0.0012 H   0  0  0  0  0  0  0  0  0  0  0  0
    1.1908   -0.6936   -0.0000 C   0  0  0  0  0  0  0  0  0  0  0  0
    2.0760   -1.1914    0.0013 H   0  0  0  0  0  0  0  0  0  0  0  0
    1.1887    0.6912    0.0009 C   0  0  0  0  0  0  0  0  0  0  0  0
    2.0598    1.1866    0.0004 H   0  0  0  0  0  0  0  0  0  0  0  0
  1  5  1  0
  5  6  1  0
  5  7  2  0
  1  2  1  0
  1  3  1  0
  1  4  1  0
  8 12  1  0
 12 13  2  0
 13 15  1  0
 15 17  2  0
 17 19  1  0
 19 21  2  0
 21 12  1  0
  8  9  1  0
  8 10  1  0
  8 11  1  0
 13 14  1  0
 15 16  1  0
 17 18  1  0
 19 20  1  0
 21 22  1  0
M  CHG  1   6  -1
M  END
>  <PDB_ID>  (10) 
pdb1ciu

>  <RESIDUE_NAME>  (10) 
GLU   PHE

>  <FRAG_NAME>  (10) 
ACET   MBZ

>  <FRAG_ATOM_NUM>  (10) 
fragi: 7  fragj: 15

>  <atom.prop.CHAIN_ID>  (10) 
A A A A A A A Z Z Z Z Z Z Z Z Z Z Z Z Z Z Z

>  <atom.prop.IS_HEAVY_ATOM>  (10) 
1 0 0 0 1 1 1 1 0 0 0 1 1 0 1 0 1 0 1 0 1 0

>  <DIFUSE_FUNC_ATOM>  (10) 
atom 6   atom 7   

>  <FINAL_SINGLE_POINT_ENERGY>  (10) 
0

>  <NONCOV_INTER_ENERGY_QM>  (10) 
0

>  <FF_Energy>  (10) 
5.36

>  <QM_Energy>  (10) 
-5.22

>  <source>  (10) 
ACET_MBZ_00

>  <Index>  (10) 
5891

$$$$
ACET-pdb2d40-B-GLU-127:MBZ-pdb2d40-B-PHE-213
     RDKit          3D

 22 21  0  0  0  0  0  0  0  0999 V2000
   -1.2935   -4.1055    1.0565 C   0  0  0  0  0  0  0  0  0  0  0  0
   -1.7186   -3.6253    1.8225 H   0  0  0  0  0  0  0  0  0  0  0  0
   -0.4913   -3.5960    0.7476 H   0  0  0  0  0  0  0  0  0  0  0  0
   -1.0307   -5.1273    1.3305 H   0  0  0  0  0  0  0  0  0  0  0  0
   -2.3043   -3.9988   -0.0960 C   0  0  0  0  0  0  0  0  0  0  0  0
   -3.4630   -4.0754    0.1719 O   0  0  0  0  0  1  0  0  0  0  0  0
   -1.9633   -3.7302   -1.2800 O   0  0  0  0  0  0  0  0  0  0  0  0
   -0.1135    2.8384    0.1147 C   0  0  0  0  0  0  0  0  0  0  0  0
    0.7338    3.1540    0.5108 H   0  0  0  0  0  0  0  0  0  0  0  0
   -0.8851    3.0459    0.6934 H   0  0  0  0  0  0  0  0  0  0  0  0
   -0.2551    3.3497   -0.8376 H   0  0  0  0  0  0  0  0  0  0  0  0
   -0.0294    1.3421   -0.0229 C   0  0  0  0  0  0  0  0  0  0  0  0
   -1.2018    0.6618    0.0054 C   0  0  0  0  0  0  0  0  0  0  0  0
   -2.0718    1.1873    0.0299 H   0  0  0  0  0  0  0  0  0  0  0  0
   -1.2333   -0.6639   -0.0000 C   0  0  0  0  0  0  0  0  0  0  0  0
   -2.0583   -1.2046    0.0085 H   0  0  0  0  0  0  0  0  0  0  0  0
    0.0433   -1.3474   -0.0180 C   0  0  0  0  0  0  0  0  0  0  0  0
    0.0087   -2.3610   -0.0458 H   0  0  0  0  0  0  0  0  0  0  0  0
    1.2333   -0.6843   -0.0000 C   0  0  0  0  0  0  0  0  0  0  0  0
    2.1109   -1.1657   -0.0100 H   0  0  0  0  0  0  0  0  0  0  0  0
    1.1878    0.6917    0.0355 C   0  0  0  0  0  0  0  0  0  0  0  0
    2.0322    1.2192    0.1025 H   0  0  0  0  0  0  0  0  0  0  0  0
  1  5  1  0
  5  6  1  0
  5  7  2  0
  1  2  1  0
  1  3  1  0
  1  4  1  0
  8 12  1  0
 12 13  2  0
 13 15  1  0
 15 17  2  0
 17 19  1  0
 19 21  2  0
 21 12  1  0
  8  9  1  0
  8 10  1  0
  8 11  1  0
 13 14  1  0
 15 16  1  0
 17 18  1  0
 19 20  1  0
 21 22  1  0
M  CHG  1   6  -1
M  END
>  <PDB_ID>  (11) 
pdb2d40

>  <RESIDUE_NAME>  (11) 
GLU   PHE

>  <FRAG_NAME>  (11) 
ACET   MBZ

>  <FRAG_ATOM_NUM>  (11) 
fragi: 7  fragj: 15

>  <atom.prop.CHAIN_ID>  (11) 
A A A A A A A Z Z Z Z Z Z Z Z Z Z Z Z Z Z Z

>  <atom.prop.IS_HEAVY_ATOM>  (11) 
1 0 0 0 1 1 1 1 0 0 0 1 1 0 1 0 1 0 1 0 1 0

>  <DIFUSE_FUNC_ATOM>  (11) 
atom 6   atom 7   

>  <FINAL_SINGLE_POINT_ENERGY>  (11) 
0

>  <NONCOV_INTER_ENERGY_QM>  (11) 
0

>  <FF_Energy>  (11) 
20.28

>  <QM_Energy>  (11) 
-1.0

>  <source>  (11) 
ACET_MBZ_00

>  <Index>  (11) 
6033

$$$$
ACET-pdb2d40-D-ASP-276:MBZ-pdb2d40-D-PHE-337
     RDKit          3D

 22 21  0  0  0  0  0  0  0  0999 V2000
   -5.6830   -0.9327   -1.2054 C   0  0  0  0  0  0  0  0  0  0  0  0
   -6.3550   -1.1280   -1.9263 H   0  0  0  0  0  0  0  0  0  0  0  0
   -5.2294   -0.0616   -1.4143 H   0  0  0  0  0  0  0  0  0  0  0  0
   -6.2105   -0.8318   -0.2569 H   0  0  0  0  0  0  0  0  0  0  0  0
   -4.6240   -2.0345   -1.2405 C   0  0  0  0  0  0  0  0  0  0  0  0
   -3.7145   -2.2179   -0.3630 O   0  0  0  0  0  1  0  0  0  0  0  0
   -4.6071   -2.7763   -2.2221 O   0  0  0  0  0  0  0  0  0  0  0  0
    0.0386    2.8888   -0.0924 C   0  0  0  0  0  0  0  0  0  0  0  0
   -0.5352    3.1337   -0.8566 H   0  0  0  0  0  0  0  0  0  0  0  0
    0.9735    3.1688   -0.2333 H   0  0  0  0  0  0  0  0  0  0  0  0
   -0.3465    3.3545    0.8148 H   0  0  0  0  0  0  0  0  0  0  0  0
    0.0415    1.3683   -0.0121 C   0  0  0  0  0  0  0  0  0  0  0  0
   -1.1680    0.6566   -0.0230 C   0  0  0  0  0  0  0  0  0  0  0  0
   -2.0233    1.1999   -0.0506 H   0  0  0  0  0  0  0  0  0  0  0  0
   -1.2015   -0.6632    0.0000 C   0  0  0  0  0  0  0  0  0  0  0  0
   -2.1163   -1.1440    0.0453 H   0  0  0  0  0  0  0  0  0  0  0  0
   -0.0879   -1.3614   -0.0322 C   0  0  0  0  0  0  0  0  0  0  0  0
   -0.0671   -2.3665   -0.0796 H   0  0  0  0  0  0  0  0  0  0  0  0
    1.2015   -0.6915   -0.0000 C   0  0  0  0  0  0  0  0  0  0  0  0
    2.0306   -1.2312   -0.0251 H   0  0  0  0  0  0  0  0  0  0  0  0
    1.2143    0.6911    0.0673 C   0  0  0  0  0  0  0  0  0  0  0  0
    2.0801    1.1705    0.1724 H   0  0  0  0  0  0  0  0  0  0  0  0
  1  5  1  0
  5  6  1  0
  5  7  2  0
  1  2  1  0
  1  3  1  0
  1  4  1  0
  8 12  1  0
 12 13  2  0
 13 15  1  0
 15 17  2  0
 17 19  1  0
 19 21  2  0
 21 12  1  0
  8  9  1  0
  8 10  1  0
  8 11  1  0
 13 14  1  0
 15 16  1  0
 17 18  1  0
 19 20  1  0
 21 22  1  0
M  CHG  1   6  -1
M  END
>  <PDB_ID>  (12) 
pdb2d40

>  <RESIDUE_NAME>  (12) 
ASP   PHE

>  <FRAG_NAME>  (12) 
ACET   MBZ

>  <FRAG_ATOM_NUM>  (12) 
fragi: 7  fragj: 15

>  <atom.prop.CHAIN_ID>  (12) 
A A A A A A A Z Z Z Z Z Z Z Z Z Z Z Z Z Z Z

>  <atom.prop.IS_HEAVY_ATOM>  (12) 
1 0 0 0 1 1 1 1 0 0 0 1 1 0 1 0 1 0 1 0 1 0

>  <DIFUSE_FUNC_ATOM>  (12) 
atom 6   atom 7   

>  <FINAL_SINGLE_POINT_ENERGY>  (12) 
0

>  <NONCOV_INTER_ENERGY_QM>  (12) 
0

>  <FF_Energy>  (12) 
6.73

>  <QM_Energy>  (12) 
-5.97

>  <source>  (12) 
ACET_MBZ_00

>  <Index>  (12) 
6042

$$$$
ACET-pdb1cer-C-GLU-94:MBZ-pdb1cer-C-PHE-99
     RDKit          3D

 22 21  0  0  0  0  0  0  0  0999 V2000
    3.9469    4.1762    0.0895 C   0  0  0  0  0  0  0  0  0  0  0  0
    3.1752    4.4780    0.6374 H   0  0  0  0  0  0  0  0  0  0  0  0
    3.8900    4.5539   -0.8279 H   0  0  0  0  0  0  0  0  0  0  0  0
    4.8634    4.5367    0.5564 H   0  0  0  0  0  0  0  0  0  0  0  0
    3.8535    2.6801   -0.0342 C   0  0  0  0  0  0  0  0  0  0  0  0
    3.9840    2.0013    0.9998 O   0  0  0  0  0  1  0  0  0  0  0  0
    3.6061    2.2058   -1.1784 O   0  0  0  0  0  0  0  0  0  0  0  0
    0.0022    2.8676   -0.0707 C   0  0  0  0  0  0  0  0  0  0  0  0
    0.9398    3.1857   -0.0413 H   0  0  0  0  0  0  0  0  0  0  0  0
   -0.5176    3.2233    0.6943 H   0  0  0  0  0  0  0  0  0  0  0  0
   -0.4491    3.2522   -0.9853 H   0  0  0  0  0  0  0  0  0  0  0  0
   -0.0001    1.4005   -0.0006 C   0  0  0  0  0  0  0  0  0  0  0  0
   -1.1898    0.7065    0.0026 C   0  0  0  0  0  0  0  0  0  0  0  0
   -2.0584    1.1913    0.0055 H   0  0  0  0  0  0  0  0  0  0  0  0
   -1.1942   -0.6898   -0.0000 C   0  0  0  0  0  0  0  0  0  0  0  0
   -2.0763   -1.1792    0.0026 H   0  0  0  0  0  0  0  0  0  0  0  0
    0.0021   -1.4023   -0.0044 C   0  0  0  0  0  0  0  0  0  0  0  0
   -0.0131   -2.3965   -0.0113 H   0  0  0  0  0  0  0  0  0  0  0  0
    1.1942   -0.7098    0.0000 C   0  0  0  0  0  0  0  0  0  0  0  0
    2.0806   -1.1966    0.0030 H   0  0  0  0  0  0  0  0  0  0  0  0
    1.1878    0.6949    0.0024 C   0  0  0  0  0  0  0  0  0  0  0  0
    2.0618    1.1818    0.0056 H   0  0  0  0  0  0  0  0  0  0  0  0
  1  5  1  0
  5  6  1  0
  5  7  2  0
  1  2  1  0
  1  3  1  0
  1  4  1  0
  8 12  1  0
 12 13  2  0
 13 15  1  0
 15 17  2  0
 17 19  1  0
 19 21  2  0
 21 12  1  0
  8  9  1  0
  8 10  1  0
  8 11  1  0
 13 14  1  0
 15 16  1  0
 17 18  1  0
 19 20  1  0
 21 22  1  0
M  CHG  1   6  -1
M  END
>  <PDB_ID>  (13) 
pdb1cer

>  <RESIDUE_NAME>  (13) 
GLU   PHE

>  <FRAG_NAME>  (13) 
ACET   MBZ

>  <FRAG_ATOM_NUM>  (13) 
fragi: 7  fragj: 15

>  <atom.prop.CHAIN_ID>  (13) 
A A A A A A A Z Z Z Z Z Z Z Z Z Z Z Z Z Z Z

>  <atom.prop.IS_HEAVY_ATOM>  (13) 
1 0 0 0 1 1 1 1 0 0 0 1 1 0 1 0 1 0 1 0 1 0

>  <DIFUSE_FUNC_ATOM>  (13) 
atom 6   atom 7   

>  <FINAL_SINGLE_POINT_ENERGY>  (13) 
0

>  <NONCOV_INTER_ENERGY_QM>  (13) 
0

>  <FF_Energy>  (13) 
3.05

>  <QM_Energy>  (13) 
-7.33

>  <source>  (13) 
ACET_MBZ_00

>  <Index>  (13) 
6078

$$$$
ACET-pdb1cm5-A-GLU-40:MBZ-pdb1cm5-A-PHE-386
     RDKit          3D

 22 21  0  0  0  0  0  0  0  0999 V2000
   -0.7744    1.0637   -3.0498 C   0  0  0  0  0  0  0  0  0  0  0  0
   -0.7490    0.8019   -2.0961 H   0  0  0  0  0  0  0  0  0  0  0  0
   -0.0765    1.7355   -3.2542 H   0  0  0  0  0  0  0  0  0  0  0  0
   -0.5851    0.1762   -3.6537 H   0  0  0  0  0  0  0  0  0  0  0  0
   -2.1203    1.7179   -3.3051 C   0  0  0  0  0  0  0  0  0  0  0  0
   -2.1286    2.8895   -3.7278 O   0  0  0  0  0  1  0  0  0  0  0  0
   -3.1668    1.0869   -3.0442 O   0  0  0  0  0  0  0  0  0  0  0  0
   -0.0023    2.9167   -0.0205 C   0  0  0  0  0  0  0  0  0  0  0  0
   -0.3641    3.2079   -0.8912 H   0  0  0  0  0  0  0  0  0  0  0  0
    0.9271    3.2211    0.1084 H   0  0  0  0  0  0  0  0  0  0  0  0
   -0.6148    3.3584    0.7656 H   0  0  0  0  0  0  0  0  0  0  0  0
   -0.0015    1.4083   -0.0014 C   0  0  0  0  0  0  0  0  0  0  0  0
   -1.2004    0.6998    0.0009 C   0  0  0  0  0  0  0  0  0  0  0  0
   -2.0664    1.1867    0.0020 H   0  0  0  0  0  0  0  0  0  0  0  0
   -1.2050   -0.6987    0.0000 C   0  0  0  0  0  0  0  0  0  0  0  0
   -2.0796   -1.1913    0.0017 H   0  0  0  0  0  0  0  0  0  0  0  0
    0.0040   -1.4003   -0.0010 C   0  0  0  0  0  0  0  0  0  0  0  0
   -0.0036   -2.3968   -0.0025 H   0  0  0  0  0  0  0  0  0  0  0  0
    1.2050   -0.7025   -0.0000 C   0  0  0  0  0  0  0  0  0  0  0  0
    2.0863   -1.1969    0.0011 H   0  0  0  0  0  0  0  0  0  0  0  0
    1.1980    0.6934    0.0015 C   0  0  0  0  0  0  0  0  0  0  0  0
    2.0671    1.1897    0.0037 H   0  0  0  0  0  0  0  0  0  0  0  0
  1  5  1  0
  5  6  1  0
  5  7  2  0
  1  2  1  0
  1  3  1  0
  1  4  1  0
  8 12  1  0
 12 13  2  0
 13 15  1  0
 15 17  2  0
 17 19  1  0
 19 21  2  0
 21 12  1  0
  8  9  1  0
  8 10  1  0
  8 11  1  0
 13 14  1  0
 15 16  1  0
 17 18  1  0
 19 20  1  0
 21 22  1  0
M  CHG  1   6  -1
M  END
>  <PDB_ID>  (14) 
pdb1cm5

>  <RESIDUE_NAME>  (14) 
GLU   PHE

>  <FRAG_NAME>  (14) 
ACET   MBZ

>  <FRAG_ATOM_NUM>  (14) 
fragi: 7  fragj: 15

>  <atom.prop.CHAIN_ID>  (14) 
A A A A A A A Z Z Z Z Z Z Z Z Z Z Z Z Z Z Z

>  <atom.prop.IS_HEAVY_ATOM>  (14) 
1 0 0 0 1 1 1 1 0 0 0 1 1 0 1 0 1 0 1 0 1 0

>  <DIFUSE_FUNC_ATOM>  (14) 
atom 6   atom 7   

>  <FINAL_SINGLE_POINT_ENERGY>  (14) 
0

>  <NONCOV_INTER_ENERGY_QM>  (14) 
0

>  <FF_Energy>  (14) 
10.29

>  <QM_Energy>  (14) 
-0.04

>  <source>  (14) 
ACET_MBZ_00

>  <Index>  (14) 
6169

$$$$
ACET-pdb1cm5-B-GLU-40:MBZ-pdb1cm5-B-PHE-386
     RDKit          3D

 22 21  0  0  0  0  0  0  0  0999 V2000
   -0.7506    1.0336   -3.0493 C   0  0  0  0  0  0  0  0  0  0  0  0
   -0.7329    0.7790   -2.0948 H   0  0  0  0  0  0  0  0  0  0  0  0
   -0.0542    1.7023   -3.2570 H   0  0  0  0  0  0  0  0  0  0  0  0
   -0.5587    0.1414   -3.6452 H   0  0  0  0  0  0  0  0  0  0  0  0
   -2.1007    1.6850   -3.3203 C   0  0  0  0  0  0  0  0  0  0  0  0
   -2.1083    2.8560   -3.7492 O   0  0  0  0  0  1  0  0  0  0  0  0
   -3.1476    1.0468   -3.0700 O   0  0  0  0  0  0  0  0  0  0  0  0
   -0.0059    2.9102   -0.0294 C   0  0  0  0  0  0  0  0  0  0  0  0
   -0.3630    3.1951   -0.9045 H   0  0  0  0  0  0  0  0  0  0  0  0
    0.9227    3.2188    0.1015 H   0  0  0  0  0  0  0  0  0  0  0  0
   -0.6239    3.3557    0.7502 H   0  0  0  0  0  0  0  0  0  0  0  0
   -0.0012    1.4062   -0.0005 C   0  0  0  0  0  0  0  0  0  0  0  0
   -1.1980    0.6956    0.0025 C   0  0  0  0  0  0  0  0  0  0  0  0
   -2.0664    1.1831    0.0051 H   0  0  0  0  0  0  0  0  0  0  0  0
   -1.2039   -0.7014   -0.0000 C   0  0  0  0  0  0  0  0  0  0  0  0
   -2.0786   -1.1939    0.0016 H   0  0  0  0  0  0  0  0  0  0  0  0
    0.0029   -1.4012   -0.0021 C   0  0  0  0  0  0  0  0  0  0  0  0
   -0.0003   -2.3967   -0.0056 H   0  0  0  0  0  0  0  0  0  0  0  0
    1.2039   -0.6988    0.0000 C   0  0  0  0  0  0  0  0  0  0  0  0
    2.0870   -1.1914    0.0029 H   0  0  0  0  0  0  0  0  0  0  0  0
    1.1963    0.6997    0.0001 C   0  0  0  0  0  0  0  0  0  0  0  0
    2.0643    1.1939   -0.0001 H   0  0  0  0  0  0  0  0  0  0  0  0
  1  5  1  0
  5  6  1  0
  5  7  2  0
  1  2  1  0
  1  3  1  0
  1  4  1  0
  8 12  1  0
 12 13  2  0
 13 15  1  0
 15 17  2  0
 17 19  1  0
 19 21  2  0
 21 12  1  0
  8  9  1  0
  8 10  1  0
  8 11  1  0
 13 14  1  0
 15 16  1  0
 17 18  1  0
 19 20  1  0
 21 22  1  0
M  CHG  1   6  -1
M  END
>  <PDB_ID>  (15) 
pdb1cm5

>  <RESIDUE_NAME>  (15) 
GLU   PHE

>  <FRAG_NAME>  (15) 
ACET   MBZ

>  <FRAG_ATOM_NUM>  (15) 
fragi: 7  fragj: 15

>  <atom.prop.CHAIN_ID>  (15) 
A A A A A A A Z Z Z Z Z Z Z Z Z Z Z Z Z Z Z

>  <atom.prop.IS_HEAVY_ATOM>  (15) 
1 0 0 0 1 1 1 1 0 0 0 1 1 0 1 0 1 0 1 0 1 0

>  <DIFUSE_FUNC_ATOM>  (15) 
atom 6   atom 7   

>  <FINAL_SINGLE_POINT_ENERGY>  (15) 
0

>  <NONCOV_INTER_ENERGY_QM>  (15) 
0

>  <FF_Energy>  (15) 
10.25

>  <QM_Energy>  (15) 
-0.03

>  <source>  (15) 
ACET_MBZ_00

>  <Index>  (15) 
6174

$$$$
ACET-pdb2dkk-A-ASP-69:MBZ-pdb2dkk-A-PHE-72
     RDKit          3D

 22 21  0  0  0  0  0  0  0  0999 V2000
   -4.4969    1.1340   -0.7150 C   0  0  0  0  0  0  0  0  0  0  0  0
   -4.6691    0.5663   -1.5102 H   0  0  0  0  0  0  0  0  0  0  0  0
   -3.5404    1.3917   -0.6692 H   0  0  0  0  0  0  0  0  0  0  0  0
   -5.0894    2.0436   -0.8133 H   0  0  0  0  0  0  0  0  0  0  0  0
   -4.8444    0.3304    0.5387 C   0  0  0  0  0  0  0  0  0  0  0  0
   -5.1942    0.9414    1.5723 O   0  0  0  0  0  1  0  0  0  0  0  0
   -4.7476   -0.9163    0.4878 O   0  0  0  0  0  0  0  0  0  0  0  0
    0.0036    2.9073    0.0313 C   0  0  0  0  0  0  0  0  0  0  0  0
   -0.7544    3.2262   -0.5172 H   0  0  0  0  0  0  0  0  0  0  0  0
    0.8680    3.2202   -0.3322 H   0  0  0  0  0  0  0  0  0  0  0  0
   -0.1084    3.3262    1.0314 H   0  0  0  0  0  0  0  0  0  0  0  0
    0.0009    1.4049   -0.0006 C   0  0  0  0  0  0  0  0  0  0  0  0
   -1.1983    0.6942   -0.0006 C   0  0  0  0  0  0  0  0  0  0  0  0
   -2.0643    1.1837   -0.0023 H   0  0  0  0  0  0  0  0  0  0  0  0
   -1.2038   -0.7001    0.0000 C   0  0  0  0  0  0  0  0  0  0  0  0
   -2.0794   -1.1921    0.0009 H   0  0  0  0  0  0  0  0  0  0  0  0
    0.0002   -1.3980    0.0014 C   0  0  0  0  0  0  0  0  0  0  0  0
   -0.0027   -2.3948    0.0027 H   0  0  0  0  0  0  0  0  0  0  0  0
    1.2038   -0.6986    0.0000 C   0  0  0  0  0  0  0  0  0  0  0  0
    2.0844   -1.1934    0.0008 H   0  0  0  0  0  0  0  0  0  0  0  0
    1.1971    0.6976   -0.0003 C   0  0  0  0  0  0  0  0  0  0  0  0
    2.0660    1.1923   -0.0012 H   0  0  0  0  0  0  0  0  0  0  0  0
  1  5  1  0
  5  6  1  0
  5  7  2  0
  1  2  1  0
  1  3  1  0
  1  4  1  0
  8 12  1  0
 12 13  2  0
 13 15  1  0
 15 17  2  0
 17 19  1  0
 19 21  2  0
 21 12  1  0
  8  9  1  0
  8 10  1  0
  8 11  1  0
 13 14  1  0
 15 16  1  0
 17 18  1  0
 19 20  1  0
 21 22  1  0
M  CHG  1   6  -1
M  END
>  <PDB_ID>  (16) 
pdb2dkk

>  <RESIDUE_NAME>  (16) 
ASP   PHE

>  <FRAG_NAME>  (16) 
ACET   MBZ

>  <FRAG_ATOM_NUM>  (16) 
fragi: 7  fragj: 15

>  <atom.prop.CHAIN_ID>  (16) 
A A A A A A A Z Z Z Z Z Z Z Z Z Z Z Z Z Z Z

>  <atom.prop.IS_HEAVY_ATOM>  (16) 
1 0 0 0 1 1 1 1 0 0 0 1 1 0 1 0 1 0 1 0 1 0

>  <DIFUSE_FUNC_ATOM>  (16) 
atom 6   atom 7   

>  <FINAL_SINGLE_POINT_ENERGY>  (16) 
0

>  <NONCOV_INTER_ENERGY_QM>  (16) 
0

>  <FF_Energy>  (16) 
9.14

>  <QM_Energy>  (16) 
-2.58

>  <source>  (16) 
ACET_MBZ_00

>  <Index>  (16) 
6788

$$$$
ACET-pdb2dr3-C-GLU-81:MBZ-pdb2dr3-C-PHE-86
     RDKit          3D

 22 21  0  0  0  0  0  0  0  0999 V2000
    3.9376    2.7230    0.6855 C   0  0  0  0  0  0  0  0  0  0  0  0
    3.7348    3.0882    1.5755 H   0  0  0  0  0  0  0  0  0  0  0  0
    3.1461    2.3273    0.2569 H   0  0  0  0  0  0  0  0  0  0  0  0
    4.2977    3.5372    0.0568 H   0  0  0  0  0  0  0  0  0  0  0  0
    4.9621    1.6179    0.8645 C   0  0  0  0  0  0  0  0  0  0  0  0
    5.4426    1.0881   -0.1598 O   0  0  0  0  0  1  0  0  0  0  0  0
    5.2804    1.2814    2.0283 O   0  0  0  0  0  0  0  0  0  0  0  0
    0.0019    2.9047    0.0323 C   0  0  0  0  0  0  0  0  0  0  0  0
   -0.6927    3.2252   -0.5938 H   0  0  0  0  0  0  0  0  0  0  0  0
    0.9010    3.2165   -0.2381 H   0  0  0  0  0  0  0  0  0  0  0  0
   -0.2151    3.3254    1.0142 H   0  0  0  0  0  0  0  0  0  0  0  0
    0.0003    1.4032    0.0001 C   0  0  0  0  0  0  0  0  0  0  0  0
   -1.1979    0.6945    0.0001 C   0  0  0  0  0  0  0  0  0  0  0  0
   -2.0646    1.1859   -0.0013 H   0  0  0  0  0  0  0  0  0  0  0  0
   -1.2045   -0.6967    0.0000 C   0  0  0  0  0  0  0  0  0  0  0  0
   -2.0806   -1.1902    0.0006 H   0  0  0  0  0  0  0  0  0  0  0  0
   -0.0016   -1.3953    0.0011 C   0  0  0  0  0  0  0  0  0  0  0  0
   -0.0067   -2.3932    0.0025 H   0  0  0  0  0  0  0  0  0  0  0  0
    1.2045   -0.7006    0.0000 C   0  0  0  0  0  0  0  0  0  0  0  0
    2.0827   -1.1977    0.0016 H   0  0  0  0  0  0  0  0  0  0  0  0
    1.1992    0.6950   -0.0012 C   0  0  0  0  0  0  0  0  0  0  0  0
    2.0667    1.1898   -0.0035 H   0  0  0  0  0  0  0  0  0  0  0  0
  1  5  1  0
  5  6  1  0
  5  7  2  0
  1  2  1  0
  1  3  1  0
  1  4  1  0
  8 12  1  0
 12 13  2  0
 13 15  1  0
 15 17  2  0
 17 19  1  0
 19 21  2  0
 21 12  1  0
  8  9  1  0
  8 10  1  0
  8 11  1  0
 13 14  1  0
 15 16  1  0
 17 18  1  0
 19 20  1  0
 21 22  1  0
M  CHG  1   6  -1
M  END
>  <PDB_ID>  (17) 
pdb2dr3

>  <RESIDUE_NAME>  (17) 
GLU   PHE

>  <FRAG_NAME>  (17) 
ACET   MBZ

>  <FRAG_ATOM_NUM>  (17) 
fragi: 7  fragj: 15

>  <atom.prop.CHAIN_ID>  (17) 
A A A A A A A Z Z Z Z Z Z Z Z Z Z Z Z Z Z Z

>  <atom.prop.IS_HEAVY_ATOM>  (17) 
1 0 0 0 1 1 1 1 0 0 0 1 1 0 1 0 1 0 1 0 1 0

>  <DIFUSE_FUNC_ATOM>  (17) 
atom 6   atom 7   

>  <FINAL_SINGLE_POINT_ENERGY>  (17) 
0

>  <NONCOV_INTER_ENERGY_QM>  (17) 
0

>  <FF_Energy>  (17) 
13.95

>  <QM_Energy>  (17) 
-0.61

>  <source>  (17) 
ACET_MBZ_00

>  <Index>  (17) 
7145

$$$$
ACET-pdb2eba-D-GLU-29:MBZ-pdb2eba-D-PHE-25
     RDKit          3D

 22 21  0  0  0  0  0  0  0  0999 V2000
   -4.5877   -1.0625    1.9221 C   0  0  0  0  0  0  0  0  0  0  0  0
   -5.0562   -1.8655    2.2678 H   0  0  0  0  0  0  0  0  0  0  0  0
   -5.1906   -0.2746    1.9274 H   0  0  0  0  0  0  0  0  0  0  0  0
   -3.7154   -0.8568    2.5426 H   0  0  0  0  0  0  0  0  0  0  0  0
   -4.2323   -1.3361    0.5004 C   0  0  0  0  0  0  0  0  0  0  0  0
   -4.0930   -0.3668   -0.2789 O   0  0  0  0  0  1  0  0  0  0  0  0
   -4.0816   -2.5269    0.1610 O   0  0  0  0  0  0  0  0  0  0  0  0
   -0.0031    2.9037   -0.0718 C   0  0  0  0  0  0  0  0  0  0  0  0
   -0.2295    3.1635   -1.0013 H   0  0  0  0  0  0  0  0  0  0  0  0
    0.9024    3.2220    0.1747 H   0  0  0  0  0  0  0  0  0  0  0  0
   -0.7244    3.3697    0.5995 H   0  0  0  0  0  0  0  0  0  0  0  0
    0.0063    1.4047   -0.0062 C   0  0  0  0  0  0  0  0  0  0  0  0
   -1.1938    0.6960    0.0014 C   0  0  0  0  0  0  0  0  0  0  0  0
   -2.0595    1.1855    0.0064 H   0  0  0  0  0  0  0  0  0  0  0  0
   -1.1988   -0.6988   -0.0000 C   0  0  0  0  0  0  0  0  0  0  0  0
   -2.0835   -1.1844   -0.0077 H   0  0  0  0  0  0  0  0  0  0  0  0
   -0.0129   -1.3932    0.0104 C   0  0  0  0  0  0  0  0  0  0  0  0
   -0.0117   -2.3931    0.0250 H   0  0  0  0  0  0  0  0  0  0  0  0
    1.1988   -0.6994   -0.0000 C   0  0  0  0  0  0  0  0  0  0  0  0
    2.0745   -1.2040   -0.0016 H   0  0  0  0  0  0  0  0  0  0  0  0
    1.2004    0.6907   -0.0055 C   0  0  0  0  0  0  0  0  0  0  0  0
    2.0707    1.1834   -0.0097 H   0  0  0  0  0  0  0  0  0  0  0  0
  1  5  1  0
  5  6  1  0
  5  7  2  0
  1  2  1  0
  1  3  1  0
  1  4  1  0
  8 12  1  0
 12 13  2  0
 13 15  1  0
 15 17  2  0
 17 19  1  0
 19 21  2  0
 21 12  1  0
  8  9  1  0
  8 10  1  0
  8 11  1  0
 13 14  1  0
 15 16  1  0
 17 18  1  0
 19 20  1  0
 21 22  1  0
M  CHG  1   6  -1
M  END
>  <PDB_ID>  (18) 
pdb2eba

>  <RESIDUE_NAME>  (18) 
GLU   PHE

>  <FRAG_NAME>  (18) 
ACET   MBZ

>  <FRAG_ATOM_NUM>  (18) 
fragi: 7  fragj: 15

>  <atom.prop.CHAIN_ID>  (18) 
A A A A A A A Z Z Z Z Z Z Z Z Z Z Z Z Z Z Z

>  <atom.prop.IS_HEAVY_ATOM>  (18) 
1 0 0 0 1 1 1 1 0 0 0 1 1 0 1 0 1 0 1 0 1 0

>  <DIFUSE_FUNC_ATOM>  (18) 
atom 6   atom 7   

>  <FINAL_SINGLE_POINT_ENERGY>  (18) 
0

>  <NONCOV_INTER_ENERGY_QM>  (18) 
0

>  <FF_Energy>  (18) 
6.22

>  <QM_Energy>  (18) 
-6.12

>  <source>  (18) 
ACET_MBZ_00

>  <Index>  (18) 
8300

$$$$
ACET-pdb2efj-A-GLU-5:MBZ-pdb2efj-A-PHE-102
     RDKit          3D

 22 21  0  0  0  0  0  0  0  0999 V2000
    4.1989    3.7172    2.6622 C   0  0  0  0  0  0  0  0  0  0  0  0
    4.4994    2.8686    2.2847 H   0  0  0  0  0  0  0  0  0  0  0  0
    3.9543    3.6594    3.6052 H   0  0  0  0  0  0  0  0  0  0  0  0
    5.0051    4.4435    2.5590 H   0  0  0  0  0  0  0  0  0  0  0  0
    2.9583    4.1510    1.8904 C   0  0  0  0  0  0  0  0  0  0  0  0
    2.7776    3.6918    0.7326 O   0  0  0  0  0  1  0  0  0  0  0  0
    2.1936    4.9921    2.4169 O   0  0  0  0  0  0  0  0  0  0  0  0
    0.0194    2.8891   -0.0140 C   0  0  0  0  0  0  0  0  0  0  0  0
    0.9273    3.1911    0.2445 H   0  0  0  0  0  0  0  0  0  0  0  0
   -0.6571    3.2086    0.6367 H   0  0  0  0  0  0  0  0  0  0  0  0
   -0.2135    3.3475   -0.9751 H   0  0  0  0  0  0  0  0  0  0  0  0
    0.0039    1.3897   -0.0124 C   0  0  0  0  0  0  0  0  0  0  0  0
   -1.1974    0.6807    0.0006 C   0  0  0  0  0  0  0  0  0  0  0  0
   -2.0603    1.1829    0.0091 H   0  0  0  0  0  0  0  0  0  0  0  0
   -1.2053   -0.6929    0.0000 C   0  0  0  0  0  0  0  0  0  0  0  0
   -2.0784   -1.1931   -0.0065 H   0  0  0  0  0  0  0  0  0  0  0  0
   -0.0043   -1.3814    0.0104 C   0  0  0  0  0  0  0  0  0  0  0  0
    0.0014   -2.3805    0.0247 H   0  0  0  0  0  0  0  0  0  0  0  0
    1.2053   -0.6796   -0.0000 C   0  0  0  0  0  0  0  0  0  0  0  0
    2.0797   -1.1922   -0.0070 H   0  0  0  0  0  0  0  0  0  0  0  0
    1.1978    0.6834    0.0014 C   0  0  0  0  0  0  0  0  0  0  0  0
    2.0647    1.1937    0.0115 H   0  0  0  0  0  0  0  0  0  0  0  0
  1  5  1  0
  5  6  1  0
  5  7  2  0
  1  2  1  0
  1  3  1  0
  1  4  1  0
  8 12  1  0
 12 13  2  0
 13 15  1  0
 15 17  2  0
 17 19  1  0
 19 21  2  0
 21 12  1  0
  8  9  1  0
  8 10  1  0
  8 11  1  0
 13 14  1  0
 15 16  1  0
 17 18  1  0
 19 20  1  0
 21 22  1  0
M  CHG  1   6  -1
M  END
>  <PDB_ID>  (19) 
pdb2efj

>  <RESIDUE_NAME>  (19) 
GLU   PHE

>  <FRAG_NAME>  (19) 
ACET   MBZ

>  <FRAG_ATOM_NUM>  (19) 
fragi: 7  fragj: 15

>  <atom.prop.CHAIN_ID>  (19) 
A A A A A A A Z Z Z Z Z Z Z Z Z Z Z Z Z Z Z

>  <atom.prop.IS_HEAVY_ATOM>  (19) 
1 0 0 0 1 1 1 1 0 0 0 1 1 0 1 0 1 0 1 0 1 0

>  <DIFUSE_FUNC_ATOM>  (19) 
atom 6   atom 7   

>  <FINAL_SINGLE_POINT_ENERGY>  (19) 
0

>  <NONCOV_INTER_ENERGY_QM>  (19) 
0

>  <FF_Energy>  (19) 
5.91

>  <QM_Energy>  (19) 
-7.14

>  <source>  (19) 
ACET_MBZ_00

>  <Index>  (19) 
8512

$$$$
ACET-pdb1dub-D-ASP-271:MBZ-pdb1dub-D-PHE-287
     RDKit          3D

 22 21  0  0  0  0  0  0  0  0999 V2000
   -4.4696    1.9161    1.1114 C   0  0  0  0  0  0  0  0  0  0  0  0
   -5.0336    2.0295    1.9205 H   0  0  0  0  0  0  0  0  0  0  0  0
   -3.8037    1.1934    1.2469 H   0  0  0  0  0  0  0  0  0  0  0  0
   -5.1176    1.6313    0.2825 H   0  0  0  0  0  0  0  0  0  0  0  0
   -3.7483    3.2019    0.8345 C   0  0  0  0  0  0  0  0  0  0  0  0
   -3.1904    3.3426   -0.2751 O   0  0  0  0  0  1  0  0  0  0  0  0
   -3.7942    4.0994    1.6888 O   0  0  0  0  0  0  0  0  0  0  0  0
    0.0083    2.9416    0.0687 C   0  0  0  0  0  0  0  0  0  0  0  0
    0.9306    3.2276    0.2615 H   0  0  0  0  0  0  0  0  0  0  0  0
   -0.6188    3.2131    0.7783 H   0  0  0  0  0  0  0  0  0  0  0  0
   -0.3059    3.4196   -0.8591 H   0  0  0  0  0  0  0  0  0  0  0  0
   -0.0002    1.4212    0.0019 C   0  0  0  0  0  0  0  0  0  0  0  0
   -1.2061    0.7148   -0.0024 C   0  0  0  0  0  0  0  0  0  0  0  0
   -2.0698    1.1940   -0.0086 H   0  0  0  0  0  0  0  0  0  0  0  0
   -1.2071   -0.7019    0.0000 C   0  0  0  0  0  0  0  0  0  0  0  0
   -2.0815   -1.1900    0.0010 H   0  0  0  0  0  0  0  0  0  0  0  0
    0.0076   -1.4142    0.0031 C   0  0  0  0  0  0  0  0  0  0  0  0
   -0.0102   -2.4081    0.0070 H   0  0  0  0  0  0  0  0  0  0  0  0
    1.2071   -0.7201   -0.0000 C   0  0  0  0  0  0  0  0  0  0  0  0
    2.0907   -1.2011    0.0014 H   0  0  0  0  0  0  0  0  0  0  0  0
    1.1987    0.7001   -0.0026 C   0  0  0  0  0  0  0  0  0  0  0  0
    2.0707    1.1854   -0.0084 H   0  0  0  0  0  0  0  0  0  0  0  0
  1  5  1  0
  5  6  1  0
  5  7  2  0
  1  2  1  0
  1  3  1  0
  1  4  1  0
  8 12  1  0
 12 13  2  0
 13 15  1  0
 15 17  2  0
 17 19  1  0
 19 21  2  0
 21 12  1  0
  8  9  1  0
  8 10  1  0
  8 11  1  0
 13 14  1  0
 15 16  1  0
 17 18  1  0
 19 20  1  0
 21 22  1  0
M  CHG  1   6  -1
M  END
>  <PDB_ID>  (20) 
pdb1dub

>  <RESIDUE_NAME>  (20) 
ASP   PHE

>  <FRAG_NAME>  (20) 
ACET   MBZ

>  <FRAG_ATOM_NUM>  (20) 
fragi: 7  fragj: 15

>  <atom.prop.CHAIN_ID>  (20) 
A A A A A A A Z Z Z Z Z Z Z Z Z Z Z Z Z Z Z

>  <atom.prop.IS_HEAVY_ATOM>  (20) 
1 0 0 0 1 1 1 1 0 0 0 1 1 0 1 0 1 0 1 0 1 0

>  <DIFUSE_FUNC_ATOM>  (20) 
atom 6   atom 7   

>  <FINAL_SINGLE_POINT_ENERGY>  (20) 
0

>  <NONCOV_INTER_ENERGY_QM>  (20) 
0

>  <FF_Energy>  (20) 
20.06

>  <QM_Energy>  (20) 
-7.64

>  <source>  (20) 
ACET_MBZ_00

>  <Index>  (20) 
8749

$$$$
ACET-pdb2eq9-D-ASP-291:MBZ-pdb2eq9-D-PHE-295
     RDKit          3D

 22 21  0  0  0  0  0  0  0  0999 V2000
   -4.2984    5.2290   -0.8815 C   0  0  0  0  0  0  0  0  0  0  0  0
   -5.1476    4.8254   -1.2063 H   0  0  0  0  0  0  0  0  0  0  0  0
   -3.9046    5.8159   -1.5806 H   0  0  0  0  0  0  0  0  0  0  0  0
   -4.5310    5.8475   -0.0147 H   0  0  0  0  0  0  0  0  0  0  0  0
   -3.3177    4.1163   -0.5680 C   0  0  0  0  0  0  0  0  0  0  0  0
   -3.4941    3.4234    0.4581 O   0  0  0  0  0  1  0  0  0  0  0  0
   -2.3715    3.9271   -1.3656 O   0  0  0  0  0  0  0  0  0  0  0  0
    0.0040    2.9160   -0.0283 C   0  0  0  0  0  0  0  0  0  0  0  0
   -0.8572    3.2155   -0.4135 H   0  0  0  0  0  0  0  0  0  0  0  0
    0.7665    3.2081   -0.5879 H   0  0  0  0  0  0  0  0  0  0  0  0
    0.1116    3.3846    0.9499 H   0  0  0  0  0  0  0  0  0  0  0  0
    0.0004    1.4063   -0.0002 C   0  0  0  0  0  0  0  0  0  0  0  0
   -1.1954    0.6978    0.0012 C   0  0  0  0  0  0  0  0  0  0  0  0
   -2.0641    1.1842    0.0016 H   0  0  0  0  0  0  0  0  0  0  0  0
   -1.2017   -0.7017   -0.0000 C   0  0  0  0  0  0  0  0  0  0  0  0
   -2.0783   -1.1904    0.0014 H   0  0  0  0  0  0  0  0  0  0  0  0
   -0.0002   -1.3985   -0.0015 C   0  0  0  0  0  0  0  0  0  0  0  0
   -0.0025   -2.3957   -0.0041 H   0  0  0  0  0  0  0  0  0  0  0  0
    1.2017   -0.6992    0.0000 C   0  0  0  0  0  0  0  0  0  0  0  0
    2.0832   -1.1943    0.0021 H   0  0  0  0  0  0  0  0  0  0  0  0
    1.1952    0.6953    0.0004 C   0  0  0  0  0  0  0  0  0  0  0  0
    2.0651    1.1905    0.0007 H   0  0  0  0  0  0  0  0  0  0  0  0
  1  5  1  0
  5  6  1  0
  5  7  2  0
  1  2  1  0
  1  3  1  0
  1  4  1  0
  8 12  1  0
 12 13  2  0
 13 15  1  0
 15 17  2  0
 17 19  1  0
 19 21  2  0
 21 12  1  0
  8  9  1  0
  8 10  1  0
  8 11  1  0
 13 14  1  0
 15 16  1  0
 17 18  1  0
 19 20  1  0
 21 22  1  0
M  CHG  1   6  -1
M  END
>  <PDB_ID>  (21) 
pdb2eq9

>  <RESIDUE_NAME>  (21) 
ASP   PHE

>  <FRAG_NAME>  (21) 
ACET   MBZ

>  <FRAG_ATOM_NUM>  (21) 
fragi: 7  fragj: 15

>  <atom.prop.CHAIN_ID>  (21) 
A A A A A A A Z Z Z Z Z Z Z Z Z Z Z Z Z Z Z

>  <atom.prop.IS_HEAVY_ATOM>  (21) 
1 0 0 0 1 1 1 1 0 0 0 1 1 0 1 0 1 0 1 0 1 0

>  <DIFUSE_FUNC_ATOM>  (21) 
atom 6   atom 7   

>  <FINAL_SINGLE_POINT_ENERGY>  (21) 
0

>  <NONCOV_INTER_ENERGY_QM>  (21) 
0

>  <FF_Energy>  (21) 
9.59

>  <QM_Energy>  (21) 
-7.68

>  <source>  (21) 
ACET_MBZ_00

>  <Index>  (21) 
9101

$$$$
ACET-pdb1e0t-C-ASP-177:MBZ-pdb1e0t-C-PHE-35
     RDKit          3D

 22 21  0  0  0  0  0  0  0  0999 V2000
    2.9122    1.9799   -2.8982 C   0  0  0  0  0  0  0  0  0  0  0  0
    3.0931    2.7577   -3.4962 H   0  0  0  0  0  0  0  0  0  0  0  0
    1.9411    1.7567   -2.9165 H   0  0  0  0  0  0  0  0  0  0  0  0
    3.4753    1.1211   -3.2637 H   0  0  0  0  0  0  0  0  0  0  0  0
    3.2810    2.3801   -1.4750 C   0  0  0  0  0  0  0  0  0  0  0  0
    4.0716    1.6640   -0.8024 O   0  0  0  0  0  1  0  0  0  0  0  0
    2.6790    3.4296   -1.1108 O   0  0  0  0  0  0  0  0  0  0  0  0
   -0.0632    2.9548    0.0590 C   0  0  0  0  0  0  0  0  0  0  0  0
   -0.6318    3.2680   -0.6651 H   0  0  0  0  0  0  0  0  0  0  0  0
    0.8464    3.2974    0.0285 H   0  0  0  0  0  0  0  0  0  0  0  0
   -0.5071    3.3052    0.9909 H   0  0  0  0  0  0  0  0  0  0  0  0
   -0.0090    1.4372    0.0073 C   0  0  0  0  0  0  0  0  0  0  0  0
   -1.1749    0.6861   -0.0129 C   0  0  0  0  0  0  0  0  0  0  0  0
   -2.0632    1.1491   -0.0387 H   0  0  0  0  0  0  0  0  0  0  0  0
   -1.1548   -0.7161    0.0000 C   0  0  0  0  0  0  0  0  0  0  0  0
   -2.0600   -1.2016    0.0094 H   0  0  0  0  0  0  0  0  0  0  0  0
    0.0081   -1.4408    0.0014 C   0  0  0  0  0  0  0  0  0  0  0  0
    0.0152   -2.4126    0.0028 H   0  0  0  0  0  0  0  0  0  0  0  0
    1.1548   -0.6910   -0.0000 C   0  0  0  0  0  0  0  0  0  0  0  0
    2.0789   -1.1693   -0.0028 H   0  0  0  0  0  0  0  0  0  0  0  0
    1.1758    0.7245    0.0042 C   0  0  0  0  0  0  0  0  0  0  0  0
    2.0510    1.1930    0.0045 H   0  0  0  0  0  0  0  0  0  0  0  0
  1  5  1  0
  5  6  1  0
  5  7  2  0
  1  2  1  0
  1  3  1  0
  1  4  1  0
  8 12  1  0
 12 13  2  0
 13 15  1  0
 15 17  2  0
 17 19  1  0
 19 21  2  0
 21 12  1  0
  8  9  1  0
  8 10  1  0
  8 11  1  0
 13 14  1  0
 15 16  1  0
 17 18  1  0
 19 20  1  0
 21 22  1  0
M  CHG  1   6  -1
M  END
>  <PDB_ID>  (22) 
pdb1e0t

>  <RESIDUE_NAME>  (22) 
ASP   PHE

>  <FRAG_NAME>  (22) 
ACET   MBZ

>  <FRAG_ATOM_NUM>  (22) 
fragi: 7  fragj: 15

>  <atom.prop.CHAIN_ID>  (22) 
A A A A A A A Z Z Z Z Z Z Z Z Z Z Z Z Z Z Z

>  <atom.prop.IS_HEAVY_ATOM>  (22) 
1 0 0 0 1 1 1 1 0 0 0 1 1 0 1 0 1 0 1 0 1 0

>  <DIFUSE_FUNC_ATOM>  (22) 
atom 6   atom 7   

>  <FINAL_SINGLE_POINT_ENERGY>  (22) 
0

>  <NONCOV_INTER_ENERGY_QM>  (22) 
0

>  <FF_Energy>  (22) 
6.7

>  <QM_Energy>  (22) 
-7.51

>  <source>  (22) 
ACET_MBZ_00

>  <Index>  (22) 
9155

$$$$
ACET-pdb2ew1-A-GLU-55:MBZ-pdb2ew1-A-PHE-7
     RDKit          3D

 22 21  0  0  0  0  0  0  0  0999 V2000
   -4.6623   -1.9199   -1.4578 C   0  0  0  0  0  0  0  0  0  0  0  0
   -5.4200   -2.3606   -1.9078 H   0  0  0  0  0  0  0  0  0  0  0  0
   -3.8178   -2.0481   -1.9493 H   0  0  0  0  0  0  0  0  0  0  0  0
   -4.8699   -0.8517   -1.3948 H   0  0  0  0  0  0  0  0  0  0  0  0
   -4.5016   -2.5584   -0.1041 C   0  0  0  0  0  0  0  0  0  0  0  0
   -3.6509   -2.1099    0.6941 O   0  0  0  0  0  1  0  0  0  0  0  0
   -5.2136   -3.5259    0.1602 O   0  0  0  0  0  0  0  0  0  0  0  0
    0.0170    2.8816    0.0387 C   0  0  0  0  0  0  0  0  0  0  0  0
   -0.7663    3.2153   -0.4658 H   0  0  0  0  0  0  0  0  0  0  0  0
    0.8633    3.1985   -0.3669 H   0  0  0  0  0  0  0  0  0  0  0  0
   -0.0399    3.3081    1.0403 H   0  0  0  0  0  0  0  0  0  0  0  0
    0.0038    1.3904    0.0062 C   0  0  0  0  0  0  0  0  0  0  0  0
   -1.2011    0.6921    0.0021 C   0  0  0  0  0  0  0  0  0  0  0  0
   -2.0599    1.1905   -0.0003 H   0  0  0  0  0  0  0  0  0  0  0  0
   -1.2029   -0.6850    0.0000 C   0  0  0  0  0  0  0  0  0  0  0  0
   -2.0743   -1.1903    0.0078 H   0  0  0  0  0  0  0  0  0  0  0  0
    0.0071   -1.3857   -0.0111 C   0  0  0  0  0  0  0  0  0  0  0  0
   -0.0063   -2.3847   -0.0275 H   0  0  0  0  0  0  0  0  0  0  0  0
    1.2029   -0.6955    0.0000 C   0  0  0  0  0  0  0  0  0  0  0  0
    2.0840   -1.1929    0.0076 H   0  0  0  0  0  0  0  0  0  0  0  0
    1.1902    0.6837    0.0028 C   0  0  0  0  0  0  0  0  0  0  0  0
    2.0629    1.1865    0.0016 H   0  0  0  0  0  0  0  0  0  0  0  0
  1  5  1  0
  5  6  1  0
  5  7  2  0
  1  2  1  0
  1  3  1  0
  1  4  1  0
  8 12  1  0
 12 13  2  0
 13 15  1  0
 15 17  2  0
 17 19  1  0
 19 21  2  0
 21 12  1  0
  8  9  1  0
  8 10  1  0
  8 11  1  0
 13 14  1  0
 15 16  1  0
 17 18  1  0
 19 20  1  0
 21 22  1  0
M  CHG  1   6  -1
M  END
>  <PDB_ID>  (23) 
pdb2ew1

>  <RESIDUE_NAME>  (23) 
GLU   PHE

>  <FRAG_NAME>  (23) 
ACET   MBZ

>  <FRAG_ATOM_NUM>  (23) 
fragi: 7  fragj: 15

>  <atom.prop.CHAIN_ID>  (23) 
A A A A A A A Z Z Z Z Z Z Z Z Z Z Z Z Z Z Z

>  <atom.prop.IS_HEAVY_ATOM>  (23) 
1 0 0 0 1 1 1 1 0 0 0 1 1 0 1 0 1 0 1 0 1 0

>  <DIFUSE_FUNC_ATOM>  (23) 
atom 6   atom 7   

>  <FINAL_SINGLE_POINT_ENERGY>  (23) 
0

>  <NONCOV_INTER_ENERGY_QM>  (23) 
0

>  <FF_Energy>  (23) 
8.45

>  <QM_Energy>  (23) 
-5.27

>  <source>  (23) 
ACET_MBZ_00

>  <Index>  (23) 
9345

$$$$
ACET-pdb2eyu-A-ASP-173:MBZ-pdb2eyu-A-PHE-198
     RDKit          3D

 22 21  0  0  0  0  0  0  0  0999 V2000
   -3.0124   -4.5113    0.6146 C   0  0  0  0  0  0  0  0  0  0  0  0
   -2.3444   -4.4234   -0.1188 H   0  0  0  0  0  0  0  0  0  0  0  0
   -3.5306   -5.3540    0.5050 H   0  0  0  0  0  0  0  0  0  0  0  0
   -2.4728   -4.5648    1.5601 H   0  0  0  0  0  0  0  0  0  0  0  0
   -3.9675   -3.3408    0.5438 C   0  0  0  0  0  0  0  0  0  0  0  0
   -5.1906   -3.5692    0.4922 O   0  0  0  0  0  1  0  0  0  0  0  0
   -3.5010   -2.1837    0.5441 O   0  0  0  0  0  0  0  0  0  0  0  0
   -0.0235    2.9123   -0.0023 C   0  0  0  0  0  0  0  0  0  0  0  0
   -0.7464    3.1965   -0.6270 H   0  0  0  0  0  0  0  0  0  0  0  0
    0.8613    3.2232   -0.3404 H   0  0  0  0  0  0  0  0  0  0  0  0
   -0.2035    3.3862    0.9626 H   0  0  0  0  0  0  0  0  0  0  0  0
    0.0013    1.3942    0.0002 C   0  0  0  0  0  0  0  0  0  0  0  0
   -1.1929    0.6899    0.0026 C   0  0  0  0  0  0  0  0  0  0  0  0
   -2.0592    1.1827    0.0048 H   0  0  0  0  0  0  0  0  0  0  0  0
   -1.1959   -0.6932    0.0000 C   0  0  0  0  0  0  0  0  0  0  0  0
   -2.0764   -1.1886   -0.0037 H   0  0  0  0  0  0  0  0  0  0  0  0
   -0.0018   -1.3902    0.0041 C   0  0  0  0  0  0  0  0  0  0  0  0
   -0.0039   -2.3879    0.0098 H   0  0  0  0  0  0  0  0  0  0  0  0
    1.1959   -0.6921    0.0000 C   0  0  0  0  0  0  0  0  0  0  0  0
    2.0786   -1.1935    0.0035 H   0  0  0  0  0  0  0  0  0  0  0  0
    1.1933    0.6915   -0.0069 C   0  0  0  0  0  0  0  0  0  0  0  0
    2.0619    1.1887   -0.0179 H   0  0  0  0  0  0  0  0  0  0  0  0
  1  5  1  0
  5  6  1  0
  5  7  2  0
  1  2  1  0
  1  3  1  0
  1  4  1  0
  8 12  1  0
 12 13  2  0
 13 15  1  0
 15 17  2  0
 17 19  1  0
 19 21  2  0
 21 12  1  0
  8  9  1  0
  8 10  1  0
  8 11  1  0
 13 14  1  0
 15 16  1  0
 17 18  1  0
 19 20  1  0
 21 22  1  0
M  CHG  1   6  -1
M  END
>  <PDB_ID>  (24) 
pdb2eyu

>  <RESIDUE_NAME>  (24) 
ASP   PHE

>  <FRAG_NAME>  (24) 
ACET   MBZ

>  <FRAG_ATOM_NUM>  (24) 
fragi: 7  fragj: 15

>  <atom.prop.CHAIN_ID>  (24) 
A A A A A A A Z Z Z Z Z Z Z Z Z Z Z Z Z Z Z

>  <atom.prop.IS_HEAVY_ATOM>  (24) 
1 0 0 0 1 1 1 1 0 0 0 1 1 0 1 0 1 0 1 0 1 0

>  <DIFUSE_FUNC_ATOM>  (24) 
atom 6   atom 7   

>  <FINAL_SINGLE_POINT_ENERGY>  (24) 
0

>  <NONCOV_INTER_ENERGY_QM>  (24) 
0

>  <FF_Energy>  (24) 
24.3

>  <QM_Energy>  (24) 
-4.32

>  <source>  (24) 
ACET_MBZ_00

>  <Index>  (24) 
9497

$$$$
ACET-pdb2fd6-A-GLU-52:MBZ-pdb2fd6-A-PHE-57
     RDKit          3D

 22 21  0  0  0  0  0  0  0  0999 V2000
   -4.1524    5.2790   -0.9322 C   0  0  0  0  0  0  0  0  0  0  0  0
   -3.8112    5.6595   -1.7659 H   0  0  0  0  0  0  0  0  0  0  0  0
   -4.0870    5.8936   -0.1741 H   0  0  0  0  0  0  0  0  0  0  0  0
   -5.1983    5.0075   -1.0748 H   0  0  0  0  0  0  0  0  0  0  0  0
   -3.3201    4.0637   -0.6082 C   0  0  0  0  0  0  0  0  0  0  0  0
   -3.5594    3.4451    0.4518 O   0  0  0  0  0  1  0  0  0  0  0  0
   -2.4377    3.7172   -1.4184 O   0  0  0  0  0  0  0  0  0  0  0  0
    0.0009    2.9108    0.0191 C   0  0  0  0  0  0  0  0  0  0  0  0
   -0.7486    3.2246   -0.5435 H   0  0  0  0  0  0  0  0  0  0  0  0
    0.8713    3.2207   -0.3325 H   0  0  0  0  0  0  0  0  0  0  0  0
   -0.1274    3.3395    1.0129 H   0  0  0  0  0  0  0  0  0  0  0  0
   -0.0001    1.4047   -0.0000 C   0  0  0  0  0  0  0  0  0  0  0  0
   -1.1988    0.6957    0.0007 C   0  0  0  0  0  0  0  0  0  0  0  0
   -2.0646    1.1844    0.0002 H   0  0  0  0  0  0  0  0  0  0  0  0
   -1.2037   -0.6990    0.0000 C   0  0  0  0  0  0  0  0  0  0  0  0
   -2.0788   -1.1920    0.0013 H   0  0  0  0  0  0  0  0  0  0  0  0
    0.0021   -1.3971   -0.0011 C   0  0  0  0  0  0  0  0  0  0  0  0
   -0.0024   -2.3944   -0.0037 H   0  0  0  0  0  0  0  0  0  0  0  0
    1.2037   -0.6986    0.0000 C   0  0  0  0  0  0  0  0  0  0  0  0
    2.0855   -1.1943    0.0020 H   0  0  0  0  0  0  0  0  0  0  0  0
    1.1968    0.6942    0.0004 C   0  0  0  0  0  0  0  0  0  0  0  0
    2.0652    1.1911    0.0000 H   0  0  0  0  0  0  0  0  0  0  0  0
  1  5  1  0
  5  6  1  0
  5  7  2  0
  1  2  1  0
  1  3  1  0
  1  4  1  0
  8 12  1  0
 12 13  2  0
 13 15  1  0
 15 17  2  0
 17 19  1  0
 19 21  2  0
 21 12  1  0
  8  9  1  0
  8 10  1  0
  8 11  1  0
 13 14  1  0
 15 16  1  0
 17 18  1  0
 19 20  1  0
 21 22  1  0
M  CHG  1   6  -1
M  END
>  <PDB_ID>  (25) 
pdb2fd6

>  <RESIDUE_NAME>  (25) 
GLU   PHE

>  <FRAG_NAME>  (25) 
ACET   MBZ

>  <FRAG_ATOM_NUM>  (25) 
fragi: 7  fragj: 15

>  <atom.prop.CHAIN_ID>  (25) 
A A A A A A A Z Z Z Z Z Z Z Z Z Z Z Z Z Z Z

>  <atom.prop.IS_HEAVY_ATOM>  (25) 
1 0 0 0 1 1 1 1 0 0 0 1 1 0 1 0 1 0 1 0 1 0

>  <DIFUSE_FUNC_ATOM>  (25) 
atom 6   atom 7   

>  <FINAL_SINGLE_POINT_ENERGY>  (25) 
0

>  <NONCOV_INTER_ENERGY_QM>  (25) 
0

>  <FF_Energy>  (25) 
6.79

>  <QM_Energy>  (25) 
-8.29

>  <source>  (25) 
ACET_MBZ_00

>  <Index>  (25) 
10329

$$$$
ACET-pdb1ex6-B-GLU-244:MBZ-pdb1ex6-B-PHE-252
     RDKit          3D

 22 21  0  0  0  0  0  0  0  0999 V2000
   -0.2263   -5.3628   -1.8867 C   0  0  0  0  0  0  0  0  0  0  0  0
   -0.7514   -6.1858   -1.7600 H   0  0  0  0  0  0  0  0  0  0  0  0
    0.5161   -5.4932   -2.5204 H   0  0  0  0  0  0  0  0  0  0  0  0
   -0.8875   -4.5945   -2.2874 H   0  0  0  0  0  0  0  0  0  0  0  0
    0.3745   -4.9920   -0.5473 C   0  0  0  0  0  0  0  0  0  0  0  0
   -0.2988   -4.3484    0.2818 O   0  0  0  0  0  1  0  0  0  0  0  0
    1.5467   -5.3489   -0.3091 O   0  0  0  0  0  0  0  0  0  0  0  0
    0.0120    2.9217    0.0185 C   0  0  0  0  0  0  0  0  0  0  0  0
   -0.7757    3.2233   -0.4673 H   0  0  0  0  0  0  0  0  0  0  0  0
    0.8546    3.2166   -0.3696 H   0  0  0  0  0  0  0  0  0  0  0  0
   -0.0471    3.2979    1.0398 H   0  0  0  0  0  0  0  0  0  0  0  0
    0.0066    1.3927    0.0039 C   0  0  0  0  0  0  0  0  0  0  0  0
   -1.1917    0.6993   -0.0011 C   0  0  0  0  0  0  0  0  0  0  0  0
   -2.0544    1.1975   -0.0070 H   0  0  0  0  0  0  0  0  0  0  0  0
   -1.2012   -0.6805   -0.0000 C   0  0  0  0  0  0  0  0  0  0  0  0
   -2.0817   -1.1743    0.0046 H   0  0  0  0  0  0  0  0  0  0  0  0
   -0.0076   -1.3828   -0.0035 C   0  0  0  0  0  0  0  0  0  0  0  0
   -0.0228   -2.3858   -0.0086 H   0  0  0  0  0  0  0  0  0  0  0  0
    1.2012   -0.7073    0.0000 C   0  0  0  0  0  0  0  0  0  0  0  0
    2.0739   -1.2083    0.0035 H   0  0  0  0  0  0  0  0  0  0  0  0
    1.1927    0.6786    0.0007 C   0  0  0  0  0  0  0  0  0  0  0  0
    2.0668    1.1755   -0.0021 H   0  0  0  0  0  0  0  0  0  0  0  0
  1  5  1  0
  5  6  1  0
  5  7  2  0
  1  2  1  0
  1  3  1  0
  1  4  1  0
  8 12  1  0
 12 13  2  0
 13 15  1  0
 15 17  2  0
 17 19  1  0
 19 21  2  0
 21 12  1  0
  8  9  1  0
  8 10  1  0
  8 11  1  0
 13 14  1  0
 15 16  1  0
 17 18  1  0
 19 20  1  0
 21 22  1  0
M  CHG  1   6  -1
M  END
>  <PDB_ID>  (26) 
pdb1ex6

>  <RESIDUE_NAME>  (26) 
GLU   PHE

>  <FRAG_NAME>  (26) 
ACET   MBZ

>  <FRAG_ATOM_NUM>  (26) 
fragi: 7  fragj: 15

>  <atom.prop.CHAIN_ID>  (26) 
A A A A A A A Z Z Z Z Z Z Z Z Z Z Z Z Z Z Z

>  <atom.prop.IS_HEAVY_ATOM>  (26) 
1 0 0 0 1 1 1 1 0 0 0 1 1 0 1 0 1 0 1 0 1 0

>  <DIFUSE_FUNC_ATOM>  (26) 
atom 6   atom 7   

>  <FINAL_SINGLE_POINT_ENERGY>  (26) 
0

>  <NONCOV_INTER_ENERGY_QM>  (26) 
0

>  <FF_Energy>  (26) 
4.71

>  <QM_Energy>  (26) 
-5.52

>  <source>  (26) 
ACET_MBZ_00

>  <Index>  (26) 
11128

$$$$
ACET-pdb2g18-K-ASP-95:MBZ-pdb2g18-G-PHE-0
     RDKit          3D

 22 21  0  0  0  0  0  0  0  0999 V2000
    5.8218    0.7053    0.9674 C   0  0  0  0  0  0  0  0  0  0  0  0
    6.0729    1.5384    1.4514 H   0  0  0  0  0  0  0  0  0  0  0  0
    5.6096    0.9096    0.0175 H   0  0  0  0  0  0  0  0  0  0  0  0
    6.6788    0.0319    0.9855 H   0  0  0  0  0  0  0  0  0  0  0  0
    4.6187    0.1047    1.6201 C   0  0  0  0  0  0  0  0  0  0  0  0
    4.7973   -0.7199    2.5199 O   0  0  0  0  0  1  0  0  0  0  0  0
    3.4617    0.3891    1.2843 O   0  0  0  0  0  0  0  0  0  0  0  0
    0.0049    2.8973    0.0207 C   0  0  0  0  0  0  0  0  0  0  0  0
   -0.8411    3.2185   -0.3761 H   0  0  0  0  0  0  0  0  0  0  0  0
    0.7875    3.2170   -0.4921 H   0  0  0  0  0  0  0  0  0  0  0  0
    0.0767    3.3119    1.0262 H   0  0  0  0  0  0  0  0  0  0  0  0
    0.0016    1.4085   -0.0054 C   0  0  0  0  0  0  0  0  0  0  0  0
   -1.1932    0.7050   -0.0047 C   0  0  0  0  0  0  0  0  0  0  0  0
   -2.0614    1.1931   -0.0088 H   0  0  0  0  0  0  0  0  0  0  0  0
   -1.2008   -0.6911    0.0000 C   0  0  0  0  0  0  0  0  0  0  0  0
   -2.0839   -1.1782    0.0002 H   0  0  0  0  0  0  0  0  0  0  0  0
   -0.0079   -1.3979    0.0063 C   0  0  0  0  0  0  0  0  0  0  0  0
   -0.0250   -2.3991    0.0153 H   0  0  0  0  0  0  0  0  0  0  0  0
    1.2008   -0.7207    0.0000 C   0  0  0  0  0  0  0  0  0  0  0  0
    2.0773   -1.2097   -0.0058 H   0  0  0  0  0  0  0  0  0  0  0  0
    1.1995    0.6962    0.0038 C   0  0  0  0  0  0  0  0  0  0  0  0
    2.0699    1.1793    0.0122 H   0  0  0  0  0  0  0  0  0  0  0  0
  1  5  1  0
  5  6  1  0
  5  7  2  0
  1  2  1  0
  1  3  1  0
  1  4  1  0
  8 12  1  0
 12 13  2  0
 13 15  1  0
 15 17  2  0
 17 19  1  0
 19 21  2  0
 21 12  1  0
  8  9  1  0
  8 10  1  0
  8 11  1  0
 13 14  1  0
 15 16  1  0
 17 18  1  0
 19 20  1  0
 21 22  1  0
M  CHG  1   6  -1
M  END
>  <PDB_ID>  (27) 
pdb2g18

>  <RESIDUE_NAME>  (27) 
ASP   PHE

>  <FRAG_NAME>  (27) 
ACET   MBZ

>  <FRAG_ATOM_NUM>  (27) 
fragi: 7  fragj: 15

>  <atom.prop.CHAIN_ID>  (27) 
A A A A A A A Z Z Z Z Z Z Z Z Z Z Z Z Z Z Z

>  <atom.prop.IS_HEAVY_ATOM>  (27) 
1 0 0 0 1 1 1 1 0 0 0 1 1 0 1 0 1 0 1 0 1 0

>  <DIFUSE_FUNC_ATOM>  (27) 
atom 6   atom 7   

>  <FINAL_SINGLE_POINT_ENERGY>  (27) 
0

>  <NONCOV_INTER_ENERGY_QM>  (27) 
0

>  <FF_Energy>  (27) 
10.1

>  <QM_Energy>  (27) 
-2.63

>  <source>  (27) 
ACET_MBZ_00

>  <Index>  (27) 
11737

$$$$
ACET-pdb2g47-B-GLU-903:MBZ-pdb2g47-B-PHE-567
     RDKit          3D

 22 21  0  0  0  0  0  0  0  0999 V2000
   -3.3169   -4.6829    0.1354 C   0  0  0  0  0  0  0  0  0  0  0  0
   -4.1640   -5.0231   -0.2390 H   0  0  0  0  0  0  0  0  0  0  0  0
   -2.8580   -5.3675    0.6780 H   0  0  0  0  0  0  0  0  0  0  0  0
   -2.6640   -4.3981   -0.6895 H   0  0  0  0  0  0  0  0  0  0  0  0
   -3.6611   -3.5294    1.0602 C   0  0  0  0  0  0  0  0  0  0  0  0
   -4.1842   -3.7883    2.1570 O   0  0  0  0  0  1  0  0  0  0  0  0
   -3.4260   -2.3643    0.6994 O   0  0  0  0  0  0  0  0  0  0  0  0
   -0.0040    2.9045    0.0219 C   0  0  0  0  0  0  0  0  0  0  0  0
   -0.8951    3.2130   -0.2747 H   0  0  0  0  0  0  0  0  0  0  0  0
    0.7093    3.2263   -0.5818 H   0  0  0  0  0  0  0  0  0  0  0  0
    0.1821    3.3253    1.0101 H   0  0  0  0  0  0  0  0  0  0  0  0
    0.0040    1.4096    0.0007 C   0  0  0  0  0  0  0  0  0  0  0  0
   -1.1939    0.6986    0.0014 C   0  0  0  0  0  0  0  0  0  0  0  0
   -2.0612    1.1915    0.0022 H   0  0  0  0  0  0  0  0  0  0  0  0
   -1.2058   -0.6953    0.0000 C   0  0  0  0  0  0  0  0  0  0  0  0
   -2.0939   -1.1787    0.0024 H   0  0  0  0  0  0  0  0  0  0  0  0
   -0.0209   -1.4082   -0.0030 C   0  0  0  0  0  0  0  0  0  0  0  0
   -0.0222   -2.3998   -0.0080 H   0  0  0  0  0  0  0  0  0  0  0  0
    1.2058   -0.7079   -0.0000 C   0  0  0  0  0  0  0  0  0  0  0  0
    2.0767   -1.2095    0.0033 H   0  0  0  0  0  0  0  0  0  0  0  0
    1.2107    0.7032    0.0009 C   0  0  0  0  0  0  0  0  0  0  0  0
    2.0747    1.1891    0.0006 H   0  0  0  0  0  0  0  0  0  0  0  0
  1  5  1  0
  5  6  1  0
  5  7  2  0
  1  2  1  0
  1  3  1  0
  1  4  1  0
  8 12  1  0
 12 13  2  0
 13 15  1  0
 15 17  2  0
 17 19  1  0
 19 21  2  0
 21 12  1  0
  8  9  1  0
  8 10  1  0
  8 11  1  0
 13 14  1  0
 15 16  1  0
 17 18  1  0
 19 20  1  0
 21 22  1  0
M  CHG  1   6  -1
M  END
>  <PDB_ID>  (28) 
pdb2g47

>  <RESIDUE_NAME>  (28) 
GLU   PHE

>  <FRAG_NAME>  (28) 
ACET   MBZ

>  <FRAG_ATOM_NUM>  (28) 
fragi: 7  fragj: 15

>  <atom.prop.CHAIN_ID>  (28) 
A A A A A A A Z Z Z Z Z Z Z Z Z Z Z Z Z Z Z

>  <atom.prop.IS_HEAVY_ATOM>  (28) 
1 0 0 0 1 1 1 1 0 0 0 1 1 0 1 0 1 0 1 0 1 0

>  <DIFUSE_FUNC_ATOM>  (28) 
atom 6   atom 7   

>  <FINAL_SINGLE_POINT_ENERGY>  (28) 
0

>  <NONCOV_INTER_ENERGY_QM>  (28) 
0

>  <FF_Energy>  (28) 
11.73

>  <QM_Energy>  (28) 
-4.94

>  <source>  (28) 
ACET_MBZ_00

>  <Index>  (28) 
11874

$$$$
ACET-pdb2gcg-A-GLU-32:MBZ-pdb2gcg-A-PHE-10
     RDKit          3D

 22 21  0  0  0  0  0  0  0  0999 V2000
    4.3778    0.8785   -0.3124 C   0  0  0  0  0  0  0  0  0  0  0  0
    3.6182    1.3899    0.0554 H   0  0  0  0  0  0  0  0  0  0  0  0
    4.0741    0.1812   -0.9412 H   0  0  0  0  0  0  0  0  0  0  0  0
    5.0219    1.5702   -0.8554 H   0  0  0  0  0  0  0  0  0  0  0  0
    5.0641    0.1801    0.8470 C   0  0  0  0  0  0  0  0  0  0  0  0
    5.7094    0.8789    1.6565 O   0  0  0  0  0  1  0  0  0  0  0  0
    4.9457   -1.0831    0.9404 O   0  0  0  0  0  0  0  0  0  0  0  0
    0.0177    2.9407   -0.0009 C   0  0  0  0  0  0  0  0  0  0  0  0
    0.6457    3.2317    0.7012 H   0  0  0  0  0  0  0  0  0  0  0  0
   -0.9018    3.2478    0.1791 H   0  0  0  0  0  0  0  0  0  0  0  0
    0.3404    3.3817   -0.9441 H   0  0  0  0  0  0  0  0  0  0  0  0
    0.0026    1.4139   -0.0031 C   0  0  0  0  0  0  0  0  0  0  0  0
   -1.1991    0.7044    0.0066 C   0  0  0  0  0  0  0  0  0  0  0  0
   -2.0639    1.1934    0.0165 H   0  0  0  0  0  0  0  0  0  0  0  0
   -1.2043   -0.6924   -0.0000 C   0  0  0  0  0  0  0  0  0  0  0  0
   -2.0827   -1.1839   -0.0065 H   0  0  0  0  0  0  0  0  0  0  0  0
   -0.0004   -1.4065    0.0040 C   0  0  0  0  0  0  0  0  0  0  0  0
   -0.0125   -2.3989    0.0094 H   0  0  0  0  0  0  0  0  0  0  0  0
    1.2043   -0.7078    0.0000 C   0  0  0  0  0  0  0  0  0  0  0  0
    2.0839   -1.2029    0.0038 H   0  0  0  0  0  0  0  0  0  0  0  0
    1.1969    0.6885   -0.0075 C   0  0  0  0  0  0  0  0  0  0  0  0
    2.0699    1.1830   -0.0165 H   0  0  0  0  0  0  0  0  0  0  0  0
  1  5  1  0
  5  6  1  0
  5  7  2  0
  1  2  1  0
  1  3  1  0
  1  4  1  0
  8 12  1  0
 12 13  2  0
 13 15  1  0
 15 17  2  0
 17 19  1  0
 19 21  2  0
 21 12  1  0
  8  9  1  0
  8 10  1  0
  8 11  1  0
 13 14  1  0
 15 16  1  0
 17 18  1  0
 19 20  1  0
 21 22  1  0
M  CHG  1   6  -1
M  END
>  <PDB_ID>  (29) 
pdb2gcg

>  <RESIDUE_NAME>  (29) 
GLU   PHE

>  <FRAG_NAME>  (29) 
ACET   MBZ

>  <FRAG_ATOM_NUM>  (29) 
fragi: 7  fragj: 15

>  <atom.prop.CHAIN_ID>  (29) 
A A A A A A A Z Z Z Z Z Z Z Z Z Z Z Z Z Z Z

>  <atom.prop.IS_HEAVY_ATOM>  (29) 
1 0 0 0 1 1 1 1 0 0 0 1 1 0 1 0 1 0 1 0 1 0

>  <DIFUSE_FUNC_ATOM>  (29) 
atom 6   atom 7   

>  <FINAL_SINGLE_POINT_ENERGY>  (29) 
0

>  <NONCOV_INTER_ENERGY_QM>  (29) 
0

>  <FF_Energy>  (29) 
19.45

>  <QM_Energy>  (29) 
-0.17

>  <source>  (29) 
ACET_MBZ_00

>  <Index>  (29) 
12337

$$$$
ACET-pdb2gcl-A-GLU-374:MBZ-pdb2gcl-A-PHE-464
     RDKit          3D

 22 21  0  0  0  0  0  0  0  0999 V2000
    4.3212   -1.6070    0.6140 C   0  0  0  0  0  0  0  0  0  0  0  0
    4.1805   -2.3790    0.0225 H   0  0  0  0  0  0  0  0  0  0  0  0
    3.4754   -1.2311    0.9450 H   0  0  0  0  0  0  0  0  0  0  0  0
    4.9116   -1.9337    1.4699 H   0  0  0  0  0  0  0  0  0  0  0  0
    5.0092   -0.5183   -0.2149 C   0  0  0  0  0  0  0  0  0  0  0  0
    5.4662   -0.8093   -1.3445 O   0  0  0  0  0  1  0  0  0  0  0  0
    5.1013    0.6379    0.2609 O   0  0  0  0  0  0  0  0  0  0  0  0
    0.0014    2.9281   -0.0240 C   0  0  0  0  0  0  0  0  0  0  0  0
    0.6726    3.2348    0.6293 H   0  0  0  0  0  0  0  0  0  0  0  0
   -0.9066    3.2317    0.2132 H   0  0  0  0  0  0  0  0  0  0  0  0
    0.2567    3.3481   -0.9969 H   0  0  0  0  0  0  0  0  0  0  0  0
   -0.0017    1.4074    0.0003 C   0  0  0  0  0  0  0  0  0  0  0  0
   -1.2063    0.6990   -0.0035 C   0  0  0  0  0  0  0  0  0  0  0  0
   -2.0698    1.1805   -0.0103 H   0  0  0  0  0  0  0  0  0  0  0  0
   -1.2036   -0.7085    0.0000 C   0  0  0  0  0  0  0  0  0  0  0  0
   -2.0702   -1.2038   -0.0018 H   0  0  0  0  0  0  0  0  0  0  0  0
    0.0164   -1.3946    0.0082 C   0  0  0  0  0  0  0  0  0  0  0  0
    0.0128   -2.3948    0.0194 H   0  0  0  0  0  0  0  0  0  0  0  0
    1.2036   -0.6942    0.0000 C   0  0  0  0  0  0  0  0  0  0  0  0
    2.0920   -1.1854   -0.0007 H   0  0  0  0  0  0  0  0  0  0  0  0
    1.1915    0.6910   -0.0050 C   0  0  0  0  0  0  0  0  0  0  0  0
    2.0627    1.1922   -0.0136 H   0  0  0  0  0  0  0  0  0  0  0  0
  1  5  1  0
  5  6  1  0
  5  7  2  0
  1  2  1  0
  1  3  1  0
  1  4  1  0
  8 12  1  0
 12 13  2  0
 13 15  1  0
 15 17  2  0
 17 19  1  0
 19 21  2  0
 21 12  1  0
  8  9  1  0
  8 10  1  0
  8 11  1  0
 13 14  1  0
 15 16  1  0
 17 18  1  0
 19 20  1  0
 21 22  1  0
M  CHG  1   6  -1
M  END
>  <PDB_ID>  (30) 
pdb2gcl

>  <RESIDUE_NAME>  (30) 
GLU   PHE

>  <FRAG_NAME>  (30) 
ACET   MBZ

>  <FRAG_ATOM_NUM>  (30) 
fragi: 7  fragj: 15

>  <atom.prop.CHAIN_ID>  (30) 
A A A A A A A Z Z Z Z Z Z Z Z Z Z Z Z Z Z Z

>  <atom.prop.IS_HEAVY_ATOM>  (30) 
1 0 0 0 1 1 1 1 0 0 0 1 1 0 1 0 1 0 1 0 1 0

>  <DIFUSE_FUNC_ATOM>  (30) 
atom 6   atom 7   

>  <FINAL_SINGLE_POINT_ENERGY>  (30) 
0

>  <NONCOV_INTER_ENERGY_QM>  (30) 
0

>  <FF_Energy>  (30) 
8.83

>  <QM_Energy>  (30) 
-1.56

>  <source>  (30) 
ACET_MBZ_00

>  <Index>  (30) 
12338

$$$$
ACET-pdb2gmh-A-GLU-449:MBZ-pdb2gmh-A-PHE-441
     RDKit          3D

 22 21  0  0  0  0  0  0  0  0999 V2000
    2.8873    2.9528   -3.1186 C   0  0  0  0  0  0  0  0  0  0  0  0
    3.2177    3.2127   -2.2120 H   0  0  0  0  0  0  0  0  0  0  0  0
    3.3619    3.4896   -3.8142 H   0  0  0  0  0  0  0  0  0  0  0  0
    3.1679    1.9109   -3.2724 H   0  0  0  0  0  0  0  0  0  0  0  0
    1.4540    3.2380   -3.1990 C   0  0  0  0  0  0  0  0  0  0  0  0
    0.8308    2.8713   -4.2011 O   0  0  0  0  0  1  0  0  0  0  0  0
    0.9533    3.8575   -2.2582 O   0  0  0  0  0  0  0  0  0  0  0  0
   -0.0002    2.8828    0.0204 C   0  0  0  0  0  0  0  0  0  0  0  0
   -0.9145    3.1926   -0.1847 H   0  0  0  0  0  0  0  0  0  0  0  0
    0.6497    3.2010   -0.6507 H   0  0  0  0  0  0  0  0  0  0  0  0
    0.2857    3.2937    0.9886 H   0  0  0  0  0  0  0  0  0  0  0  0
    0.0022    1.3921   -0.0002 C   0  0  0  0  0  0  0  0  0  0  0  0
   -1.2085    0.6871   -0.0007 C   0  0  0  0  0  0  0  0  0  0  0  0
   -2.0659    1.1846   -0.0032 H   0  0  0  0  0  0  0  0  0  0  0  0
   -1.2098   -0.6955   -0.0000 C   0  0  0  0  0  0  0  0  0  0  0  0
   -2.0794   -1.1985   -0.0000 H   0  0  0  0  0  0  0  0  0  0  0  0
    0.0025   -1.3876    0.0020 C   0  0  0  0  0  0  0  0  0  0  0  0
    0.0008   -2.3875    0.0046 H   0  0  0  0  0  0  0  0  0  0  0  0
    1.2098   -0.6890   -0.0000 C   0  0  0  0  0  0  0  0  0  0  0  0
    2.0876   -1.1931    0.0007 H   0  0  0  0  0  0  0  0  0  0  0  0
    1.2038    0.6929   -0.0010 C   0  0  0  0  0  0  0  0  0  0  0  0
    2.0666    1.1959   -0.0031 H   0  0  0  0  0  0  0  0  0  0  0  0
  1  5  1  0
  5  6  1  0
  5  7  2  0
  1  2  1  0
  1  3  1  0
  1  4  1  0
  8 12  1  0
 12 13  2  0
 13 15  1  0
 15 17  2  0
 17 19  1  0
 19 21  2  0
 21 12  1  0
  8  9  1  0
  8 10  1  0
  8 11  1  0
 13 14  1  0
 15 16  1  0
 17 18  1  0
 19 20  1  0
 21 22  1  0
M  CHG  1   6  -1
M  END
>  <PDB_ID>  (31) 
pdb2gmh

>  <RESIDUE_NAME>  (31) 
GLU   PHE

>  <FRAG_NAME>  (31) 
ACET   MBZ

>  <FRAG_ATOM_NUM>  (31) 
fragi: 7  fragj: 15

>  <atom.prop.CHAIN_ID>  (31) 
A A A A A A A Z Z Z Z Z Z Z Z Z Z Z Z Z Z Z

>  <atom.prop.IS_HEAVY_ATOM>  (31) 
1 0 0 0 1 1 1 1 0 0 0 1 1 0 1 0 1 0 1 0 1 0

>  <DIFUSE_FUNC_ATOM>  (31) 
atom 6   atom 7   

>  <FINAL_SINGLE_POINT_ENERGY>  (31) 
0

>  <NONCOV_INTER_ENERGY_QM>  (31) 
0

>  <FF_Energy>  (31) 
38.16

>  <QM_Energy>  (31) 
-0.29

>  <source>  (31) 
ACET_MBZ_00

>  <Index>  (31) 
12899

$$$$
ACET-pdb2hpg-B-GLU-216:MBZ-pdb2hpg-B-PHE-240
     RDKit          3D

 22 21  0  0  0  0  0  0  0  0999 V2000
    5.4801   -0.6152   -1.1996 C   0  0  0  0  0  0  0  0  0  0  0  0
    5.2928    0.0729   -1.8930 H   0  0  0  0  0  0  0  0  0  0  0  0
    5.0933   -1.4916   -1.4700 H   0  0  0  0  0  0  0  0  0  0  0  0
    6.5503   -0.6990   -1.0103 H   0  0  0  0  0  0  0  0  0  0  0  0
    4.7479   -0.1928    0.0184 C   0  0  0  0  0  0  0  0  0  0  0  0
    4.8697   -0.8376    1.1051 O   0  0  0  0  0  1  0  0  0  0  0  0
    4.0265    0.7908   -0.1638 O   0  0  0  0  0  0  0  0  0  0  0  0
    0.0430    2.9112    0.0348 C   0  0  0  0  0  0  0  0  0  0  0  0
    0.9909    3.1960   -0.0356 H   0  0  0  0  0  0  0  0  0  0  0  0
   -0.3496    3.2051    0.8975 H   0  0  0  0  0  0  0  0  0  0  0  0
   -0.5051    3.4220   -0.7569 H   0  0  0  0  0  0  0  0  0  0  0  0
    0.0015    1.3989   -0.0105 C   0  0  0  0  0  0  0  0  0  0  0  0
   -1.1855    0.6989    0.0139 C   0  0  0  0  0  0  0  0  0  0  0  0
   -2.0542    1.1923    0.0403 H   0  0  0  0  0  0  0  0  0  0  0  0
   -1.1888   -0.6765   -0.0000 C   0  0  0  0  0  0  0  0  0  0  0  0
   -2.0756   -1.1719   -0.0013 H   0  0  0  0  0  0  0  0  0  0  0  0
   -0.0047   -1.3847   -0.0106 C   0  0  0  0  0  0  0  0  0  0  0  0
   -0.0253   -2.3866   -0.0266 H   0  0  0  0  0  0  0  0  0  0  0  0
    1.1888   -0.7102   -0.0000 C   0  0  0  0  0  0  0  0  0  0  0  0
    2.0696   -1.2107    0.0041 H   0  0  0  0  0  0  0  0  0  0  0  0
    1.1888    0.6737    0.0073 C   0  0  0  0  0  0  0  0  0  0  0  0
    2.0640    1.1681    0.0249 H   0  0  0  0  0  0  0  0  0  0  0  0
  1  5  1  0
  5  6  1  0
  5  7  2  0
  1  2  1  0
  1  3  1  0
  1  4  1  0
  8 12  1  0
 12 13  2  0
 13 15  1  0
 15 17  2  0
 17 19  1  0
 19 21  2  0
 21 12  1  0
  8  9  1  0
  8 10  1  0
  8 11  1  0
 13 14  1  0
 15 16  1  0
 17 18  1  0
 19 20  1  0
 21 22  1  0
M  CHG  1   6  -1
M  END
>  <PDB_ID>  (32) 
pdb2hpg

>  <RESIDUE_NAME>  (32) 
GLU   PHE

>  <FRAG_NAME>  (32) 
ACET   MBZ

>  <FRAG_ATOM_NUM>  (32) 
fragi: 7  fragj: 15

>  <atom.prop.CHAIN_ID>  (32) 
A A A A A A A Z Z Z Z Z Z Z Z Z Z Z Z Z Z Z

>  <atom.prop.IS_HEAVY_ATOM>  (32) 
1 0 0 0 1 1 1 1 0 0 0 1 1 0 1 0 1 0 1 0 1 0

>  <DIFUSE_FUNC_ATOM>  (32) 
atom 6   atom 7   

>  <FINAL_SINGLE_POINT_ENERGY>  (32) 
0

>  <NONCOV_INTER_ENERGY_QM>  (32) 
0

>  <FF_Energy>  (32) 
5.25

>  <QM_Energy>  (32) 
-6.19

>  <source>  (32) 
ACET_MBZ_00

>  <Index>  (32) 
15018

$$$$
ACET-pdb1h70-A-GLU-171:MBZ-pdb1h70-A-PHE-0
     RDKit          3D

 22 21  0  0  0  0  0  0  0  0999 V2000
    4.3167   -2.5704    0.7898 C   0  0  0  0  0  0  0  0  0  0  0  0
    4.1234   -3.4353    1.2239 H   0  0  0  0  0  0  0  0  0  0  0  0
    3.9566   -1.8135    1.3098 H   0  0  0  0  0  0  0  0  0  0  0  0
    5.3992   -2.4569    0.7308 H   0  0  0  0  0  0  0  0  0  0  0  0
    3.6179   -2.5702   -0.5631 C   0  0  0  0  0  0  0  0  0  0  0  0
    3.8272   -1.6224   -1.3611 O   0  0  0  0  0  1  0  0  0  0  0  0
    2.8212   -3.4928   -0.8146 O   0  0  0  0  0  0  0  0  0  0  0  0
   -0.0223    2.9077   -0.0924 C   0  0  0  0  0  0  0  0  0  0  0  0
   -0.9855    3.1813   -0.2898 H   0  0  0  0  0  0  0  0  0  0  0  0
    0.5222    3.1688   -0.9152 H   0  0  0  0  0  0  0  0  0  0  0  0
    0.3253    3.5291    0.7329 H   0  0  0  0  0  0  0  0  0  0  0  0
    0.0009    1.4000   -0.0058 C   0  0  0  0  0  0  0  0  0  0  0  0
   -1.1899    0.6863   -0.0002 C   0  0  0  0  0  0  0  0  0  0  0  0
   -2.0597    1.1778    0.0030 H   0  0  0  0  0  0  0  0  0  0  0  0
   -1.1930   -0.6967    0.0000 C   0  0  0  0  0  0  0  0  0  0  0  0
   -2.0723   -1.1918    0.0081 H   0  0  0  0  0  0  0  0  0  0  0  0
    0.0000   -1.3868   -0.0096 C   0  0  0  0  0  0  0  0  0  0  0  0
   -0.0019   -2.3887   -0.0236 H   0  0  0  0  0  0  0  0  0  0  0  0
    1.1930   -0.6930    0.0000 C   0  0  0  0  0  0  0  0  0  0  0  0
    2.0776   -1.1915   -0.0035 H   0  0  0  0  0  0  0  0  0  0  0  0
    1.1890    0.6902    0.0156 C   0  0  0  0  0  0  0  0  0  0  0  0
    2.0612    1.1869    0.0420 H   0  0  0  0  0  0  0  0  0  0  0  0
  1  5  1  0
  5  6  1  0
  5  7  2  0
  1  2  1  0
  1  3  1  0
  1  4  1  0
  8 12  1  0
 12 13  2  0
 13 15  1  0
 15 17  2  0
 17 19  1  0
 19 21  2  0
 21 12  1  0
  8  9  1  0
  8 10  1  0
  8 11  1  0
 13 14  1  0
 15 16  1  0
 17 18  1  0
 19 20  1  0
 21 22  1  0
M  CHG  1   6  -1
M  END
>  <PDB_ID>  (33) 
pdb1h70

>  <RESIDUE_NAME>  (33) 
GLU   PHE

>  <FRAG_NAME>  (33) 
ACET   MBZ

>  <FRAG_ATOM_NUM>  (33) 
fragi: 7  fragj: 15

>  <atom.prop.CHAIN_ID>  (33) 
A A A A A A A Z Z Z Z Z Z Z Z Z Z Z Z Z Z Z

>  <atom.prop.IS_HEAVY_ATOM>  (33) 
1 0 0 0 1 1 1 1 0 0 0 1 1 0 1 0 1 0 1 0 1 0

>  <DIFUSE_FUNC_ATOM>  (33) 
atom 6   atom 7   

>  <FINAL_SINGLE_POINT_ENERGY>  (33) 
0

>  <NONCOV_INTER_ENERGY_QM>  (33) 
0

>  <FF_Energy>  (33) 
8.77

>  <QM_Energy>  (33) 
-4.07

>  <source>  (33) 
ACET_MBZ_00

>  <Index>  (33) 
15779

$$$$
ACET-pdb2i15-C-ASP-449:MBZ-pdb2i15-C-PHE-453
     RDKit          3D

 22 21  0  0  0  0  0  0  0  0999 V2000
   -4.4260    1.6132    2.6526 C   0  0  0  0  0  0  0  0  0  0  0  0
   -3.5750    2.1058    2.5019 H   0  0  0  0  0  0  0  0  0  0  0  0
   -4.3445    1.0199    3.4461 H   0  0  0  0  0  0  0  0  0  0  0  0
   -5.1993    2.3502    2.8696 H   0  0  0  0  0  0  0  0  0  0  0  0
   -4.7377    0.7803    1.4409 C   0  0  0  0  0  0  0  0  0  0  0  0
   -5.8110    0.1329    1.4258 O   0  0  0  0  0  1  0  0  0  0  0  0
   -3.9163    0.7647    0.4979 O   0  0  0  0  0  0  0  0  0  0  0  0
   -0.0014    2.8944   -0.0308 C   0  0  0  0  0  0  0  0  0  0  0  0
    0.8080    3.2166    0.4351 H   0  0  0  0  0  0  0  0  0  0  0  0
   -0.8244    3.2118    0.4145 H   0  0  0  0  0  0  0  0  0  0  0  0
    0.0096    3.3072   -1.0395 H   0  0  0  0  0  0  0  0  0  0  0  0
    0.0028    1.4011    0.0001 C   0  0  0  0  0  0  0  0  0  0  0  0
   -1.1954    0.6905   -0.0003 C   0  0  0  0  0  0  0  0  0  0  0  0
   -2.0618    1.1853   -0.0025 H   0  0  0  0  0  0  0  0  0  0  0  0
   -1.2060   -0.6983    0.0000 C   0  0  0  0  0  0  0  0  0  0  0  0
   -2.0829   -1.1898    0.0005 H   0  0  0  0  0  0  0  0  0  0  0  0
   -0.0061   -1.3954    0.0005 C   0  0  0  0  0  0  0  0  0  0  0  0
   -0.0068   -2.3935    0.0005 H   0  0  0  0  0  0  0  0  0  0  0  0
    1.2060   -0.6969   -0.0000 C   0  0  0  0  0  0  0  0  0  0  0  0
    2.0819   -1.1950    0.0019 H   0  0  0  0  0  0  0  0  0  0  0  0
    1.1988    0.6990   -0.0003 C   0  0  0  0  0  0  0  0  0  0  0  0
    2.0664    1.1937   -0.0020 H   0  0  0  0  0  0  0  0  0  0  0  0
  1  5  1  0
  5  6  1  0
  5  7  2  0
  1  2  1  0
  1  3  1  0
  1  4  1  0
  8 12  1  0
 12 13  2  0
 13 15  1  0
 15 17  2  0
 17 19  1  0
 19 21  2  0
 21 12  1  0
  8  9  1  0
  8 10  1  0
  8 11  1  0
 13 14  1  0
 15 16  1  0
 17 18  1  0
 19 20  1  0
 21 22  1  0
M  CHG  1   6  -1
M  END
>  <PDB_ID>  (34) 
pdb2i15

>  <RESIDUE_NAME>  (34) 
ASP   PHE

>  <FRAG_NAME>  (34) 
ACET   MBZ

>  <FRAG_ATOM_NUM>  (34) 
fragi: 7  fragj: 15

>  <atom.prop.CHAIN_ID>  (34) 
A A A A A A A Z Z Z Z Z Z Z Z Z Z Z Z Z Z Z

>  <atom.prop.IS_HEAVY_ATOM>  (34) 
1 0 0 0 1 1 1 1 0 0 0 1 1 0 1 0 1 0 1 0 1 0

>  <DIFUSE_FUNC_ATOM>  (34) 
atom 6   atom 7   

>  <FINAL_SINGLE_POINT_ENERGY>  (34) 
0

>  <NONCOV_INTER_ENERGY_QM>  (34) 
0

>  <FF_Energy>  (34) 
8.6

>  <QM_Energy>  (34) 
-5.24

>  <source>  (34) 
ACET_MBZ_00

>  <Index>  (34) 
15792

$$$$
ACET-pdb1hia-Y-ASP-153:MBZ-pdb1hia-X-PHE-74
     RDKit          3D

 22 21  0  0  0  0  0  0  0  0999 V2000
    2.4812    2.6424   -3.5273 C   0  0  0  0  0  0  0  0  0  0  0  0
    3.2649    2.6874   -4.1443 H   0  0  0  0  0  0  0  0  0  0  0  0
    1.8075    3.3300   -3.7881 H   0  0  0  0  0  0  0  0  0  0  0  0
    2.0181    1.6644   -3.6589 H   0  0  0  0  0  0  0  0  0  0  0  0
    2.9459    2.9153   -2.1187 C   0  0  0  0  0  0  0  0  0  0  0  0
    3.2063    1.9651   -1.3589 O   0  0  0  0  0  1  0  0  0  0  0  0
    3.0983    4.1116   -1.7820 O   0  0  0  0  0  0  0  0  0  0  0  0
    0.0300    2.9584    0.0054 C   0  0  0  0  0  0  0  0  0  0  0  0
    0.7484    3.2397   -0.6102 H   0  0  0  0  0  0  0  0  0  0  0  0
    0.2111    3.2453    0.9322 H   0  0  0  0  0  0  0  0  0  0  0  0
   -0.8986    3.4273   -0.3201 H   0  0  0  0  0  0  0  0  0  0  0  0
   -0.0006    1.4236    0.0005 C   0  0  0  0  0  0  0  0  0  0  0  0
   -1.1976    0.7061    0.0010 C   0  0  0  0  0  0  0  0  0  0  0  0
   -2.0675    1.1825    0.0016 H   0  0  0  0  0  0  0  0  0  0  0  0
   -1.1991   -0.7109    0.0000 C   0  0  0  0  0  0  0  0  0  0  0  0
   -2.0761   -1.1949    0.0020 H   0  0  0  0  0  0  0  0  0  0  0  0
    0.0063   -1.4085   -0.0020 C   0  0  0  0  0  0  0  0  0  0  0  0
    0.0012   -2.4046   -0.0054 H   0  0  0  0  0  0  0  0  0  0  0  0
    1.1991   -0.7069    0.0000 C   0  0  0  0  0  0  0  0  0  0  0  0
    2.0862   -1.1938    0.0025 H   0  0  0  0  0  0  0  0  0  0  0  0
    1.1920    0.6966    0.0005 C   0  0  0  0  0  0  0  0  0  0  0  0
    2.0673    1.1869   -0.0000 H   0  0  0  0  0  0  0  0  0  0  0  0
  1  5  1  0
  5  6  1  0
  5  7  2  0
  1  2  1  0
  1  3  1  0
  1  4  1  0
  8 12  1  0
 12 13  2  0
 13 15  1  0
 15 17  2  0
 17 19  1  0
 19 21  2  0
 21 12  1  0
  8  9  1  0
  8 10  1  0
  8 11  1  0
 13 14  1  0
 15 16  1  0
 17 18  1  0
 19 20  1  0
 21 22  1  0
M  CHG  1   6  -1
M  END
>  <PDB_ID>  (35) 
pdb1hia

>  <RESIDUE_NAME>  (35) 
ASP   PHE

>  <FRAG_NAME>  (35) 
ACET   MBZ

>  <FRAG_ATOM_NUM>  (35) 
fragi: 7  fragj: 15

>  <atom.prop.CHAIN_ID>  (35) 
A A A A A A A Z Z Z Z Z Z Z Z Z Z Z Z Z Z Z

>  <atom.prop.IS_HEAVY_ATOM>  (35) 
1 0 0 0 1 1 1 1 0 0 0 1 1 0 1 0 1 0 1 0 1 0

>  <DIFUSE_FUNC_ATOM>  (35) 
atom 6   atom 7   

>  <FINAL_SINGLE_POINT_ENERGY>  (35) 
0

>  <NONCOV_INTER_ENERGY_QM>  (35) 
0

>  <FF_Energy>  (35) 
11.4

>  <QM_Energy>  (35) 
-5.76

>  <source>  (35) 
ACET_MBZ_00

>  <Index>  (35) 
16315

$$$$
ACET-pdb2ift-B-GLU-164:MBZ-pdb2ift-B-PHE-135
     RDKit          3D

 22 21  0  0  0  0  0  0  0  0999 V2000
   -2.5448    3.1038   -2.0671 C   0  0  0  0  0  0  0  0  0  0  0  0
   -1.9812    3.4199   -1.3025 H   0  0  0  0  0  0  0  0  0  0  0  0
   -3.2136    3.8121   -2.2986 H   0  0  0  0  0  0  0  0  0  0  0  0
   -1.8883    2.9752   -2.9277 H   0  0  0  0  0  0  0  0  0  0  0  0
   -3.2990    1.8956   -1.6119 C   0  0  0  0  0  0  0  0  0  0  0  0
   -3.2130    0.7985   -2.1472 O   0  0  0  0  0  1  0  0  0  0  0  0
   -4.0340    2.1330   -0.6329 O   0  0  0  0  0  0  0  0  0  0  0  0
   -0.0293    2.9015    0.0180 C   0  0  0  0  0  0  0  0  0  0  0  0
   -0.7004    3.1920    0.6845 H   0  0  0  0  0  0  0  0  0  0  0  0
   -0.2641    3.2191   -0.8896 H   0  0  0  0  0  0  0  0  0  0  0  0
    0.9197    3.3642    0.2887 H   0  0  0  0  0  0  0  0  0  0  0  0
   -0.0000    1.4031    0.0009 C   0  0  0  0  0  0  0  0  0  0  0  0
   -1.1986    0.6901   -0.0018 C   0  0  0  0  0  0  0  0  0  0  0  0
   -2.0658    1.1813   -0.0067 H   0  0  0  0  0  0  0  0  0  0  0  0
   -1.2069   -0.7031   -0.0000 C   0  0  0  0  0  0  0  0  0  0  0  0
   -2.0823   -1.1951    0.0013 H   0  0  0  0  0  0  0  0  0  0  0  0
   -0.0038   -1.3975    0.0016 C   0  0  0  0  0  0  0  0  0  0  0  0
   -0.0004   -2.3943    0.0030 H   0  0  0  0  0  0  0  0  0  0  0  0
    1.2069   -0.6934    0.0000 C   0  0  0  0  0  0  0  0  0  0  0  0
    2.0849   -1.1926    0.0011 H   0  0  0  0  0  0  0  0  0  0  0  0
    1.2024    0.7008   -0.0007 C   0  0  0  0  0  0  0  0  0  0  0  0
    2.0665    1.1977   -0.0034 H   0  0  0  0  0  0  0  0  0  0  0  0
  1  5  1  0
  5  6  1  0
  5  7  2  0
  1  2  1  0
  1  3  1  0
  1  4  1  0
  8 12  1  0
 12 13  2  0
 13 15  1  0
 15 17  2  0
 17 19  1  0
 19 21  2  0
 21 12  1  0
  8  9  1  0
  8 10  1  0
  8 11  1  0
 13 14  1  0
 15 16  1  0
 17 18  1  0
 19 20  1  0
 21 22  1  0
M  CHG  1   6  -1
M  END
>  <PDB_ID>  (36) 
pdb2ift

>  <RESIDUE_NAME>  (36) 
GLU   PHE

>  <FRAG_NAME>  (36) 
ACET   MBZ

>  <FRAG_ATOM_NUM>  (36) 
fragi: 7  fragj: 15

>  <atom.prop.CHAIN_ID>  (36) 
A A A A A A A Z Z Z Z Z Z Z Z Z Z Z Z Z Z Z

>  <atom.prop.IS_HEAVY_ATOM>  (36) 
1 0 0 0 1 1 1 1 0 0 0 1 1 0 1 0 1 0 1 0 1 0

>  <DIFUSE_FUNC_ATOM>  (36) 
atom 6   atom 7   

>  <FINAL_SINGLE_POINT_ENERGY>  (36) 
0

>  <NONCOV_INTER_ENERGY_QM>  (36) 
0

>  <FF_Energy>  (36) 
16.97

>  <QM_Energy>  (36) 
-1.59

>  <source>  (36) 
ACET_MBZ_00

>  <Index>  (36) 
16741

$$$$
ACET-pdb2j0w-A-ASP-218:MBZ-pdb2j0w-A-PHE-275
     RDKit          3D

 22 21  0  0  0  0  0  0  0  0999 V2000
    4.4720    3.8083   -0.5263 C   0  0  0  0  0  0  0  0  0  0  0  0
    5.3057    4.2344   -0.8579 H   0  0  0  0  0  0  0  0  0  0  0  0
    4.6579    2.8934   -0.1898 H   0  0  0  0  0  0  0  0  0  0  0  0
    4.0995    4.4039    0.3071 H   0  0  0  0  0  0  0  0  0  0  0  0
    3.4801    3.7145   -1.6761 C   0  0  0  0  0  0  0  0  0  0  0  0
    2.2637    3.5973   -1.4098 O   0  0  0  0  0  1  0  0  0  0  0  0
    3.9236    3.7480   -2.8482 O   0  0  0  0  0  0  0  0  0  0  0  0
   -0.0148    2.8792    0.0979 C   0  0  0  0  0  0  0  0  0  0  0  0
   -0.6583    3.2283   -0.5636 H   0  0  0  0  0  0  0  0  0  0  0  0
    0.8991    3.2101   -0.0723 H   0  0  0  0  0  0  0  0  0  0  0  0
   -0.3210    3.2324    1.0826 H   0  0  0  0  0  0  0  0  0  0  0  0
   -0.0009    1.3947    0.0001 C   0  0  0  0  0  0  0  0  0  0  0  0
   -1.1938    0.6892    0.0004 C   0  0  0  0  0  0  0  0  0  0  0  0
   -2.0614    1.1852    0.0001 H   0  0  0  0  0  0  0  0  0  0  0  0
   -1.2038   -0.6920    0.0000 C   0  0  0  0  0  0  0  0  0  0  0  0
   -2.0806   -1.1880   -0.0012 H   0  0  0  0  0  0  0  0  0  0  0  0
   -0.0029   -1.3927    0.0026 C   0  0  0  0  0  0  0  0  0  0  0  0
   -0.0067   -2.3894    0.0061 H   0  0  0  0  0  0  0  0  0  0  0  0
    1.2038   -0.6945   -0.0000 C   0  0  0  0  0  0  0  0  0  0  0  0
    2.0820   -1.1943    0.0021 H   0  0  0  0  0  0  0  0  0  0  0  0
    1.1976    0.6953   -0.0031 C   0  0  0  0  0  0  0  0  0  0  0  0
    2.0632    1.1934   -0.0080 H   0  0  0  0  0  0  0  0  0  0  0  0
  1  5  1  0
  5  6  1  0
  5  7  2  0
  1  2  1  0
  1  3  1  0
  1  4  1  0
  8 12  1  0
 12 13  2  0
 13 15  1  0
 15 17  2  0
 17 19  1  0
 19 21  2  0
 21 12  1  0
  8  9  1  0
  8 10  1  0
  8 11  1  0
 13 14  1  0
 15 16  1  0
 17 18  1  0
 19 20  1  0
 21 22  1  0
M  CHG  1   6  -1
M  END
>  <PDB_ID>  (37) 
pdb2j0w

>  <RESIDUE_NAME>  (37) 
ASP   PHE

>  <FRAG_NAME>  (37) 
ACET   MBZ

>  <FRAG_ATOM_NUM>  (37) 
fragi: 7  fragj: 15

>  <atom.prop.CHAIN_ID>  (37) 
A A A A A A A Z Z Z Z Z Z Z Z Z Z Z Z Z Z Z

>  <atom.prop.IS_HEAVY_ATOM>  (37) 
1 0 0 0 1 1 1 1 0 0 0 1 1 0 1 0 1 0 1 0 1 0

>  <DIFUSE_FUNC_ATOM>  (37) 
atom 6   atom 7   

>  <FINAL_SINGLE_POINT_ENERGY>  (37) 
0

>  <NONCOV_INTER_ENERGY_QM>  (37) 
0

>  <FF_Energy>  (37) 
9.58

>  <QM_Energy>  (37) 
-4.9

>  <source>  (37) 
ACET_MBZ_00

>  <Index>  (37) 
17892

$$$$
ACET-pdb2jkf-A-ASP-45:MBZ-pdb2jkf-A-PHE-48
     RDKit          3D

 22 21  0  0  0  0  0  0  0  0999 V2000
   -1.9586    4.1876   -2.3240 C   0  0  0  0  0  0  0  0  0  0  0  0
   -2.1729    3.5756   -3.0720 H   0  0  0  0  0  0  0  0  0  0  0  0
   -1.0985    3.9435   -1.8998 H   0  0  0  0  0  0  0  0  0  0  0  0
   -1.8674    5.1970   -2.7249 H   0  0  0  0  0  0  0  0  0  0  0  0
   -3.0696    4.0722   -1.2707 C   0  0  0  0  0  0  0  0  0  0  0  0
   -3.2326    5.0095   -0.4484 O   0  0  0  0  0  1  0  0  0  0  0  0
   -3.7706    3.0362   -1.2586 O   0  0  0  0  0  0  0  0  0  0  0  0
   -0.0103    2.8876    0.0441 C   0  0  0  0  0  0  0  0  0  0  0  0
   -0.7265    3.2209   -0.5445 H   0  0  0  0  0  0  0  0  0  0  0  0
    0.8768    3.2137   -0.2355 H   0  0  0  0  0  0  0  0  0  0  0  0
   -0.2008    3.2804    1.0429 H   0  0  0  0  0  0  0  0  0  0  0  0
   -0.0074    1.3949   -0.0091 C   0  0  0  0  0  0  0  0  0  0  0  0
   -1.2051    0.6909   -0.0017 C   0  0  0  0  0  0  0  0  0  0  0  0
   -2.0690    1.1839    0.0009 H   0  0  0  0  0  0  0  0  0  0  0  0
   -1.2061   -0.6913   -0.0000 C   0  0  0  0  0  0  0  0  0  0  0  0
   -2.0712   -1.1979    0.0031 H   0  0  0  0  0  0  0  0  0  0  0  0
    0.0151   -1.3864   -0.0002 C   0  0  0  0  0  0  0  0  0  0  0  0
    0.0037   -2.3861   -0.0011 H   0  0  0  0  0  0  0  0  0  0  0  0
    1.2061   -0.6922   -0.0000 C   0  0  0  0  0  0  0  0  0  0  0  0
    2.0912   -1.1907   -0.0065 H   0  0  0  0  0  0  0  0  0  0  0  0
    1.1974    0.6841    0.0110 C   0  0  0  0  0  0  0  0  0  0  0  0
    2.0605    1.1921    0.0323 H   0  0  0  0  0  0  0  0  0  0  0  0
  1  5  1  0
  5  6  1  0
  5  7  2  0
  1  2  1  0
  1  3  1  0
  1  4  1  0
  8 12  1  0
 12 13  2  0
 13 15  1  0
 15 17  2  0
 17 19  1  0
 19 21  2  0
 21 12  1  0
  8  9  1  0
  8 10  1  0
  8 11  1  0
 13 14  1  0
 15 16  1  0
 17 18  1  0
 19 20  1  0
 21 22  1  0
M  CHG  1   6  -1
M  END
>  <PDB_ID>  (38) 
pdb2jkf

>  <RESIDUE_NAME>  (38) 
ASP   PHE

>  <FRAG_NAME>  (38) 
ACET   MBZ

>  <FRAG_ATOM_NUM>  (38) 
fragi: 7  fragj: 15

>  <atom.prop.CHAIN_ID>  (38) 
A A A A A A A Z Z Z Z Z Z Z Z Z Z Z Z Z Z Z

>  <atom.prop.IS_HEAVY_ATOM>  (38) 
1 0 0 0 1 1 1 1 0 0 0 1 1 0 1 0 1 0 1 0 1 0

>  <DIFUSE_FUNC_ATOM>  (38) 
atom 6   atom 7   

>  <FINAL_SINGLE_POINT_ENERGY>  (38) 
0

>  <NONCOV_INTER_ENERGY_QM>  (38) 
0

>  <FF_Energy>  (38) 
14.21

>  <QM_Energy>  (38) 
-2.39

>  <source>  (38) 
ACET_MBZ_00

>  <Index>  (38) 
18751

$$$$
ACET-pdb2nqo-A-ASP-204:MBZ-pdb2nqo-A-PHE-198
     RDKit          3D

 22 21  0  0  0  0  0  0  0  0999 V2000
   -5.9036   -0.2668    0.6165 C   0  0  0  0  0  0  0  0  0  0  0  0
   -6.5312   -0.1985    1.3850 H   0  0  0  0  0  0  0  0  0  0  0  0
   -6.4078   -0.3578   -0.2348 H   0  0  0  0  0  0  0  0  0  0  0  0
   -5.3323    0.6602    0.5697 H   0  0  0  0  0  0  0  0  0  0  0  0
   -5.0312   -1.4924    0.8031 C   0  0  0  0  0  0  0  0  0  0  0  0
   -3.9672   -1.5774    0.1568 O   0  0  0  0  0  1  0  0  0  0  0  0
   -5.4233   -2.3812    1.5845 O   0  0  0  0  0  0  0  0  0  0  0  0
    0.0085    2.9031    0.0479 C   0  0  0  0  0  0  0  0  0  0  0  0
    0.9435    3.2094   -0.0657 H   0  0  0  0  0  0  0  0  0  0  0  0
   -0.3546    3.1856    0.9254 H   0  0  0  0  0  0  0  0  0  0  0  0
   -0.5914    3.3815   -0.7263 H   0  0  0  0  0  0  0  0  0  0  0  0
    0.0002    1.4025    0.0009 C   0  0  0  0  0  0  0  0  0  0  0  0
   -1.1976    0.6948   -0.0002 C   0  0  0  0  0  0  0  0  0  0  0  0
   -2.0635    1.1843   -0.0029 H   0  0  0  0  0  0  0  0  0  0  0  0
   -1.2030   -0.6985   -0.0000 C   0  0  0  0  0  0  0  0  0  0  0  0
   -2.0790   -1.1907    0.0012 H   0  0  0  0  0  0  0  0  0  0  0  0
   -0.0002   -1.3951    0.0002 C   0  0  0  0  0  0  0  0  0  0  0  0
   -0.0035   -2.3931    0.0001 H   0  0  0  0  0  0  0  0  0  0  0  0
    1.2030   -0.6974    0.0000 C   0  0  0  0  0  0  0  0  0  0  0  0
    2.0836   -1.1957    0.0021 H   0  0  0  0  0  0  0  0  0  0  0  0
    1.1976    0.6938   -0.0009 C   0  0  0  0  0  0  0  0  0  0  0  0
    2.0659    1.1905   -0.0039 H   0  0  0  0  0  0  0  0  0  0  0  0
  1  5  1  0
  5  6  1  0
  5  7  2  0
  1  2  1  0
  1  3  1  0
  1  4  1  0
  8 12  1  0
 12 13  2  0
 13 15  1  0
 15 17  2  0
 17 19  1  0
 19 21  2  0
 21 12  1  0
  8  9  1  0
  8 10  1  0
  8 11  1  0
 13 14  1  0
 15 16  1  0
 17 18  1  0
 19 20  1  0
 21 22  1  0
M  CHG  1   6  -1
M  END
>  <PDB_ID>  (39) 
pdb2nqo

>  <RESIDUE_NAME>  (39) 
ASP   PHE

>  <FRAG_NAME>  (39) 
ACET   MBZ

>  <FRAG_ATOM_NUM>  (39) 
fragi: 7  fragj: 15

>  <atom.prop.CHAIN_ID>  (39) 
A A A A A A A Z Z Z Z Z Z Z Z Z Z Z Z Z Z Z

>  <atom.prop.IS_HEAVY_ATOM>  (39) 
1 0 0 0 1 1 1 1 0 0 0 1 1 0 1 0 1 0 1 0 1 0

>  <DIFUSE_FUNC_ATOM>  (39) 
atom 6   atom 7   

>  <FINAL_SINGLE_POINT_ENERGY>  (39) 
0

>  <NONCOV_INTER_ENERGY_QM>  (39) 
0

>  <FF_Energy>  (39) 
9.58

>  <QM_Energy>  (39) 
-5.83

>  <source>  (39) 
ACET_MBZ_00

>  <Index>  (39) 
19280

$$$$
ACET-pdb1j0a-A-ASP-250:MBZ-pdb1j0a-A-PHE-219
     RDKit          3D

 22 21  0  0  0  0  0  0  0  0999 V2000
   -4.4454    1.3878   -0.9053 C   0  0  0  0  0  0  0  0  0  0  0  0
   -3.4887    1.1646   -0.7634 H   0  0  0  0  0  0  0  0  0  0  0  0
   -4.7395    1.1061   -1.8098 H   0  0  0  0  0  0  0  0  0  0  0  0
   -5.0335    0.8382   -0.1704 H   0  0  0  0  0  0  0  0  0  0  0  0
   -4.6201    2.8882   -0.7806 C   0  0  0  0  0  0  0  0  0  0  0  0
   -5.7754    3.3633   -0.7571 O   0  0  0  0  0  1  0  0  0  0  0  0
   -3.5974    3.5962   -0.7036 O   0  0  0  0  0  0  0  0  0  0  0  0
    0.0026    2.9133    0.0863 C   0  0  0  0  0  0  0  0  0  0  0  0
   -0.8551    3.2382   -0.2700 H   0  0  0  0  0  0  0  0  0  0  0  0
    0.7695    3.2447   -0.4347 H   0  0  0  0  0  0  0  0  0  0  0  0
    0.1045    3.2804    1.1076 H   0  0  0  0  0  0  0  0  0  0  0  0
   -0.0001    1.4061    0.0006 C   0  0  0  0  0  0  0  0  0  0  0  0
   -1.1994    0.7003   -0.0003 C   0  0  0  0  0  0  0  0  0  0  0  0
   -2.0652    1.1912   -0.0026 H   0  0  0  0  0  0  0  0  0  0  0  0
   -1.2059   -0.6932    0.0000 C   0  0  0  0  0  0  0  0  0  0  0  0
   -2.0810   -1.1869    0.0017 H   0  0  0  0  0  0  0  0  0  0  0  0
    0.0009   -1.3979    0.0007 C   0  0  0  0  0  0  0  0  0  0  0  0
   -0.0089   -2.3942    0.0012 H   0  0  0  0  0  0  0  0  0  0  0  0
    1.2059   -0.7037    0.0000 C   0  0  0  0  0  0  0  0  0  0  0  0
    2.0847   -1.2010    0.0020 H   0  0  0  0  0  0  0  0  0  0  0  0
    1.1986    0.6884   -0.0010 C   0  0  0  0  0  0  0  0  0  0  0  0
    2.0678    1.1866   -0.0031 H   0  0  0  0  0  0  0  0  0  0  0  0
  1  5  1  0
  5  6  1  0
  5  7  2  0
  1  2  1  0
  1  3  1  0
  1  4  1  0
  8 12  1  0
 12 13  2  0
 13 15  1  0
 15 17  2  0
 17 19  1  0
 19 21  2  0
 21 12  1  0
  8  9  1  0
  8 10  1  0
  8 11  1  0
 13 14  1  0
 15 16  1  0
 17 18  1  0
 19 20  1  0
 21 22  1  0
M  CHG  1   6  -1
M  END
>  <PDB_ID>  (40) 
pdb1j0a

>  <RESIDUE_NAME>  (40) 
ASP   PHE

>  <FRAG_NAME>  (40) 
ACET   MBZ

>  <FRAG_ATOM_NUM>  (40) 
fragi: 7  fragj: 15

>  <atom.prop.CHAIN_ID>  (40) 
A A A A A A A Z Z Z Z Z Z Z Z Z Z Z Z Z Z Z

>  <atom.prop.IS_HEAVY_ATOM>  (40) 
1 0 0 0 1 1 1 1 0 0 0 1 1 0 1 0 1 0 1 0 1 0

>  <DIFUSE_FUNC_ATOM>  (40) 
atom 6   atom 7   

>  <FINAL_SINGLE_POINT_ENERGY>  (40) 
0

>  <NONCOV_INTER_ENERGY_QM>  (40) 
0

>  <FF_Energy>  (40) 
11.32

>  <QM_Energy>  (40) 
-3.34

>  <source>  (40) 
ACET_MBZ_00

>  <Index>  (40) 
19321

$$$$
ACET-pdb1j1b-A-ASP-90:MBZ-pdb1j1b-A-PHE-93
     RDKit          3D

 22 21  0  0  0  0  0  0  0  0999 V2000
    4.5240    2.8844    0.3610 C   0  0  0  0  0  0  0  0  0  0  0  0
    4.9074    3.0371    1.2624 H   0  0  0  0  0  0  0  0  0  0  0  0
    3.6383    3.3203    0.2757 H   0  0  0  0  0  0  0  0  0  0  0  0
    5.1953    3.3311   -0.3726 H   0  0  0  0  0  0  0  0  0  0  0  0
    4.3510    1.3859    0.1530 C   0  0  0  0  0  0  0  0  0  0  0  0
    3.7759    0.7225    1.0452 O   0  0  0  0  0  1  0  0  0  0  0  0
    4.7931    0.8731   -0.9030 O   0  0  0  0  0  0  0  0  0  0  0  0
    0.0025    2.9064   -0.0513 C   0  0  0  0  0  0  0  0  0  0  0  0
    0.8237    3.2266    0.3922 H   0  0  0  0  0  0  0  0  0  0  0  0
   -0.8094    3.2300    0.4071 H   0  0  0  0  0  0  0  0  0  0  0  0
   -0.0059    3.3050   -1.0658 H   0  0  0  0  0  0  0  0  0  0  0  0
   -0.0005    1.4043    0.0002 C   0  0  0  0  0  0  0  0  0  0  0  0
   -1.1995    0.6970    0.0013 C   0  0  0  0  0  0  0  0  0  0  0  0
   -2.0654    1.1868    0.0016 H   0  0  0  0  0  0  0  0  0  0  0  0
   -1.2058   -0.6990   -0.0000 C   0  0  0  0  0  0  0  0  0  0  0  0
   -2.0795   -1.1919    0.0022 H   0  0  0  0  0  0  0  0  0  0  0  0
    0.0022   -1.3972   -0.0023 C   0  0  0  0  0  0  0  0  0  0  0  0
   -0.0031   -2.3950   -0.0058 H   0  0  0  0  0  0  0  0  0  0  0  0
    1.2058   -0.6998    0.0000 C   0  0  0  0  0  0  0  0  0  0  0  0
    2.0865   -1.1950    0.0027 H   0  0  0  0  0  0  0  0  0  0  0  0
    1.1978    0.6946    0.0007 C   0  0  0  0  0  0  0  0  0  0  0  0
    2.0657    1.1911    0.0010 H   0  0  0  0  0  0  0  0  0  0  0  0
  1  5  1  0
  5  6  1  0
  5  7  2  0
  1  2  1  0
  1  3  1  0
  1  4  1  0
  8 12  1  0
 12 13  2  0
 13 15  1  0
 15 17  2  0
 17 19  1  0
 19 21  2  0
 21 12  1  0
  8  9  1  0
  8 10  1  0
  8 11  1  0
 13 14  1  0
 15 16  1  0
 17 18  1  0
 19 20  1  0
 21 22  1  0
M  CHG  1   6  -1
M  END
>  <PDB_ID>  (41) 
pdb1j1b

>  <RESIDUE_NAME>  (41) 
ASP   PHE

>  <FRAG_NAME>  (41) 
ACET   MBZ

>  <FRAG_ATOM_NUM>  (41) 
fragi: 7  fragj: 15

>  <atom.prop.CHAIN_ID>  (41) 
A A A A A A A Z Z Z Z Z Z Z Z Z Z Z Z Z Z Z

>  <atom.prop.IS_HEAVY_ATOM>  (41) 
1 0 0 0 1 1 1 1 0 0 0 1 1 0 1 0 1 0 1 0 1 0

>  <DIFUSE_FUNC_ATOM>  (41) 
atom 6   atom 7   

>  <FINAL_SINGLE_POINT_ENERGY>  (41) 
0

>  <NONCOV_INTER_ENERGY_QM>  (41) 
0

>  <FF_Energy>  (41) 
8.28

>  <QM_Energy>  (41) 
-3.98

>  <source>  (41) 
ACET_MBZ_00

>  <Index>  (41) 
19372

$$$$
ACET-pdb1j1z-E-GLU-152:MBZ-pdb1j1z-E-PHE-147
     RDKit          3D

 22 21  0  0  0  0  0  0  0  0999 V2000
    4.1491    2.2268   -0.8258 C   0  0  0  0  0  0  0  0  0  0  0  0
    3.2711    1.7804   -0.8814 H   0  0  0  0  0  0  0  0  0  0  0  0
    4.8909    1.5770   -0.8623 H   0  0  0  0  0  0  0  0  0  0  0  0
    4.2439    2.9099   -1.6699 H   0  0  0  0  0  0  0  0  0  0  0  0
    4.2213    2.9202    0.5189 C   0  0  0  0  0  0  0  0  0  0  0  0
    4.1263    2.2008    1.5371 O   0  0  0  0  0  1  0  0  0  0  0  0
    4.3777    4.1645    0.5669 O   0  0  0  0  0  0  0  0  0  0  0  0
   -0.0013    2.8963   -0.0315 C   0  0  0  0  0  0  0  0  0  0  0  0
   -0.9413    3.2042   -0.0014 H   0  0  0  0  0  0  0  0  0  0  0  0
    0.4453    3.1881   -0.8648 H   0  0  0  0  0  0  0  0  0  0  0  0
    0.5251    3.3544    0.8058 H   0  0  0  0  0  0  0  0  0  0  0  0
    0.0005    1.3995   -0.0006 C   0  0  0  0  0  0  0  0  0  0  0  0
   -1.1932    0.6910    0.0002 C   0  0  0  0  0  0  0  0  0  0  0  0
   -2.0619    1.1821    0.0001 H   0  0  0  0  0  0  0  0  0  0  0  0
   -1.2001   -0.6979   -0.0000 C   0  0  0  0  0  0  0  0  0  0  0  0
   -2.0785   -1.1895    0.0016 H   0  0  0  0  0  0  0  0  0  0  0  0
   -0.0040   -1.3908   -0.0010 C   0  0  0  0  0  0  0  0  0  0  0  0
   -0.0041   -2.3908   -0.0034 H   0  0  0  0  0  0  0  0  0  0  0  0
    1.2001   -0.6945    0.0000 C   0  0  0  0  0  0  0  0  0  0  0  0
    2.0798   -1.1957    0.0009 H   0  0  0  0  0  0  0  0  0  0  0  0
    1.1968    0.6926    0.0015 C   0  0  0  0  0  0  0  0  0  0  0  0
    2.0643    1.1902    0.0036 H   0  0  0  0  0  0  0  0  0  0  0  0
  1  5  1  0
  5  6  1  0
  5  7  2  0
  1  2  1  0
  1  3  1  0
  1  4  1  0
  8 12  1  0
 12 13  2  0
 13 15  1  0
 15 17  2  0
 17 19  1  0
 19 21  2  0
 21 12  1  0
  8  9  1  0
  8 10  1  0
  8 11  1  0
 13 14  1  0
 15 16  1  0
 17 18  1  0
 19 20  1  0
 21 22  1  0
M  CHG  1   6  -1
M  END
>  <PDB_ID>  (42) 
pdb1j1z

>  <RESIDUE_NAME>  (42) 
GLU   PHE

>  <FRAG_NAME>  (42) 
ACET   MBZ

>  <FRAG_ATOM_NUM>  (42) 
fragi: 7  fragj: 15

>  <atom.prop.CHAIN_ID>  (42) 
A A A A A A A Z Z Z Z Z Z Z Z Z Z Z Z Z Z Z

>  <atom.prop.IS_HEAVY_ATOM>  (42) 
1 0 0 0 1 1 1 1 0 0 0 1 1 0 1 0 1 0 1 0 1 0

>  <DIFUSE_FUNC_ATOM>  (42) 
atom 6   atom 7   

>  <FINAL_SINGLE_POINT_ENERGY>  (42) 
0

>  <NONCOV_INTER_ENERGY_QM>  (42) 
0

>  <FF_Energy>  (42) 
12.39

>  <QM_Energy>  (42) 
-2.02

>  <source>  (42) 
ACET_MBZ_00

>  <Index>  (42) 
19470

$$$$
ACET-pdb1j2t-E-GLU-177:MBZ-pdb1j2t-E-PHE-182
     RDKit          3D

 22 21  0  0  0  0  0  0  0  0999 V2000
   -2.0148    3.7630    2.7497 C   0  0  0  0  0  0  0  0  0  0  0  0
   -1.3609    3.0353    2.6409 H   0  0  0  0  0  0  0  0  0  0  0  0
   -2.9405    3.4459    2.6432 H   0  0  0  0  0  0  0  0  0  0  0  0
   -1.9054    4.1743    3.7533 H   0  0  0  0  0  0  0  0  0  0  0  0
   -1.7520    4.7814    1.6493 C   0  0  0  0  0  0  0  0  0  0  0  0
   -0.7494    5.5135    1.7532 O   0  0  0  0  0  1  0  0  0  0  0  0
   -2.5526    4.8352    0.6757 O   0  0  0  0  0  0  0  0  0  0  0  0
    0.0011    2.8781    0.0308 C   0  0  0  0  0  0  0  0  0  0  0  0
    0.8201    3.1750    0.5074 H   0  0  0  0  0  0  0  0  0  0  0  0
   -0.8132    3.1719    0.5176 H   0  0  0  0  0  0  0  0  0  0  0  0
   -0.0059    3.3612   -0.9464 H   0  0  0  0  0  0  0  0  0  0  0  0
    0.0038    1.3831   -0.0116 C   0  0  0  0  0  0  0  0  0  0  0  0
   -1.1851    0.6773    0.0066 C   0  0  0  0  0  0  0  0  0  0  0  0
   -2.0527    1.1757    0.0237 H   0  0  0  0  0  0  0  0  0  0  0  0
   -1.1843   -0.6870    0.0000 C   0  0  0  0  0  0  0  0  0  0  0  0
   -2.0681   -1.1883   -0.0016 H   0  0  0  0  0  0  0  0  0  0  0  0
   -0.0035   -1.3703   -0.0027 C   0  0  0  0  0  0  0  0  0  0  0  0
   -0.0032   -2.3759   -0.0076 H   0  0  0  0  0  0  0  0  0  0  0  0
    1.1843   -0.6824   -0.0000 C   0  0  0  0  0  0  0  0  0  0  0  0
    2.0687   -1.1912   -0.0023 H   0  0  0  0  0  0  0  0  0  0  0  0
    1.1849    0.6793    0.0078 C   0  0  0  0  0  0  0  0  0  0  0  0
    2.0574    1.1822    0.0273 H   0  0  0  0  0  0  0  0  0  0  0  0
  1  5  1  0
  5  6  1  0
  5  7  2  0
  1  2  1  0
  1  3  1  0
  1  4  1  0
  8 12  1  0
 12 13  2  0
 13 15  1  0
 15 17  2  0
 17 19  1  0
 19 21  2  0
 21 12  1  0
  8  9  1  0
  8 10  1  0
  8 11  1  0
 13 14  1  0
 15 16  1  0
 17 18  1  0
 19 20  1  0
 21 22  1  0
M  CHG  1   6  -1
M  END
>  <PDB_ID>  (43) 
pdb1j2t

>  <RESIDUE_NAME>  (43) 
GLU   PHE

>  <FRAG_NAME>  (43) 
ACET   MBZ

>  <FRAG_ATOM_NUM>  (43) 
fragi: 7  fragj: 15

>  <atom.prop.CHAIN_ID>  (43) 
A A A A A A A Z Z Z Z Z Z Z Z Z Z Z Z Z Z Z

>  <atom.prop.IS_HEAVY_ATOM>  (43) 
1 0 0 0 1 1 1 1 0 0 0 1 1 0 1 0 1 0 1 0 1 0

>  <DIFUSE_FUNC_ATOM>  (43) 
atom 6   atom 7   

>  <FINAL_SINGLE_POINT_ENERGY>  (43) 
0

>  <NONCOV_INTER_ENERGY_QM>  (43) 
0

>  <FF_Energy>  (43) 
6.33

>  <QM_Energy>  (43) 
-4.14

>  <source>  (43) 
ACET_MBZ_00

>  <Index>  (43) 
19539

$$$$
ACET-pdb2nzu-L-ASP-69:MBZ-pdb2nzu-L-PHE-29
     RDKit          3D

 22 21  0  0  0  0  0  0  0  0999 V2000
   -5.1876    2.0244    1.4644 C   0  0  0  0  0  0  0  0  0  0  0  0
   -4.8225    1.1049    1.3773 H   0  0  0  0  0  0  0  0  0  0  0  0
   -5.9695    2.1469    0.8653 H   0  0  0  0  0  0  0  0  0  0  0  0
   -5.5284    2.1532    2.4918 H   0  0  0  0  0  0  0  0  0  0  0  0
   -4.1088    3.0188    1.0708 C   0  0  0  0  0  0  0  0  0  0  0  0
   -4.1367    4.1681    1.5593 O   0  0  0  0  0  1  0  0  0  0  0  0
   -3.2429    2.6572    0.2530 O   0  0  0  0  0  0  0  0  0  0  0  0
   -0.0037    2.9149   -0.0588 C   0  0  0  0  0  0  0  0  0  0  0  0
    0.8671    3.2347    0.2768 H   0  0  0  0  0  0  0  0  0  0  0  0
   -0.7510    3.2403    0.4967 H   0  0  0  0  0  0  0  0  0  0  0  0
   -0.1387    3.3106   -1.0654 H   0  0  0  0  0  0  0  0  0  0  0  0
   -0.0011    1.4094   -0.0016 C   0  0  0  0  0  0  0  0  0  0  0  0
   -1.1975    0.6971    0.0008 C   0  0  0  0  0  0  0  0  0  0  0  0
   -2.0658    1.1845    0.0015 H   0  0  0  0  0  0  0  0  0  0  0  0
   -1.2041   -0.7008   -0.0000 C   0  0  0  0  0  0  0  0  0  0  0  0
   -2.0792   -1.1917    0.0014 H   0  0  0  0  0  0  0  0  0  0  0  0
    0.0022   -1.4022   -0.0009 C   0  0  0  0  0  0  0  0  0  0  0  0
   -0.0044   -2.3978   -0.0026 H   0  0  0  0  0  0  0  0  0  0  0  0
    1.2041   -0.7034   -0.0000 C   0  0  0  0  0  0  0  0  0  0  0  0
    2.0860   -1.1942    0.0008 H   0  0  0  0  0  0  0  0  0  0  0  0
    1.1964    0.6998    0.0017 C   0  0  0  0  0  0  0  0  0  0  0  0
    2.0661    1.1920    0.0047 H   0  0  0  0  0  0  0  0  0  0  0  0
  1  5  1  0
  5  6  1  0
  5  7  2  0
  1  2  1  0
  1  3  1  0
  1  4  1  0
  8 12  1  0
 12 13  2  0
 13 15  1  0
 15 17  2  0
 17 19  1  0
 19 21  2  0
 21 12  1  0
  8  9  1  0
  8 10  1  0
  8 11  1  0
 13 14  1  0
 15 16  1  0
 17 18  1  0
 19 20  1  0
 21 22  1  0
M  CHG  1   6  -1
M  END
>  <PDB_ID>  (44) 
pdb2nzu

>  <RESIDUE_NAME>  (44) 
ASP   PHE

>  <FRAG_NAME>  (44) 
ACET   MBZ

>  <FRAG_ATOM_NUM>  (44) 
fragi: 7  fragj: 15

>  <atom.prop.CHAIN_ID>  (44) 
A A A A A A A Z Z Z Z Z Z Z Z Z Z Z Z Z Z Z

>  <atom.prop.IS_HEAVY_ATOM>  (44) 
1 0 0 0 1 1 1 1 0 0 0 1 1 0 1 0 1 0 1 0 1 0

>  <DIFUSE_FUNC_ATOM>  (44) 
atom 6   atom 7   

>  <FINAL_SINGLE_POINT_ENERGY>  (44) 
0

>  <NONCOV_INTER_ENERGY_QM>  (44) 
0

>  <FF_Energy>  (44) 
13.66

>  <QM_Energy>  (44) 
-7.12

>  <source>  (44) 
ACET_MBZ_00

>  <Index>  (44) 
19924

$$$$
ACET-pdb1k4y-A-ASP-469:MBZ-pdb1k4y-A-PHE-354
     RDKit          3D

 22 21  0  0  0  0  0  0  0  0999 V2000
   -3.0428   -4.0863    0.0179 C   0  0  0  0  0  0  0  0  0  0  0  0
   -2.1127   -4.0842   -0.3261 H   0  0  0  0  0  0  0  0  0  0  0  0
   -3.6349   -4.6175   -0.5726 H   0  0  0  0  0  0  0  0  0  0  0  0
   -3.0380   -4.5550    1.0021 H   0  0  0  0  0  0  0  0  0  0  0  0
   -3.5505   -2.6560    0.0607 C   0  0  0  0  0  0  0  0  0  0  0  0
   -4.0372   -2.2289    1.1324 O   0  0  0  0  0  1  0  0  0  0  0  0
   -3.4704   -1.9609   -0.9768 O   0  0  0  0  0  0  0  0  0  0  0  0
   -0.0067    2.9100   -0.0075 C   0  0  0  0  0  0  0  0  0  0  0  0
   -0.7865    3.2157    0.5190 H   0  0  0  0  0  0  0  0  0  0  0  0
   -0.0683    3.2118   -0.9476 H   0  0  0  0  0  0  0  0  0  0  0  0
    0.8843    3.3631    0.4273 H   0  0  0  0  0  0  0  0  0  0  0  0
   -0.0005    1.4030   -0.0009 C   0  0  0  0  0  0  0  0  0  0  0  0
   -1.1951    0.6970   -0.0026 C   0  0  0  0  0  0  0  0  0  0  0  0
   -2.0625    1.1842   -0.0065 H   0  0  0  0  0  0  0  0  0  0  0  0
   -1.1971   -0.6957    0.0000 C   0  0  0  0  0  0  0  0  0  0  0  0
   -2.0752   -1.1888    0.0005 H   0  0  0  0  0  0  0  0  0  0  0  0
    0.0017   -1.3920    0.0033 C   0  0  0  0  0  0  0  0  0  0  0  0
   -0.0051   -2.3919    0.0072 H   0  0  0  0  0  0  0  0  0  0  0  0
    1.1971   -0.6990   -0.0000 C   0  0  0  0  0  0  0  0  0  0  0  0
    2.0804   -1.1977   -0.0007 H   0  0  0  0  0  0  0  0  0  0  0  0
    1.1939    0.6867    0.0002 C   0  0  0  0  0  0  0  0  0  0  0  0
    2.0643    1.1846    0.0004 H   0  0  0  0  0  0  0  0  0  0  0  0
  1  5  1  0
  5  6  1  0
  5  7  2  0
  1  2  1  0
  1  3  1  0
  1  4  1  0
  8 12  1  0
 12 13  2  0
 13 15  1  0
 15 17  2  0
 17 19  1  0
 19 21  2  0
 21 12  1  0
  8  9  1  0
  8 10  1  0
  8 11  1  0
 13 14  1  0
 15 16  1  0
 17 18  1  0
 19 20  1  0
 21 22  1  0
M  CHG  1   6  -1
M  END
>  <PDB_ID>  (45) 
pdb1k4y

>  <RESIDUE_NAME>  (45) 
ASP   PHE

>  <FRAG_NAME>  (45) 
ACET   MBZ

>  <FRAG_ATOM_NUM>  (45) 
fragi: 7  fragj: 15

>  <atom.prop.CHAIN_ID>  (45) 
A A A A A A A Z Z Z Z Z Z Z Z Z Z Z Z Z Z Z

>  <atom.prop.IS_HEAVY_ATOM>  (45) 
1 0 0 0 1 1 1 1 0 0 0 1 1 0 1 0 1 0 1 0 1 0

>  <DIFUSE_FUNC_ATOM>  (45) 
atom 6   atom 7   

>  <FINAL_SINGLE_POINT_ENERGY>  (45) 
0

>  <NONCOV_INTER_ENERGY_QM>  (45) 
0

>  <FF_Energy>  (45) 
31.22

>  <QM_Energy>  (45) 
-1.46

>  <source>  (45) 
ACET_MBZ_00

>  <Index>  (45) 
21779

$$$$
ACET-pdb1k9x-D-GLU-370:MBZ-pdb1k9x-D-PHE-420
     RDKit          3D

 22 21  0  0  0  0  0  0  0  0999 V2000
   -5.9195    2.2282    0.3277 C   0  0  0  0  0  0  0  0  0  0  0  0
   -6.4814    1.7419    0.9693 H   0  0  0  0  0  0  0  0  0  0  0  0
   -5.7182    1.6950   -0.4719 H   0  0  0  0  0  0  0  0  0  0  0  0
   -6.4601    3.1212    0.0139 H   0  0  0  0  0  0  0  0  0  0  0  0
   -4.6033    2.5459    1.0128 C   0  0  0  0  0  0  0  0  0  0  0  0
   -4.4797    3.6594    1.5690 O   0  0  0  0  0  1  0  0  0  0  0  0
   -3.6944    1.6793    1.0059 O   0  0  0  0  0  0  0  0  0  0  0  0
    0.0040    2.9159   -0.0319 C   0  0  0  0  0  0  0  0  0  0  0  0
   -0.9197    3.2272    0.1378 H   0  0  0  0  0  0  0  0  0  0  0  0
    0.3214    3.2036   -0.9236 H   0  0  0  0  0  0  0  0  0  0  0  0
    0.6513    3.3759    0.7147 H   0  0  0  0  0  0  0  0  0  0  0  0
    0.0029    1.4134    0.0006 C   0  0  0  0  0  0  0  0  0  0  0  0
   -1.2050    0.7078   -0.0003 C   0  0  0  0  0  0  0  0  0  0  0  0
   -2.0672    1.1947   -0.0021 H   0  0  0  0  0  0  0  0  0  0  0  0
   -1.2143   -0.7015   -0.0000 C   0  0  0  0  0  0  0  0  0  0  0  0
   -2.0906   -1.1867    0.0017 H   0  0  0  0  0  0  0  0  0  0  0  0
   -0.0053   -1.4098   -0.0005 C   0  0  0  0  0  0  0  0  0  0  0  0
   -0.0088   -2.4024   -0.0019 H   0  0  0  0  0  0  0  0  0  0  0  0
    1.2143   -0.7061   -0.0000 C   0  0  0  0  0  0  0  0  0  0  0  0
    2.0879   -1.2038    0.0018 H   0  0  0  0  0  0  0  0  0  0  0  0
    1.2073    0.6962    0.0002 C   0  0  0  0  0  0  0  0  0  0  0  0
    2.0740    1.1910   -0.0004 H   0  0  0  0  0  0  0  0  0  0  0  0
  1  5  1  0
  5  6  1  0
  5  7  2  0
  1  2  1  0
  1  3  1  0
  1  4  1  0
  8 12  1  0
 12 13  2  0
 13 15  1  0
 15 17  2  0
 17 19  1  0
 19 21  2  0
 21 12  1  0
  8  9  1  0
  8 10  1  0
  8 11  1  0
 13 14  1  0
 15 16  1  0
 17 18  1  0
 19 20  1  0
 21 22  1  0
M  CHG  1   6  -1
M  END
>  <PDB_ID>  (46) 
pdb1k9x

>  <RESIDUE_NAME>  (46) 
GLU   PHE

>  <FRAG_NAME>  (46) 
ACET   MBZ

>  <FRAG_ATOM_NUM>  (46) 
fragi: 7  fragj: 15

>  <atom.prop.CHAIN_ID>  (46) 
A A A A A A A Z Z Z Z Z Z Z Z Z Z Z Z Z Z Z

>  <atom.prop.IS_HEAVY_ATOM>  (46) 
1 0 0 0 1 1 1 1 0 0 0 1 1 0 1 0 1 0 1 0 1 0

>  <DIFUSE_FUNC_ATOM>  (46) 
atom 6   atom 7   

>  <FINAL_SINGLE_POINT_ENERGY>  (46) 
0

>  <NONCOV_INTER_ENERGY_QM>  (46) 
0

>  <FF_Energy>  (46) 
7.68

>  <QM_Energy>  (46) 
-6.26

>  <source>  (46) 
ACET_MBZ_00

>  <Index>  (46) 
22042

$$$$
ACET-pdb2p12-B-ASP-25:MBZ-pdb2p12-B-PHE-29
     RDKit          3D

 22 21  0  0  0  0  0  0  0  0999 V2000
    3.7182    4.5777   -1.3490 C   0  0  0  0  0  0  0  0  0  0  0  0
    4.6943    4.4059   -1.2586 H   0  0  0  0  0  0  0  0  0  0  0  0
    3.3717    5.0374   -0.5383 H   0  0  0  0  0  0  0  0  0  0  0  0
    3.5702    5.2402   -2.2017 H   0  0  0  0  0  0  0  0  0  0  0  0
    3.0022    3.2456   -1.4973 C   0  0  0  0  0  0  0  0  0  0  0  0
    3.3993    2.2869   -0.7880 O   0  0  0  0  0  1  0  0  0  0  0  0
    2.0826    3.1459   -2.3327 O   0  0  0  0  0  0  0  0  0  0  0  0
    0.0259    2.9265    0.0172 C   0  0  0  0  0  0  0  0  0  0  0  0
    0.9176    3.2202   -0.3094 H   0  0  0  0  0  0  0  0  0  0  0  0
   -0.1093    3.2128    0.9600 H   0  0  0  0  0  0  0  0  0  0  0  0
   -0.7284    3.4263   -0.5906 H   0  0  0  0  0  0  0  0  0  0  0  0
   -0.0035    1.4142   -0.0158 C   0  0  0  0  0  0  0  0  0  0  0  0
   -1.2047    0.7032    0.0095 C   0  0  0  0  0  0  0  0  0  0  0  0
   -2.0705    1.1850    0.0333 H   0  0  0  0  0  0  0  0  0  0  0  0
   -1.2076   -0.7058   -0.0000 C   0  0  0  0  0  0  0  0  0  0  0  0
   -2.0762   -1.1982   -0.0044 H   0  0  0  0  0  0  0  0  0  0  0  0
    0.0128   -1.4054   -0.0006 C   0  0  0  0  0  0  0  0  0  0  0  0
    0.0052   -2.4011   -0.0020 H   0  0  0  0  0  0  0  0  0  0  0  0
    1.2076   -0.7024   -0.0000 C   0  0  0  0  0  0  0  0  0  0  0  0
    2.0936   -1.1908   -0.0035 H   0  0  0  0  0  0  0  0  0  0  0  0
    1.1954    0.6960    0.0068 C   0  0  0  0  0  0  0  0  0  0  0  0
    2.0649    1.1939    0.0274 H   0  0  0  0  0  0  0  0  0  0  0  0
  1  5  1  0
  5  6  1  0
  5  7  2  0
  1  2  1  0
  1  3  1  0
  1  4  1  0
  8 12  1  0
 12 13  2  0
 13 15  1  0
 15 17  2  0
 17 19  1  0
 19 21  2  0
 21 12  1  0
  8  9  1  0
  8 10  1  0
  8 11  1  0
 13 14  1  0
 15 16  1  0
 17 18  1  0
 19 20  1  0
 21 22  1  0
M  CHG  1   6  -1
M  END
>  <PDB_ID>  (47) 
pdb2p12

>  <RESIDUE_NAME>  (47) 
ASP   PHE

>  <FRAG_NAME>  (47) 
ACET   MBZ

>  <FRAG_ATOM_NUM>  (47) 
fragi: 7  fragj: 15

>  <atom.prop.CHAIN_ID>  (47) 
A A A A A A A Z Z Z Z Z Z Z Z Z Z Z Z Z Z Z

>  <atom.prop.IS_HEAVY_ATOM>  (47) 
1 0 0 0 1 1 1 1 0 0 0 1 1 0 1 0 1 0 1 0 1 0

>  <DIFUSE_FUNC_ATOM>  (47) 
atom 6   atom 7   

>  <FINAL_SINGLE_POINT_ENERGY>  (47) 
0

>  <NONCOV_INTER_ENERGY_QM>  (47) 
0

>  <FF_Energy>  (47) 
16.86

>  <QM_Energy>  (47) 
-5.34

>  <source>  (47) 
ACET_MBZ_00

>  <Index>  (47) 
22466

$$$$
ACET-pdb1kzy-D-ASP-1807:MBZ-pdb1kzy-D-PHE-1771
     RDKit          3D

 22 21  0  0  0  0  0  0  0  0999 V2000
    1.4006    3.0724   -2.8063 C   0  0  0  0  0  0  0  0  0  0  0  0
    1.0666    3.9889   -3.0071 H   0  0  0  0  0  0  0  0  0  0  0  0
    0.9062    2.6896   -2.0320 H   0  0  0  0  0  0  0  0  0  0  0  0
    1.1948    2.4470   -3.6749 H   0  0  0  0  0  0  0  0  0  0  0  0
    2.8777    3.1572   -2.4502 C   0  0  0  0  0  0  0  0  0  0  0  0
    3.1597    3.7730   -1.3983 O   0  0  0  0  0  1  0  0  0  0  0  0
    3.7423    2.6290   -3.1842 O   0  0  0  0  0  0  0  0  0  0  0  0
   -0.0062    2.9047    0.0010 C   0  0  0  0  0  0  0  0  0  0  0  0
   -0.2158    3.2086   -0.9164 H   0  0  0  0  0  0  0  0  0  0  0  0
    0.8895    3.2123    0.2854 H   0  0  0  0  0  0  0  0  0  0  0  0
   -0.7426    3.3391    0.6771 H   0  0  0  0  0  0  0  0  0  0  0  0
   -0.0015    1.4037    0.0007 C   0  0  0  0  0  0  0  0  0  0  0  0
   -1.1938    0.6969   -0.0018 C   0  0  0  0  0  0  0  0  0  0  0  0
   -2.0630    1.1850   -0.0063 H   0  0  0  0  0  0  0  0  0  0  0  0
   -1.2030   -0.6991    0.0000 C   0  0  0  0  0  0  0  0  0  0  0  0
   -2.0797   -1.1887    0.0041 H   0  0  0  0  0  0  0  0  0  0  0  0
   -0.0008   -1.3975   -0.0014 C   0  0  0  0  0  0  0  0  0  0  0  0
   -0.0053   -2.3949   -0.0041 H   0  0  0  0  0  0  0  0  0  0  0  0
    1.2030   -0.7008   -0.0000 C   0  0  0  0  0  0  0  0  0  0  0  0
    2.0834   -1.1949    0.0004 H   0  0  0  0  0  0  0  0  0  0  0  0
    1.1961    0.6968    0.0025 C   0  0  0  0  0  0  0  0  0  0  0  0
    2.0647    1.1914    0.0049 H   0  0  0  0  0  0  0  0  0  0  0  0
  1  5  1  0
  5  6  1  0
  5  7  2  0
  1  2  1  0
  1  3  1  0
  1  4  1  0
  8 12  1  0
 12 13  2  0
 13 15  1  0
 15 17  2  0
 17 19  1  0
 19 21  2  0
 21 12  1  0
  8  9  1  0
  8 10  1  0
  8 11  1  0
 13 14  1  0
 15 16  1  0
 17 18  1  0
 19 20  1  0
 21 22  1  0
M  CHG  1   6  -1
M  END
>  <PDB_ID>  (48) 
pdb1kzy

>  <RESIDUE_NAME>  (48) 
ASP   PHE

>  <FRAG_NAME>  (48) 
ACET   MBZ

>  <FRAG_ATOM_NUM>  (48) 
fragi: 7  fragj: 15

>  <atom.prop.CHAIN_ID>  (48) 
A A A A A A A Z Z Z Z Z Z Z Z Z Z Z Z Z Z Z

>  <atom.prop.IS_HEAVY_ATOM>  (48) 
1 0 0 0 1 1 1 1 0 0 0 1 1 0 1 0 1 0 1 0 1 0

>  <DIFUSE_FUNC_ATOM>  (48) 
atom 6   atom 7   

>  <FINAL_SINGLE_POINT_ENERGY>  (48) 
0

>  <NONCOV_INTER_ENERGY_QM>  (48) 
0

>  <FF_Energy>  (48) 
12.02

>  <QM_Energy>  (48) 
-1.24

>  <source>  (48) 
ACET_MBZ_00

>  <Index>  (48) 
23318

$$$$
ACET-pdb1l1e-B-GLU-198:MBZ-pdb1l1e-B-PHE-194
     RDKit          3D

 22 21  0  0  0  0  0  0  0  0999 V2000
   -4.5396    0.1140    2.4042 C   0  0  0  0  0  0  0  0  0  0  0  0
   -5.1797   -0.6282    2.4905 H   0  0  0  0  0  0  0  0  0  0  0  0
   -4.8940    0.9529    2.7760 H   0  0  0  0  0  0  0  0  0  0  0  0
   -3.6406   -0.1497    2.9613 H   0  0  0  0  0  0  0  0  0  0  0  0
   -4.2924    0.3384    0.9170 C   0  0  0  0  0  0  0  0  0  0  0  0
   -3.9389    1.4763    0.5357 O   0  0  0  0  0  1  0  0  0  0  0  0
   -4.4468   -0.6197    0.1263 O   0  0  0  0  0  0  0  0  0  0  0  0
    0.0046    2.9066    0.0221 C   0  0  0  0  0  0  0  0  0  0  0  0
   -0.4813    3.2264   -0.7766 H   0  0  0  0  0  0  0  0  0  0  0  0
    0.9456    3.2100    0.0177 H   0  0  0  0  0  0  0  0  0  0  0  0
   -0.4792    3.3359    0.8995 H   0  0  0  0  0  0  0  0  0  0  0  0
    0.0000    1.4039    0.0001 C   0  0  0  0  0  0  0  0  0  0  0  0
   -1.1965    0.6964   -0.0001 C   0  0  0  0  0  0  0  0  0  0  0  0
   -2.0640    1.1863   -0.0015 H   0  0  0  0  0  0  0  0  0  0  0  0
   -1.2031   -0.6974    0.0000 C   0  0  0  0  0  0  0  0  0  0  0  0
   -2.0797   -1.1888    0.0006 H   0  0  0  0  0  0  0  0  0  0  0  0
   -0.0011   -1.3973    0.0004 C   0  0  0  0  0  0  0  0  0  0  0  0
   -0.0055   -2.3941    0.0002 H   0  0  0  0  0  0  0  0  0  0  0  0
    1.2031   -0.6997   -0.0000 C   0  0  0  0  0  0  0  0  0  0  0  0
    2.0831   -1.1969    0.0017 H   0  0  0  0  0  0  0  0  0  0  0  0
    1.1975    0.6940   -0.0005 C   0  0  0  0  0  0  0  0  0  0  0  0
    2.0654    1.1897   -0.0016 H   0  0  0  0  0  0  0  0  0  0  0  0
  1  5  1  0
  5  6  1  0
  5  7  2  0
  1  2  1  0
  1  3  1  0
  1  4  1  0
  8 12  1  0
 12 13  2  0
 13 15  1  0
 15 17  2  0
 17 19  1  0
 19 21  2  0
 21 12  1  0
  8  9  1  0
  8 10  1  0
  8 11  1  0
 13 14  1  0
 15 16  1  0
 17 18  1  0
 19 20  1  0
 21 22  1  0
M  CHG  1   6  -1
M  END
>  <PDB_ID>  (49) 
pdb1l1e

>  <RESIDUE_NAME>  (49) 
GLU   PHE

>  <FRAG_NAME>  (49) 
ACET   MBZ

>  <FRAG_ATOM_NUM>  (49) 
fragi: 7  fragj: 15

>  <atom.prop.CHAIN_ID>  (49) 
A A A A A A A Z Z Z Z Z Z Z Z Z Z Z Z Z Z Z

>  <atom.prop.IS_HEAVY_ATOM>  (49) 
1 0 0 0 1 1 1 1 0 0 0 1 1 0 1 0 1 0 1 0 1 0

>  <DIFUSE_FUNC_ATOM>  (49) 
atom 6   atom 7   

>  <FINAL_SINGLE_POINT_ENERGY>  (49) 
0

>  <NONCOV_INTER_ENERGY_QM>  (49) 
0

>  <FF_Energy>  (49) 
7.64

>  <QM_Energy>  (49) 
-7.38

>  <source>  (49) 
ACET_MBZ_00

>  <Index>  (49) 
23369

$$$$
ACET-pdb1l8w-D-ASP-330:MBZ-pdb1l8w-B-PHE-59
     RDKit          3D

 22 21  0  0  0  0  0  0  0  0999 V2000
    3.3524   -5.3901   -0.5130 C   0  0  0  0  0  0  0  0  0  0  0  0
    4.1814   -5.1030   -0.0470 H   0  0  0  0  0  0  0  0  0  0  0  0
    3.5402   -5.5873   -1.4682 H   0  0  0  0  0  0  0  0  0  0  0  0
    3.0036   -6.3094   -0.0425 H   0  0  0  0  0  0  0  0  0  0  0  0
    2.3347   -4.2677   -0.4352 C   0  0  0  0  0  0  0  0  0  0  0  0
    1.1517   -4.5100   -0.7632 O   0  0  0  0  0  1  0  0  0  0  0  0
    2.7210   -3.1379   -0.0529 O   0  0  0  0  0  0  0  0  0  0  0  0
    0.0044    2.8976    0.0189 C   0  0  0  0  0  0  0  0  0  0  0  0
   -0.7346    3.2161   -0.5565 H   0  0  0  0  0  0  0  0  0  0  0  0
    0.8806    3.2087   -0.3186 H   0  0  0  0  0  0  0  0  0  0  0  0
   -0.1394    3.3260    1.0108 H   0  0  0  0  0  0  0  0  0  0  0  0
    0.0002    1.4012    0.0003 C   0  0  0  0  0  0  0  0  0  0  0  0
   -1.1982    0.6961    0.0002 C   0  0  0  0  0  0  0  0  0  0  0  0
   -2.0634    1.1861   -0.0008 H   0  0  0  0  0  0  0  0  0  0  0  0
   -1.2038   -0.6972   -0.0000 C   0  0  0  0  0  0  0  0  0  0  0  0
   -2.0790   -1.1904    0.0019 H   0  0  0  0  0  0  0  0  0  0  0  0
    0.0007   -1.3952   -0.0004 C   0  0  0  0  0  0  0  0  0  0  0  0
   -0.0041   -2.3928   -0.0015 H   0  0  0  0  0  0  0  0  0  0  0  0
    1.2038   -0.6978   -0.0000 C   0  0  0  0  0  0  0  0  0  0  0  0
    2.0843   -1.1953    0.0016 H   0  0  0  0  0  0  0  0  0  0  0  0
    1.1974    0.6929   -0.0000 C   0  0  0  0  0  0  0  0  0  0  0  0
    2.0650    1.1909   -0.0010 H   0  0  0  0  0  0  0  0  0  0  0  0
  1  5  1  0
  5  6  1  0
  5  7  2  0
  1  2  1  0
  1  3  1  0
  1  4  1  0
  8 12  1  0
 12 13  2  0
 13 15  1  0
 15 17  2  0
 17 19  1  0
 19 21  2  0
 21 12  1  0
  8  9  1  0
  8 10  1  0
  8 11  1  0
 13 14  1  0
 15 16  1  0
 17 18  1  0
 19 20  1  0
 21 22  1  0
M  CHG  1   6  -1
M  END
>  <PDB_ID>  (50) 
pdb1l8w

>  <RESIDUE_NAME>  (50) 
ASP   PHE

>  <FRAG_NAME>  (50) 
ACET   MBZ

>  <FRAG_ATOM_NUM>  (50) 
fragi: 7  fragj: 15

>  <atom.prop.CHAIN_ID>  (50) 
A A A A A A A Z Z Z Z Z Z Z Z Z Z Z Z Z Z Z

>  <atom.prop.IS_HEAVY_ATOM>  (50) 
1 0 0 0 1 1 1 1 0 0 0 1 1 0 1 0 1 0 1 0 1 0

>  <DIFUSE_FUNC_ATOM>  (50) 
atom 6   atom 7   

>  <FINAL_SINGLE_POINT_ENERGY>  (50) 
0

>  <NONCOV_INTER_ENERGY_QM>  (50) 
0

>  <FF_Energy>  (50) 
2.84

>  <QM_Energy>  (50) 
-7.32

>  <source>  (50) 
ACET_MBZ_00

>  <Index>  (50) 
23654

$$$$
ACET-pdb2pig-B-ASP-48:MBZ-pdb2pig-B-PHE-69
     RDKit          3D

 22 21  0  0  0  0  0  0  0  0999 V2000
    0.9910    5.6213    1.9725 C   0  0  0  0  0  0  0  0  0  0  0  0
    1.8457    5.8329    2.4319 H   0  0  0  0  0  0  0  0  0  0  0  0
    0.6696    4.7191    2.2330 H   0  0  0  0  0  0  0  0  0  0  0  0
    0.2472    6.3505    2.2937 H   0  0  0  0  0  0  0  0  0  0  0  0
    1.2285    5.6390    0.4684 C   0  0  0  0  0  0  0  0  0  0  0  0
    0.6908    6.5272   -0.2278 O   0  0  0  0  0  1  0  0  0  0  0  0
    1.9694    4.7584   -0.0185 O   0  0  0  0  0  0  0  0  0  0  0  0
   -0.0040    2.9064   -0.0753 C   0  0  0  0  0  0  0  0  0  0  0  0
    0.9233    3.2191    0.0419 H   0  0  0  0  0  0  0  0  0  0  0  0
   -0.5993    3.2442    0.6337 H   0  0  0  0  0  0  0  0  0  0  0  0
   -0.3686    3.2881   -1.0289 H   0  0  0  0  0  0  0  0  0  0  0  0
   -0.0002    1.3997   -0.0009 C   0  0  0  0  0  0  0  0  0  0  0  0
   -1.1925    0.6922    0.0018 C   0  0  0  0  0  0  0  0  0  0  0  0
   -2.0607    1.1838    0.0042 H   0  0  0  0  0  0  0  0  0  0  0  0
   -1.1980   -0.6936    0.0000 C   0  0  0  0  0  0  0  0  0  0  0  0
   -2.0763   -1.1876    0.0011 H   0  0  0  0  0  0  0  0  0  0  0  0
   -0.0011   -1.3909   -0.0019 C   0  0  0  0  0  0  0  0  0  0  0  0
   -0.0066   -2.3900   -0.0054 H   0  0  0  0  0  0  0  0  0  0  0  0
    1.1980   -0.6974   -0.0000 C   0  0  0  0  0  0  0  0  0  0  0  0
    2.0797   -1.1966    0.0021 H   0  0  0  0  0  0  0  0  0  0  0  0
    1.1938    0.6899    0.0011 C   0  0  0  0  0  0  0  0  0  0  0  0
    2.0627    1.1869    0.0020 H   0  0  0  0  0  0  0  0  0  0  0  0
  1  5  1  0
  5  6  1  0
  5  7  2  0
  1  2  1  0
  1  3  1  0
  1  4  1  0
  8 12  1  0
 12 13  2  0
 13 15  1  0
 15 17  2  0
 17 19  1  0
 19 21  2  0
 21 12  1  0
  8  9  1  0
  8 10  1  0
  8 11  1  0
 13 14  1  0
 15 16  1  0
 17 18  1  0
 19 20  1  0
 21 22  1  0
M  CHG  1   6  -1
M  END
>  <PDB_ID>  (51) 
pdb2pig

>  <RESIDUE_NAME>  (51) 
ASP   PHE

>  <FRAG_NAME>  (51) 
ACET   MBZ

>  <FRAG_ATOM_NUM>  (51) 
fragi: 7  fragj: 15

>  <atom.prop.CHAIN_ID>  (51) 
A A A A A A A Z Z Z Z Z Z Z Z Z Z Z Z Z Z Z

>  <atom.prop.IS_HEAVY_ATOM>  (51) 
1 0 0 0 1 1 1 1 0 0 0 1 1 0 1 0 1 0 1 0 1 0

>  <DIFUSE_FUNC_ATOM>  (51) 
atom 6   atom 7   

>  <FINAL_SINGLE_POINT_ENERGY>  (51) 
0

>  <NONCOV_INTER_ENERGY_QM>  (51) 
0

>  <FF_Energy>  (51) 
20.28

>  <QM_Energy>  (51) 
-1.56

>  <source>  (51) 
ACET_MBZ_00

>  <Index>  (51) 
23780

$$$$
ACET-pdb2pke-B-GLU-80:MBZ-pdb2pke-B-PHE-67
     RDKit          3D

 22 21  0  0  0  0  0  0  0  0999 V2000
    3.2371   -3.3003    1.8026 C   0  0  0  0  0  0  0  0  0  0  0  0
    3.0405   -4.1992    2.1218 H   0  0  0  0  0  0  0  0  0  0  0  0
    2.6918   -2.6070    2.2151 H   0  0  0  0  0  0  0  0  0  0  0  0
    4.2874   -3.0823    1.9961 H   0  0  0  0  0  0  0  0  0  0  0  0
    2.9322   -3.2779    0.2925 C   0  0  0  0  0  0  0  0  0  0  0  0
    3.7055   -3.0583   -0.5918 O   0  0  0  0  0  1  0  0  0  0  0  0
    1.7018   -3.5211    0.1007 O   0  0  0  0  0  0  0  0  0  0  0  0
   -0.0026    2.8463   -0.0006 C   0  0  0  0  0  0  0  0  0  0  0  0
    0.9299    3.1668    0.1192 H   0  0  0  0  0  0  0  0  0  0  0  0
   -0.5793    3.1677    0.7420 H   0  0  0  0  0  0  0  0  0  0  0  0
   -0.3853    3.2703   -0.9290 H   0  0  0  0  0  0  0  0  0  0  0  0
    0.0015    1.3814    0.0121 C   0  0  0  0  0  0  0  0  0  0  0  0
   -1.1872    0.6906   -0.0048 C   0  0  0  0  0  0  0  0  0  0  0  0
   -2.0542    1.1888   -0.0215 H   0  0  0  0  0  0  0  0  0  0  0  0
   -1.1981   -0.6827    0.0000 C   0  0  0  0  0  0  0  0  0  0  0  0
   -2.0770   -1.1810    0.0069 H   0  0  0  0  0  0  0  0  0  0  0  0
   -0.0010   -1.3887   -0.0031 C   0  0  0  0  0  0  0  0  0  0  0  0
   -0.0107   -2.3847   -0.0085 H   0  0  0  0  0  0  0  0  0  0  0  0
    1.1981   -0.6940    0.0000 C   0  0  0  0  0  0  0  0  0  0  0  0
    2.0796   -1.1899    0.0068 H   0  0  0  0  0  0  0  0  0  0  0  0
    1.1867    0.6934   -0.0042 C   0  0  0  0  0  0  0  0  0  0  0  0
    2.0573    1.1903   -0.0201 H   0  0  0  0  0  0  0  0  0  0  0  0
  1  5  1  0
  5  6  1  0
  5  7  2  0
  1  2  1  0
  1  3  1  0
  1  4  1  0
  8 12  1  0
 12 13  2  0
 13 15  1  0
 15 17  2  0
 17 19  1  0
 19 21  2  0
 21 12  1  0
  8  9  1  0
  8 10  1  0
  8 11  1  0
 13 14  1  0
 15 16  1  0
 17 18  1  0
 19 20  1  0
 21 22  1  0
M  CHG  1   6  -1
M  END
>  <PDB_ID>  (52) 
pdb2pke

>  <RESIDUE_NAME>  (52) 
GLU   PHE

>  <FRAG_NAME>  (52) 
ACET   MBZ

>  <FRAG_ATOM_NUM>  (52) 
fragi: 7  fragj: 15

>  <atom.prop.CHAIN_ID>  (52) 
A A A A A A A Z Z Z Z Z Z Z Z Z Z Z Z Z Z Z

>  <atom.prop.IS_HEAVY_ATOM>  (52) 
1 0 0 0 1 1 1 1 0 0 0 1 1 0 1 0 1 0 1 0 1 0

>  <DIFUSE_FUNC_ATOM>  (52) 
atom 6   atom 7   

>  <FINAL_SINGLE_POINT_ENERGY>  (52) 
0

>  <NONCOV_INTER_ENERGY_QM>  (52) 
0

>  <FF_Energy>  (52) 
10.41

>  <QM_Energy>  (52) 
-3.93

>  <source>  (52) 
ACET_MBZ_00

>  <Index>  (52) 
23849

$$$$
ACET-pdb2ppy-C-GLU-5:MBZ-pdb2ppy-C-PHE-14
     RDKit          3D

 22 21  0  0  0  0  0  0  0  0999 V2000
   -4.4024    0.2207   -2.4653 C   0  0  0  0  0  0  0  0  0  0  0  0
   -5.1344    0.8403   -2.6802 H   0  0  0  0  0  0  0  0  0  0  0  0
   -4.4193   -0.5857   -3.0263 H   0  0  0  0  0  0  0  0  0  0  0  0
   -3.4564    0.7360   -2.6319 H   0  0  0  0  0  0  0  0  0  0  0  0
   -4.5823   -0.2188   -1.0255 C   0  0  0  0  0  0  0  0  0  0  0  0
   -3.9416   -1.2086   -0.6133 O   0  0  0  0  0  1  0  0  0  0  0  0
   -5.3660    0.4358   -0.3018 O   0  0  0  0  0  0  0  0  0  0  0  0
    0.0043    2.9018    0.0130 C   0  0  0  0  0  0  0  0  0  0  0  0
    0.8597    3.2044    0.4089 H   0  0  0  0  0  0  0  0  0  0  0  0
   -0.7674    3.2064    0.5540 H   0  0  0  0  0  0  0  0  0  0  0  0
   -0.0830    3.3542   -0.9749 H   0  0  0  0  0  0  0  0  0  0  0  0
    0.0012    1.4031    0.0004 C   0  0  0  0  0  0  0  0  0  0  0  0
   -1.1953    0.6958   -0.0011 C   0  0  0  0  0  0  0  0  0  0  0  0
   -2.0627    1.1846   -0.0042 H   0  0  0  0  0  0  0  0  0  0  0  0
   -1.2016   -0.6986    0.0000 C   0  0  0  0  0  0  0  0  0  0  0  0
   -2.0795   -1.1893    0.0008 H   0  0  0  0  0  0  0  0  0  0  0  0
   -0.0009   -1.3966    0.0015 C   0  0  0  0  0  0  0  0  0  0  0  0
   -0.0043   -2.3947    0.0034 H   0  0  0  0  0  0  0  0  0  0  0  0
    1.2016   -0.6984   -0.0000 C   0  0  0  0  0  0  0  0  0  0  0  0
    2.0824   -1.1944    0.0007 H   0  0  0  0  0  0  0  0  0  0  0  0
    1.1950    0.6947   -0.0008 C   0  0  0  0  0  0  0  0  0  0  0  0
    2.0650    1.1894   -0.0027 H   0  0  0  0  0  0  0  0  0  0  0  0
  1  5  1  0
  5  6  1  0
  5  7  2  0
  1  2  1  0
  1  3  1  0
  1  4  1  0
  8 12  1  0
 12 13  2  0
 13 15  1  0
 15 17  2  0
 17 19  1  0
 19 21  2  0
 21 12  1  0
  8  9  1  0
  8 10  1  0
  8 11  1  0
 13 14  1  0
 15 16  1  0
 17 18  1  0
 19 20  1  0
 21 22  1  0
M  CHG  1   6  -1
M  END
>  <PDB_ID>  (53) 
pdb2ppy

>  <RESIDUE_NAME>  (53) 
GLU   PHE

>  <FRAG_NAME>  (53) 
ACET   MBZ

>  <FRAG_ATOM_NUM>  (53) 
fragi: 7  fragj: 15

>  <atom.prop.CHAIN_ID>  (53) 
A A A A A A A Z Z Z Z Z Z Z Z Z Z Z Z Z Z Z

>  <atom.prop.IS_HEAVY_ATOM>  (53) 
1 0 0 0 1 1 1 1 0 0 0 1 1 0 1 0 1 0 1 0 1 0

>  <DIFUSE_FUNC_ATOM>  (53) 
atom 6   atom 7   

>  <FINAL_SINGLE_POINT_ENERGY>  (53) 
0

>  <NONCOV_INTER_ENERGY_QM>  (53) 
0

>  <FF_Energy>  (53) 
7.41

>  <QM_Energy>  (53) 
-5.94

>  <source>  (53) 
ACET_MBZ_00

>  <Index>  (53) 
24270

$$$$
ACET-pdb2ppy-D-GLU-5:MBZ-pdb2ppy-D-PHE-14
     RDKit          3D

 22 21  0  0  0  0  0  0  0  0999 V2000
   -4.4072    0.6014   -0.6785 C   0  0  0  0  0  0  0  0  0  0  0  0
   -3.6597    1.0677   -0.2062 H   0  0  0  0  0  0  0  0  0  0  0  0
   -5.1487    1.2488   -0.8530 H   0  0  0  0  0  0  0  0  0  0  0  0
   -4.0270    0.2691   -1.6444 H   0  0  0  0  0  0  0  0  0  0  0  0
   -4.9449   -0.4657    0.2595 C   0  0  0  0  0  0  0  0  0  0  0  0
   -5.3899   -1.5658   -0.1663 O   0  0  0  0  0  1  0  0  0  0  0  0
   -4.9478   -0.1752    1.4781 O   0  0  0  0  0  0  0  0  0  0  0  0
   -0.0013    2.9098   -0.0031 C   0  0  0  0  0  0  0  0  0  0  0  0
    0.8833    3.2177    0.3145 H   0  0  0  0  0  0  0  0  0  0  0  0
   -0.7257    3.2176    0.5963 H   0  0  0  0  0  0  0  0  0  0  0  0
   -0.1731    3.3516   -0.9846 H   0  0  0  0  0  0  0  0  0  0  0  0
   -0.0002    1.4052    0.0006 C   0  0  0  0  0  0  0  0  0  0  0  0
   -1.1947    0.7001   -0.0014 C   0  0  0  0  0  0  0  0  0  0  0  0
   -2.0634    1.1863   -0.0048 H   0  0  0  0  0  0  0  0  0  0  0  0
   -1.2013   -0.6991    0.0000 C   0  0  0  0  0  0  0  0  0  0  0  0
   -2.0794   -1.1877    0.0026 H   0  0  0  0  0  0  0  0  0  0  0  0
   -0.0009   -1.3975   -0.0003 C   0  0  0  0  0  0  0  0  0  0  0  0
   -0.0068   -2.3965   -0.0015 H   0  0  0  0  0  0  0  0  0  0  0  0
    1.2013   -0.7036   -0.0000 C   0  0  0  0  0  0  0  0  0  0  0  0
    2.0816   -1.1972    0.0010 H   0  0  0  0  0  0  0  0  0  0  0  0
    1.1958    0.6949    0.0011 C   0  0  0  0  0  0  0  0  0  0  0  0
    2.0653    1.1881    0.0010 H   0  0  0  0  0  0  0  0  0  0  0  0
  1  5  1  0
  5  6  1  0
  5  7  2  0
  1  2  1  0
  1  3  1  0
  1  4  1  0
  8 12  1  0
 12 13  2  0
 13 15  1  0
 15 17  2  0
 17 19  1  0
 19 21  2  0
 21 12  1  0
  8  9  1  0
  8 10  1  0
  8 11  1  0
 13 14  1  0
 15 16  1  0
 17 18  1  0
 19 20  1  0
 21 22  1  0
M  CHG  1   6  -1
M  END
>  <PDB_ID>  (54) 
pdb2ppy

>  <RESIDUE_NAME>  (54) 
GLU   PHE

>  <FRAG_NAME>  (54) 
ACET   MBZ

>  <FRAG_ATOM_NUM>  (54) 
fragi: 7  fragj: 15

>  <atom.prop.CHAIN_ID>  (54) 
A A A A A A A Z Z Z Z Z Z Z Z Z Z Z Z Z Z Z

>  <atom.prop.IS_HEAVY_ATOM>  (54) 
1 0 0 0 1 1 1 1 0 0 0 1 1 0 1 0 1 0 1 0 1 0

>  <DIFUSE_FUNC_ATOM>  (54) 
atom 6   atom 7   

>  <FINAL_SINGLE_POINT_ENERGY>  (54) 
0

>  <NONCOV_INTER_ENERGY_QM>  (54) 
0

>  <FF_Energy>  (54) 
11.78

>  <QM_Energy>  (54) 
-1.06

>  <source>  (54) 
ACET_MBZ_00

>  <Index>  (54) 
24273

$$$$
ACET-pdb2ppy-E-GLU-5:MBZ-pdb2ppy-E-PHE-14
     RDKit          3D

 22 21  0  0  0  0  0  0  0  0999 V2000
   -3.3864   -0.5820   -2.5021 C   0  0  0  0  0  0  0  0  0  0  0  0
   -3.0975   -0.9044   -3.3823 H   0  0  0  0  0  0  0  0  0  0  0  0
   -2.6432   -0.2334   -1.9659 H   0  0  0  0  0  0  0  0  0  0  0  0
   -4.1141    0.2163   -2.6479 H   0  0  0  0  0  0  0  0  0  0  0  0
   -3.9737   -1.7653   -1.7527 C   0  0  0  0  0  0  0  0  0  0  0  0
   -4.7409   -2.5381   -2.3647 O   0  0  0  0  0  1  0  0  0  0  0  0
   -3.6805   -1.9172   -0.5487 O   0  0  0  0  0  0  0  0  0  0  0  0
    0.0056    2.9038    0.0371 C   0  0  0  0  0  0  0  0  0  0  0  0
    0.8886    3.1996    0.3749 H   0  0  0  0  0  0  0  0  0  0  0  0
   -0.7219    3.1993    0.6413 H   0  0  0  0  0  0  0  0  0  0  0  0
   -0.1551    3.3763   -0.9319 H   0  0  0  0  0  0  0  0  0  0  0  0
    0.0003    1.4044    0.0002 C   0  0  0  0  0  0  0  0  0  0  0  0
   -1.1971    0.6969   -0.0017 C   0  0  0  0  0  0  0  0  0  0  0  0
   -2.0636    1.1848   -0.0051 H   0  0  0  0  0  0  0  0  0  0  0  0
   -1.2017   -0.6991   -0.0000 C   0  0  0  0  0  0  0  0  0  0  0  0
   -2.0791   -1.1904    0.0011 H   0  0  0  0  0  0  0  0  0  0  0  0
   -0.0000   -1.3982    0.0017 C   0  0  0  0  0  0  0  0  0  0  0  0
   -0.0042   -2.3958    0.0032 H   0  0  0  0  0  0  0  0  0  0  0  0
    1.2017   -0.7001   -0.0000 C   0  0  0  0  0  0  0  0  0  0  0  0
    2.0836   -1.1949    0.0003 H   0  0  0  0  0  0  0  0  0  0  0  0
    1.1969    0.6961   -0.0001 C   0  0  0  0  0  0  0  0  0  0  0  0
    2.0652    1.1901   -0.0015 H   0  0  0  0  0  0  0  0  0  0  0  0
  1  5  1  0
  5  6  1  0
  5  7  2  0
  1  2  1  0
  1  3  1  0
  1  4  1  0
  8 12  1  0
 12 13  2  0
 13 15  1  0
 15 17  2  0
 17 19  1  0
 19 21  2  0
 21 12  1  0
  8  9  1  0
  8 10  1  0
  8 11  1  0
 13 14  1  0
 15 16  1  0
 17 18  1  0
 19 20  1  0
 21 22  1  0
M  CHG  1   6  -1
M  END
>  <PDB_ID>  (55) 
pdb2ppy

>  <RESIDUE_NAME>  (55) 
GLU   PHE

>  <FRAG_NAME>  (55) 
ACET   MBZ

>  <FRAG_ATOM_NUM>  (55) 
fragi: 7  fragj: 15

>  <atom.prop.CHAIN_ID>  (55) 
A A A A A A A Z Z Z Z Z Z Z Z Z Z Z Z Z Z Z

>  <atom.prop.IS_HEAVY_ATOM>  (55) 
1 0 0 0 1 1 1 1 0 0 0 1 1 0 1 0 1 0 1 0 1 0

>  <DIFUSE_FUNC_ATOM>  (55) 
atom 6   atom 7   

>  <FINAL_SINGLE_POINT_ENERGY>  (55) 
0

>  <NONCOV_INTER_ENERGY_QM>  (55) 
0

>  <FF_Energy>  (55) 
22.85

>  <QM_Energy>  (55) 
-3.31

>  <source>  (55) 
ACET_MBZ_00

>  <Index>  (55) 
24276

$$$$
ACET-pdb1lq8-G-ASP-28:MBZ-pdb1lq8-G-PHE-31
     RDKit          3D

 22 21  0  0  0  0  0  0  0  0999 V2000
    4.3483    4.2951    0.6995 C   0  0  0  0  0  0  0  0  0  0  0  0
    4.7293    4.5885    1.5723 H   0  0  0  0  0  0  0  0  0  0  0  0
    3.4821    4.7584    0.5332 H   0  0  0  0  0  0  0  0  0  0  0  0
    5.0436    4.5950   -0.0847 H   0  0  0  0  0  0  0  0  0  0  0  0
    4.1149    2.8160    0.7375 C   0  0  0  0  0  0  0  0  0  0  0  0
    3.6423    2.2680   -0.2735 O   0  0  0  0  0  1  0  0  0  0  0  0
    4.4021    2.2032    1.7840 O   0  0  0  0  0  0  0  0  0  0  0  0
    0.0002    2.9015   -0.1740 C   0  0  0  0  0  0  0  0  0  0  0  0
    0.8687    3.2449    0.1350 H   0  0  0  0  0  0  0  0  0  0  0  0
   -0.7508    3.2693    0.3446 H   0  0  0  0  0  0  0  0  0  0  0  0
   -0.1300    3.1989   -1.2145 H   0  0  0  0  0  0  0  0  0  0  0  0
   -0.0004    1.4124   -0.0027 C   0  0  0  0  0  0  0  0  0  0  0  0
   -1.1941    0.7038    0.0031 C   0  0  0  0  0  0  0  0  0  0  0  0
   -2.0639    1.1863    0.0082 H   0  0  0  0  0  0  0  0  0  0  0  0
   -1.1987   -0.7010   -0.0000 C   0  0  0  0  0  0  0  0  0  0  0  0
   -2.0794   -1.1870    0.0012 H   0  0  0  0  0  0  0  0  0  0  0  0
   -0.0002   -1.4041   -0.0032 C   0  0  0  0  0  0  0  0  0  0  0  0
   -0.0072   -2.4004   -0.0081 H   0  0  0  0  0  0  0  0  0  0  0  0
    1.1987   -0.7081    0.0000 C   0  0  0  0  0  0  0  0  0  0  0  0
    2.0824   -1.1984    0.0018 H   0  0  0  0  0  0  0  0  0  0  0  0
    1.1947    0.6969    0.0028 C   0  0  0  0  0  0  0  0  0  0  0  0
    2.0658    1.1855    0.0083 H   0  0  0  0  0  0  0  0  0  0  0  0
  1  5  1  0
  5  6  1  0
  5  7  2  0
  1  2  1  0
  1  3  1  0
  1  4  1  0
  8 12  1  0
 12 13  2  0
 13 15  1  0
 15 17  2  0
 17 19  1  0
 19 21  2  0
 21 12  1  0
  8  9  1  0
  8 10  1  0
  8 11  1  0
 13 14  1  0
 15 16  1  0
 17 18  1  0
 19 20  1  0
 21 22  1  0
M  CHG  1   6  -1
M  END
>  <PDB_ID>  (56) 
pdb1lq8

>  <RESIDUE_NAME>  (56) 
ASP   PHE

>  <FRAG_NAME>  (56) 
ACET   MBZ

>  <FRAG_ATOM_NUM>  (56) 
fragi: 7  fragj: 15

>  <atom.prop.CHAIN_ID>  (56) 
A A A A A A A Z Z Z Z Z Z Z Z Z Z Z Z Z Z Z

>  <atom.prop.IS_HEAVY_ATOM>  (56) 
1 0 0 0 1 1 1 1 0 0 0 1 1 0 1 0 1 0 1 0 1 0

>  <DIFUSE_FUNC_ATOM>  (56) 
atom 6   atom 7   

>  <FINAL_SINGLE_POINT_ENERGY>  (56) 
0

>  <NONCOV_INTER_ENERGY_QM>  (56) 
0

>  <FF_Energy>  (56) 
9.91

>  <QM_Energy>  (56) 
-7.04

>  <source>  (56) 
ACET_MBZ_00

>  <Index>  (56) 
24386

$$$$
ACET-pdb2psm-B-ASP-28:MBZ-pdb2psm-B-PHE-31
     RDKit          3D

 22 21  0  0  0  0  0  0  0  0999 V2000
    4.4957    3.5179   -1.3000 C   0  0  0  0  0  0  0  0  0  0  0  0
    4.7810    4.2031   -1.9591 H   0  0  0  0  0  0  0  0  0  0  0  0
    4.2656    2.6667   -1.7552 H   0  0  0  0  0  0  0  0  0  0  0  0
    5.3297    3.3281   -0.6244 H   0  0  0  0  0  0  0  0  0  0  0  0
    3.2588    4.0302   -0.5729 C   0  0  0  0  0  0  0  0  0  0  0  0
    3.3583    4.3754    0.6279 O   0  0  0  0  0  1  0  0  0  0  0  0
    2.1862    4.0969   -1.2088 O   0  0  0  0  0  0  0  0  0  0  0  0
    0.0052    2.8995    0.0554 C   0  0  0  0  0  0  0  0  0  0  0  0
   -0.7403    3.2300   -0.5015 H   0  0  0  0  0  0  0  0  0  0  0  0
    0.8777    3.2162   -0.2832 H   0  0  0  0  0  0  0  0  0  0  0  0
   -0.1271    3.2943    1.0628 H   0  0  0  0  0  0  0  0  0  0  0  0
   -0.0001    1.4030    0.0002 C   0  0  0  0  0  0  0  0  0  0  0  0
   -1.1981    0.6961    0.0003 C   0  0  0  0  0  0  0  0  0  0  0  0
   -2.0643    1.1853   -0.0005 H   0  0  0  0  0  0  0  0  0  0  0  0
   -1.2040   -0.6991    0.0000 C   0  0  0  0  0  0  0  0  0  0  0  0
   -2.0790   -1.1914    0.0007 H   0  0  0  0  0  0  0  0  0  0  0  0
    0.0013   -1.3975    0.0006 C   0  0  0  0  0  0  0  0  0  0  0  0
   -0.0022   -2.3940    0.0011 H   0  0  0  0  0  0  0  0  0  0  0  0
    1.2040   -0.6978    0.0000 C   0  0  0  0  0  0  0  0  0  0  0  0
    2.0850   -1.1938    0.0022 H   0  0  0  0  0  0  0  0  0  0  0  0
    1.1969    0.6953   -0.0011 C   0  0  0  0  0  0  0  0  0  0  0  0
    2.0653    1.1915   -0.0034 H   0  0  0  0  0  0  0  0  0  0  0  0
  1  5  1  0
  5  6  1  0
  5  7  2  0
  1  2  1  0
  1  3  1  0
  1  4  1  0
  8 12  1  0
 12 13  2  0
 13 15  1  0
 15 17  2  0
 17 19  1  0
 19 21  2  0
 21 12  1  0
  8  9  1  0
  8 10  1  0
  8 11  1  0
 13 14  1  0
 15 16  1  0
 17 18  1  0
 19 20  1  0
 21 22  1  0
M  CHG  1   6  -1
M  END
>  <PDB_ID>  (57) 
pdb2psm

>  <RESIDUE_NAME>  (57) 
ASP   PHE

>  <FRAG_NAME>  (57) 
ACET   MBZ

>  <FRAG_ATOM_NUM>  (57) 
fragi: 7  fragj: 15

>  <atom.prop.CHAIN_ID>  (57) 
A A A A A A A Z Z Z Z Z Z Z Z Z Z Z Z Z Z Z

>  <atom.prop.IS_HEAVY_ATOM>  (57) 
1 0 0 0 1 1 1 1 0 0 0 1 1 0 1 0 1 0 1 0 1 0

>  <DIFUSE_FUNC_ATOM>  (57) 
atom 6   atom 7   

>  <FINAL_SINGLE_POINT_ENERGY>  (57) 
0

>  <NONCOV_INTER_ENERGY_QM>  (57) 
0

>  <FF_Energy>  (57) 
21.56

>  <QM_Energy>  (57) 
-4.25

>  <source>  (57) 
ACET_MBZ_00

>  <Index>  (57) 
24459

$$$$
ACET-pdb1mkm-B-GLU-66:MBZ-pdb1mkm-B-PHE-70
     RDKit          3D

 22 21  0  0  0  0  0  0  0  0999 V2000
   -4.5469   -0.4964    1.0794 C   0  0  0  0  0  0  0  0  0  0  0  0
   -3.8690    0.0872    0.6655 H   0  0  0  0  0  0  0  0  0  0  0  0
   -4.2526   -0.8312    1.9587 H   0  0  0  0  0  0  0  0  0  0  0  0
   -5.4616    0.0805    1.2163 H   0  0  0  0  0  0  0  0  0  0  0  0
   -4.7185   -1.7081    0.1692 C   0  0  0  0  0  0  0  0  0  0  0  0
   -5.8505   -1.9825   -0.2897 O   0  0  0  0  0  1  0  0  0  0  0  0
   -3.7033   -2.3849   -0.0883 O   0  0  0  0  0  0  0  0  0  0  0  0
    0.0034    2.9147   -0.0601 C   0  0  0  0  0  0  0  0  0  0  0  0
   -0.9189    3.2161   -0.2588 H   0  0  0  0  0  0  0  0  0  0  0  0
    0.6297    3.1932   -0.7748 H   0  0  0  0  0  0  0  0  0  0  0  0
    0.3182    3.4010    0.8633 H   0  0  0  0  0  0  0  0  0  0  0  0
    0.0010    1.4116   -0.0017 C   0  0  0  0  0  0  0  0  0  0  0  0
   -1.1958    0.7034    0.0021 C   0  0  0  0  0  0  0  0  0  0  0  0
   -2.0644    1.1882    0.0052 H   0  0  0  0  0  0  0  0  0  0  0  0
   -1.2050   -0.7022   -0.0000 C   0  0  0  0  0  0  0  0  0  0  0  0
   -2.0834   -1.1869    0.0008 H   0  0  0  0  0  0  0  0  0  0  0  0
   -0.0030   -1.4048   -0.0009 C   0  0  0  0  0  0  0  0  0  0  0  0
   -0.0073   -2.4001   -0.0025 H   0  0  0  0  0  0  0  0  0  0  0  0
    1.2050   -0.7060    0.0000 C   0  0  0  0  0  0  0  0  0  0  0  0
    2.0838   -1.1984    0.0015 H   0  0  0  0  0  0  0  0  0  0  0  0
    1.1978    0.6980    0.0004 C   0  0  0  0  0  0  0  0  0  0  0  0
    2.0681    1.1896    0.0012 H   0  0  0  0  0  0  0  0  0  0  0  0
  1  5  1  0
  5  6  1  0
  5  7  2  0
  1  2  1  0
  1  3  1  0
  1  4  1  0
  8 12  1  0
 12 13  2  0
 13 15  1  0
 15 17  2  0
 17 19  1  0
 19 21  2  0
 21 12  1  0
  8  9  1  0
  8 10  1  0
  8 11  1  0
 13 14  1  0
 15 16  1  0
 17 18  1  0
 19 20  1  0
 21 22  1  0
M  CHG  1   6  -1
M  END
>  <PDB_ID>  (58) 
pdb1mkm

>  <RESIDUE_NAME>  (58) 
GLU   PHE

>  <FRAG_NAME>  (58) 
ACET   MBZ

>  <FRAG_ATOM_NUM>  (58) 
fragi: 7  fragj: 15

>  <atom.prop.CHAIN_ID>  (58) 
A A A A A A A Z Z Z Z Z Z Z Z Z Z Z Z Z Z Z

>  <atom.prop.IS_HEAVY_ATOM>  (58) 
1 0 0 0 1 1 1 1 0 0 0 1 1 0 1 0 1 0 1 0 1 0

>  <DIFUSE_FUNC_ATOM>  (58) 
atom 6   atom 7   

>  <FINAL_SINGLE_POINT_ENERGY>  (58) 
0

>  <NONCOV_INTER_ENERGY_QM>  (58) 
0

>  <FF_Energy>  (58) 
4.79

>  <QM_Energy>  (58) 
-5.48

>  <source>  (58) 
ACET_MBZ_00

>  <Index>  (58) 
25869

$$$$
ACET-pdb2qk8-A-ASP-10:MBZ-pdb2qk8-A-PHE-121
     RDKit          3D

 22 21  0  0  0  0  0  0  0  0999 V2000
   -6.1685    1.9861    0.5730 C   0  0  0  0  0  0  0  0  0  0  0  0
   -6.6323    2.5366   -0.1127 H   0  0  0  0  0  0  0  0  0  0  0  0
   -6.5535    2.1548    1.4724 H   0  0  0  0  0  0  0  0  0  0  0  0
   -6.3645    0.9415    0.3312 H   0  0  0  0  0  0  0  0  0  0  0  0
   -4.7187    2.2977    0.5757 C   0  0  0  0  0  0  0  0  0  0  0  0
   -3.9827    1.3697    0.2436 O   0  0  0  0  0  1  0  0  0  0  0  0
   -4.1969    3.3829    0.8920 O   0  0  0  0  0  0  0  0  0  0  0  0
   -0.0149    2.9587   -0.0080 C   0  0  0  0  0  0  0  0  0  0  0  0
   -0.7808    3.2405   -0.5651 H   0  0  0  0  0  0  0  0  0  0  0  0
    0.8432    3.2529   -0.4012 H   0  0  0  0  0  0  0  0  0  0  0  0
   -0.1170    3.4369    0.9662 H   0  0  0  0  0  0  0  0  0  0  0  0
   -0.0054    1.4186    0.0139 C   0  0  0  0  0  0  0  0  0  0  0  0
   -1.1878    0.6932   -0.0019 C   0  0  0  0  0  0  0  0  0  0  0  0
   -2.0670    1.1661   -0.0160 H   0  0  0  0  0  0  0  0  0  0  0  0
   -1.1920   -0.7232    0.0000 C   0  0  0  0  0  0  0  0  0  0  0  0
   -2.0708   -1.2023    0.0051 H   0  0  0  0  0  0  0  0  0  0  0  0
    0.0038   -1.4037   -0.0032 C   0  0  0  0  0  0  0  0  0  0  0  0
    0.0142   -2.4036   -0.0086 H   0  0  0  0  0  0  0  0  0  0  0  0
    1.1920   -0.6945   -0.0000 C   0  0  0  0  0  0  0  0  0  0  0  0
    2.0838   -1.1819    0.0107 H   0  0  0  0  0  0  0  0  0  0  0  0
    1.1894    0.7096   -0.0088 C   0  0  0  0  0  0  0  0  0  0  0  0
    2.0597    1.1980   -0.0328 H   0  0  0  0  0  0  0  0  0  0  0  0
  1  5  1  0
  5  6  1  0
  5  7  2  0
  1  2  1  0
  1  3  1  0
  1  4  1  0
  8 12  1  0
 12 13  2  0
 13 15  1  0
 15 17  2  0
 17 19  1  0
 19 21  2  0
 21 12  1  0
  8  9  1  0
  8 10  1  0
  8 11  1  0
 13 14  1  0
 15 16  1  0
 17 18  1  0
 19 20  1  0
 21 22  1  0
M  CHG  1   6  -1
M  END
>  <PDB_ID>  (59) 
pdb2qk8

>  <RESIDUE_NAME>  (59) 
ASP   PHE

>  <FRAG_NAME>  (59) 
ACET   MBZ

>  <FRAG_ATOM_NUM>  (59) 
fragi: 7  fragj: 15

>  <atom.prop.CHAIN_ID>  (59) 
A A A A A A A Z Z Z Z Z Z Z Z Z Z Z Z Z Z Z

>  <atom.prop.IS_HEAVY_ATOM>  (59) 
1 0 0 0 1 1 1 1 0 0 0 1 1 0 1 0 1 0 1 0 1 0

>  <DIFUSE_FUNC_ATOM>  (59) 
atom 6   atom 7   

>  <FINAL_SINGLE_POINT_ENERGY>  (59) 
0

>  <NONCOV_INTER_ENERGY_QM>  (59) 
0

>  <FF_Energy>  (59) 
8.92

>  <QM_Energy>  (59) 
-7.28

>  <source>  (59) 
ACET_MBZ_00

>  <Index>  (59) 
26180

$$$$
ACET-pdb2qts-B-ASP-312:MBZ-pdb2qts-B-PHE-300
     RDKit          3D

 22 21  0  0  0  0  0  0  0  0999 V2000
    5.2313    2.0179    1.1292 C   0  0  0  0  0  0  0  0  0  0  0  0
    5.6043    2.9098    1.3604 H   0  0  0  0  0  0  0  0  0  0  0  0
    5.8825    1.4987    0.5881 H   0  0  0  0  0  0  0  0  0  0  0  0
    5.0572    1.4753    2.0584 H   0  0  0  0  0  0  0  0  0  0  0  0
    3.9668    2.2133    0.3178 C   0  0  0  0  0  0  0  0  0  0  0  0
    3.0604    2.9457    0.7761 O   0  0  0  0  0  1  0  0  0  0  0  0
    3.8822    1.6278   -0.7858 O   0  0  0  0  0  0  0  0  0  0  0  0
   -0.0011    2.9087    0.0249 C   0  0  0  0  0  0  0  0  0  0  0  0
    0.9344    3.2172   -0.0602 H   0  0  0  0  0  0  0  0  0  0  0  0
   -0.3996    3.2004    0.8818 H   0  0  0  0  0  0  0  0  0  0  0  0
   -0.5761    3.3639   -0.7816 H   0  0  0  0  0  0  0  0  0  0  0  0
    0.0000    1.4042   -0.0001 C   0  0  0  0  0  0  0  0  0  0  0  0
   -1.1969    0.6943   -0.0000 C   0  0  0  0  0  0  0  0  0  0  0  0
   -2.0639    1.1837   -0.0015 H   0  0  0  0  0  0  0  0  0  0  0  0
   -1.2023   -0.6993    0.0000 C   0  0  0  0  0  0  0  0  0  0  0  0
   -2.0783   -1.1918    0.0008 H   0  0  0  0  0  0  0  0  0  0  0  0
    0.0006   -1.3967    0.0011 C   0  0  0  0  0  0  0  0  0  0  0  0
   -0.0025   -2.3942    0.0021 H   0  0  0  0  0  0  0  0  0  0  0  0
    1.2023   -0.6974    0.0000 C   0  0  0  0  0  0  0  0  0  0  0  0
    2.0838   -1.1940    0.0008 H   0  0  0  0  0  0  0  0  0  0  0  0
    1.1962    0.6949   -0.0010 C   0  0  0  0  0  0  0  0  0  0  0  0
    2.0648    1.1909   -0.0029 H   0  0  0  0  0  0  0  0  0  0  0  0
  1  5  1  0
  5  6  1  0
  5  7  2  0
  1  2  1  0
  1  3  1  0
  1  4  1  0
  8 12  1  0
 12 13  2  0
 13 15  1  0
 15 17  2  0
 17 19  1  0
 19 21  2  0
 21 12  1  0
  8  9  1  0
  8 10  1  0
  8 11  1  0
 13 14  1  0
 15 16  1  0
 17 18  1  0
 19 20  1  0
 21 22  1  0
M  CHG  1   6  -1
M  END
>  <PDB_ID>  (60) 
pdb2qts

>  <RESIDUE_NAME>  (60) 
ASP   PHE

>  <FRAG_NAME>  (60) 
ACET   MBZ

>  <FRAG_ATOM_NUM>  (60) 
fragi: 7  fragj: 15

>  <atom.prop.CHAIN_ID>  (60) 
A A A A A A A Z Z Z Z Z Z Z Z Z Z Z Z Z Z Z

>  <atom.prop.IS_HEAVY_ATOM>  (60) 
1 0 0 0 1 1 1 1 0 0 0 1 1 0 1 0 1 0 1 0 1 0

>  <DIFUSE_FUNC_ATOM>  (60) 
atom 6   atom 7   

>  <FINAL_SINGLE_POINT_ENERGY>  (60) 
0

>  <NONCOV_INTER_ENERGY_QM>  (60) 
0

>  <FF_Energy>  (60) 
15.33

>  <QM_Energy>  (60) 
-6.96

>  <source>  (60) 
ACET_MBZ_00

>  <Index>  (60) 
26893

$$$$
ACET-pdb1nb2-A-GLU-127:MBZ-pdb1nb2-A-PHE-6
     RDKit          3D

 22 21  0  0  0  0  0  0  0  0999 V2000
    3.3477    2.3457   -3.0345 C   0  0  0  0  0  0  0  0  0  0  0  0
    3.3993    1.4246   -3.3646 H   0  0  0  0  0  0  0  0  0  0  0  0
    3.7491    2.9935   -3.6502 H   0  0  0  0  0  0  0  0  0  0  0  0
    2.2957    2.6017   -2.9082 H   0  0  0  0  0  0  0  0  0  0  0  0
    4.1455    2.4084   -1.7200 C   0  0  0  0  0  0  0  0  0  0  0  0
    3.7181    1.7938   -0.7129 O   0  0  0  0  0  1  0  0  0  0  0  0
    5.2051    3.0777   -1.6944 O   0  0  0  0  0  0  0  0  0  0  0  0
   -0.0054    2.8961    0.0829 C   0  0  0  0  0  0  0  0  0  0  0  0
   -0.7570    3.2310   -0.4605 H   0  0  0  0  0  0  0  0  0  0  0  0
    0.8624    3.2239   -0.2530 H   0  0  0  0  0  0  0  0  0  0  0  0
   -0.1339    3.2690    1.0990 H   0  0  0  0  0  0  0  0  0  0  0  0
   -0.0018    1.3987    0.0015 C   0  0  0  0  0  0  0  0  0  0  0  0
   -1.1991    0.6894   -0.0002 C   0  0  0  0  0  0  0  0  0  0  0  0
   -2.0644    1.1877   -0.0028 H   0  0  0  0  0  0  0  0  0  0  0  0
   -1.2081   -0.6898    0.0000 C   0  0  0  0  0  0  0  0  0  0  0  0
   -2.0791   -1.1906    0.0006 H   0  0  0  0  0  0  0  0  0  0  0  0
    0.0029   -1.3928    0.0015 C   0  0  0  0  0  0  0  0  0  0  0  0
   -0.0071   -2.3895    0.0031 H   0  0  0  0  0  0  0  0  0  0  0  0
    1.2081   -0.6986    0.0000 C   0  0  0  0  0  0  0  0  0  0  0  0
    2.0868   -1.1946    0.0028 H   0  0  0  0  0  0  0  0  0  0  0  0
    1.1980    0.6931   -0.0028 C   0  0  0  0  0  0  0  0  0  0  0  0
    2.0641    1.1925   -0.0089 H   0  0  0  0  0  0  0  0  0  0  0  0
  1  5  1  0
  5  6  1  0
  5  7  2  0
  1  2  1  0
  1  3  1  0
  1  4  1  0
  8 12  1  0
 12 13  2  0
 13 15  1  0
 15 17  2  0
 17 19  1  0
 19 21  2  0
 21 12  1  0
  8  9  1  0
  8 10  1  0
  8 11  1  0
 13 14  1  0
 15 16  1  0
 17 18  1  0
 19 20  1  0
 21 22  1  0
M  CHG  1   6  -1
M  END
>  <PDB_ID>  (61) 
pdb1nb2

>  <RESIDUE_NAME>  (61) 
GLU   PHE

>  <FRAG_NAME>  (61) 
ACET   MBZ

>  <FRAG_ATOM_NUM>  (61) 
fragi: 7  fragj: 15

>  <atom.prop.CHAIN_ID>  (61) 
A A A A A A A Z Z Z Z Z Z Z Z Z Z Z Z Z Z Z

>  <atom.prop.IS_HEAVY_ATOM>  (61) 
1 0 0 0 1 1 1 1 0 0 0 1 1 0 1 0 1 0 1 0 1 0

>  <DIFUSE_FUNC_ATOM>  (61) 
atom 6   atom 7   

>  <FINAL_SINGLE_POINT_ENERGY>  (61) 
0

>  <NONCOV_INTER_ENERGY_QM>  (61) 
0

>  <FF_Energy>  (61) 
13.52

>  <QM_Energy>  (61) 
-5.77

>  <source>  (61) 
ACET_MBZ_00

>  <Index>  (61) 
27099

$$$$
ACET-pdb1nb8-A-GLU-435:MBZ-pdb1nb8-A-PHE-361
     RDKit          3D

 22 21  0  0  0  0  0  0  0  0999 V2000
    5.4832   -2.5388   -1.8771 C   0  0  0  0  0  0  0  0  0  0  0  0
    5.8492   -1.6335   -1.8960 H   0  0  0  0  0  0  0  0  0  0  0  0
    4.8649   -2.7218   -2.6112 H   0  0  0  0  0  0  0  0  0  0  0  0
    6.3084   -3.2490   -1.9293 H   0  0  0  0  0  0  0  0  0  0  0  0
    4.6988   -2.6856   -0.5749 C   0  0  0  0  0  0  0  0  0  0  0  0
    3.5518   -2.1905   -0.4940 O   0  0  0  0  0  1  0  0  0  0  0  0
    5.2462   -3.2920    0.3738 O   0  0  0  0  0  0  0  0  0  0  0  0
   -0.0015    2.9115   -0.0347 C   0  0  0  0  0  0  0  0  0  0  0  0
    0.8473    3.2282    0.3621 H   0  0  0  0  0  0  0  0  0  0  0  0
   -0.7818    3.2280    0.4832 H   0  0  0  0  0  0  0  0  0  0  0  0
   -0.0761    3.3336   -1.0368 H   0  0  0  0  0  0  0  0  0  0  0  0
    0.0005    1.4054   -0.0010 C   0  0  0  0  0  0  0  0  0  0  0  0
   -1.2015    0.6908    0.0001 C   0  0  0  0  0  0  0  0  0  0  0  0
   -2.0672    1.1828   -0.0006 H   0  0  0  0  0  0  0  0  0  0  0  0
   -1.2095   -0.7047   -0.0000 C   0  0  0  0  0  0  0  0  0  0  0  0
   -2.0815   -1.1972    0.0024 H   0  0  0  0  0  0  0  0  0  0  0  0
   -0.0004   -1.3988   -0.0012 C   0  0  0  0  0  0  0  0  0  0  0  0
    0.0021   -2.3945   -0.0033 H   0  0  0  0  0  0  0  0  0  0  0  0
    1.2095   -0.6927   -0.0000 C   0  0  0  0  0  0  0  0  0  0  0  0
    2.0878   -1.1911    0.0004 H   0  0  0  0  0  0  0  0  0  0  0  0
    1.2015    0.7000    0.0021 C   0  0  0  0  0  0  0  0  0  0  0  0
    2.0675    1.1981    0.0046 H   0  0  0  0  0  0  0  0  0  0  0  0
  1  5  1  0
  5  6  1  0
  5  7  2  0
  1  2  1  0
  1  3  1  0
  1  4  1  0
  8 12  1  0
 12 13  2  0
 13 15  1  0
 15 17  2  0
 17 19  1  0
 19 21  2  0
 21 12  1  0
  8  9  1  0
  8 10  1  0
  8 11  1  0
 13 14  1  0
 15 16  1  0
 17 18  1  0
 19 20  1  0
 21 22  1  0
M  CHG  1   6  -1
M  END
>  <PDB_ID>  (62) 
pdb1nb8

>  <RESIDUE_NAME>  (62) 
GLU   PHE

>  <FRAG_NAME>  (62) 
ACET   MBZ

>  <FRAG_ATOM_NUM>  (62) 
fragi: 7  fragj: 15

>  <atom.prop.CHAIN_ID>  (62) 
A A A A A A A Z Z Z Z Z Z Z Z Z Z Z Z Z Z Z

>  <atom.prop.IS_HEAVY_ATOM>  (62) 
1 0 0 0 1 1 1 1 0 0 0 1 1 0 1 0 1 0 1 0 1 0

>  <DIFUSE_FUNC_ATOM>  (62) 
atom 6   atom 7   

>  <FINAL_SINGLE_POINT_ENERGY>  (62) 
0

>  <NONCOV_INTER_ENERGY_QM>  (62) 
0

>  <FF_Energy>  (62) 
21.04

>  <QM_Energy>  (62) 
-4.93

>  <source>  (62) 
ACET_MBZ_00

>  <Index>  (62) 
27134

$$$$
ACET-pdb1nh1-A-ASP-151:MBZ-pdb1nh1-A-PHE-154
     RDKit          3D

 22 21  0  0  0  0  0  0  0  0999 V2000
   -3.7037    4.0218   -1.9650 C   0  0  0  0  0  0  0  0  0  0  0  0
   -3.5599    3.9144   -2.9419 H   0  0  0  0  0  0  0  0  0  0  0  0
   -2.8976    4.4083   -1.5340 H   0  0  0  0  0  0  0  0  0  0  0  0
   -4.5317    4.7156   -1.8196 H   0  0  0  0  0  0  0  0  0  0  0  0
   -3.9828    2.6715   -1.3604 C   0  0  0  0  0  0  0  0  0  0  0  0
   -4.6838    1.8547   -1.9981 O   0  0  0  0  0  1  0  0  0  0  0  0
   -3.5172    2.4357   -0.2325 O   0  0  0  0  0  0  0  0  0  0  0  0
    0.0038    2.9011   -0.0375 C   0  0  0  0  0  0  0  0  0  0  0  0
   -0.5338    3.1897   -0.8180 H   0  0  0  0  0  0  0  0  0  0  0  0
    0.9435    3.2027   -0.1207 H   0  0  0  0  0  0  0  0  0  0  0  0
   -0.4197    3.3683    0.8516 H   0  0  0  0  0  0  0  0  0  0  0  0
   -0.0003    1.4018   -0.0003 C   0  0  0  0  0  0  0  0  0  0  0  0
   -1.1960    0.6931    0.0012 C   0  0  0  0  0  0  0  0  0  0  0  0
   -2.0633    1.1867    0.0017 H   0  0  0  0  0  0  0  0  0  0  0  0
   -1.2044   -0.6942   -0.0000 C   0  0  0  0  0  0  0  0  0  0  0  0
   -2.0801   -1.1884    0.0023 H   0  0  0  0  0  0  0  0  0  0  0  0
   -0.0010   -1.3940   -0.0022 C   0  0  0  0  0  0  0  0  0  0  0  0
   -0.0070   -2.3916   -0.0061 H   0  0  0  0  0  0  0  0  0  0  0  0
    1.2044   -0.6986    0.0000 C   0  0  0  0  0  0  0  0  0  0  0  0
    2.0830   -1.1965    0.0022 H   0  0  0  0  0  0  0  0  0  0  0  0
    1.1973    0.6920    0.0013 C   0  0  0  0  0  0  0  0  0  0  0  0
    2.0655    1.1906    0.0026 H   0  0  0  0  0  0  0  0  0  0  0  0
  1  5  1  0
  5  6  1  0
  5  7  2  0
  1  2  1  0
  1  3  1  0
  1  4  1  0
  8 12  1  0
 12 13  2  0
 13 15  1  0
 15 17  2  0
 17 19  1  0
 19 21  2  0
 21 12  1  0
  8  9  1  0
  8 10  1  0
  8 11  1  0
 13 14  1  0
 15 16  1  0
 17 18  1  0
 19 20  1  0
 21 22  1  0
M  CHG  1   6  -1
M  END
>  <PDB_ID>  (63) 
pdb1nh1

>  <RESIDUE_NAME>  (63) 
ASP   PHE

>  <FRAG_NAME>  (63) 
ACET   MBZ

>  <FRAG_ATOM_NUM>  (63) 
fragi: 7  fragj: 15

>  <atom.prop.CHAIN_ID>  (63) 
A A A A A A A Z Z Z Z Z Z Z Z Z Z Z Z Z Z Z

>  <atom.prop.IS_HEAVY_ATOM>  (63) 
1 0 0 0 1 1 1 1 0 0 0 1 1 0 1 0 1 0 1 0 1 0

>  <DIFUSE_FUNC_ATOM>  (63) 
atom 6   atom 7   

>  <FINAL_SINGLE_POINT_ENERGY>  (63) 
0

>  <NONCOV_INTER_ENERGY_QM>  (63) 
0

>  <FF_Energy>  (63) 
10.06

>  <QM_Energy>  (63) 
-6.78

>  <source>  (63) 
ACET_MBZ_00

>  <Index>  (63) 
27427

$$$$
ACET-pdb1noy-A-ASP-102:MBZ-pdb1noy-A-PHE-105
     RDKit          3D

 22 21  0  0  0  0  0  0  0  0999 V2000
    4.4331    0.5360   -0.5822 C   0  0  0  0  0  0  0  0  0  0  0  0
    4.8428    0.1087    0.2132 H   0  0  0  0  0  0  0  0  0  0  0  0
    3.5496    0.9250   -0.3593 H   0  0  0  0  0  0  0  0  0  0  0  0
    5.0895    1.3380   -0.9200 H   0  0  0  0  0  0  0  0  0  0  0  0
    4.2252   -0.5449   -1.6538 C   0  0  0  0  0  0  0  0  0  0  0  0
    4.3030   -0.2601   -2.8764 O   0  0  0  0  0  1  0  0  0  0  0  0
    3.9949   -1.7070   -1.2649 O   0  0  0  0  0  0  0  0  0  0  0  0
   -0.0044    2.8791   -0.0971 C   0  0  0  0  0  0  0  0  0  0  0  0
    0.8749    3.2118    0.2055 H   0  0  0  0  0  0  0  0  0  0  0  0
   -0.7371    3.2255    0.4672 H   0  0  0  0  0  0  0  0  0  0  0  0
   -0.1667    3.2405   -1.1125 H   0  0  0  0  0  0  0  0  0  0  0  0
   -0.0016    1.3931   -0.0010 C   0  0  0  0  0  0  0  0  0  0  0  0
   -1.1979    0.6900    0.0022 C   0  0  0  0  0  0  0  0  0  0  0  0
   -2.0631    1.1842    0.0049 H   0  0  0  0  0  0  0  0  0  0  0  0
   -1.2041   -0.6926    0.0000 C   0  0  0  0  0  0  0  0  0  0  0  0
   -2.0758   -1.1923    0.0035 H   0  0  0  0  0  0  0  0  0  0  0  0
    0.0055   -1.3910   -0.0047 C   0  0  0  0  0  0  0  0  0  0  0  0
   -0.0007   -2.3885   -0.0120 H   0  0  0  0  0  0  0  0  0  0  0  0
    1.2041   -0.6927    0.0000 C   0  0  0  0  0  0  0  0  0  0  0  0
    2.0863   -1.1897    0.0019 H   0  0  0  0  0  0  0  0  0  0  0  0
    1.1941    0.6932    0.0036 C   0  0  0  0  0  0  0  0  0  0  0  0
    2.0608    1.1943    0.0089 H   0  0  0  0  0  0  0  0  0  0  0  0
  1  5  1  0
  5  6  1  0
  5  7  2  0
  1  2  1  0
  1  3  1  0
  1  4  1  0
  8 12  1  0
 12 13  2  0
 13 15  1  0
 15 17  2  0
 17 19  1  0
 19 21  2  0
 21 12  1  0
  8  9  1  0
  8 10  1  0
  8 11  1  0
 13 14  1  0
 15 16  1  0
 17 18  1  0
 19 20  1  0
 21 22  1  0
M  CHG  1   6  -1
M  END
>  <PDB_ID>  (64) 
pdb1noy

>  <RESIDUE_NAME>  (64) 
ASP   PHE

>  <FRAG_NAME>  (64) 
ACET   MBZ

>  <FRAG_ATOM_NUM>  (64) 
fragi: 7  fragj: 15

>  <atom.prop.CHAIN_ID>  (64) 
A A A A A A A Z Z Z Z Z Z Z Z Z Z Z Z Z Z Z

>  <atom.prop.IS_HEAVY_ATOM>  (64) 
1 0 0 0 1 1 1 1 0 0 0 1 1 0 1 0 1 0 1 0 1 0

>  <DIFUSE_FUNC_ATOM>  (64) 
atom 6   atom 7   

>  <FINAL_SINGLE_POINT_ENERGY>  (64) 
0

>  <NONCOV_INTER_ENERGY_QM>  (64) 
0

>  <FF_Energy>  (64) 
20.12

>  <QM_Energy>  (64) 
-0.84

>  <source>  (64) 
ACET_MBZ_00

>  <Index>  (64) 
27795

$$$$
ACET-pdb1pgu-A-ASP-181:MBZ-pdb1pgu-A-PHE-208
     RDKit          3D

 22 21  0  0  0  0  0  0  0  0999 V2000
    4.4915    2.0222    2.8544 C   0  0  0  0  0  0  0  0  0  0  0  0
    5.4360    2.0818    3.1536 H   0  0  0  0  0  0  0  0  0  0  0  0
    4.0414    1.2423    3.2711 H   0  0  0  0  0  0  0  0  0  0  0  0
    3.9760    2.9251    3.1819 H   0  0  0  0  0  0  0  0  0  0  0  0
    4.4642    1.8582    1.3522 C   0  0  0  0  0  0  0  0  0  0  0  0
    3.5079    2.3691    0.7224 O   0  0  0  0  0  1  0  0  0  0  0  0
    5.3855    1.2121    0.8077 O   0  0  0  0  0  0  0  0  0  0  0  0
   -0.0017    2.8995    0.0151 C   0  0  0  0  0  0  0  0  0  0  0  0
   -0.7357    3.2144   -0.5705 H   0  0  0  0  0  0  0  0  0  0  0  0
    0.8775    3.2142   -0.3147 H   0  0  0  0  0  0  0  0  0  0  0  0
   -0.1582    3.3360    1.0016 H   0  0  0  0  0  0  0  0  0  0  0  0
    0.0005    1.4028    0.0005 C   0  0  0  0  0  0  0  0  0  0  0  0
   -1.1971    0.6947    0.0001 C   0  0  0  0  0  0  0  0  0  0  0  0
   -2.0641    1.1841   -0.0013 H   0  0  0  0  0  0  0  0  0  0  0  0
   -1.2042   -0.7006   -0.0000 C   0  0  0  0  0  0  0  0  0  0  0  0
   -2.0790   -1.1928    0.0014 H   0  0  0  0  0  0  0  0  0  0  0  0
    0.0009   -1.3973    0.0003 C   0  0  0  0  0  0  0  0  0  0  0  0
   -0.0008   -2.3946   -0.0002 H   0  0  0  0  0  0  0  0  0  0  0  0
    1.2042   -0.6967   -0.0000 C   0  0  0  0  0  0  0  0  0  0  0  0
    2.0851   -1.1920    0.0018 H   0  0  0  0  0  0  0  0  0  0  0  0
    1.1957    0.6970   -0.0009 C   0  0  0  0  0  0  0  0  0  0  0  0
    2.0645    1.1931   -0.0034 H   0  0  0  0  0  0  0  0  0  0  0  0
  1  5  1  0
  5  6  1  0
  5  7  2  0
  1  2  1  0
  1  3  1  0
  1  4  1  0
  8 12  1  0
 12 13  2  0
 13 15  1  0
 15 17  2  0
 17 19  1  0
 19 21  2  0
 21 12  1  0
  8  9  1  0
  8 10  1  0
  8 11  1  0
 13 14  1  0
 15 16  1  0
 17 18  1  0
 19 20  1  0
 21 22  1  0
M  CHG  1   6  -1
M  END
>  <PDB_ID>  (65) 
pdb1pgu

>  <RESIDUE_NAME>  (65) 
ASP   PHE

>  <FRAG_NAME>  (65) 
ACET   MBZ

>  <FRAG_ATOM_NUM>  (65) 
fragi: 7  fragj: 15

>  <atom.prop.CHAIN_ID>  (65) 
A A A A A A A Z Z Z Z Z Z Z Z Z Z Z Z Z Z Z

>  <atom.prop.IS_HEAVY_ATOM>  (65) 
1 0 0 0 1 1 1 1 0 0 0 1 1 0 1 0 1 0 1 0 1 0

>  <DIFUSE_FUNC_ATOM>  (65) 
atom 6   atom 7   

>  <FINAL_SINGLE_POINT_ENERGY>  (65) 
0

>  <NONCOV_INTER_ENERGY_QM>  (65) 
0

>  <FF_Energy>  (65) 
5.31

>  <QM_Energy>  (65) 
-7.21

>  <source>  (65) 
ACET_MBZ_00

>  <Index>  (65) 
30635

$$$$
ACET-pdb1pbg-B-GLU-160:MBZ-pdb1pbg-B-PHE-117
     RDKit          3D

 22 21  0  0  0  0  0  0  0  0999 V2000
   -1.0383   -5.1742    0.1073 C   0  0  0  0  0  0  0  0  0  0  0  0
   -1.1808   -6.0935    0.4354 H   0  0  0  0  0  0  0  0  0  0  0  0
   -1.6046   -4.9751   -0.6753 H   0  0  0  0  0  0  0  0  0  0  0  0
   -1.3113   -4.4852    0.9065 H   0  0  0  0  0  0  0  0  0  0  0  0
    0.4270   -5.0773   -0.3538 C   0  0  0  0  0  0  0  0  0  0  0  0
    1.1126   -4.0614   -0.0927 O   0  0  0  0  0  1  0  0  0  0  0  0
    0.8927   -6.0409   -0.9932 O   0  0  0  0  0  0  0  0  0  0  0  0
    0.0116    2.9329   -0.0279 C   0  0  0  0  0  0  0  0  0  0  0  0
    0.4305    3.2142   -0.8791 H   0  0  0  0  0  0  0  0  0  0  0  0
    0.5381    3.2444    0.7496 H   0  0  0  0  0  0  0  0  0  0  0  0
   -0.9734    3.3963    0.0288 H   0  0  0  0  0  0  0  0  0  0  0  0
    0.0023    1.4102    0.0009 C   0  0  0  0  0  0  0  0  0  0  0  0
   -1.1966    0.6749    0.0013 C   0  0  0  0  0  0  0  0  0  0  0  0
   -2.0665    1.1673    0.0011 H   0  0  0  0  0  0  0  0  0  0  0  0
   -1.1993   -0.7120    0.0000 C   0  0  0  0  0  0  0  0  0  0  0  0
   -2.0765   -1.2059    0.0020 H   0  0  0  0  0  0  0  0  0  0  0  0
   -0.0052   -1.3908   -0.0021 C   0  0  0  0  0  0  0  0  0  0  0  0
    0.0041   -2.3946   -0.0056 H   0  0  0  0  0  0  0  0  0  0  0  0
    1.1993   -0.6916   -0.0000 C   0  0  0  0  0  0  0  0  0  0  0  0
    2.0804   -1.1874    0.0034 H   0  0  0  0  0  0  0  0  0  0  0  0
    1.1995    0.7092   -0.0001 C   0  0  0  0  0  0  0  0  0  0  0  0
    2.0669    1.1981   -0.0015 H   0  0  0  0  0  0  0  0  0  0  0  0
  1  5  1  0
  5  6  1  0
  5  7  2  0
  1  2  1  0
  1  3  1  0
  1  4  1  0
  8 12  1  0
 12 13  2  0
 13 15  1  0
 15 17  2  0
 17 19  1  0
 19 21  2  0
 21 12  1  0
  8  9  1  0
  8 10  1  0
  8 11  1  0
 13 14  1  0
 15 16  1  0
 17 18  1  0
 19 20  1  0
 21 22  1  0
M  CHG  1   6  -1
M  END
>  <PDB_ID>  (66) 
pdb1pbg

>  <RESIDUE_NAME>  (66) 
GLU   PHE

>  <FRAG_NAME>  (66) 
ACET   MBZ

>  <FRAG_ATOM_NUM>  (66) 
fragi: 7  fragj: 15

>  <atom.prop.CHAIN_ID>  (66) 
A A A A A A A Z Z Z Z Z Z Z Z Z Z Z Z Z Z Z

>  <atom.prop.IS_HEAVY_ATOM>  (66) 
1 0 0 0 1 1 1 1 0 0 0 1 1 0 1 0 1 0 1 0 1 0

>  <DIFUSE_FUNC_ATOM>  (66) 
atom 6   atom 7   

>  <FINAL_SINGLE_POINT_ENERGY>  (66) 
0

>  <NONCOV_INTER_ENERGY_QM>  (66) 
0

>  <FF_Energy>  (66) 
5.36

>  <QM_Energy>  (66) 
-5.0

>  <source>  (66) 
ACET_MBZ_00

>  <Index>  (66) 
30722

$$$$
ACET-pdb1pie-A-GLU-91:MBZ-pdb1pie-A-PHE-87
     RDKit          3D

 22 21  0  0  0  0  0  0  0  0999 V2000
   -3.3822    5.1099   -1.9031 C   0  0  0  0  0  0  0  0  0  0  0  0
   -3.6123    6.0056   -2.1989 H   0  0  0  0  0  0  0  0  0  0  0  0
   -4.0990    4.6417   -1.4455 H   0  0  0  0  0  0  0  0  0  0  0  0
   -3.1041    4.5268   -2.7810 H   0  0  0  0  0  0  0  0  0  0  0  0
   -2.2105    5.2048   -0.9736 C   0  0  0  0  0  0  0  0  0  0  0  0
   -1.0491    5.0856   -1.3581 O   0  0  0  0  0  1  0  0  0  0  0  0
   -2.5787    5.3660    0.2810 O   0  0  0  0  0  0  0  0  0  0  0  0
    0.0132    2.9623    0.0861 C   0  0  0  0  0  0  0  0  0  0  0  0
   -0.6933    3.2957   -0.5317 H   0  0  0  0  0  0  0  0  0  0  0  0
    0.9093    3.2713   -0.2196 H   0  0  0  0  0  0  0  0  0  0  0  0
   -0.1679    3.4320    1.0529 H   0  0  0  0  0  0  0  0  0  0  0  0
    0.0025    1.4224    0.0242 C   0  0  0  0  0  0  0  0  0  0  0  0
   -1.1970    0.6991    0.0039 C   0  0  0  0  0  0  0  0  0  0  0  0
   -2.0657    1.1914   -0.0095 H   0  0  0  0  0  0  0  0  0  0  0  0
   -1.2100   -0.6974   -0.0000 C   0  0  0  0  0  0  0  0  0  0  0  0
   -2.0858   -1.1867    0.0208 H   0  0  0  0  0  0  0  0  0  0  0  0
   -0.0039   -1.4045   -0.0311 C   0  0  0  0  0  0  0  0  0  0  0  0
   -0.0121   -2.3982   -0.0753 H   0  0  0  0  0  0  0  0  0  0  0  0
    1.2100   -0.7085   -0.0000 C   0  0  0  0  0  0  0  0  0  0  0  0
    2.0840   -1.2049    0.0214 H   0  0  0  0  0  0  0  0  0  0  0  0
    1.1984    0.6891    0.0030 C   0  0  0  0  0  0  0  0  0  0  0  0
    2.0720    1.1855   -0.0114 H   0  0  0  0  0  0  0  0  0  0  0  0
  1  5  1  0
  5  6  1  0
  5  7  2  0
  1  2  1  0
  1  3  1  0
  1  4  1  0
  8 12  1  0
 12 13  2  0
 13 15  1  0
 15 17  2  0
 17 19  1  0
 19 21  2  0
 21 12  1  0
  8  9  1  0
  8 10  1  0
  8 11  1  0
 13 14  1  0
 15 16  1  0
 17 18  1  0
 19 20  1  0
 21 22  1  0
M  CHG  1   6  -1
M  END
>  <PDB_ID>  (67) 
pdb1pie

>  <RESIDUE_NAME>  (67) 
GLU   PHE

>  <FRAG_NAME>  (67) 
ACET   MBZ

>  <FRAG_ATOM_NUM>  (67) 
fragi: 7  fragj: 15

>  <atom.prop.CHAIN_ID>  (67) 
A A A A A A A Z Z Z Z Z Z Z Z Z Z Z Z Z Z Z

>  <atom.prop.IS_HEAVY_ATOM>  (67) 
1 0 0 0 1 1 1 1 0 0 0 1 1 0 1 0 1 0 1 0 1 0

>  <DIFUSE_FUNC_ATOM>  (67) 
atom 6   atom 7   

>  <FINAL_SINGLE_POINT_ENERGY>  (67) 
0

>  <NONCOV_INTER_ENERGY_QM>  (67) 
0

>  <FF_Energy>  (67) 
7.86

>  <QM_Energy>  (67) 
-3.67

>  <source>  (67) 
ACET_MBZ_00

>  <Index>  (67) 
30734

$$$$
ACET-pdb2vyn-A-GLU-285:MBZ-pdb2vyn-A-PHE-282
     RDKit          3D

 22 21  0  0  0  0  0  0  0  0999 V2000
   -3.7334    2.9424   -0.4034 C   0  0  0  0  0  0  0  0  0  0  0  0
   -3.7723    3.1199   -1.3715 H   0  0  0  0  0  0  0  0  0  0  0  0
   -2.9288    2.4320   -0.1550 H   0  0  0  0  0  0  0  0  0  0  0  0
   -3.7181    3.8962    0.1242 H   0  0  0  0  0  0  0  0  0  0  0  0
   -4.9304    2.1103   -0.0433 C   0  0  0  0  0  0  0  0  0  0  0  0
   -5.7304    2.5413    0.8104 O   0  0  0  0  0  1  0  0  0  0  0  0
   -5.0671    1.0159   -0.6188 O   0  0  0  0  0  0  0  0  0  0  0  0
   -0.0028    2.8791   -0.0697 C   0  0  0  0  0  0  0  0  0  0  0  0
    0.8777    3.2119    0.2167 H   0  0  0  0  0  0  0  0  0  0  0  0
   -0.7310    3.2223    0.4955 H   0  0  0  0  0  0  0  0  0  0  0  0
   -0.1767    3.2389   -1.0837 H   0  0  0  0  0  0  0  0  0  0  0  0
    0.0011    1.3961    0.0077 C   0  0  0  0  0  0  0  0  0  0  0  0
   -1.2026    0.6935   -0.0161 C   0  0  0  0  0  0  0  0  0  0  0  0
   -2.0634    1.1888   -0.0462 H   0  0  0  0  0  0  0  0  0  0  0  0
   -1.2086   -0.6919    0.0000 C   0  0  0  0  0  0  0  0  0  0  0  0
   -2.0820   -1.1897    0.0017 H   0  0  0  0  0  0  0  0  0  0  0  0
   -0.0028   -1.3893    0.0155 C   0  0  0  0  0  0  0  0  0  0  0  0
   -0.0094   -2.3900    0.0374 H   0  0  0  0  0  0  0  0  0  0  0  0
    1.2086   -0.6997   -0.0000 C   0  0  0  0  0  0  0  0  0  0  0  0
    2.0829   -1.2015   -0.0044 H   0  0  0  0  0  0  0  0  0  0  0  0
    1.2043    0.6913   -0.0071 C   0  0  0  0  0  0  0  0  0  0  0  0
    2.0683    1.1896   -0.0243 H   0  0  0  0  0  0  0  0  0  0  0  0
  1  5  1  0
  5  6  1  0
  5  7  2  0
  1  2  1  0
  1  3  1  0
  1  4  1  0
  8 12  1  0
 12 13  2  0
 13 15  1  0
 15 17  2  0
 17 19  1  0
 19 21  2  0
 21 12  1  0
  8  9  1  0
  8 10  1  0
  8 11  1  0
 13 14  1  0
 15 16  1  0
 17 18  1  0
 19 20  1  0
 21 22  1  0
M  CHG  1   6  -1
M  END
>  <PDB_ID>  (68) 
pdb2vyn

>  <RESIDUE_NAME>  (68) 
GLU   PHE

>  <FRAG_NAME>  (68) 
ACET   MBZ

>  <FRAG_ATOM_NUM>  (68) 
fragi: 7  fragj: 15

>  <atom.prop.CHAIN_ID>  (68) 
A A A A A A A Z Z Z Z Z Z Z Z Z Z Z Z Z Z Z

>  <atom.prop.IS_HEAVY_ATOM>  (68) 
1 0 0 0 1 1 1 1 0 0 0 1 1 0 1 0 1 0 1 0 1 0

>  <DIFUSE_FUNC_ATOM>  (68) 
atom 6   atom 7   

>  <FINAL_SINGLE_POINT_ENERGY>  (68) 
0

>  <NONCOV_INTER_ENERGY_QM>  (68) 
0

>  <FF_Energy>  (68) 
25.57

>  <QM_Energy>  (68) 
-0.25

>  <source>  (68) 
ACET_MBZ_00

>  <Index>  (68) 
30819

$$$$
ACET-pdb1pku-F-GLU-129:MBZ-pdb1pku-F-PHE-8
     RDKit          3D

 22 21  0  0  0  0  0  0  0  0999 V2000
    3.4118    1.9621   -2.8437 C   0  0  0  0  0  0  0  0  0  0  0  0
    3.4094    0.9959   -2.6848 H   0  0  0  0  0  0  0  0  0  0  0  0
    4.0102    2.2258   -3.5737 H   0  0  0  0  0  0  0  0  0  0  0  0
    2.3983    2.2700   -3.1007 H   0  0  0  0  0  0  0  0  0  0  0  0
    3.9168    2.6349   -1.5723 C   0  0  0  0  0  0  0  0  0  0  0  0
    3.1252    2.8296   -0.6335 O   0  0  0  0  0  1  0  0  0  0  0  0
    5.1146    2.9677   -1.5020 O   0  0  0  0  0  0  0  0  0  0  0  0
    0.0036    2.9231   -0.0657 C   0  0  0  0  0  0  0  0  0  0  0  0
   -0.4356    3.1883   -0.9097 H   0  0  0  0  0  0  0  0  0  0  0  0
    0.9447    3.2212   -0.0389 H   0  0  0  0  0  0  0  0  0  0  0  0
   -0.5267    3.4037    0.7563 H   0  0  0  0  0  0  0  0  0  0  0  0
   -0.0004    1.4049   -0.0015 C   0  0  0  0  0  0  0  0  0  0  0  0
   -1.1910    0.6941    0.0025 C   0  0  0  0  0  0  0  0  0  0  0  0
   -2.0608    1.1825    0.0063 H   0  0  0  0  0  0  0  0  0  0  0  0
   -1.1923   -0.6932    0.0000 C   0  0  0  0  0  0  0  0  0  0  0  0
   -2.0745   -1.1866    0.0012 H   0  0  0  0  0  0  0  0  0  0  0  0
   -0.0012   -1.3915   -0.0017 C   0  0  0  0  0  0  0  0  0  0  0  0
   -0.0116   -2.3933   -0.0046 H   0  0  0  0  0  0  0  0  0  0  0  0
    1.1923   -0.7058   -0.0000 C   0  0  0  0  0  0  0  0  0  0  0  0
    2.0763   -1.1998    0.0024 H   0  0  0  0  0  0  0  0  0  0  0  0
    1.1926    0.6915    0.0007 C   0  0  0  0  0  0  0  0  0  0  0  0
    2.0639    1.1811    0.0025 H   0  0  0  0  0  0  0  0  0  0  0  0
  1  5  1  0
  5  6  1  0
  5  7  2  0
  1  2  1  0
  1  3  1  0
  1  4  1  0
  8 12  1  0
 12 13  2  0
 13 15  1  0
 15 17  2  0
 17 19  1  0
 19 21  2  0
 21 12  1  0
  8  9  1  0
  8 10  1  0
  8 11  1  0
 13 14  1  0
 15 16  1  0
 17 18  1  0
 19 20  1  0
 21 22  1  0
M  CHG  1   6  -1
M  END
>  <PDB_ID>  (69) 
pdb1pku

>  <RESIDUE_NAME>  (69) 
GLU   PHE

>  <FRAG_NAME>  (69) 
ACET   MBZ

>  <FRAG_ATOM_NUM>  (69) 
fragi: 7  fragj: 15

>  <atom.prop.CHAIN_ID>  (69) 
A A A A A A A Z Z Z Z Z Z Z Z Z Z Z Z Z Z Z

>  <atom.prop.IS_HEAVY_ATOM>  (69) 
1 0 0 0 1 1 1 1 0 0 0 1 1 0 1 0 1 0 1 0 1 0

>  <DIFUSE_FUNC_ATOM>  (69) 
atom 6   atom 7   

>  <FINAL_SINGLE_POINT_ENERGY>  (69) 
0

>  <NONCOV_INTER_ENERGY_QM>  (69) 
0

>  <FF_Energy>  (69) 
3.71

>  <QM_Energy>  (69) 
-7.5

>  <source>  (69) 
ACET_MBZ_00

>  <Index>  (69) 
30842

$$$$
ACET-pdb2w58-B-GLU-1156:MBZ-pdb2w58-A-PHE-170
     RDKit          3D

 22 21  0  0  0  0  0  0  0  0999 V2000
   -1.7669   -3.5159   -1.8264 C   0  0  0  0  0  0  0  0  0  0  0  0
   -1.0507   -3.2883   -2.4931 H   0  0  0  0  0  0  0  0  0  0  0  0
   -2.2056   -2.6630   -1.5237 H   0  0  0  0  0  0  0  0  0  0  0  0
   -2.5111   -4.1548   -2.3020 H   0  0  0  0  0  0  0  0  0  0  0  0
   -1.0612   -4.0856   -0.6179 C   0  0  0  0  0  0  0  0  0  0  0  0
   -1.6112   -4.1391    0.4990 O   0  0  0  0  0  1  0  0  0  0  0  0
    0.1034   -4.4751   -0.7837 O   0  0  0  0  0  0  0  0  0  0  0  0
    0.0251    2.8908    0.0242 C   0  0  0  0  0  0  0  0  0  0  0  0
   -0.6743    3.2201   -0.5940 H   0  0  0  0  0  0  0  0  0  0  0  0
    0.9244    3.1890   -0.2628 H   0  0  0  0  0  0  0  0  0  0  0  0
   -0.1692    3.3251    1.0049 H   0  0  0  0  0  0  0  0  0  0  0  0
    0.0002    1.3925    0.0034 C   0  0  0  0  0  0  0  0  0  0  0  0
   -1.2015    0.6985   -0.0007 C   0  0  0  0  0  0  0  0  0  0  0  0
   -2.0612    1.1939   -0.0048 H   0  0  0  0  0  0  0  0  0  0  0  0
   -1.1984   -0.6777    0.0000 C   0  0  0  0  0  0  0  0  0  0  0  0
   -2.0743   -1.1835    0.0034 H   0  0  0  0  0  0  0  0  0  0  0  0
    0.0053   -1.3801   -0.0021 C   0  0  0  0  0  0  0  0  0  0  0  0
   -0.0154   -2.3830   -0.0060 H   0  0  0  0  0  0  0  0  0  0  0  0
    1.1984   -0.7040    0.0000 C   0  0  0  0  0  0  0  0  0  0  0  0
    2.0784   -1.2076    0.0037 H   0  0  0  0  0  0  0  0  0  0  0  0
    1.1959    0.6709   -0.0006 C   0  0  0  0  0  0  0  0  0  0  0  0
    2.0654    1.1742   -0.0052 H   0  0  0  0  0  0  0  0  0  0  0  0
  1  5  1  0
  5  6  1  0
  5  7  2  0
  1  2  1  0
  1  3  1  0
  1  4  1  0
  8 12  1  0
 12 13  2  0
 13 15  1  0
 15 17  2  0
 17 19  1  0
 19 21  2  0
 21 12  1  0
  8  9  1  0
  8 10  1  0
  8 11  1  0
 13 14  1  0
 15 16  1  0
 17 18  1  0
 19 20  1  0
 21 22  1  0
M  CHG  1   6  -1
M  END
>  <PDB_ID>  (70) 
pdb2w58

>  <RESIDUE_NAME>  (70) 
GLU   PHE

>  <FRAG_NAME>  (70) 
ACET   MBZ

>  <FRAG_ATOM_NUM>  (70) 
fragi: 7  fragj: 15

>  <atom.prop.CHAIN_ID>  (70) 
A A A A A A A Z Z Z Z Z Z Z Z Z Z Z Z Z Z Z

>  <atom.prop.IS_HEAVY_ATOM>  (70) 
1 0 0 0 1 1 1 1 0 0 0 1 1 0 1 0 1 0 1 0 1 0

>  <DIFUSE_FUNC_ATOM>  (70) 
atom 6   atom 7   

>  <FINAL_SINGLE_POINT_ENERGY>  (70) 
0

>  <NONCOV_INTER_ENERGY_QM>  (70) 
0

>  <FF_Energy>  (70) 
13.34

>  <QM_Energy>  (70) 
-3.53

>  <source>  (70) 
ACET_MBZ_00

>  <Index>  (70) 
31253

$$$$
ACET-pdb1pv1-C-ASP-275:MBZ-pdb1pv1-D-PHE-7
     RDKit          3D

 22 21  0  0  0  0  0  0  0  0999 V2000
    5.6314    2.8239    0.0337 C   0  0  0  0  0  0  0  0  0  0  0  0
    4.9182    3.3949   -0.3669 H   0  0  0  0  0  0  0  0  0  0  0  0
    6.0904    2.3041   -0.6814 H   0  0  0  0  0  0  0  0  0  0  0  0
    6.3711    3.4910    0.4763 H   0  0  0  0  0  0  0  0  0  0  0  0
    5.0249    1.8881    1.0203 C   0  0  0  0  0  0  0  0  0  0  0  0
    5.7395    1.4591    1.9547 O   0  0  0  0  0  1  0  0  0  0  0  0
    3.8335    1.5692    0.8496 O   0  0  0  0  0  0  0  0  0  0  0  0
   -0.0176    2.9031    0.0278 C   0  0  0  0  0  0  0  0  0  0  0  0
   -0.8135    3.2153   -0.4715 H   0  0  0  0  0  0  0  0  0  0  0  0
    0.8168    3.2279   -0.3947 H   0  0  0  0  0  0  0  0  0  0  0  0
   -0.0684    3.3309    1.0291 H   0  0  0  0  0  0  0  0  0  0  0  0
   -0.0044    1.4053   -0.0006 C   0  0  0  0  0  0  0  0  0  0  0  0
   -1.1959    0.6947   -0.0001 C   0  0  0  0  0  0  0  0  0  0  0  0
   -2.0663    1.1847   -0.0015 H   0  0  0  0  0  0  0  0  0  0  0  0
   -1.2071   -0.6986    0.0000 C   0  0  0  0  0  0  0  0  0  0  0  0
   -2.0786   -1.1919   -0.0002 H   0  0  0  0  0  0  0  0  0  0  0  0
    0.0051   -1.4016    0.0015 C   0  0  0  0  0  0  0  0  0  0  0  0
   -0.0026   -2.3972    0.0029 H   0  0  0  0  0  0  0  0  0  0  0  0
    1.2071   -0.7018   -0.0000 C   0  0  0  0  0  0  0  0  0  0  0  0
    2.0895   -1.1899    0.0010 H   0  0  0  0  0  0  0  0  0  0  0  0
    1.1952    0.7020   -0.0008 C   0  0  0  0  0  0  0  0  0  0  0  0
    2.0631    1.1966   -0.0022 H   0  0  0  0  0  0  0  0  0  0  0  0
  1  5  1  0
  5  6  1  0
  5  7  2  0
  1  2  1  0
  1  3  1  0
  1  4  1  0
  8 12  1  0
 12 13  2  0
 13 15  1  0
 15 17  2  0
 17 19  1  0
 19 21  2  0
 21 12  1  0
  8  9  1  0
  8 10  1  0
  8 11  1  0
 13 14  1  0
 15 16  1  0
 17 18  1  0
 19 20  1  0
 21 22  1  0
M  CHG  1   6  -1
M  END
>  <PDB_ID>  (71) 
pdb1pv1

>  <RESIDUE_NAME>  (71) 
ASP   PHE

>  <FRAG_NAME>  (71) 
ACET   MBZ

>  <FRAG_ATOM_NUM>  (71) 
fragi: 7  fragj: 15

>  <atom.prop.CHAIN_ID>  (71) 
A A A A A A A Z Z Z Z Z Z Z Z Z Z Z Z Z Z Z

>  <atom.prop.IS_HEAVY_ATOM>  (71) 
1 0 0 0 1 1 1 1 0 0 0 1 1 0 1 0 1 0 1 0 1 0

>  <DIFUSE_FUNC_ATOM>  (71) 
atom 6   atom 7   

>  <FINAL_SINGLE_POINT_ENERGY>  (71) 
0

>  <NONCOV_INTER_ENERGY_QM>  (71) 
0

>  <FF_Energy>  (71) 
6.02

>  <QM_Energy>  (71) 
-5.9

>  <source>  (71) 
ACET_MBZ_00

>  <Index>  (71) 
31280

$$$$
ACET-pdb1pvh-C-GLU-301:MBZ-pdb1pvh-C-PHE-270
     RDKit          3D

 22 21  0  0  0  0  0  0  0  0999 V2000
   -1.6485    5.9617   -3.0994 C   0  0  0  0  0  0  0  0  0  0  0  0
   -1.6309    5.7654   -4.0629 H   0  0  0  0  0  0  0  0  0  0  0  0
   -0.9628    6.6189   -2.8415 H   0  0  0  0  0  0  0  0  0  0  0  0
   -2.6269    6.3752   -2.8551 H   0  0  0  0  0  0  0  0  0  0  0  0
   -1.3344    4.6598   -2.3616 C   0  0  0  0  0  0  0  0  0  0  0  0
   -0.1605    4.2272   -2.4347 O   0  0  0  0  0  1  0  0  0  0  0  0
   -2.2491    4.0653   -1.7280 O   0  0  0  0  0  0  0  0  0  0  0  0
    0.0003    2.9275    0.0777 C   0  0  0  0  0  0  0  0  0  0  0  0
   -0.6850    3.2642   -0.5461 H   0  0  0  0  0  0  0  0  0  0  0  0
    0.9022    3.2427   -0.1638 H   0  0  0  0  0  0  0  0  0  0  0  0
   -0.2329    3.3138    1.0699 H   0  0  0  0  0  0  0  0  0  0  0  0
   -0.0015    1.4154   -0.0006 C   0  0  0  0  0  0  0  0  0  0  0  0
   -1.2061    0.7089   -0.0008 C   0  0  0  0  0  0  0  0  0  0  0  0
   -2.0692    1.1987   -0.0028 H   0  0  0  0  0  0  0  0  0  0  0  0
   -1.2102   -0.6878   -0.0000 C   0  0  0  0  0  0  0  0  0  0  0  0
   -2.0859   -1.1832   -0.0001 H   0  0  0  0  0  0  0  0  0  0  0  0
    0.0013   -1.4069    0.0032 C   0  0  0  0  0  0  0  0  0  0  0  0
   -0.0203   -2.4002    0.0076 H   0  0  0  0  0  0  0  0  0  0  0  0
    1.2102   -0.7193    0.0000 C   0  0  0  0  0  0  0  0  0  0  0  0
    2.0874   -1.2110    0.0003 H   0  0  0  0  0  0  0  0  0  0  0  0
    1.2063    0.6897   -0.0018 C   0  0  0  0  0  0  0  0  0  0  0  0
    2.0730    1.1812   -0.0047 H   0  0  0  0  0  0  0  0  0  0  0  0
  1  5  1  0
  5  6  1  0
  5  7  2  0
  1  2  1  0
  1  3  1  0
  1  4  1  0
  8 12  1  0
 12 13  2  0
 13 15  1  0
 15 17  2  0
 17 19  1  0
 19 21  2  0
 21 12  1  0
  8  9  1  0
  8 10  1  0
  8 11  1  0
 13 14  1  0
 15 16  1  0
 17 18  1  0
 19 20  1  0
 21 22  1  0
M  CHG  1   6  -1
M  END
>  <PDB_ID>  (72) 
pdb1pvh

>  <RESIDUE_NAME>  (72) 
GLU   PHE

>  <FRAG_NAME>  (72) 
ACET   MBZ

>  <FRAG_ATOM_NUM>  (72) 
fragi: 7  fragj: 15

>  <atom.prop.CHAIN_ID>  (72) 
A A A A A A A Z Z Z Z Z Z Z Z Z Z Z Z Z Z Z

>  <atom.prop.IS_HEAVY_ATOM>  (72) 
1 0 0 0 1 1 1 1 0 0 0 1 1 0 1 0 1 0 1 0 1 0

>  <DIFUSE_FUNC_ATOM>  (72) 
atom 6   atom 7   

>  <FINAL_SINGLE_POINT_ENERGY>  (72) 
0

>  <NONCOV_INTER_ENERGY_QM>  (72) 
0

>  <FF_Energy>  (72) 
8.17

>  <QM_Energy>  (72) 
-4.95

>  <source>  (72) 
ACET_MBZ_00

>  <Index>  (72) 
31358

$$$$
ACET-pdb2wpn-B-GLU-390:MBZ-pdb2wpn-B-PHE-210
     RDKit          3D

 22 21  0  0  0  0  0  0  0  0999 V2000
    3.0788   -3.1885   -0.8439 C   0  0  0  0  0  0  0  0  0  0  0  0
    2.1921   -2.7539   -0.8740 H   0  0  0  0  0  0  0  0  0  0  0  0
    3.0855   -3.9490   -0.2118 H   0  0  0  0  0  0  0  0  0  0  0  0
    3.3078   -3.5680   -1.8398 H   0  0  0  0  0  0  0  0  0  0  0  0
    4.0741   -2.1424   -0.2993 C   0  0  0  0  0  0  0  0  0  0  0  0
    4.3057   -2.1426    0.9320 O   0  0  0  0  0  1  0  0  0  0  0  0
    4.6082   -1.3103   -1.0767 O   0  0  0  0  0  0  0  0  0  0  0  0
    0.0015    2.9437   -0.0002 C   0  0  0  0  0  0  0  0  0  0  0  0
   -0.5278    3.2406   -0.7798 H   0  0  0  0  0  0  0  0  0  0  0  0
    0.9402    3.2442   -0.0631 H   0  0  0  0  0  0  0  0  0  0  0  0
   -0.4362    3.3861    0.8947 H   0  0  0  0  0  0  0  0  0  0  0  0
    0.0050    1.4247    0.0018 C   0  0  0  0  0  0  0  0  0  0  0  0
   -1.2027    0.6985   -0.0008 C   0  0  0  0  0  0  0  0  0  0  0  0
   -2.0686    1.1797   -0.0046 H   0  0  0  0  0  0  0  0  0  0  0  0
   -1.2064   -0.7187    0.0000 C   0  0  0  0  0  0  0  0  0  0  0  0
   -2.0879   -1.1984   -0.0017 H   0  0  0  0  0  0  0  0  0  0  0  0
   -0.0079   -1.4210    0.0049 C   0  0  0  0  0  0  0  0  0  0  0  0
    0.0028   -2.4089    0.0114 H   0  0  0  0  0  0  0  0  0  0  0  0
    1.2064   -0.6990   -0.0000 C   0  0  0  0  0  0  0  0  0  0  0  0
    2.0872   -1.1918    0.0017 H   0  0  0  0  0  0  0  0  0  0  0  0
    1.2056    0.7155   -0.0059 C   0  0  0  0  0  0  0  0  0  0  0  0
    2.0730    1.1998   -0.0168 H   0  0  0  0  0  0  0  0  0  0  0  0
  1  5  1  0
  5  6  1  0
  5  7  2  0
  1  2  1  0
  1  3  1  0
  1  4  1  0
  8 12  1  0
 12 13  2  0
 13 15  1  0
 15 17  2  0
 17 19  1  0
 19 21  2  0
 21 12  1  0
  8  9  1  0
  8 10  1  0
  8 11  1  0
 13 14  1  0
 15 16  1  0
 17 18  1  0
 19 20  1  0
 21 22  1  0
M  CHG  1   6  -1
M  END
>  <PDB_ID>  (73) 
pdb2wpn

>  <RESIDUE_NAME>  (73) 
GLU   PHE

>  <FRAG_NAME>  (73) 
ACET   MBZ

>  <FRAG_ATOM_NUM>  (73) 
fragi: 7  fragj: 15

>  <atom.prop.CHAIN_ID>  (73) 
A A A A A A A Z Z Z Z Z Z Z Z Z Z Z Z Z Z Z

>  <atom.prop.IS_HEAVY_ATOM>  (73) 
1 0 0 0 1 1 1 1 0 0 0 1 1 0 1 0 1 0 1 0 1 0

>  <DIFUSE_FUNC_ATOM>  (73) 
atom 6   atom 7   

>  <FINAL_SINGLE_POINT_ENERGY>  (73) 
0

>  <NONCOV_INTER_ENERGY_QM>  (73) 
0

>  <FF_Energy>  (73) 
10.53

>  <QM_Energy>  (73) 
-1.79

>  <source>  (73) 
ACET_MBZ_00

>  <Index>  (73) 
32477

$$$$
ACET-pdb2ws2-A-GLU-162:MBZ-pdb2ws2-A-PHE-165
     RDKit          3D

 22 21  0  0  0  0  0  0  0  0999 V2000
    5.4694    1.4804    0.4275 C   0  0  0  0  0  0  0  0  0  0  0  0
    6.1594    1.3964    1.1261 H   0  0  0  0  0  0  0  0  0  0  0  0
    5.2268    2.4217    0.2629 H   0  0  0  0  0  0  0  0  0  0  0  0
    5.8485    1.0448   -0.4970 H   0  0  0  0  0  0  0  0  0  0  0  0
    4.1937    0.7876    0.9818 C   0  0  0  0  0  0  0  0  0  0  0  0
    3.3548    1.5142    1.5433 O   0  0  0  0  0  1  0  0  0  0  0  0
    4.0489   -0.4554    0.8804 O   0  0  0  0  0  0  0  0  0  0  0  0
   -0.0126    2.8703   -0.0590 C   0  0  0  0  0  0  0  0  0  0  0  0
    0.9086    3.2062    0.0419 H   0  0  0  0  0  0  0  0  0  0  0  0
   -0.6081    3.2154    0.6462 H   0  0  0  0  0  0  0  0  0  0  0  0
   -0.3916    3.2286   -1.0161 H   0  0  0  0  0  0  0  0  0  0  0  0
    0.0048    1.4048    0.0089 C   0  0  0  0  0  0  0  0  0  0  0  0
   -1.2009    0.6878   -0.0147 C   0  0  0  0  0  0  0  0  0  0  0  0
   -2.0650    1.1783   -0.0437 H   0  0  0  0  0  0  0  0  0  0  0  0
   -1.2104   -0.7133    0.0000 C   0  0  0  0  0  0  0  0  0  0  0  0
   -2.0827   -1.2018    0.0009 H   0  0  0  0  0  0  0  0  0  0  0  0
   -0.0032   -1.4020    0.0154 C   0  0  0  0  0  0  0  0  0  0  0  0
    0.0100   -2.3954    0.0366 H   0  0  0  0  0  0  0  0  0  0  0  0
    1.2104   -0.6849   -0.0000 C   0  0  0  0  0  0  0  0  0  0  0  0
    2.0881   -1.1836   -0.0029 H   0  0  0  0  0  0  0  0  0  0  0  0
    1.1994    0.7075   -0.0096 C   0  0  0  0  0  0  0  0  0  0  0  0
    2.0668    1.2050   -0.0308 H   0  0  0  0  0  0  0  0  0  0  0  0
  1  5  1  0
  5  6  1  0
  5  7  2  0
  1  2  1  0
  1  3  1  0
  1  4  1  0
  8 12  1  0
 12 13  2  0
 13 15  1  0
 15 17  2  0
 17 19  1  0
 19 21  2  0
 21 12  1  0
  8  9  1  0
  8 10  1  0
  8 11  1  0
 13 14  1  0
 15 16  1  0
 17 18  1  0
 19 20  1  0
 21 22  1  0
M  CHG  1   6  -1
M  END
>  <PDB_ID>  (74) 
pdb2ws2

>  <RESIDUE_NAME>  (74) 
GLU   PHE

>  <FRAG_NAME>  (74) 
ACET   MBZ

>  <FRAG_ATOM_NUM>  (74) 
fragi: 7  fragj: 15

>  <atom.prop.CHAIN_ID>  (74) 
A A A A A A A Z Z Z Z Z Z Z Z Z Z Z Z Z Z Z

>  <atom.prop.IS_HEAVY_ATOM>  (74) 
1 0 0 0 1 1 1 1 0 0 0 1 1 0 1 0 1 0 1 0 1 0

>  <DIFUSE_FUNC_ATOM>  (74) 
atom 6   atom 7   

>  <FINAL_SINGLE_POINT_ENERGY>  (74) 
0

>  <NONCOV_INTER_ENERGY_QM>  (74) 
0

>  <FF_Energy>  (74) 
9.12

>  <QM_Energy>  (74) 
-4.25

>  <source>  (74) 
ACET_MBZ_00

>  <Index>  (74) 
32594

$$$$
ACET-pdb1qht-A-GLU-599:MBZ-pdb1qht-A-PHE-582
     RDKit          3D

 22 21  0  0  0  0  0  0  0  0999 V2000
    5.8631    0.8337   -0.9979 C   0  0  0  0  0  0  0  0  0  0  0  0
    6.0096    1.0022   -1.9520 H   0  0  0  0  0  0  0  0  0  0  0  0
    6.0873   -0.0833   -0.7361 H   0  0  0  0  0  0  0  0  0  0  0  0
    6.4935    1.5170   -0.4290 H   0  0  0  0  0  0  0  0  0  0  0  0
    4.3894    1.0469   -0.7134 C   0  0  0  0  0  0  0  0  0  0  0  0
    3.9935    0.8756    0.4608 O   0  0  0  0  0  1  0  0  0  0  0  0
    3.6341    1.3889   -1.6527 O   0  0  0  0  0  0  0  0  0  0  0  0
   -0.0004    2.8998    0.0467 C   0  0  0  0  0  0  0  0  0  0  0  0
   -0.7130    3.2260   -0.5538 H   0  0  0  0  0  0  0  0  0  0  0  0
    0.8900    3.2164   -0.2414 H   0  0  0  0  0  0  0  0  0  0  0  0
   -0.1918    3.3023    1.0414 H   0  0  0  0  0  0  0  0  0  0  0  0
   -0.0002    1.4005    0.0003 C   0  0  0  0  0  0  0  0  0  0  0  0
   -1.1913    0.6936   -0.0006 C   0  0  0  0  0  0  0  0  0  0  0  0
   -2.0605    1.1816   -0.0030 H   0  0  0  0  0  0  0  0  0  0  0  0
   -1.1953   -0.6972   -0.0000 C   0  0  0  0  0  0  0  0  0  0  0  0
   -2.0741   -1.1890    0.0006 H   0  0  0  0  0  0  0  0  0  0  0  0
    0.0007   -1.3920    0.0016 C   0  0  0  0  0  0  0  0  0  0  0  0
   -0.0035   -2.3924    0.0031 H   0  0  0  0  0  0  0  0  0  0  0  0
    1.1953   -0.6976   -0.0000 C   0  0  0  0  0  0  0  0  0  0  0  0
    2.0798   -1.1927    0.0013 H   0  0  0  0  0  0  0  0  0  0  0  0
    1.1908    0.6926   -0.0013 C   0  0  0  0  0  0  0  0  0  0  0  0
    2.0625    1.1870   -0.0042 H   0  0  0  0  0  0  0  0  0  0  0  0
  1  5  1  0
  5  6  1  0
  5  7  2  0
  1  2  1  0
  1  3  1  0
  1  4  1  0
  8 12  1  0
 12 13  2  0
 13 15  1  0
 15 17  2  0
 17 19  1  0
 19 21  2  0
 21 12  1  0
  8  9  1  0
  8 10  1  0
  8 11  1  0
 13 14  1  0
 15 16  1  0
 17 18  1  0
 19 20  1  0
 21 22  1  0
M  CHG  1   6  -1
M  END
>  <PDB_ID>  (75) 
pdb1qht

>  <RESIDUE_NAME>  (75) 
GLU   PHE

>  <FRAG_NAME>  (75) 
ACET   MBZ

>  <FRAG_ATOM_NUM>  (75) 
fragi: 7  fragj: 15

>  <atom.prop.CHAIN_ID>  (75) 
A A A A A A A Z Z Z Z Z Z Z Z Z Z Z Z Z Z Z

>  <atom.prop.IS_HEAVY_ATOM>  (75) 
1 0 0 0 1 1 1 1 0 0 0 1 1 0 1 0 1 0 1 0 1 0

>  <DIFUSE_FUNC_ATOM>  (75) 
atom 6   atom 7   

>  <FINAL_SINGLE_POINT_ENERGY>  (75) 
0

>  <NONCOV_INTER_ENERGY_QM>  (75) 
0

>  <FF_Energy>  (75) 
8.9

>  <QM_Energy>  (75) 
-5.59

>  <source>  (75) 
ACET_MBZ_00

>  <Index>  (75) 
32728

$$$$
ACET-pdb1qo8-A-GLU-434:MBZ-pdb1qo8-A-PHE-53
     RDKit          3D

 22 21  0  0  0  0  0  0  0  0999 V2000
    1.2825   -4.6475    0.9540 C   0  0  0  0  0  0  0  0  0  0  0  0
    1.4648   -5.2811    0.2331 H   0  0  0  0  0  0  0  0  0  0  0  0
    0.4883   -4.1000    0.7973 H   0  0  0  0  0  0  0  0  0  0  0  0
    1.1302   -5.2137    1.8729 H   0  0  0  0  0  0  0  0  0  0  0  0
    2.4819   -3.7040    1.0551 C   0  0  0  0  0  0  0  0  0  0  0  0
    3.3660   -3.6907    1.9317 O   0  0  0  0  0  1  0  0  0  0  0  0
    2.6837   -2.9010    0.1562 O   0  0  0  0  0  0  0  0  0  0  0  0
   -0.0265    2.9075   -0.0603 C   0  0  0  0  0  0  0  0  0  0  0  0
    0.8712    3.2211   -0.1601 H   0  0  0  0  0  0  0  0  0  0  0  0
   -0.5263    3.2392    0.6838 H   0  0  0  0  0  0  0  0  0  0  0  0
   -0.5715    3.1656   -0.9683 H   0  0  0  0  0  0  0  0  0  0  0  0
   -0.0057    1.3990    0.0060 C   0  0  0  0  0  0  0  0  0  0  0  0
   -1.1919    0.6831   -0.0146 C   0  0  0  0  0  0  0  0  0  0  0  0
   -2.0634    1.1689   -0.0420 H   0  0  0  0  0  0  0  0  0  0  0  0
   -1.1878   -0.7007    0.0000 C   0  0  0  0  0  0  0  0  0  0  0  0
   -2.0654   -1.2014    0.0068 H   0  0  0  0  0  0  0  0  0  0  0  0
    0.0135   -1.4034    0.0069 C   0  0  0  0  0  0  0  0  0  0  0  0
    0.0156   -2.3898    0.0159 H   0  0  0  0  0  0  0  0  0  0  0  0
    1.1878   -0.6782   -0.0000 C   0  0  0  0  0  0  0  0  0  0  0  0
    2.0877   -1.1727   -0.0054 H   0  0  0  0  0  0  0  0  0  0  0  0
    1.1840    0.7001    0.0018 C   0  0  0  0  0  0  0  0  0  0  0  0
    2.0532    1.1990   -0.0010 H   0  0  0  0  0  0  0  0  0  0  0  0
  1  5  1  0
  5  6  1  0
  5  7  2  0
  1  2  1  0
  1  3  1  0
  1  4  1  0
  8 12  1  0
 12 13  2  0
 13 15  1  0
 15 17  2  0
 17 19  1  0
 19 21  2  0
 21 12  1  0
  8  9  1  0
  8 10  1  0
  8 11  1  0
 13 14  1  0
 15 16  1  0
 17 18  1  0
 19 20  1  0
 21 22  1  0
M  CHG  1   6  -1
M  END
>  <PDB_ID>  (76) 
pdb1qo8

>  <RESIDUE_NAME>  (76) 
GLU   PHE

>  <FRAG_NAME>  (76) 
ACET   MBZ

>  <FRAG_ATOM_NUM>  (76) 
fragi: 7  fragj: 15

>  <atom.prop.CHAIN_ID>  (76) 
A A A A A A A Z Z Z Z Z Z Z Z Z Z Z Z Z Z Z

>  <atom.prop.IS_HEAVY_ATOM>  (76) 
1 0 0 0 1 1 1 1 0 0 0 1 1 0 1 0 1 0 1 0 1 0

>  <DIFUSE_FUNC_ATOM>  (76) 
atom 6   atom 7   

>  <FINAL_SINGLE_POINT_ENERGY>  (76) 
0

>  <NONCOV_INTER_ENERGY_QM>  (76) 
0

>  <FF_Energy>  (76) 
25.6

>  <QM_Energy>  (76) 
-2.07

>  <source>  (76) 
ACET_MBZ_00

>  <Index>  (76) 
32976

$$$$
ACET-pdb2wqd-A-ASP-155:MBZ-pdb2wqd-A-PHE-177
     RDKit          3D

 22 21  0  0  0  0  0  0  0  0999 V2000
    4.4660   -0.8548   -2.8842 C   0  0  0  0  0  0  0  0  0  0  0  0
    4.6120   -1.1399   -3.8302 H   0  0  0  0  0  0  0  0  0  0  0  0
    5.3254   -0.5276   -2.4966 H   0  0  0  0  0  0  0  0  0  0  0  0
    3.7620   -0.0227   -2.8897 H   0  0  0  0  0  0  0  0  0  0  0  0
    3.9972   -2.0555   -2.0831 C   0  0  0  0  0  0  0  0  0  0  0  0
    2.8919   -2.0297   -1.5041 O   0  0  0  0  0  1  0  0  0  0  0  0
    4.7565   -3.0381   -2.0566 O   0  0  0  0  0  0  0  0  0  0  0  0
   -0.0013    2.9012   -0.0015 C   0  0  0  0  0  0  0  0  0  0  0  0
   -0.8413    3.2058   -0.4249 H   0  0  0  0  0  0  0  0  0  0  0  0
    0.7898    3.2066   -0.5087 H   0  0  0  0  0  0  0  0  0  0  0  0
    0.0501    3.3433    0.9935 H   0  0  0  0  0  0  0  0  0  0  0  0
   -0.0003    1.3970    0.0002 C   0  0  0  0  0  0  0  0  0  0  0  0
   -1.1934    0.6903   -0.0003 C   0  0  0  0  0  0  0  0  0  0  0  0
   -2.0617    1.1807   -0.0021 H   0  0  0  0  0  0  0  0  0  0  0  0
   -1.1968   -0.6957   -0.0000 C   0  0  0  0  0  0  0  0  0  0  0  0
   -2.0740   -1.1904    0.0009 H   0  0  0  0  0  0  0  0  0  0  0  0
    0.0009   -1.3883    0.0006 C   0  0  0  0  0  0  0  0  0  0  0  0
   -0.0025   -2.3883    0.0013 H   0  0  0  0  0  0  0  0  0  0  0  0
    1.1968   -0.6938    0.0000 C   0  0  0  0  0  0  0  0  0  0  0  0
    2.0798   -1.1930    0.0014 H   0  0  0  0  0  0  0  0  0  0  0  0
    1.1928    0.6904   -0.0005 C   0  0  0  0  0  0  0  0  0  0  0  0
    2.0620    1.1885   -0.0022 H   0  0  0  0  0  0  0  0  0  0  0  0
  1  5  1  0
  5  6  1  0
  5  7  2  0
  1  2  1  0
  1  3  1  0
  1  4  1  0
  8 12  1  0
 12 13  2  0
 13 15  1  0
 15 17  2  0
 17 19  1  0
 19 21  2  0
 21 12  1  0
  8  9  1  0
  8 10  1  0
  8 11  1  0
 13 14  1  0
 15 16  1  0
 17 18  1  0
 19 20  1  0
 21 22  1  0
M  CHG  1   6  -1
M  END
>  <PDB_ID>  (77) 
pdb2wqd

>  <RESIDUE_NAME>  (77) 
ASP   PHE

>  <FRAG_NAME>  (77) 
ACET   MBZ

>  <FRAG_ATOM_NUM>  (77) 
fragi: 7  fragj: 15

>  <atom.prop.CHAIN_ID>  (77) 
A A A A A A A Z Z Z Z Z Z Z Z Z Z Z Z Z Z Z

>  <atom.prop.IS_HEAVY_ATOM>  (77) 
1 0 0 0 1 1 1 1 0 0 0 1 1 0 1 0 1 0 1 0 1 0

>  <DIFUSE_FUNC_ATOM>  (77) 
atom 6   atom 7   

>  <FINAL_SINGLE_POINT_ENERGY>  (77) 
0

>  <NONCOV_INTER_ENERGY_QM>  (77) 
0

>  <FF_Energy>  (77) 
16.72

>  <QM_Energy>  (77) 
-1.54

>  <source>  (77) 
ACET_MBZ_00

>  <Index>  (77) 
33029

$$$$
ACET-pdb2wyh-B-GLU-164:MBZ-pdb2wyh-B-PHE-708
     RDKit          3D

 22 21  0  0  0  0  0  0  0  0999 V2000
    1.2377   -4.5473    0.7731 C   0  0  0  0  0  0  0  0  0  0  0  0
    1.5186   -3.6211    0.5164 H   0  0  0  0  0  0  0  0  0  0  0  0
    1.5707   -5.1960    0.0867 H   0  0  0  0  0  0  0  0  0  0  0  0
    1.7226   -4.7880    1.7192 H   0  0  0  0  0  0  0  0  0  0  0  0
   -0.2572   -4.5931    0.7575 C   0  0  0  0  0  0  0  0  0  0  0  0
   -0.9409   -4.8790    1.7311 O   0  0  0  0  0  1  0  0  0  0  0  0
   -0.7299   -4.3180   -0.3646 O   0  0  0  0  0  0  0  0  0  0  0  0
   -0.0032    2.9122   -0.0059 C   0  0  0  0  0  0  0  0  0  0  0  0
    0.8403    3.2185    0.4070 H   0  0  0  0  0  0  0  0  0  0  0  0
   -0.7889    3.2177    0.5098 H   0  0  0  0  0  0  0  0  0  0  0  0
   -0.0667    3.3529   -1.0008 H   0  0  0  0  0  0  0  0  0  0  0  0
   -0.0019    1.4044   -0.0035 C   0  0  0  0  0  0  0  0  0  0  0  0
   -1.2023    0.6938   -0.0005 C   0  0  0  0  0  0  0  0  0  0  0  0
   -2.0679    1.1842   -0.0002 H   0  0  0  0  0  0  0  0  0  0  0  0
   -1.2091   -0.7019    0.0000 C   0  0  0  0  0  0  0  0  0  0  0  0
   -2.0798   -1.1967   -0.0007 H   0  0  0  0  0  0  0  0  0  0  0  0
    0.0043   -1.3981    0.0028 C   0  0  0  0  0  0  0  0  0  0  0  0
    0.0015   -2.3947    0.0065 H   0  0  0  0  0  0  0  0  0  0  0  0
    1.2091   -0.6958    0.0000 C   0  0  0  0  0  0  0  0  0  0  0  0
    2.0889   -1.1916   -0.0010 H   0  0  0  0  0  0  0  0  0  0  0  0
    1.1998    0.6976    0.0012 C   0  0  0  0  0  0  0  0  0  0  0  0
    2.0652    1.1971    0.0050 H   0  0  0  0  0  0  0  0  0  0  0  0
  1  5  1  0
  5  6  1  0
  5  7  2  0
  1  2  1  0
  1  3  1  0
  1  4  1  0
  8 12  1  0
 12 13  2  0
 13 15  1  0
 15 17  2  0
 17 19  1  0
 19 21  2  0
 21 12  1  0
  8  9  1  0
  8 10  1  0
  8 11  1  0
 13 14  1  0
 15 16  1  0
 17 18  1  0
 19 20  1  0
 21 22  1  0
M  CHG  1   6  -1
M  END
>  <PDB_ID>  (78) 
pdb2wyh

>  <RESIDUE_NAME>  (78) 
GLU   PHE

>  <FRAG_NAME>  (78) 
ACET   MBZ

>  <FRAG_ATOM_NUM>  (78) 
fragi: 7  fragj: 15

>  <atom.prop.CHAIN_ID>  (78) 
A A A A A A A Z Z Z Z Z Z Z Z Z Z Z Z Z Z Z

>  <atom.prop.IS_HEAVY_ATOM>  (78) 
1 0 0 0 1 1 1 1 0 0 0 1 1 0 1 0 1 0 1 0 1 0

>  <DIFUSE_FUNC_ATOM>  (78) 
atom 6   atom 7   

>  <FINAL_SINGLE_POINT_ENERGY>  (78) 
0

>  <NONCOV_INTER_ENERGY_QM>  (78) 
0

>  <FF_Energy>  (78) 
5.99

>  <QM_Energy>  (78) 
-4.08

>  <source>  (78) 
ACET_MBZ_00

>  <Index>  (78) 
33055

$$$$
ACET-pdb1r1n-I-GLU-183:MBZ-pdb1r1n-I-PHE-200
     RDKit          3D

 22 21  0  0  0  0  0  0  0  0999 V2000
   -3.4159   -2.2714    1.6770 C   0  0  0  0  0  0  0  0  0  0  0  0
   -3.9497   -1.6386    2.2041 H   0  0  0  0  0  0  0  0  0  0  0  0
   -2.5230   -1.9236    1.4650 H   0  0  0  0  0  0  0  0  0  0  0  0
   -3.3037   -3.1914    2.2507 H   0  0  0  0  0  0  0  0  0  0  0  0
   -4.1405   -2.4979    0.3646 C   0  0  0  0  0  0  0  0  0  0  0  0
   -3.5890   -3.2014   -0.5065 O   0  0  0  0  0  1  0  0  0  0  0  0
   -5.2648   -1.9782    0.2014 O   0  0  0  0  0  0  0  0  0  0  0  0
   -0.0022    2.9000    0.0724 C   0  0  0  0  0  0  0  0  0  0  0  0
    0.2482    3.1638    0.9936 H   0  0  0  0  0  0  0  0  0  0  0  0
   -0.9122    3.2163   -0.1552 H   0  0  0  0  0  0  0  0  0  0  0  0
    0.6980    3.3760   -0.6140 H   0  0  0  0  0  0  0  0  0  0  0  0
    0.0009    1.4031    0.0013 C   0  0  0  0  0  0  0  0  0  0  0  0
   -1.1952    0.6916   -0.0006 C   0  0  0  0  0  0  0  0  0  0  0  0
   -2.0627    1.1812   -0.0039 H   0  0  0  0  0  0  0  0  0  0  0  0
   -1.1999   -0.7005    0.0000 C   0  0  0  0  0  0  0  0  0  0  0  0
   -2.0781   -1.1919    0.0003 H   0  0  0  0  0  0  0  0  0  0  0  0
   -0.0015   -1.3953    0.0021 C   0  0  0  0  0  0  0  0  0  0  0  0
   -0.0024   -2.3940    0.0045 H   0  0  0  0  0  0  0  0  0  0  0  0
    1.1999   -0.6967   -0.0000 C   0  0  0  0  0  0  0  0  0  0  0  0
    2.0818   -1.1924    0.0023 H   0  0  0  0  0  0  0  0  0  0  0  0
    1.1958    0.6978   -0.0028 C   0  0  0  0  0  0  0  0  0  0  0  0
    2.0643    1.1912   -0.0085 H   0  0  0  0  0  0  0  0  0  0  0  0
  1  5  1  0
  5  6  1  0
  5  7  2  0
  1  2  1  0
  1  3  1  0
  1  4  1  0
  8 12  1  0
 12 13  2  0
 13 15  1  0
 15 17  2  0
 17 19  1  0
 19 21  2  0
 21 12  1  0
  8  9  1  0
  8 10  1  0
  8 11  1  0
 13 14  1  0
 15 16  1  0
 17 18  1  0
 19 20  1  0
 21 22  1  0
M  CHG  1   6  -1
M  END
>  <PDB_ID>  (79) 
pdb1r1n

>  <RESIDUE_NAME>  (79) 
GLU   PHE

>  <FRAG_NAME>  (79) 
ACET   MBZ

>  <FRAG_ATOM_NUM>  (79) 
fragi: 7  fragj: 15

>  <atom.prop.CHAIN_ID>  (79) 
A A A A A A A Z Z Z Z Z Z Z Z Z Z Z Z Z Z Z

>  <atom.prop.IS_HEAVY_ATOM>  (79) 
1 0 0 0 1 1 1 1 0 0 0 1 1 0 1 0 1 0 1 0 1 0

>  <DIFUSE_FUNC_ATOM>  (79) 
atom 6   atom 7   

>  <FINAL_SINGLE_POINT_ENERGY>  (79) 
0

>  <NONCOV_INTER_ENERGY_QM>  (79) 
0

>  <FF_Energy>  (79) 
9.94

>  <QM_Energy>  (79) 
-1.14

>  <source>  (79) 
ACET_MBZ_00

>  <Index>  (79) 
33529

$$$$
ACET-pdb2xam-B-GLU-202:MBZ-pdb2xam-B-PHE-429
     RDKit          3D

 22 21  0  0  0  0  0  0  0  0999 V2000
   -1.0744   -3.5438   -2.4247 C   0  0  0  0  0  0  0  0  0  0  0  0
   -1.5005   -2.7655   -2.0137 H   0  0  0  0  0  0  0  0  0  0  0  0
   -1.6867   -4.0725   -2.9742 H   0  0  0  0  0  0  0  0  0  0  0  0
   -0.2629   -3.1905   -3.0611 H   0  0  0  0  0  0  0  0  0  0  0  0
   -0.5665   -4.4385   -1.3062 C   0  0  0  0  0  0  0  0  0  0  0  0
   -0.0049   -5.5087   -1.6085 O   0  0  0  0  0  1  0  0  0  0  0  0
   -0.7210   -4.0748   -0.1198 O   0  0  0  0  0  0  0  0  0  0  0  0
   -0.0047    2.9019    0.0131 C   0  0  0  0  0  0  0  0  0  0  0  0
   -0.7103    3.2140   -0.6013 H   0  0  0  0  0  0  0  0  0  0  0  0
    0.8887    3.2139   -0.2659 H   0  0  0  0  0  0  0  0  0  0  0  0
   -0.2111    3.3207    0.9980 H   0  0  0  0  0  0  0  0  0  0  0  0
   -0.0011    1.3984   -0.0048 C   0  0  0  0  0  0  0  0  0  0  0  0
   -1.1956    0.6901    0.0021 C   0  0  0  0  0  0  0  0  0  0  0  0
   -2.0630    1.1837    0.0075 H   0  0  0  0  0  0  0  0  0  0  0  0
   -1.2006   -0.6923   -0.0000 C   0  0  0  0  0  0  0  0  0  0  0  0
   -2.0766   -1.1901    0.0014 H   0  0  0  0  0  0  0  0  0  0  0  0
    0.0017   -1.3902   -0.0020 C   0  0  0  0  0  0  0  0  0  0  0  0
   -0.0063   -2.3898   -0.0055 H   0  0  0  0  0  0  0  0  0  0  0  0
    1.2006   -0.6983    0.0000 C   0  0  0  0  0  0  0  0  0  0  0  0
    2.0823   -1.1951    0.0001 H   0  0  0  0  0  0  0  0  0  0  0  0
    1.1950    0.6923    0.0047 C   0  0  0  0  0  0  0  0  0  0  0  0
    2.0631    1.1893    0.0147 H   0  0  0  0  0  0  0  0  0  0  0  0
  1  5  1  0
  5  6  1  0
  5  7  2  0
  1  2  1  0
  1  3  1  0
  1  4  1  0
  8 12  1  0
 12 13  2  0
 13 15  1  0
 15 17  2  0
 17 19  1  0
 19 21  2  0
 21 12  1  0
  8  9  1  0
  8 10  1  0
  8 11  1  0
 13 14  1  0
 15 16  1  0
 17 18  1  0
 19 20  1  0
 21 22  1  0
M  CHG  1   6  -1
M  END
>  <PDB_ID>  (80) 
pdb2xam

>  <RESIDUE_NAME>  (80) 
GLU   PHE

>  <FRAG_NAME>  (80) 
ACET   MBZ

>  <FRAG_ATOM_NUM>  (80) 
fragi: 7  fragj: 15

>  <atom.prop.CHAIN_ID>  (80) 
A A A A A A A Z Z Z Z Z Z Z Z Z Z Z Z Z Z Z

>  <atom.prop.IS_HEAVY_ATOM>  (80) 
1 0 0 0 1 1 1 1 0 0 0 1 1 0 1 0 1 0 1 0 1 0

>  <DIFUSE_FUNC_ATOM>  (80) 
atom 6   atom 7   

>  <FINAL_SINGLE_POINT_ENERGY>  (80) 
0

>  <NONCOV_INTER_ENERGY_QM>  (80) 
0

>  <FF_Energy>  (80) 
23.74

>  <QM_Energy>  (80) 
-3.11

>  <source>  (80) 
ACET_MBZ_00

>  <Index>  (80) 
33779

$$$$
ACET-pdb2xhy-B-ASP-76:MBZ-pdb2xhy-B-PHE-69
     RDKit          3D

 22 21  0  0  0  0  0  0  0  0999 V2000
   -4.7773   -0.7687    0.4253 C   0  0  0  0  0  0  0  0  0  0  0  0
   -3.9987   -1.0050    0.9958 H   0  0  0  0  0  0  0  0  0  0  0  0
   -4.5985   -1.0039   -0.5228 H   0  0  0  0  0  0  0  0  0  0  0  0
   -5.6328   -1.3535    0.7632 H   0  0  0  0  0  0  0  0  0  0  0  0
   -5.0118    0.7321    0.5200 C   0  0  0  0  0  0  0  0  0  0  0  0
   -6.1642    1.1515    0.7561 O   0  0  0  0  0  1  0  0  0  0  0  0
   -4.0361    1.4961    0.3494 O   0  0  0  0  0  0  0  0  0  0  0  0
    0.0022    2.9017   -0.0044 C   0  0  0  0  0  0  0  0  0  0  0  0
   -0.4896    3.2043   -0.8080 H   0  0  0  0  0  0  0  0  0  0  0  0
    0.9432    3.2058   -0.0238 H   0  0  0  0  0  0  0  0  0  0  0  0
   -0.4749    3.3517    0.8662 H   0  0  0  0  0  0  0  0  0  0  0  0
   -0.0007    1.3982    0.0047 C   0  0  0  0  0  0  0  0  0  0  0  0
   -1.1914    0.6930   -0.0026 C   0  0  0  0  0  0  0  0  0  0  0  0
   -2.0608    1.1833   -0.0110 H   0  0  0  0  0  0  0  0  0  0  0  0
   -1.1955   -0.6927    0.0000 C   0  0  0  0  0  0  0  0  0  0  0  0
   -2.0742   -1.1870    0.0036 H   0  0  0  0  0  0  0  0  0  0  0  0
    0.0007   -1.3892   -0.0009 C   0  0  0  0  0  0  0  0  0  0  0  0
   -0.0065   -2.3897   -0.0027 H   0  0  0  0  0  0  0  0  0  0  0  0
    1.1955   -0.6987   -0.0000 C   0  0  0  0  0  0  0  0  0  0  0  0
    2.0786   -1.1951    0.0027 H   0  0  0  0  0  0  0  0  0  0  0  0
    1.1914    0.6894   -0.0012 C   0  0  0  0  0  0  0  0  0  0  0  0
    2.0616    1.1854   -0.0078 H   0  0  0  0  0  0  0  0  0  0  0  0
  1  5  1  0
  5  6  1  0
  5  7  2  0
  1  2  1  0
  1  3  1  0
  1  4  1  0
  8 12  1  0
 12 13  2  0
 13 15  1  0
 15 17  2  0
 17 19  1  0
 19 21  2  0
 21 12  1  0
  8  9  1  0
  8 10  1  0
  8 11  1  0
 13 14  1  0
 15 16  1  0
 17 18  1  0
 19 20  1  0
 21 22  1  0
M  CHG  1   6  -1
M  END
>  <PDB_ID>  (81) 
pdb2xhy

>  <RESIDUE_NAME>  (81) 
ASP   PHE

>  <FRAG_NAME>  (81) 
ACET   MBZ

>  <FRAG_ATOM_NUM>  (81) 
fragi: 7  fragj: 15

>  <atom.prop.CHAIN_ID>  (81) 
A A A A A A A Z Z Z Z Z Z Z Z Z Z Z Z Z Z Z

>  <atom.prop.IS_HEAVY_ATOM>  (81) 
1 0 0 0 1 1 1 1 0 0 0 1 1 0 1 0 1 0 1 0 1 0

>  <DIFUSE_FUNC_ATOM>  (81) 
atom 6   atom 7   

>  <FINAL_SINGLE_POINT_ENERGY>  (81) 
0

>  <NONCOV_INTER_ENERGY_QM>  (81) 
0

>  <FF_Energy>  (81) 
3.96

>  <QM_Energy>  (81) 
-6.07

>  <source>  (81) 
ACET_MBZ_00

>  <Index>  (81) 
34153

$$$$
ACET-pdb1ru3-A-GLU-458:MBZ-pdb1ru3-A-PHE-413
     RDKit          3D

 22 21  0  0  0  0  0  0  0  0999 V2000
   -2.9714   -4.3631    0.9799 C   0  0  0  0  0  0  0  0  0  0  0  0
   -3.8525   -4.7608    1.1763 H   0  0  0  0  0  0  0  0  0  0  0  0
   -2.5436   -4.0032    1.7930 H   0  0  0  0  0  0  0  0  0  0  0  0
   -2.3300   -5.1510    0.5852 H   0  0  0  0  0  0  0  0  0  0  0  0
   -3.1871   -3.2110    0.0218 C   0  0  0  0  0  0  0  0  0  0  0  0
   -2.4018   -3.0924   -0.9490 O   0  0  0  0  0  1  0  0  0  0  0  0
   -4.1405   -2.4237    0.2477 O   0  0  0  0  0  0  0  0  0  0  0  0
    0.0262    2.9485    0.1017 C   0  0  0  0  0  0  0  0  0  0  0  0
    0.6868    3.2792   -0.5560 H   0  0  0  0  0  0  0  0  0  0  0  0
    0.2901    3.1817    1.0259 H   0  0  0  0  0  0  0  0  0  0  0  0
   -0.9248    3.4388   -0.1064 H   0  0  0  0  0  0  0  0  0  0  0  0
    0.0001    1.4207    0.0014 C   0  0  0  0  0  0  0  0  0  0  0  0
   -1.2044    0.7081   -0.0020 C   0  0  0  0  0  0  0  0  0  0  0  0
   -2.0692    1.1930   -0.0072 H   0  0  0  0  0  0  0  0  0  0  0  0
   -1.2086   -0.6995    0.0000 C   0  0  0  0  0  0  0  0  0  0  0  0
   -2.0846   -1.1882    0.0012 H   0  0  0  0  0  0  0  0  0  0  0  0
    0.0008   -1.4104    0.0027 C   0  0  0  0  0  0  0  0  0  0  0  0
   -0.0117   -2.4041    0.0059 H   0  0  0  0  0  0  0  0  0  0  0  0
    1.2086   -0.7141   -0.0000 C   0  0  0  0  0  0  0  0  0  0  0  0
    2.0881   -1.2050    0.0008 H   0  0  0  0  0  0  0  0  0  0  0  0
    1.2035    0.6952   -0.0020 C   0  0  0  0  0  0  0  0  0  0  0  0
    2.0729    1.1855   -0.0066 H   0  0  0  0  0  0  0  0  0  0  0  0
  1  5  1  0
  5  6  1  0
  5  7  2  0
  1  2  1  0
  1  3  1  0
  1  4  1  0
  8 12  1  0
 12 13  2  0
 13 15  1  0
 15 17  2  0
 17 19  1  0
 19 21  2  0
 21 12  1  0
  8  9  1  0
  8 10  1  0
  8 11  1  0
 13 14  1  0
 15 16  1  0
 17 18  1  0
 19 20  1  0
 21 22  1  0
M  CHG  1   6  -1
M  END
>  <PDB_ID>  (82) 
pdb1ru3

>  <RESIDUE_NAME>  (82) 
GLU   PHE

>  <FRAG_NAME>  (82) 
ACET   MBZ

>  <FRAG_ATOM_NUM>  (82) 
fragi: 7  fragj: 15

>  <atom.prop.CHAIN_ID>  (82) 
A A A A A A A Z Z Z Z Z Z Z Z Z Z Z Z Z Z Z

>  <atom.prop.IS_HEAVY_ATOM>  (82) 
1 0 0 0 1 1 1 1 0 0 0 1 1 0 1 0 1 0 1 0 1 0

>  <DIFUSE_FUNC_ATOM>  (82) 
atom 6   atom 7   

>  <FINAL_SINGLE_POINT_ENERGY>  (82) 
0

>  <NONCOV_INTER_ENERGY_QM>  (82) 
0

>  <FF_Energy>  (82) 
5.24

>  <QM_Energy>  (82) 
-5.37

>  <source>  (82) 
ACET_MBZ_00

>  <Index>  (82) 
35071

$$$$
ACET-pdb1rv0-M-GLU-632:MBZ-pdb1rv0-M-PHE-638
     RDKit          3D

 22 21  0  0  0  0  0  0  0  0999 V2000
    3.8913   -1.9717   -1.5919 C   0  0  0  0  0  0  0  0  0  0  0  0
    3.0305   -1.6425   -1.2533 H   0  0  0  0  0  0  0  0  0  0  0  0
    4.0101   -1.7930   -2.5496 H   0  0  0  0  0  0  0  0  0  0  0  0
    4.6880   -1.4656   -1.0468 H   0  0  0  0  0  0  0  0  0  0  0  0
    3.9138   -3.4808   -1.4008 C   0  0  0  0  0  0  0  0  0  0  0  0
    4.9896   -4.0903   -1.5877 O   0  0  0  0  0  1  0  0  0  0  0  0
    2.8546   -4.0585   -1.0693 O   0  0  0  0  0  0  0  0  0  0  0  0
   -0.0032    2.8969   -0.0487 C   0  0  0  0  0  0  0  0  0  0  0  0
   -0.7496    3.2213    0.5132 H   0  0  0  0  0  0  0  0  0  0  0  0
   -0.1173    3.1745   -0.9911 H   0  0  0  0  0  0  0  0  0  0  0  0
    0.9157    3.3502    0.3231 H   0  0  0  0  0  0  0  0  0  0  0  0
   -0.0004    1.3998   -0.0011 C   0  0  0  0  0  0  0  0  0  0  0  0
   -1.1954    0.6931    0.0004 C   0  0  0  0  0  0  0  0  0  0  0  0
   -2.0630    1.1832    0.0002 H   0  0  0  0  0  0  0  0  0  0  0  0
   -1.2014   -0.6971    0.0000 C   0  0  0  0  0  0  0  0  0  0  0  0
   -2.0775   -1.1904    0.0011 H   0  0  0  0  0  0  0  0  0  0  0  0
    0.0001   -1.3933   -0.0004 C   0  0  0  0  0  0  0  0  0  0  0  0
   -0.0026   -2.3916   -0.0019 H   0  0  0  0  0  0  0  0  0  0  0  0
    1.2014   -0.6957    0.0000 C   0  0  0  0  0  0  0  0  0  0  0  0
    2.0820   -1.1940    0.0013 H   0  0  0  0  0  0  0  0  0  0  0  0
    1.1957    0.6932    0.0011 C   0  0  0  0  0  0  0  0  0  0  0  0
    2.0638    1.1903    0.0027 H   0  0  0  0  0  0  0  0  0  0  0  0
  1  5  1  0
  5  6  1  0
  5  7  2  0
  1  2  1  0
  1  3  1  0
  1  4  1  0
  8 12  1  0
 12 13  2  0
 13 15  1  0
 15 17  2  0
 17 19  1  0
 19 21  2  0
 21 12  1  0
  8  9  1  0
  8 10  1  0
  8 11  1  0
 13 14  1  0
 15 16  1  0
 17 18  1  0
 19 20  1  0
 21 22  1  0
M  CHG  1   6  -1
M  END
>  <PDB_ID>  (83) 
pdb1rv0

>  <RESIDUE_NAME>  (83) 
GLU   PHE

>  <FRAG_NAME>  (83) 
ACET   MBZ

>  <FRAG_ATOM_NUM>  (83) 
fragi: 7  fragj: 15

>  <atom.prop.CHAIN_ID>  (83) 
A A A A A A A Z Z Z Z Z Z Z Z Z Z Z Z Z Z Z

>  <atom.prop.IS_HEAVY_ATOM>  (83) 
1 0 0 0 1 1 1 1 0 0 0 1 1 0 1 0 1 0 1 0 1 0

>  <DIFUSE_FUNC_ATOM>  (83) 
atom 6   atom 7   

>  <FINAL_SINGLE_POINT_ENERGY>  (83) 
0

>  <NONCOV_INTER_ENERGY_QM>  (83) 
0

>  <FF_Energy>  (83) 
10.25

>  <QM_Energy>  (83) 
-0.32

>  <source>  (83) 
ACET_MBZ_00

>  <Index>  (83) 
35114

$$$$
ACET-pdb1ry2-A-GLU-82:MBZ-pdb1ry2-A-PHE-90
     RDKit          3D

 22 21  0  0  0  0  0  0  0  0999 V2000
   -3.6215    3.8492   -1.2787 C   0  0  0  0  0  0  0  0  0  0  0  0
   -2.6551    3.9786   -1.1499 H   0  0  0  0  0  0  0  0  0  0  0  0
   -4.0923    4.6997   -1.4297 H   0  0  0  0  0  0  0  0  0  0  0  0
   -3.7631    3.2228   -2.1594 H   0  0  0  0  0  0  0  0  0  0  0  0
   -4.1796    3.2363    0.0023 C   0  0  0  0  0  0  0  0  0  0  0  0
   -3.7567    2.1210    0.3754 O   0  0  0  0  0  1  0  0  0  0  0  0
   -5.0369    3.8762    0.6450 O   0  0  0  0  0  0  0  0  0  0  0  0
    0.0077    2.9027    0.1122 C   0  0  0  0  0  0  0  0  0  0  0  0
   -0.7445    3.2546   -0.4212 H   0  0  0  0  0  0  0  0  0  0  0  0
    0.8766    3.2309   -0.2207 H   0  0  0  0  0  0  0  0  0  0  0  0
   -0.1131    3.2616    1.1343 H   0  0  0  0  0  0  0  0  0  0  0  0
   -0.0001    1.4045    0.0007 C   0  0  0  0  0  0  0  0  0  0  0  0
   -1.1992    0.7014   -0.0026 C   0  0  0  0  0  0  0  0  0  0  0  0
   -2.0641    1.1911   -0.0087 H   0  0  0  0  0  0  0  0  0  0  0  0
   -1.2050   -0.6933    0.0000 C   0  0  0  0  0  0  0  0  0  0  0  0
   -2.0809   -1.1864   -0.0009 H   0  0  0  0  0  0  0  0  0  0  0  0
    0.0008   -1.3980    0.0051 C   0  0  0  0  0  0  0  0  0  0  0  0
   -0.0098   -2.3946    0.0122 H   0  0  0  0  0  0  0  0  0  0  0  0
    1.2050   -0.7044   -0.0000 C   0  0  0  0  0  0  0  0  0  0  0  0
    2.0839   -1.2003    0.0003 H   0  0  0  0  0  0  0  0  0  0  0  0
    1.1986    0.6898   -0.0031 C   0  0  0  0  0  0  0  0  0  0  0  0
    2.0676    1.1866   -0.0089 H   0  0  0  0  0  0  0  0  0  0  0  0
  1  5  1  0
  5  6  1  0
  5  7  2  0
  1  2  1  0
  1  3  1  0
  1  4  1  0
  8 12  1  0
 12 13  2  0
 13 15  1  0
 15 17  2  0
 17 19  1  0
 19 21  2  0
 21 12  1  0
  8  9  1  0
  8 10  1  0
  8 11  1  0
 13 14  1  0
 15 16  1  0
 17 18  1  0
 19 20  1  0
 21 22  1  0
M  CHG  1   6  -1
M  END
>  <PDB_ID>  (84) 
pdb1ry2

>  <RESIDUE_NAME>  (84) 
GLU   PHE

>  <FRAG_NAME>  (84) 
ACET   MBZ

>  <FRAG_ATOM_NUM>  (84) 
fragi: 7  fragj: 15

>  <atom.prop.CHAIN_ID>  (84) 
A A A A A A A Z Z Z Z Z Z Z Z Z Z Z Z Z Z Z

>  <atom.prop.IS_HEAVY_ATOM>  (84) 
1 0 0 0 1 1 1 1 0 0 0 1 1 0 1 0 1 0 1 0 1 0

>  <DIFUSE_FUNC_ATOM>  (84) 
atom 6   atom 7   

>  <FINAL_SINGLE_POINT_ENERGY>  (84) 
0

>  <NONCOV_INTER_ENERGY_QM>  (84) 
0

>  <FF_Energy>  (84) 
6.98

>  <QM_Energy>  (84) 
-6.64

>  <source>  (84) 
ACET_MBZ_00

>  <Index>  (84) 
35233

$$$$
ACET-pdb2ywb-A-GLU-87:MBZ-pdb2ywb-A-PHE-68
     RDKit          3D

 22 21  0  0  0  0  0  0  0  0999 V2000
    4.3182   -1.5172    3.0846 C   0  0  0  0  0  0  0  0  0  0  0  0
    5.0750   -0.9667    3.3786 H   0  0  0  0  0  0  0  0  0  0  0  0
    4.3335   -2.4171    3.4760 H   0  0  0  0  0  0  0  0  0  0  0  0
    3.3958   -1.0237    3.3908 H   0  0  0  0  0  0  0  0  0  0  0  0
    4.4088   -1.6638    1.5888 C   0  0  0  0  0  0  0  0  0  0  0  0
    5.1897   -2.5289    1.1295 O   0  0  0  0  0  1  0  0  0  0  0  0
    3.6991   -0.9129    0.8819 O   0  0  0  0  0  0  0  0  0  0  0  0
   -0.0050    2.9068   -0.0590 C   0  0  0  0  0  0  0  0  0  0  0  0
    0.9230    3.2211    0.0575 H   0  0  0  0  0  0  0  0  0  0  0  0
   -0.5955    3.2398    0.6577 H   0  0  0  0  0  0  0  0  0  0  0  0
   -0.3749    3.3002   -1.0059 H   0  0  0  0  0  0  0  0  0  0  0  0
   -0.0005    1.4059   -0.0006 C   0  0  0  0  0  0  0  0  0  0  0  0
   -1.1979    0.6969    0.0017 C   0  0  0  0  0  0  0  0  0  0  0  0
   -2.0647    1.1853    0.0038 H   0  0  0  0  0  0  0  0  0  0  0  0
   -1.2033   -0.6986    0.0000 C   0  0  0  0  0  0  0  0  0  0  0  0
   -2.0800   -1.1902    0.0012 H   0  0  0  0  0  0  0  0  0  0  0  0
    0.0001   -1.3986   -0.0023 C   0  0  0  0  0  0  0  0  0  0  0  0
   -0.0050   -2.3958   -0.0058 H   0  0  0  0  0  0  0  0  0  0  0  0
    1.2033   -0.7012   -0.0000 C   0  0  0  0  0  0  0  0  0  0  0  0
    2.0839   -1.1965    0.0026 H   0  0  0  0  0  0  0  0  0  0  0  0
    1.1983    0.6955    0.0012 C   0  0  0  0  0  0  0  0  0  0  0  0
    2.0666    1.1899    0.0021 H   0  0  0  0  0  0  0  0  0  0  0  0
  1  5  1  0
  5  6  1  0
  5  7  2  0
  1  2  1  0
  1  3  1  0
  1  4  1  0
  8 12  1  0
 12 13  2  0
 13 15  1  0
 15 17  2  0
 17 19  1  0
 19 21  2  0
 21 12  1  0
  8  9  1  0
  8 10  1  0
  8 11  1  0
 13 14  1  0
 15 16  1  0
 17 18  1  0
 19 20  1  0
 21 22  1  0
M  CHG  1   6  -1
M  END
>  <PDB_ID>  (85) 
pdb2ywb

>  <RESIDUE_NAME>  (85) 
GLU   PHE

>  <FRAG_NAME>  (85) 
ACET   MBZ

>  <FRAG_ATOM_NUM>  (85) 
fragi: 7  fragj: 15

>  <atom.prop.CHAIN_ID>  (85) 
A A A A A A A Z Z Z Z Z Z Z Z Z Z Z Z Z Z Z

>  <atom.prop.IS_HEAVY_ATOM>  (85) 
1 0 0 0 1 1 1 1 0 0 0 1 1 0 1 0 1 0 1 0 1 0

>  <DIFUSE_FUNC_ATOM>  (85) 
atom 6   atom 7   

>  <FINAL_SINGLE_POINT_ENERGY>  (85) 
0

>  <NONCOV_INTER_ENERGY_QM>  (85) 
0

>  <FF_Energy>  (85) 
20.81

>  <QM_Energy>  (85) 
-3.22

>  <source>  (85) 
ACET_MBZ_00

>  <Index>  (85) 
36646

$$$$
ACET-pdb1syy-A-GLU-227:MBZ-pdb1syy-A-PHE-197
     RDKit          3D

 22 21  0  0  0  0  0  0  0  0999 V2000
    4.8285    3.1764   -0.1230 C   0  0  0  0  0  0  0  0  0  0  0  0
    3.9541    3.5503   -0.0424 H   0  0  0  0  0  0  0  0  0  0  0  0
    5.2940    3.3185   -0.9441 H   0  0  0  0  0  0  0  0  0  0  0  0
    5.4475    3.4843    0.7197 H   0  0  0  0  0  0  0  0  0  0  0  0
    4.6783    1.6594    0.0419 C   0  0  0  0  0  0  0  0  0  0  0  0
    3.8567    1.2896    0.9037 O   0  0  0  0  0  1  0  0  0  0  0  0
    5.3990    0.8377   -0.5958 O   0  0  0  0  0  0  0  0  0  0  0  0
    0.0220    2.9041    0.1431 C   0  0  0  0  0  0  0  0  0  0  0  0
    0.6280    3.2510   -0.5691 H   0  0  0  0  0  0  0  0  0  0  0  0
    0.4058    3.1040    1.0416 H   0  0  0  0  0  0  0  0  0  0  0  0
   -0.9489    3.3912    0.0531 H   0  0  0  0  0  0  0  0  0  0  0  0
   -0.0014    1.3959    0.0027 C   0  0  0  0  0  0  0  0  0  0  0  0
   -1.1850    0.6850   -0.0016 C   0  0  0  0  0  0  0  0  0  0  0  0
   -2.0557    1.1834   -0.0078 H   0  0  0  0  0  0  0  0  0  0  0  0
   -1.1834   -0.6733    0.0000 C   0  0  0  0  0  0  0  0  0  0  0  0
   -2.0708   -1.1778    0.0020 H   0  0  0  0  0  0  0  0  0  0  0  0
   -0.0035   -1.3792    0.0011 C   0  0  0  0  0  0  0  0  0  0  0  0
   -0.0168   -2.3776    0.0025 H   0  0  0  0  0  0  0  0  0  0  0  0
    1.1834   -0.6926   -0.0000 C   0  0  0  0  0  0  0  0  0  0  0  0
    2.0684   -1.2070    0.0026 H   0  0  0  0  0  0  0  0  0  0  0  0
    1.1899    0.6642   -0.0022 C   0  0  0  0  0  0  0  0  0  0  0  0
    2.0617    1.1704   -0.0086 H   0  0  0  0  0  0  0  0  0  0  0  0
  1  5  1  0
  5  6  1  0
  5  7  2  0
  1  2  1  0
  1  3  1  0
  1  4  1  0
  8 12  1  0
 12 13  2  0
 13 15  1  0
 15 17  2  0
 17 19  1  0
 19 21  2  0
 21 12  1  0
  8  9  1  0
  8 10  1  0
  8 11  1  0
 13 14  1  0
 15 16  1  0
 17 18  1  0
 19 20  1  0
 21 22  1  0
M  CHG  1   6  -1
M  END
>  <PDB_ID>  (86) 
pdb1syy

>  <RESIDUE_NAME>  (86) 
GLU   PHE

>  <FRAG_NAME>  (86) 
ACET   MBZ

>  <FRAG_ATOM_NUM>  (86) 
fragi: 7  fragj: 15

>  <atom.prop.CHAIN_ID>  (86) 
A A A A A A A Z Z Z Z Z Z Z Z Z Z Z Z Z Z Z

>  <atom.prop.IS_HEAVY_ATOM>  (86) 
1 0 0 0 1 1 1 1 0 0 0 1 1 0 1 0 1 0 1 0 1 0

>  <DIFUSE_FUNC_ATOM>  (86) 
atom 6   atom 7   

>  <FINAL_SINGLE_POINT_ENERGY>  (86) 
0

>  <NONCOV_INTER_ENERGY_QM>  (86) 
0

>  <FF_Energy>  (86) 
5.2

>  <QM_Energy>  (86) 
-5.38

>  <source>  (86) 
ACET_MBZ_00

>  <Index>  (86) 
36851

$$$$
ACET-pdb1t3n-A-ASP-335:MBZ-pdb1t3n-A-PHE-302
     RDKit          3D

 22 21  0  0  0  0  0  0  0  0999 V2000
   -2.0647   -4.0784   -0.2427 C   0  0  0  0  0  0  0  0  0  0  0  0
   -1.5040   -3.5441   -0.8628 H   0  0  0  0  0  0  0  0  0  0  0  0
   -2.8688   -3.5670    0.0306 H   0  0  0  0  0  0  0  0  0  0  0  0
   -2.3952   -4.9728   -0.7709 H   0  0  0  0  0  0  0  0  0  0  0  0
   -1.2601   -4.4172    0.9773 C   0  0  0  0  0  0  0  0  0  0  0  0
   -1.8148   -5.0653    1.8987 O   0  0  0  0  0  1  0  0  0  0  0  0
   -0.0562   -4.0932    0.9976 O   0  0  0  0  0  0  0  0  0  0  0  0
   -0.0165    2.8640    0.0182 C   0  0  0  0  0  0  0  0  0  0  0  0
   -0.5848    3.1667    0.7735 H   0  0  0  0  0  0  0  0  0  0  0  0
   -0.3814    3.1872   -0.8470 H   0  0  0  0  0  0  0  0  0  0  0  0
    0.9673    3.3153    0.1472 H   0  0  0  0  0  0  0  0  0  0  0  0
   -0.0038    1.3863    0.0011 C   0  0  0  0  0  0  0  0  0  0  0  0
   -1.1953    0.6895   -0.0011 C   0  0  0  0  0  0  0  0  0  0  0  0
   -2.0615    1.1860   -0.0045 H   0  0  0  0  0  0  0  0  0  0  0  0
   -1.2015   -0.6865   -0.0000 C   0  0  0  0  0  0  0  0  0  0  0  0
   -2.0736   -1.1882    0.0007 H   0  0  0  0  0  0  0  0  0  0  0  0
    0.0044   -1.3804    0.0018 C   0  0  0  0  0  0  0  0  0  0  0  0
   -0.0054   -2.3833    0.0038 H   0  0  0  0  0  0  0  0  0  0  0  0
    1.2015   -0.6929   -0.0000 C   0  0  0  0  0  0  0  0  0  0  0  0
    2.0815   -1.1947    0.0013 H   0  0  0  0  0  0  0  0  0  0  0  0
    1.1947    0.6839   -0.0018 C   0  0  0  0  0  0  0  0  0  0  0  0
    2.0599    1.1886   -0.0062 H   0  0  0  0  0  0  0  0  0  0  0  0
  1  5  1  0
  5  6  1  0
  5  7  2  0
  1  2  1  0
  1  3  1  0
  1  4  1  0
  8 12  1  0
 12 13  2  0
 13 15  1  0
 15 17  2  0
 17 19  1  0
 19 21  2  0
 21 12  1  0
  8  9  1  0
  8 10  1  0
  8 11  1  0
 13 14  1  0
 15 16  1  0
 17 18  1  0
 19 20  1  0
 21 22  1  0
M  CHG  1   6  -1
M  END
>  <PDB_ID>  (87) 
pdb1t3n

>  <RESIDUE_NAME>  (87) 
ASP   PHE

>  <FRAG_NAME>  (87) 
ACET   MBZ

>  <FRAG_ATOM_NUM>  (87) 
fragi: 7  fragj: 15

>  <atom.prop.CHAIN_ID>  (87) 
A A A A A A A Z Z Z Z Z Z Z Z Z Z Z Z Z Z Z

>  <atom.prop.IS_HEAVY_ATOM>  (87) 
1 0 0 0 1 1 1 1 0 0 0 1 1 0 1 0 1 0 1 0 1 0

>  <DIFUSE_FUNC_ATOM>  (87) 
atom 6   atom 7   

>  <FINAL_SINGLE_POINT_ENERGY>  (87) 
0

>  <NONCOV_INTER_ENERGY_QM>  (87) 
0

>  <FF_Energy>  (87) 
8.83

>  <QM_Energy>  (87) 
-3.31

>  <source>  (87) 
ACET_MBZ_00

>  <Index>  (87) 
37149

$$$$
ACET-pdb2z1k-B-GLU-137:MBZ-pdb2z1k-B-PHE-150
     RDKit          3D

 22 21  0  0  0  0  0  0  0  0999 V2000
    3.3400   -0.0862    2.6304 C   0  0  0  0  0  0  0  0  0  0  0  0
    2.5914    0.1340    2.0356 H   0  0  0  0  0  0  0  0  0  0  0  0
    3.8871    0.6971    2.8538 H   0  0  0  0  0  0  0  0  0  0  0  0
    2.9371   -0.5027    3.5537 H   0  0  0  0  0  0  0  0  0  0  0  0
    4.2383   -1.0708    1.8859 C   0  0  0  0  0  0  0  0  0  0  0  0
    5.2179   -1.5656    2.4918 O   0  0  0  0  0  1  0  0  0  0  0  0
    3.9724   -1.3478    0.6959 O   0  0  0  0  0  0  0  0  0  0  0  0
    0.0002    2.9208   -0.0190 C   0  0  0  0  0  0  0  0  0  0  0  0
    0.8920    3.2284    0.2741 H   0  0  0  0  0  0  0  0  0  0  0  0
   -0.7089    3.2330    0.5935 H   0  0  0  0  0  0  0  0  0  0  0  0
   -0.1951    3.3515   -1.0011 H   0  0  0  0  0  0  0  0  0  0  0  0
    0.0003    1.4112   -0.0001 C   0  0  0  0  0  0  0  0  0  0  0  0
   -1.1976    0.6988   -0.0006 C   0  0  0  0  0  0  0  0  0  0  0  0
   -2.0660    1.1856   -0.0030 H   0  0  0  0  0  0  0  0  0  0  0  0
   -1.2057   -0.7039    0.0000 C   0  0  0  0  0  0  0  0  0  0  0  0
   -2.0835   -1.1907    0.0013 H   0  0  0  0  0  0  0  0  0  0  0  0
   -0.0032   -1.4050    0.0008 C   0  0  0  0  0  0  0  0  0  0  0  0
   -0.0036   -2.3996    0.0017 H   0  0  0  0  0  0  0  0  0  0  0  0
    1.2057   -0.7011   -0.0000 C   0  0  0  0  0  0  0  0  0  0  0  0
    2.0851   -1.1963    0.0011 H   0  0  0  0  0  0  0  0  0  0  0  0
    1.2005    0.6999   -0.0001 C   0  0  0  0  0  0  0  0  0  0  0  0
    2.0685    1.1925   -0.0011 H   0  0  0  0  0  0  0  0  0  0  0  0
  1  5  1  0
  5  6  1  0
  5  7  2  0
  1  2  1  0
  1  3  1  0
  1  4  1  0
  8 12  1  0
 12 13  2  0
 13 15  1  0
 15 17  2  0
 17 19  1  0
 19 21  2  0
 21 12  1  0
  8  9  1  0
  8 10  1  0
  8 11  1  0
 13 14  1  0
 15 16  1  0
 17 18  1  0
 19 20  1  0
 21 22  1  0
M  CHG  1   6  -1
M  END
>  <PDB_ID>  (88) 
pdb2z1k

>  <RESIDUE_NAME>  (88) 
GLU   PHE

>  <FRAG_NAME>  (88) 
ACET   MBZ

>  <FRAG_ATOM_NUM>  (88) 
fragi: 7  fragj: 15

>  <atom.prop.CHAIN_ID>  (88) 
A A A A A A A Z Z Z Z Z Z Z Z Z Z Z Z Z Z Z

>  <atom.prop.IS_HEAVY_ATOM>  (88) 
1 0 0 0 1 1 1 1 0 0 0 1 1 0 1 0 1 0 1 0 1 0

>  <DIFUSE_FUNC_ATOM>  (88) 
atom 6   atom 7   

>  <FINAL_SINGLE_POINT_ENERGY>  (88) 
0

>  <NONCOV_INTER_ENERGY_QM>  (88) 
0

>  <FF_Energy>  (88) 
5.58

>  <QM_Energy>  (88) 
-4.54

>  <source>  (88) 
ACET_MBZ_00

>  <Index>  (88) 
37354

$$$$
ACET-pdb1tx3-C-ASP-165:MBZ-pdb1tx3-C-PHE-122
     RDKit          3D

 22 21  0  0  0  0  0  0  0  0999 V2000
    1.2942   -4.2771    2.8652 C   0  0  0  0  0  0  0  0  0  0  0  0
    1.7973   -3.4227    2.9011 H   0  0  0  0  0  0  0  0  0  0  0  0
    1.9014   -5.0474    3.0096 H   0  0  0  0  0  0  0  0  0  0  0  0
    0.5635   -4.2693    3.6740 H   0  0  0  0  0  0  0  0  0  0  0  0
    0.6517   -4.4095    1.4925 C   0  0  0  0  0  0  0  0  0  0  0  0
   -0.4179   -5.0479    1.3927 O   0  0  0  0  0  1  0  0  0  0  0  0
    1.2267   -3.8957    0.5081 O   0  0  0  0  0  0  0  0  0  0  0  0
   -0.0042    2.9058    0.0274 C   0  0  0  0  0  0  0  0  0  0  0  0
   -0.5502    3.2233   -0.7307 H   0  0  0  0  0  0  0  0  0  0  0  0
    0.9308    3.2159   -0.0412 H   0  0  0  0  0  0  0  0  0  0  0  0
   -0.4280    3.3196    0.9425 H   0  0  0  0  0  0  0  0  0  0  0  0
    0.0010    1.4029   -0.0001 C   0  0  0  0  0  0  0  0  0  0  0  0
   -1.1966    0.6942   -0.0002 C   0  0  0  0  0  0  0  0  0  0  0  0
   -2.0631    1.1843   -0.0016 H   0  0  0  0  0  0  0  0  0  0  0  0
   -1.2034   -0.6988   -0.0000 C   0  0  0  0  0  0  0  0  0  0  0  0
   -2.0802   -1.1908    0.0007 H   0  0  0  0  0  0  0  0  0  0  0  0
   -0.0016   -1.3957    0.0005 C   0  0  0  0  0  0  0  0  0  0  0  0
   -0.0049   -2.3944    0.0007 H   0  0  0  0  0  0  0  0  0  0  0  0
    1.2034   -0.6988    0.0000 C   0  0  0  0  0  0  0  0  0  0  0  0
    2.0831   -1.1952    0.0011 H   0  0  0  0  0  0  0  0  0  0  0  0
    1.1972    0.6962   -0.0002 C   0  0  0  0  0  0  0  0  0  0  0  0
    2.0659    1.1912   -0.0007 H   0  0  0  0  0  0  0  0  0  0  0  0
  1  5  1  0
  5  6  1  0
  5  7  2  0
  1  2  1  0
  1  3  1  0
  1  4  1  0
  8 12  1  0
 12 13  2  0
 13 15  1  0
 15 17  2  0
 17 19  1  0
 19 21  2  0
 21 12  1  0
  8  9  1  0
  8 10  1  0
  8 11  1  0
 13 14  1  0
 15 16  1  0
 17 18  1  0
 19 20  1  0
 21 22  1  0
M  CHG  1   6  -1
M  END
>  <PDB_ID>  (89) 
pdb1tx3

>  <RESIDUE_NAME>  (89) 
ASP   PHE

>  <FRAG_NAME>  (89) 
ACET   MBZ

>  <FRAG_ATOM_NUM>  (89) 
fragi: 7  fragj: 15

>  <atom.prop.CHAIN_ID>  (89) 
A A A A A A A Z Z Z Z Z Z Z Z Z Z Z Z Z Z Z

>  <atom.prop.IS_HEAVY_ATOM>  (89) 
1 0 0 0 1 1 1 1 0 0 0 1 1 0 1 0 1 0 1 0 1 0

>  <DIFUSE_FUNC_ATOM>  (89) 
atom 6   atom 7   

>  <FINAL_SINGLE_POINT_ENERGY>  (89) 
0

>  <NONCOV_INTER_ENERGY_QM>  (89) 
0

>  <FF_Energy>  (89) 
5.73

>  <QM_Energy>  (89) 
-5.19

>  <source>  (89) 
ACET_MBZ_00

>  <Index>  (89) 
38773

$$$$
ACET-pdb2zpl-C-GLU-207:MBZ-pdb2zpl-C-PHE-202
     RDKit          3D

 22 21  0  0  0  0  0  0  0  0999 V2000
   -4.3895    3.2413    1.3512 C   0  0  0  0  0  0  0  0  0  0  0  0
   -5.2347    3.6962    1.2112 H   0  0  0  0  0  0  0  0  0  0  0  0
   -4.1078    3.1919    2.2785 H   0  0  0  0  0  0  0  0  0  0  0  0
   -4.4541    2.2333    0.9415 H   0  0  0  0  0  0  0  0  0  0  0  0
   -3.3350    3.9911    0.5924 C   0  0  0  0  0  0  0  0  0  0  0  0
   -2.2557    4.1303    1.1661 O   0  0  0  0  0  1  0  0  0  0  0  0
   -3.5464    4.3358   -0.6086 O   0  0  0  0  0  0  0  0  0  0  0  0
   -0.0965    2.9742    0.0237 C   0  0  0  0  0  0  0  0  0  0  0  0
   -1.0483    3.2175    0.1535 H   0  0  0  0  0  0  0  0  0  0  0  0
    0.2249    3.2671   -0.8668 H   0  0  0  0  0  0  0  0  0  0  0  0
    0.4981    3.4711    0.7903 H   0  0  0  0  0  0  0  0  0  0  0  0
   -0.0305    1.4248    0.0299 C   0  0  0  0  0  0  0  0  0  0  0  0
   -1.1859    0.6846   -0.0077 C   0  0  0  0  0  0  0  0  0  0  0  0
   -2.0809    1.1480   -0.0436 H   0  0  0  0  0  0  0  0  0  0  0  0
   -1.1856   -0.7271    0.0000 C   0  0  0  0  0  0  0  0  0  0  0  0
   -2.0497   -1.2235    0.0095 H   0  0  0  0  0  0  0  0  0  0  0  0
    0.0445   -1.4290   -0.0047 C   0  0  0  0  0  0  0  0  0  0  0  0
    0.0368   -2.4136   -0.0119 H   0  0  0  0  0  0  0  0  0  0  0  0
    1.1856   -0.6974    0.0000 C   0  0  0  0  0  0  0  0  0  0  0  0
    2.1077   -1.1441    0.0177 H   0  0  0  0  0  0  0  0  0  0  0  0
    1.1719    0.7442   -0.0175 C   0  0  0  0  0  0  0  0  0  0  0  0
    2.0357    1.2214   -0.0647 H   0  0  0  0  0  0  0  0  0  0  0  0
  1  5  1  0
  5  6  1  0
  5  7  2  0
  1  2  1  0
  1  3  1  0
  1  4  1  0
  8 12  1  0
 12 13  2  0
 13 15  1  0
 15 17  2  0
 17 19  1  0
 19 21  2  0
 21 12  1  0
  8  9  1  0
  8 10  1  0
  8 11  1  0
 13 14  1  0
 15 16  1  0
 17 18  1  0
 19 20  1  0
 21 22  1  0
M  CHG  1   6  -1
M  END
>  <PDB_ID>  (90) 
pdb2zpl

>  <RESIDUE_NAME>  (90) 
GLU   PHE

>  <FRAG_NAME>  (90) 
ACET   MBZ

>  <FRAG_ATOM_NUM>  (90) 
fragi: 7  fragj: 15

>  <atom.prop.CHAIN_ID>  (90) 
A A A A A A A Z Z Z Z Z Z Z Z Z Z Z Z Z Z Z

>  <atom.prop.IS_HEAVY_ATOM>  (90) 
1 0 0 0 1 1 1 1 0 0 0 1 1 0 1 0 1 0 1 0 1 0

>  <DIFUSE_FUNC_ATOM>  (90) 
atom 6   atom 7   

>  <FINAL_SINGLE_POINT_ENERGY>  (90) 
0

>  <NONCOV_INTER_ENERGY_QM>  (90) 
0

>  <FF_Energy>  (90) 
24.42

>  <QM_Energy>  (90) 
-2.56

>  <source>  (90) 
ACET_MBZ_00

>  <Index>  (90) 
38792

$$$$
ACET-pdb1u0u-B-GLU-76:MBZ-pdb1u0u-B-PHE-41
     RDKit          3D

 22 21  0  0  0  0  0  0  0  0999 V2000
   -2.7813   -3.5112    1.7912 C   0  0  0  0  0  0  0  0  0  0  0  0
   -3.1703   -4.2149    2.3605 H   0  0  0  0  0  0  0  0  0  0  0  0
   -2.0215   -3.0627    2.2314 H   0  0  0  0  0  0  0  0  0  0  0  0
   -2.4219   -3.9743    0.8722 H   0  0  0  0  0  0  0  0  0  0  0  0
   -3.8527   -2.4685    1.5561 C   0  0  0  0  0  0  0  0  0  0  0  0
   -3.7581   -1.7190    0.5603 O   0  0  0  0  0  1  0  0  0  0  0  0
   -4.7856   -2.3938    2.3842 O   0  0  0  0  0  0  0  0  0  0  0  0
    0.0109    2.9086   -0.0456 C   0  0  0  0  0  0  0  0  0  0  0  0
   -0.7434    3.2013   -0.6149 H   0  0  0  0  0  0  0  0  0  0  0  0
    0.8789    3.1968   -0.4226 H   0  0  0  0  0  0  0  0  0  0  0  0
   -0.1033    3.3820    0.9296 H   0  0  0  0  0  0  0  0  0  0  0  0
    0.0012    1.4034   -0.0003 C   0  0  0  0  0  0  0  0  0  0  0  0
   -1.1994    0.6962    0.0025 C   0  0  0  0  0  0  0  0  0  0  0  0
   -2.0639    1.1872    0.0049 H   0  0  0  0  0  0  0  0  0  0  0  0
   -1.2055   -0.6966    0.0000 C   0  0  0  0  0  0  0  0  0  0  0  0
   -2.0824   -1.1887    0.0027 H   0  0  0  0  0  0  0  0  0  0  0  0
   -0.0027   -1.3970   -0.0042 C   0  0  0  0  0  0  0  0  0  0  0  0
   -0.0062   -2.3936   -0.0102 H   0  0  0  0  0  0  0  0  0  0  0  0
    1.2055   -0.6984    0.0000 C   0  0  0  0  0  0  0  0  0  0  0  0
    2.0828   -1.1988    0.0026 H   0  0  0  0  0  0  0  0  0  0  0  0
    1.2008    0.6924    0.0019 C   0  0  0  0  0  0  0  0  0  0  0  0
    2.0679    1.1903    0.0042 H   0  0  0  0  0  0  0  0  0  0  0  0
  1  5  1  0
  5  6  1  0
  5  7  2  0
  1  2  1  0
  1  3  1  0
  1  4  1  0
  8 12  1  0
 12 13  2  0
 13 15  1  0
 15 17  2  0
 17 19  1  0
 19 21  2  0
 21 12  1  0
  8  9  1  0
  8 10  1  0
  8 11  1  0
 13 14  1  0
 15 16  1  0
 17 18  1  0
 19 20  1  0
 21 22  1  0
M  CHG  1   6  -1
M  END
>  <PDB_ID>  (91) 
pdb1u0u

>  <RESIDUE_NAME>  (91) 
GLU   PHE

>  <FRAG_NAME>  (91) 
ACET   MBZ

>  <FRAG_ATOM_NUM>  (91) 
fragi: 7  fragj: 15

>  <atom.prop.CHAIN_ID>  (91) 
A A A A A A A Z Z Z Z Z Z Z Z Z Z Z Z Z Z Z

>  <atom.prop.IS_HEAVY_ATOM>  (91) 
1 0 0 0 1 1 1 1 0 0 0 1 1 0 1 0 1 0 1 0 1 0

>  <DIFUSE_FUNC_ATOM>  (91) 
atom 6   atom 7   

>  <FINAL_SINGLE_POINT_ENERGY>  (91) 
0

>  <NONCOV_INTER_ENERGY_QM>  (91) 
0

>  <FF_Energy>  (91) 
20.91

>  <QM_Energy>  (91) 
-4.56

>  <source>  (91) 
ACET_MBZ_00

>  <Index>  (91) 
39099

$$$$
ACET-pdb1u1j-A-GLU-498:MBZ-pdb1u1j-A-PHE-509
     RDKit          3D

 22 21  0  0  0  0  0  0  0  0999 V2000
    4.2435   -1.9627   -0.0572 C   0  0  0  0  0  0  0  0  0  0  0  0
    3.4362   -1.8029    0.4750 H   0  0  0  0  0  0  0  0  0  0  0  0
    4.9488   -2.4177    0.4491 H   0  0  0  0  0  0  0  0  0  0  0  0
    3.9764   -2.5806   -0.9146 H   0  0  0  0  0  0  0  0  0  0  0  0
    4.7808   -0.6235   -0.4888 C   0  0  0  0  0  0  0  0  0  0  0  0
    4.1615   -0.0126   -1.3918 O   0  0  0  0  0  1  0  0  0  0  0  0
    5.8110   -0.1830    0.0732 O   0  0  0  0  0  0  0  0  0  0  0  0
   -0.0004    2.9082    0.0625 C   0  0  0  0  0  0  0  0  0  0  0  0
   -0.5876    3.2427   -0.6557 H   0  0  0  0  0  0  0  0  0  0  0  0
    0.9293    3.2182   -0.0520 H   0  0  0  0  0  0  0  0  0  0  0  0
   -0.3713    3.2999    1.0097 H   0  0  0  0  0  0  0  0  0  0  0  0
   -0.0002    1.4049    0.0010 C   0  0  0  0  0  0  0  0  0  0  0  0
   -1.1988    0.6928   -0.0008 C   0  0  0  0  0  0  0  0  0  0  0  0
   -2.0652    1.1836   -0.0039 H   0  0  0  0  0  0  0  0  0  0  0  0
   -1.2055   -0.7015   -0.0000 C   0  0  0  0  0  0  0  0  0  0  0  0
   -2.0795   -1.1936    0.0013 H   0  0  0  0  0  0  0  0  0  0  0  0
   -0.0012   -1.3953    0.0008 C   0  0  0  0  0  0  0  0  0  0  0  0
   -0.0016   -2.3934    0.0013 H   0  0  0  0  0  0  0  0  0  0  0  0
    1.2055   -0.6958    0.0000 C   0  0  0  0  0  0  0  0  0  0  0  0
    2.0841   -1.1950    0.0021 H   0  0  0  0  0  0  0  0  0  0  0  0
    1.2001    0.6949   -0.0010 C   0  0  0  0  0  0  0  0  0  0  0  0
    2.0661    1.1927   -0.0039 H   0  0  0  0  0  0  0  0  0  0  0  0
  1  5  1  0
  5  6  1  0
  5  7  2  0
  1  2  1  0
  1  3  1  0
  1  4  1  0
  8 12  1  0
 12 13  2  0
 13 15  1  0
 15 17  2  0
 17 19  1  0
 19 21  2  0
 21 12  1  0
  8  9  1  0
  8 10  1  0
  8 11  1  0
 13 14  1  0
 15 16  1  0
 17 18  1  0
 19 20  1  0
 21 22  1  0
M  CHG  1   6  -1
M  END
>  <PDB_ID>  (92) 
pdb1u1j

>  <RESIDUE_NAME>  (92) 
GLU   PHE

>  <FRAG_NAME>  (92) 
ACET   MBZ

>  <FRAG_ATOM_NUM>  (92) 
fragi: 7  fragj: 15

>  <atom.prop.CHAIN_ID>  (92) 
A A A A A A A Z Z Z Z Z Z Z Z Z Z Z Z Z Z Z

>  <atom.prop.IS_HEAVY_ATOM>  (92) 
1 0 0 0 1 1 1 1 0 0 0 1 1 0 1 0 1 0 1 0 1 0

>  <DIFUSE_FUNC_ATOM>  (92) 
atom 6   atom 7   

>  <FINAL_SINGLE_POINT_ENERGY>  (92) 
0

>  <NONCOV_INTER_ENERGY_QM>  (92) 
0

>  <FF_Energy>  (92) 
21.72

>  <QM_Energy>  (92) 
-0.97

>  <source>  (92) 
ACET_MBZ_00

>  <Index>  (92) 
39152

$$$$
ACET-pdb2zxk-B-ASP-168:MBZ-pdb2zxk-B-PHE-218
     RDKit          3D

 22 21  0  0  0  0  0  0  0  0999 V2000
    4.2487    0.9600   -1.7855 C   0  0  0  0  0  0  0  0  0  0  0  0
    3.5683    1.0101   -2.5003 H   0  0  0  0  0  0  0  0  0  0  0  0
    4.0591    0.2206   -1.1586 H   0  0  0  0  0  0  0  0  0  0  0  0
    5.2194    0.7795   -2.2472 H   0  0  0  0  0  0  0  0  0  0  0  0
    4.1872    2.3036   -0.9733 C   0  0  0  0  0  0  0  0  0  0  0  0
    4.7629    3.3265   -1.4023 O   0  0  0  0  0  1  0  0  0  0  0  0
    3.5338    2.3564    0.0945 O   0  0  0  0  0  0  0  0  0  0  0  0
   -0.0054    2.8913    0.0314 C   0  0  0  0  0  0  0  0  0  0  0  0
   -0.9373    3.1989   -0.0555 H   0  0  0  0  0  0  0  0  0  0  0  0
    0.5599    3.2165   -0.7074 H   0  0  0  0  0  0  0  0  0  0  0  0
    0.3954    3.2936    0.9618 H   0  0  0  0  0  0  0  0  0  0  0  0
   -0.0031    1.3933   -0.0026 C   0  0  0  0  0  0  0  0  0  0  0  0
   -1.1994    0.6866    0.0053 C   0  0  0  0  0  0  0  0  0  0  0  0
   -2.0658    1.1852    0.0140 H   0  0  0  0  0  0  0  0  0  0  0  0
   -1.2156   -0.6974    0.0000 C   0  0  0  0  0  0  0  0  0  0  0  0
   -2.0770   -1.1981   -0.0058 H   0  0  0  0  0  0  0  0  0  0  0  0
    0.0100   -1.3905    0.0042 C   0  0  0  0  0  0  0  0  0  0  0  0
    0.0066   -2.3883    0.0094 H   0  0  0  0  0  0  0  0  0  0  0  0
    1.2156   -0.6874    0.0000 C   0  0  0  0  0  0  0  0  0  0  0  0
    2.0933   -1.1816    0.0033 H   0  0  0  0  0  0  0  0  0  0  0  0
    1.1925    0.6955   -0.0069 C   0  0  0  0  0  0  0  0  0  0  0  0
    2.0597    1.2041   -0.0159 H   0  0  0  0  0  0  0  0  0  0  0  0
  1  5  1  0
  5  6  1  0
  5  7  2  0
  1  2  1  0
  1  3  1  0
  1  4  1  0
  8 12  1  0
 12 13  2  0
 13 15  1  0
 15 17  2  0
 17 19  1  0
 19 21  2  0
 21 12  1  0
  8  9  1  0
  8 10  1  0
  8 11  1  0
 13 14  1  0
 15 16  1  0
 17 18  1  0
 19 20  1  0
 21 22  1  0
M  CHG  1   6  -1
M  END
>  <PDB_ID>  (93) 
pdb2zxk

>  <RESIDUE_NAME>  (93) 
ASP   PHE

>  <FRAG_NAME>  (93) 
ACET   MBZ

>  <FRAG_ATOM_NUM>  (93) 
fragi: 7  fragj: 15

>  <atom.prop.CHAIN_ID>  (93) 
A A A A A A A Z Z Z Z Z Z Z Z Z Z Z Z Z Z Z

>  <atom.prop.IS_HEAVY_ATOM>  (93) 
1 0 0 0 1 1 1 1 0 0 0 1 1 0 1 0 1 0 1 0 1 0

>  <DIFUSE_FUNC_ATOM>  (93) 
atom 6   atom 7   

>  <FINAL_SINGLE_POINT_ENERGY>  (93) 
0

>  <NONCOV_INTER_ENERGY_QM>  (93) 
0

>  <FF_Energy>  (93) 
16.85

>  <QM_Energy>  (93) 
-5.96

>  <source>  (93) 
ACET_MBZ_00

>  <Index>  (93) 
39272

$$$$
ACET-pdb1vr2-A-GLU-878:MBZ-pdb1vr2-A-PHE-845
     RDKit          3D

 22 21  0  0  0  0  0  0  0  0999 V2000
    4.1942    1.9992   -0.2790 C   0  0  0  0  0  0  0  0  0  0  0  0
    3.2467    2.0932   -0.5376 H   0  0  0  0  0  0  0  0  0  0  0  0
    4.5549    1.1168   -0.5343 H   0  0  0  0  0  0  0  0  0  0  0  0
    4.7677    2.7672   -0.7978 H   0  0  0  0  0  0  0  0  0  0  0  0
    4.2628    2.0969    1.2402 C   0  0  0  0  0  0  0  0  0  0  0  0
    3.3060    2.6180    1.8667 O   0  0  0  0  0  1  0  0  0  0  0  0
    5.2657    1.6249    1.8092 O   0  0  0  0  0  0  0  0  0  0  0  0
   -0.0102    2.8889   -0.0234 C   0  0  0  0  0  0  0  0  0  0  0  0
   -0.8243    3.1965   -0.5112 H   0  0  0  0  0  0  0  0  0  0  0  0
    0.8085    3.2097   -0.4949 H   0  0  0  0  0  0  0  0  0  0  0  0
   -0.0231    3.3815    0.9489 H   0  0  0  0  0  0  0  0  0  0  0  0
    0.0016    1.4001   -0.0067 C   0  0  0  0  0  0  0  0  0  0  0  0
   -1.1985    0.6927   -0.0082 C   0  0  0  0  0  0  0  0  0  0  0  0
   -2.0645    1.1935   -0.0155 H   0  0  0  0  0  0  0  0  0  0  0  0
   -1.2192   -0.6931   -0.0000 C   0  0  0  0  0  0  0  0  0  0  0  0
   -2.0876   -1.1864   -0.0102 H   0  0  0  0  0  0  0  0  0  0  0  0
   -0.0061   -1.3910    0.0246 C   0  0  0  0  0  0  0  0  0  0  0  0
   -0.0114   -2.3905    0.0605 H   0  0  0  0  0  0  0  0  0  0  0  0
    1.2192   -0.7005   -0.0000 C   0  0  0  0  0  0  0  0  0  0  0  0
    2.0852   -1.2010   -0.0099 H   0  0  0  0  0  0  0  0  0  0  0  0
    1.2030    0.6918   -0.0098 C   0  0  0  0  0  0  0  0  0  0  0  0
    2.0699    1.1939   -0.0184 H   0  0  0  0  0  0  0  0  0  0  0  0
  1  5  1  0
  5  6  1  0
  5  7  2  0
  1  2  1  0
  1  3  1  0
  1  4  1  0
  8 12  1  0
 12 13  2  0
 13 15  1  0
 15 17  2  0
 17 19  1  0
 19 21  2  0
 21 12  1  0
  8  9  1  0
  8 10  1  0
  8 11  1  0
 13 14  1  0
 15 16  1  0
 17 18  1  0
 19 20  1  0
 21 22  1  0
M  CHG  1   6  -1
M  END
>  <PDB_ID>  (94) 
pdb1vr2

>  <RESIDUE_NAME>  (94) 
GLU   PHE

>  <FRAG_NAME>  (94) 
ACET   MBZ

>  <FRAG_ATOM_NUM>  (94) 
fragi: 7  fragj: 15

>  <atom.prop.CHAIN_ID>  (94) 
A A A A A A A Z Z Z Z Z Z Z Z Z Z Z Z Z Z Z

>  <atom.prop.IS_HEAVY_ATOM>  (94) 
1 0 0 0 1 1 1 1 0 0 0 1 1 0 1 0 1 0 1 0 1 0

>  <DIFUSE_FUNC_ATOM>  (94) 
atom 6   atom 7   

>  <FINAL_SINGLE_POINT_ENERGY>  (94) 
0

>  <NONCOV_INTER_ENERGY_QM>  (94) 
0

>  <FF_Energy>  (94) 
20.78

>  <QM_Energy>  (94) 
-0.79

>  <source>  (94) 
ACET_MBZ_01

>  <Index>  (94) 
1531

$$$$
ACET-pdb1wmm-A-ASP-136:MBZ-pdb1wmm-A-PHE-113
     RDKit          3D

 22 21  0  0  0  0  0  0  0  0999 V2000
   -5.0640    2.2286    1.8161 C   0  0  0  0  0  0  0  0  0  0  0  0
   -4.6093    2.6586    2.5878 H   0  0  0  0  0  0  0  0  0  0  0  0
   -4.9127    1.2469    1.8274 H   0  0  0  0  0  0  0  0  0  0  0  0
   -6.1350    2.4042    1.9177 H   0  0  0  0  0  0  0  0  0  0  0  0
   -4.5028    2.7981    0.5366 C   0  0  0  0  0  0  0  0  0  0  0  0
   -3.2694    2.7549    0.3581 O   0  0  0  0  0  1  0  0  0  0  0  0
   -5.2935    3.2829   -0.2987 O   0  0  0  0  0  0  0  0  0  0  0  0
    0.0103    2.9175    0.0701 C   0  0  0  0  0  0  0  0  0  0  0  0
    0.8722    3.1997    0.4680 H   0  0  0  0  0  0  0  0  0  0  0  0
   -0.7520    3.2028    0.6358 H   0  0  0  0  0  0  0  0  0  0  0  0
   -0.0878    3.4195   -0.8925 H   0  0  0  0  0  0  0  0  0  0  0  0
   -0.0003    1.4092    0.0014 C   0  0  0  0  0  0  0  0  0  0  0  0
   -1.1987    0.6995   -0.0033 C   0  0  0  0  0  0  0  0  0  0  0  0
   -2.0657    1.1868   -0.0105 H   0  0  0  0  0  0  0  0  0  0  0  0
   -1.2049   -0.7007    0.0000 C   0  0  0  0  0  0  0  0  0  0  0  0
   -2.0806   -1.1904    0.0008 H   0  0  0  0  0  0  0  0  0  0  0  0
    0.0001   -1.4011    0.0033 C   0  0  0  0  0  0  0  0  0  0  0  0
   -0.0053   -2.3975    0.0074 H   0  0  0  0  0  0  0  0  0  0  0  0
    1.2049   -0.7029   -0.0000 C   0  0  0  0  0  0  0  0  0  0  0  0
    2.0854   -1.1976   -0.0001 H   0  0  0  0  0  0  0  0  0  0  0  0
    1.1988    0.6961   -0.0013 C   0  0  0  0  0  0  0  0  0  0  0  0
    2.0673    1.1899   -0.0050 H   0  0  0  0  0  0  0  0  0  0  0  0
  1  5  1  0
  5  6  1  0
  5  7  2  0
  1  2  1  0
  1  3  1  0
  1  4  1  0
  8 12  1  0
 12 13  2  0
 13 15  1  0
 15 17  2  0
 17 19  1  0
 19 21  2  0
 21 12  1  0
  8  9  1  0
  8 10  1  0
  8 11  1  0
 13 14  1  0
 15 16  1  0
 17 18  1  0
 19 20  1  0
 21 22  1  0
M  CHG  1   6  -1
M  END
>  <PDB_ID>  (95) 
pdb1wmm

>  <RESIDUE_NAME>  (95) 
ASP   PHE

>  <FRAG_NAME>  (95) 
ACET   MBZ

>  <FRAG_ATOM_NUM>  (95) 
fragi: 7  fragj: 15

>  <atom.prop.CHAIN_ID>  (95) 
A A A A A A A Z Z Z Z Z Z Z Z Z Z Z Z Z Z Z

>  <atom.prop.IS_HEAVY_ATOM>  (95) 
1 0 0 0 1 1 1 1 0 0 0 1 1 0 1 0 1 0 1 0 1 0

>  <DIFUSE_FUNC_ATOM>  (95) 
atom 6   atom 7   

>  <FINAL_SINGLE_POINT_ENERGY>  (95) 
0

>  <NONCOV_INTER_ENERGY_QM>  (95) 
0

>  <FF_Energy>  (95) 
5.29

>  <QM_Energy>  (95) 
-7.53

>  <source>  (95) 
ACET_MBZ_01

>  <Index>  (95) 
2860

$$$$
ACET-pdb3amc-B-GLU-180:MBZ-pdb3amc-B-PHE-237
     RDKit          3D

 22 21  0  0  0  0  0  0  0  0999 V2000
   -0.2827   -4.8425   -0.1936 C   0  0  0  0  0  0  0  0  0  0  0  0
   -1.0607   -4.9841   -0.7897 H   0  0  0  0  0  0  0  0  0  0  0  0
   -0.2364   -3.9015    0.1133 H   0  0  0  0  0  0  0  0  0  0  0  0
   -0.3909   -5.4883    0.6778 H   0  0  0  0  0  0  0  0  0  0  0  0
    0.9750   -5.0995   -1.0341 C   0  0  0  0  0  0  0  0  0  0  0  0
    1.2556   -6.3182   -1.4086 O   0  0  0  0  0  1  0  0  0  0  0  0
    1.6393   -4.0809   -1.2884 O   0  0  0  0  0  0  0  0  0  0  0  0
    0.0347    2.9331    0.0145 C   0  0  0  0  0  0  0  0  0  0  0  0
   -0.7387    3.2481   -0.5081 H   0  0  0  0  0  0  0  0  0  0  0  0
    0.8890    3.2238   -0.3828 H   0  0  0  0  0  0  0  0  0  0  0  0
   -0.0362    3.3529    1.0179 H   0  0  0  0  0  0  0  0  0  0  0  0
    0.0129    1.4196   -0.0000 C   0  0  0  0  0  0  0  0  0  0  0  0
   -1.2096    0.7154    0.0010 C   0  0  0  0  0  0  0  0  0  0  0  0
   -2.0631    1.1960    0.0009 H   0  0  0  0  0  0  0  0  0  0  0  0
   -1.2002   -0.7009    0.0000 C   0  0  0  0  0  0  0  0  0  0  0  0
   -2.0832   -1.1866    0.0002 H   0  0  0  0  0  0  0  0  0  0  0  0
   -0.0048   -1.3960    0.0005 C   0  0  0  0  0  0  0  0  0  0  0  0
   -0.0205   -2.4047    0.0010 H   0  0  0  0  0  0  0  0  0  0  0  0
    1.2002   -0.7275   -0.0000 C   0  0  0  0  0  0  0  0  0  0  0  0
    2.0772   -1.2159    0.0017 H   0  0  0  0  0  0  0  0  0  0  0  0
    1.2016    0.6894   -0.0015 C   0  0  0  0  0  0  0  0  0  0  0  0
    2.0802    1.1679   -0.0041 H   0  0  0  0  0  0  0  0  0  0  0  0
  1  5  1  0
  5  6  1  0
  5  7  2  0
  1  2  1  0
  1  3  1  0
  1  4  1  0
  8 12  1  0
 12 13  2  0
 13 15  1  0
 15 17  2  0
 17 19  1  0
 19 21  2  0
 21 12  1  0
  8  9  1  0
  8 10  1  0
  8 11  1  0
 13 14  1  0
 15 16  1  0
 17 18  1  0
 19 20  1  0
 21 22  1  0
M  CHG  1   6  -1
M  END
>  <PDB_ID>  (96) 
pdb3amc

>  <RESIDUE_NAME>  (96) 
GLU   PHE

>  <FRAG_NAME>  (96) 
ACET   MBZ

>  <FRAG_ATOM_NUM>  (96) 
fragi: 7  fragj: 15

>  <atom.prop.CHAIN_ID>  (96) 
A A A A A A A Z Z Z Z Z Z Z Z Z Z Z Z Z Z Z

>  <atom.prop.IS_HEAVY_ATOM>  (96) 
1 0 0 0 1 1 1 1 0 0 0 1 1 0 1 0 1 0 1 0 1 0

>  <DIFUSE_FUNC_ATOM>  (96) 
atom 6   atom 7   

>  <FINAL_SINGLE_POINT_ENERGY>  (96) 
0

>  <NONCOV_INTER_ENERGY_QM>  (96) 
0

>  <FF_Energy>  (96) 
25.82

>  <QM_Energy>  (96) 
-0.18

>  <source>  (96) 
ACET_MBZ_01

>  <Index>  (96) 
3005

$$$$
ACET-pdb1wyt-D-GLU-422:MBZ-pdb1wyt-D-PHE-68
     RDKit          3D

 22 21  0  0  0  0  0  0  0  0999 V2000
   -4.0957   -0.1964   -1.5032 C   0  0  0  0  0  0  0  0  0  0  0  0
   -5.0181   -0.4029   -1.2304 H   0  0  0  0  0  0  0  0  0  0  0  0
   -3.4326   -0.5844   -0.8880 H   0  0  0  0  0  0  0  0  0  0  0  0
   -3.9337   -0.6318   -2.4892 H   0  0  0  0  0  0  0  0  0  0  0  0
   -3.9305    1.3245   -1.4593 C   0  0  0  0  0  0  0  0  0  0  0  0
   -3.1972    1.8873   -2.2970 O   0  0  0  0  0  1  0  0  0  0  0  0
   -4.5180    1.9583   -0.5595 O   0  0  0  0  0  0  0  0  0  0  0  0
    0.0134    2.9153   -0.0743 C   0  0  0  0  0  0  0  0  0  0  0  0
   -0.2378    3.1766   -0.9968 H   0  0  0  0  0  0  0  0  0  0  0  0
    0.9304    3.2217    0.1437 H   0  0  0  0  0  0  0  0  0  0  0  0
   -0.6755    3.4079    0.6120 H   0  0  0  0  0  0  0  0  0  0  0  0
    0.0005    1.4089   -0.0010 C   0  0  0  0  0  0  0  0  0  0  0  0
   -1.1979    0.6980    0.0015 C   0  0  0  0  0  0  0  0  0  0  0  0
   -2.0643    1.1839    0.0033 H   0  0  0  0  0  0  0  0  0  0  0  0
   -1.2013   -0.7010   -0.0000 C   0  0  0  0  0  0  0  0  0  0  0  0
   -2.0793   -1.1912    0.0020 H   0  0  0  0  0  0  0  0  0  0  0  0
   -0.0003   -1.3994   -0.0029 C   0  0  0  0  0  0  0  0  0  0  0  0
   -0.0038   -2.3967   -0.0071 H   0  0  0  0  0  0  0  0  0  0  0  0
    1.2013   -0.7018    0.0000 C   0  0  0  0  0  0  0  0  0  0  0  0
    2.0829   -1.1975    0.0021 H   0  0  0  0  0  0  0  0  0  0  0  0
    1.1977    0.6953    0.0023 C   0  0  0  0  0  0  0  0  0  0  0  0
    2.0668    1.1882    0.0053 H   0  0  0  0  0  0  0  0  0  0  0  0
  1  5  1  0
  5  6  1  0
  5  7  2  0
  1  2  1  0
  1  3  1  0
  1  4  1  0
  8 12  1  0
 12 13  2  0
 13 15  1  0
 15 17  2  0
 17 19  1  0
 19 21  2  0
 21 12  1  0
  8  9  1  0
  8 10  1  0
  8 11  1  0
 13 14  1  0
 15 16  1  0
 17 18  1  0
 19 20  1  0
 21 22  1  0
M  CHG  1   6  -1
M  END
>  <PDB_ID>  (97) 
pdb1wyt

>  <RESIDUE_NAME>  (97) 
GLU   PHE

>  <FRAG_NAME>  (97) 
ACET   MBZ

>  <FRAG_ATOM_NUM>  (97) 
fragi: 7  fragj: 15

>  <atom.prop.CHAIN_ID>  (97) 
A A A A A A A Z Z Z Z Z Z Z Z Z Z Z Z Z Z Z

>  <atom.prop.IS_HEAVY_ATOM>  (97) 
1 0 0 0 1 1 1 1 0 0 0 1 1 0 1 0 1 0 1 0 1 0

>  <DIFUSE_FUNC_ATOM>  (97) 
atom 6   atom 7   

>  <FINAL_SINGLE_POINT_ENERGY>  (97) 
0

>  <NONCOV_INTER_ENERGY_QM>  (97) 
0

>  <FF_Energy>  (97) 
8.54

>  <QM_Energy>  (97) 
-2.95

>  <source>  (97) 
ACET_MBZ_01

>  <Index>  (97) 
3820

$$$$
ACET-pdb1wz8-B-GLU-6:MBZ-pdb1wz8-B-PHE-14
     RDKit          3D

 22 21  0  0  0  0  0  0  0  0999 V2000
   -4.3610    1.7402   -0.9537 C   0  0  0  0  0  0  0  0  0  0  0  0
   -3.6442    1.2657   -0.4779 H   0  0  0  0  0  0  0  0  0  0  0  0
   -4.0502    2.1365   -1.7979 H   0  0  0  0  0  0  0  0  0  0  0  0
   -5.1534    1.0265   -1.1796 H   0  0  0  0  0  0  0  0  0  0  0  0
   -4.8309    2.8746   -0.0616 C   0  0  0  0  0  0  0  0  0  0  0  0
   -5.9056    3.4492   -0.3430 O   0  0  0  0  0  1  0  0  0  0  0  0
   -4.1209    3.1949    0.9162 O   0  0  0  0  0  0  0  0  0  0  0  0
    0.0010    2.9007    0.0329 C   0  0  0  0  0  0  0  0  0  0  0  0
   -0.7263    3.2234   -0.5553 H   0  0  0  0  0  0  0  0  0  0  0  0
    0.8841    3.2147   -0.2832 H   0  0  0  0  0  0  0  0  0  0  0  0
   -0.1647    3.3183    1.0260 H   0  0  0  0  0  0  0  0  0  0  0  0
   -0.0012    1.4024   -0.0009 C   0  0  0  0  0  0  0  0  0  0  0  0
   -1.1987    0.6936    0.0005 C   0  0  0  0  0  0  0  0  0  0  0  0
   -2.0650    1.1828    0.0006 H   0  0  0  0  0  0  0  0  0  0  0  0
   -1.2026   -0.6998    0.0000 C   0  0  0  0  0  0  0  0  0  0  0  0
   -2.0762   -1.1947   -0.0002 H   0  0  0  0  0  0  0  0  0  0  0  0
    0.0038   -1.3946    0.0018 C   0  0  0  0  0  0  0  0  0  0  0  0
    0.0006   -2.3931    0.0035 H   0  0  0  0  0  0  0  0  0  0  0  0
    1.2026   -0.6962   -0.0000 C   0  0  0  0  0  0  0  0  0  0  0  0
    2.0851   -1.1918    0.0010 H   0  0  0  0  0  0  0  0  0  0  0  0
    1.1961    0.6946   -0.0014 C   0  0  0  0  0  0  0  0  0  0  0  0
    2.0635    1.1916   -0.0039 H   0  0  0  0  0  0  0  0  0  0  0  0
  1  5  1  0
  5  6  1  0
  5  7  2  0
  1  2  1  0
  1  3  1  0
  1  4  1  0
  8 12  1  0
 12 13  2  0
 13 15  1  0
 15 17  2  0
 17 19  1  0
 19 21  2  0
 21 12  1  0
  8  9  1  0
  8 10  1  0
  8 11  1  0
 13 14  1  0
 15 16  1  0
 17 18  1  0
 19 20  1  0
 21 22  1  0
M  CHG  1   6  -1
M  END
>  <PDB_ID>  (98) 
pdb1wz8

>  <RESIDUE_NAME>  (98) 
GLU   PHE

>  <FRAG_NAME>  (98) 
ACET   MBZ

>  <FRAG_ATOM_NUM>  (98) 
fragi: 7  fragj: 15

>  <atom.prop.CHAIN_ID>  (98) 
A A A A A A A Z Z Z Z Z Z Z Z Z Z Z Z Z Z Z

>  <atom.prop.IS_HEAVY_ATOM>  (98) 
1 0 0 0 1 1 1 1 0 0 0 1 1 0 1 0 1 0 1 0 1 0

>  <DIFUSE_FUNC_ATOM>  (98) 
atom 6   atom 7   

>  <FINAL_SINGLE_POINT_ENERGY>  (98) 
0

>  <NONCOV_INTER_ENERGY_QM>  (98) 
0

>  <FF_Energy>  (98) 
8.23

>  <QM_Energy>  (98) 
-2.09

>  <source>  (98) 
ACET_MBZ_01

>  <Index>  (98) 
3858

$$$$
ACET-pdb3byb-A-GLU-52:MBZ-pdb3byb-A-PHE-47
     RDKit          3D

 22 21  0  0  0  0  0  0  0  0999 V2000
   -3.9266    2.5037    1.1358 C   0  0  0  0  0  0  0  0  0  0  0  0
   -3.1076    1.9911    0.9662 H   0  0  0  0  0  0  0  0  0  0  0  0
   -4.6823    1.9343    1.3942 H   0  0  0  0  0  0  0  0  0  0  0  0
   -3.7302    3.2038    1.9479 H   0  0  0  0  0  0  0  0  0  0  0  0
   -4.3063    3.2036   -0.1675 C   0  0  0  0  0  0  0  0  0  0  0  0
   -3.4252    3.4206   -1.0714 O   0  0  0  0  0  1  0  0  0  0  0  0
   -5.5009    3.5580   -0.2797 O   0  0  0  0  0  0  0  0  0  0  0  0
    0.0155    2.8857   -0.0506 C   0  0  0  0  0  0  0  0  0  0  0  0
    0.8563    3.2102    0.3478 H   0  0  0  0  0  0  0  0  0  0  0  0
   -0.7746    3.2267    0.4296 H   0  0  0  0  0  0  0  0  0  0  0  0
   -0.0323    3.2643   -1.0716 H   0  0  0  0  0  0  0  0  0  0  0  0
    0.0037    1.4002    0.0109 C   0  0  0  0  0  0  0  0  0  0  0  0
   -1.1938    0.7042   -0.0122 C   0  0  0  0  0  0  0  0  0  0  0  0
   -2.0578    1.1957   -0.0387 H   0  0  0  0  0  0  0  0  0  0  0  0
   -1.2002   -0.6859    0.0000 C   0  0  0  0  0  0  0  0  0  0  0  0
   -2.0834   -1.1756    0.0105 H   0  0  0  0  0  0  0  0  0  0  0  0
   -0.0088   -1.3918    0.0000 C   0  0  0  0  0  0  0  0  0  0  0  0
   -0.0217   -2.3922   -0.0005 H   0  0  0  0  0  0  0  0  0  0  0  0
    1.2002   -0.7106    0.0000 C   0  0  0  0  0  0  0  0  0  0  0  0
    2.0750   -1.2113    0.0006 H   0  0  0  0  0  0  0  0  0  0  0  0
    1.1990    0.6839    0.0013 C   0  0  0  0  0  0  0  0  0  0  0  0
    2.0697    1.1766   -0.0058 H   0  0  0  0  0  0  0  0  0  0  0  0
  1  5  1  0
  5  6  1  0
  5  7  2  0
  1  2  1  0
  1  3  1  0
  1  4  1  0
  8 12  1  0
 12 13  2  0
 13 15  1  0
 15 17  2  0
 17 19  1  0
 19 21  2  0
 21 12  1  0
  8  9  1  0
  8 10  1  0
  8 11  1  0
 13 14  1  0
 15 16  1  0
 17 18  1  0
 19 20  1  0
 21 22  1  0
M  CHG  1   6  -1
M  END
>  <PDB_ID>  (99) 
pdb3byb

>  <RESIDUE_NAME>  (99) 
GLU   PHE

>  <FRAG_NAME>  (99) 
ACET   MBZ

>  <FRAG_ATOM_NUM>  (99) 
fragi: 7  fragj: 15

>  <atom.prop.CHAIN_ID>  (99) 
A A A A A A A Z Z Z Z Z Z Z Z Z Z Z Z Z Z Z

>  <atom.prop.IS_HEAVY_ATOM>  (99) 
1 0 0 0 1 1 1 1 0 0 0 1 1 0 1 0 1 0 1 0 1 0

>  <DIFUSE_FUNC_ATOM>  (99) 
atom 6   atom 7   

>  <FINAL_SINGLE_POINT_ENERGY>  (99) 
0

>  <NONCOV_INTER_ENERGY_QM>  (99) 
0

>  <FF_Energy>  (99) 
7.76

>  <QM_Energy>  (99) 
-3.33

>  <source>  (99) 
ACET_MBZ_01

>  <Index>  (99) 
6000

$$$$
ACET-pdb3ctv-A-ASP-44:MBZ-pdb3ctv-A-PHE-58
     RDKit          3D

 22 21  0  0  0  0  0  0  0  0999 V2000
   -4.9591    3.1284   -1.6911 C   0  0  0  0  0  0  0  0  0  0  0  0
   -4.7234    2.8139   -2.6000 H   0  0  0  0  0  0  0  0  0  0  0  0
   -5.4155    4.0067   -1.7268 H   0  0  0  0  0  0  0  0  0  0  0  0
   -5.6466    2.4063   -1.2507 H   0  0  0  0  0  0  0  0  0  0  0  0
   -3.6702    3.2812   -0.8797 C   0  0  0  0  0  0  0  0  0  0  0  0
   -3.5701    2.6654    0.2037 O   0  0  0  0  0  1  0  0  0  0  0  0
   -2.7534    4.0122   -1.3255 O   0  0  0  0  0  0  0  0  0  0  0  0
    0.0021    2.9177    0.0051 C   0  0  0  0  0  0  0  0  0  0  0  0
   -0.7691    3.2200   -0.5296 H   0  0  0  0  0  0  0  0  0  0  0  0
    0.8578    3.2192   -0.3826 H   0  0  0  0  0  0  0  0  0  0  0  0
   -0.0880    3.3509    1.0013 H   0  0  0  0  0  0  0  0  0  0  0  0
    0.0019    1.4007   -0.0002 C   0  0  0  0  0  0  0  0  0  0  0  0
   -1.1955    0.6884   -0.0008 C   0  0  0  0  0  0  0  0  0  0  0  0
   -2.0621    1.1812   -0.0027 H   0  0  0  0  0  0  0  0  0  0  0  0
   -1.1990   -0.6969    0.0000 C   0  0  0  0  0  0  0  0  0  0  0  0
   -2.0765   -1.1912    0.0015 H   0  0  0  0  0  0  0  0  0  0  0  0
   -0.0036   -1.3853    0.0008 C   0  0  0  0  0  0  0  0  0  0  0  0
   -0.0039   -2.3886    0.0010 H   0  0  0  0  0  0  0  0  0  0  0  0
    1.1990   -0.6937    0.0000 C   0  0  0  0  0  0  0  0  0  0  0  0
    2.0777   -1.1985    0.0006 H   0  0  0  0  0  0  0  0  0  0  0  0
    1.1972    0.6868    0.0002 C   0  0  0  0  0  0  0  0  0  0  0  0
    2.0659    1.1867   -0.0005 H   0  0  0  0  0  0  0  0  0  0  0  0
  1  5  1  0
  5  6  1  0
  5  7  2  0
  1  2  1  0
  1  3  1  0
  1  4  1  0
  8 12  1  0
 12 13  2  0
 13 15  1  0
 15 17  2  0
 17 19  1  0
 19 21  2  0
 21 12  1  0
  8  9  1  0
  8 10  1  0
  8 11  1  0
 13 14  1  0
 15 16  1  0
 17 18  1  0
 19 20  1  0
 21 22  1  0
M  CHG  1   6  -1
M  END
>  <PDB_ID>  (100) 
pdb3ctv

>  <RESIDUE_NAME>  (100) 
ASP   PHE

>  <FRAG_NAME>  (100) 
ACET   MBZ

>  <FRAG_ATOM_NUM>  (100) 
fragi: 7  fragj: 15

>  <atom.prop.CHAIN_ID>  (100) 
A A A A A A A Z Z Z Z Z Z Z Z Z Z Z Z Z Z Z

>  <atom.prop.IS_HEAVY_ATOM>  (100) 
1 0 0 0 1 1 1 1 0 0 0 1 1 0 1 0 1 0 1 0 1 0

>  <DIFUSE_FUNC_ATOM>  (100) 
atom 6   atom 7   

>  <FINAL_SINGLE_POINT_ENERGY>  (100) 
0

>  <NONCOV_INTER_ENERGY_QM>  (100) 
0

>  <FF_Energy>  (100) 
1.57

>  <QM_Energy>  (100) 
-9.46

>  <source>  (100) 
ACET_MBZ_01

>  <Index>  (100) 
8447

$$$$
ACET-pdb3dfh-C-ASP-132:MBZ-pdb3dfh-C-PHE-158
     RDKit          3D

 22 21  0  0  0  0  0  0  0  0999 V2000
    6.1573    0.9472    0.1228 C   0  0  0  0  0  0  0  0  0  0  0  0
    6.4625    0.0331    0.3463 H   0  0  0  0  0  0  0  0  0  0  0  0
    6.8549    1.6168    0.3269 H   0  0  0  0  0  0  0  0  0  0  0  0
    5.9713    0.9797   -0.9507 H   0  0  0  0  0  0  0  0  0  0  0  0
    4.9091    1.2664    0.9415 C   0  0  0  0  0  0  0  0  0  0  0  0
    3.9376    1.7563    0.3422 O   0  0  0  0  0  1  0  0  0  0  0  0
    4.8863    1.0399    2.1681 O   0  0  0  0  0  0  0  0  0  0  0  0
   -0.0011    2.9583   -0.0167 C   0  0  0  0  0  0  0  0  0  0  0  0
    0.9015    3.2542    0.2434 H   0  0  0  0  0  0  0  0  0  0  0  0
   -0.6865    3.2568    0.6246 H   0  0  0  0  0  0  0  0  0  0  0  0
   -0.2334    3.3997   -0.9859 H   0  0  0  0  0  0  0  0  0  0  0  0
   -0.0004    1.4170   -0.0045 C   0  0  0  0  0  0  0  0  0  0  0  0
   -1.2025    0.7013    0.0036 C   0  0  0  0  0  0  0  0  0  0  0  0
   -2.0696    1.1840    0.0106 H   0  0  0  0  0  0  0  0  0  0  0  0
   -1.2068   -0.7082   -0.0000 C   0  0  0  0  0  0  0  0  0  0  0  0
   -2.0833   -1.1943   -0.0028 H   0  0  0  0  0  0  0  0  0  0  0  0
   -0.0019   -1.4035    0.0024 C   0  0  0  0  0  0  0  0  0  0  0  0
   -0.0014   -2.4004    0.0050 H   0  0  0  0  0  0  0  0  0  0  0  0
    1.2068   -0.7010   -0.0000 C   0  0  0  0  0  0  0  0  0  0  0  0
    2.0852   -1.2005    0.0008 H   0  0  0  0  0  0  0  0  0  0  0  0
    1.2048    0.6944   -0.0015 C   0  0  0  0  0  0  0  0  0  0  0  0
    2.0707    1.1905   -0.0010 H   0  0  0  0  0  0  0  0  0  0  0  0
  1  5  1  0
  5  6  1  0
  5  7  2  0
  1  2  1  0
  1  3  1  0
  1  4  1  0
  8 12  1  0
 12 13  2  0
 13 15  1  0
 15 17  2  0
 17 19  1  0
 19 21  2  0
 21 12  1  0
  8  9  1  0
  8 10  1  0
  8 11  1  0
 13 14  1  0
 15 16  1  0
 17 18  1  0
 19 20  1  0
 21 22  1  0
M  CHG  1   6  -1
M  END
>  <PDB_ID>  (101) 
pdb3dfh

>  <RESIDUE_NAME>  (101) 
ASP   PHE

>  <FRAG_NAME>  (101) 
ACET   MBZ

>  <FRAG_ATOM_NUM>  (101) 
fragi: 7  fragj: 15

>  <atom.prop.CHAIN_ID>  (101) 
A A A A A A A Z Z Z Z Z Z Z Z Z Z Z Z Z Z Z

>  <atom.prop.IS_HEAVY_ATOM>  (101) 
1 0 0 0 1 1 1 1 0 0 0 1 1 0 1 0 1 0 1 0 1 0

>  <DIFUSE_FUNC_ATOM>  (101) 
atom 6   atom 7   

>  <FINAL_SINGLE_POINT_ENERGY>  (101) 
0

>  <NONCOV_INTER_ENERGY_QM>  (101) 
0

>  <FF_Energy>  (101) 
6.48

>  <QM_Energy>  (101) 
-6.6

>  <source>  (101) 
ACET_MBZ_01

>  <Index>  (101) 
9897

$$$$
ACET-pdb3dlu-C-GLU-43:MBZ-pdb3dlu-C-PHE-95
     RDKit          3D

 22 21  0  0  0  0  0  0  0  0999 V2000
   -1.5852   -4.4239    1.2121 C   0  0  0  0  0  0  0  0  0  0  0  0
   -2.0404   -4.9455    1.9094 H   0  0  0  0  0  0  0  0  0  0  0  0
   -0.8280   -3.9080    1.5650 H   0  0  0  0  0  0  0  0  0  0  0  0
   -1.2126   -5.1124    0.4536 H   0  0  0  0  0  0  0  0  0  0  0  0
   -2.5883   -3.4362    0.6526 C   0  0  0  0  0  0  0  0  0  0  0  0
   -3.0459   -3.6349   -0.4970 O   0  0  0  0  0  1  0  0  0  0  0  0
   -2.9243   -2.4659    1.3684 O   0  0  0  0  0  0  0  0  0  0  0  0
    0.0032    2.8882   -0.0025 C   0  0  0  0  0  0  0  0  0  0  0  0
    0.8674    3.1979   -0.3736 H   0  0  0  0  0  0  0  0  0  0  0  0
   -0.1163    3.1966    0.9301 H   0  0  0  0  0  0  0  0  0  0  0  0
   -0.7912    3.3343   -0.6009 H   0  0  0  0  0  0  0  0  0  0  0  0
    0.0002    1.3933   -0.0058 C   0  0  0  0  0  0  0  0  0  0  0  0
   -1.1944    0.6888    0.0024 C   0  0  0  0  0  0  0  0  0  0  0  0
   -2.0609    1.1824    0.0090 H   0  0  0  0  0  0  0  0  0  0  0  0
   -1.1995   -0.6927    0.0000 C   0  0  0  0  0  0  0  0  0  0  0  0
   -2.0766   -1.1890   -0.0023 H   0  0  0  0  0  0  0  0  0  0  0  0
   -0.0013   -1.3861    0.0027 C   0  0  0  0  0  0  0  0  0  0  0  0
   -0.0038   -2.3857    0.0061 H   0  0  0  0  0  0  0  0  0  0  0  0
    1.1995   -0.6911   -0.0000 C   0  0  0  0  0  0  0  0  0  0  0  0
    2.0790   -1.1947   -0.0012 H   0  0  0  0  0  0  0  0  0  0  0  0
    1.1956    0.6878    0.0008 C   0  0  0  0  0  0  0  0  0  0  0  0
    2.0632    1.1891    0.0057 H   0  0  0  0  0  0  0  0  0  0  0  0
  1  5  1  0
  5  6  1  0
  5  7  2  0
  1  2  1  0
  1  3  1  0
  1  4  1  0
  8 12  1  0
 12 13  2  0
 13 15  1  0
 15 17  2  0
 17 19  1  0
 19 21  2  0
 21 12  1  0
  8  9  1  0
  8 10  1  0
  8 11  1  0
 13 14  1  0
 15 16  1  0
 17 18  1  0
 19 20  1  0
 21 22  1  0
M  CHG  1   6  -1
M  END
>  <PDB_ID>  (102) 
pdb3dlu

>  <RESIDUE_NAME>  (102) 
GLU   PHE

>  <FRAG_NAME>  (102) 
ACET   MBZ

>  <FRAG_ATOM_NUM>  (102) 
fragi: 7  fragj: 15

>  <atom.prop.CHAIN_ID>  (102) 
A A A A A A A Z Z Z Z Z Z Z Z Z Z Z Z Z Z Z

>  <atom.prop.IS_HEAVY_ATOM>  (102) 
1 0 0 0 1 1 1 1 0 0 0 1 1 0 1 0 1 0 1 0 1 0

>  <DIFUSE_FUNC_ATOM>  (102) 
atom 6   atom 7   

>  <FINAL_SINGLE_POINT_ENERGY>  (102) 
0

>  <NONCOV_INTER_ENERGY_QM>  (102) 
0

>  <FF_Energy>  (102) 
6.6

>  <QM_Energy>  (102) 
-4.37

>  <source>  (102) 
ACET_MBZ_01

>  <Index>  (102) 
10194

$$$$
ACET-pdb3e48-B-GLU-85:MBZ-pdb3e48-B-PHE-71
     RDKit          3D

 22 21  0  0  0  0  0  0  0  0999 V2000
    0.7734   -4.5804   -0.2527 C   0  0  0  0  0  0  0  0  0  0  0  0
    0.8117   -3.6466   -0.5372 H   0  0  0  0  0  0  0  0  0  0  0  0
   -0.1054   -4.8484    0.0813 H   0  0  0  0  0  0  0  0  0  0  0  0
    1.0678   -5.2282   -1.0784 H   0  0  0  0  0  0  0  0  0  0  0  0
    1.7470   -4.7442    0.8732 C   0  0  0  0  0  0  0  0  0  0  0  0
    2.7549   -4.0035    0.9218 O   0  0  0  0  0  1  0  0  0  0  0  0
    1.5111   -5.6539    1.6838 O   0  0  0  0  0  0  0  0  0  0  0  0
   -0.0089    2.9053    0.0062 C   0  0  0  0  0  0  0  0  0  0  0  0
   -0.7384    3.2111   -0.5902 H   0  0  0  0  0  0  0  0  0  0  0  0
    0.8720    3.2196   -0.3198 H   0  0  0  0  0  0  0  0  0  0  0  0
   -0.1765    3.3478    0.9881 H   0  0  0  0  0  0  0  0  0  0  0  0
    0.0005    1.4053    0.0003 C   0  0  0  0  0  0  0  0  0  0  0  0
   -1.1966    0.6979   -0.0001 C   0  0  0  0  0  0  0  0  0  0  0  0
   -2.0640    1.1891   -0.0022 H   0  0  0  0  0  0  0  0  0  0  0  0
   -1.2061   -0.6962    0.0000 C   0  0  0  0  0  0  0  0  0  0  0  0
   -2.0840   -1.1856    0.0016 H   0  0  0  0  0  0  0  0  0  0  0  0
   -0.0049   -1.4005   -0.0001 C   0  0  0  0  0  0  0  0  0  0  0  0
   -0.0101   -2.3962   -0.0010 H   0  0  0  0  0  0  0  0  0  0  0  0
    1.2061   -0.7034   -0.0000 C   0  0  0  0  0  0  0  0  0  0  0  0
    2.0829   -1.2001    0.0016 H   0  0  0  0  0  0  0  0  0  0  0  0
    1.2010    0.6968    0.0000 C   0  0  0  0  0  0  0  0  0  0  0  0
    2.0675    1.1907   -0.0010 H   0  0  0  0  0  0  0  0  0  0  0  0
  1  5  1  0
  5  6  1  0
  5  7  2  0
  1  2  1  0
  1  3  1  0
  1  4  1  0
  8 12  1  0
 12 13  2  0
 13 15  1  0
 15 17  2  0
 17 19  1  0
 19 21  2  0
 21 12  1  0
  8  9  1  0
  8 10  1  0
  8 11  1  0
 13 14  1  0
 15 16  1  0
 17 18  1  0
 19 20  1  0
 21 22  1  0
M  CHG  1   6  -1
M  END
>  <PDB_ID>  (103) 
pdb3e48

>  <RESIDUE_NAME>  (103) 
GLU   PHE

>  <FRAG_NAME>  (103) 
ACET   MBZ

>  <FRAG_ATOM_NUM>  (103) 
fragi: 7  fragj: 15

>  <atom.prop.CHAIN_ID>  (103) 
A A A A A A A Z Z Z Z Z Z Z Z Z Z Z Z Z Z Z

>  <atom.prop.IS_HEAVY_ATOM>  (103) 
1 0 0 0 1 1 1 1 0 0 0 1 1 0 1 0 1 0 1 0 1 0

>  <DIFUSE_FUNC_ATOM>  (103) 
atom 6   atom 7   

>  <FINAL_SINGLE_POINT_ENERGY>  (103) 
0

>  <NONCOV_INTER_ENERGY_QM>  (103) 
0

>  <FF_Energy>  (103) 
16.49

>  <QM_Energy>  (103) 
-0.22

>  <source>  (103) 
ACET_MBZ_01

>  <Index>  (103) 
10942

$$$$
ACET-pdb3e6i-A-ASP-193:MBZ-pdb3e6i-A-PHE-189
     RDKit          3D

 22 21  0  0  0  0  0  0  0  0999 V2000
   -5.0096    3.7200    0.3784 C   0  0  0  0  0  0  0  0  0  0  0  0
   -5.2222    4.1416   -0.4987 H   0  0  0  0  0  0  0  0  0  0  0  0
   -4.0914    3.9746    0.6657 H   0  0  0  0  0  0  0  0  0  0  0  0
   -5.7082    4.1190    1.1138 H   0  0  0  0  0  0  0  0  0  0  0  0
   -5.0792    2.2148    0.2303 C   0  0  0  0  0  0  0  0  0  0  0  0
   -6.1908    1.6422    0.1841 O   0  0  0  0  0  1  0  0  0  0  0  0
   -4.0044    1.5932    0.1475 O   0  0  0  0  0  0  0  0  0  0  0  0
   -0.0088    2.9060    0.0129 C   0  0  0  0  0  0  0  0  0  0  0  0
    0.7888    3.2043    0.5237 H   0  0  0  0  0  0  0  0  0  0  0  0
   -0.8435    3.1965    0.4642 H   0  0  0  0  0  0  0  0  0  0  0  0
    0.0242    3.3849   -0.9658 H   0  0  0  0  0  0  0  0  0  0  0  0
   -0.0007    1.3966   -0.0151 C   0  0  0  0  0  0  0  0  0  0  0  0
   -1.1923    0.6873    0.0024 C   0  0  0  0  0  0  0  0  0  0  0  0
   -2.0605    1.1834    0.0158 H   0  0  0  0  0  0  0  0  0  0  0  0
   -1.2006   -0.6921    0.0000 C   0  0  0  0  0  0  0  0  0  0  0  0
   -2.0785   -1.1877   -0.0056 H   0  0  0  0  0  0  0  0  0  0  0  0
   -0.0038   -1.3881    0.0076 C   0  0  0  0  0  0  0  0  0  0  0  0
   -0.0074   -2.3883    0.0181 H   0  0  0  0  0  0  0  0  0  0  0  0
    1.2006   -0.6957    0.0000 C   0  0  0  0  0  0  0  0  0  0  0  0
    2.0787   -1.1964   -0.0081 H   0  0  0  0  0  0  0  0  0  0  0  0
    1.1968    0.6920    0.0051 C   0  0  0  0  0  0  0  0  0  0  0  0
    2.0631    1.1901    0.0229 H   0  0  0  0  0  0  0  0  0  0  0  0
  1  5  1  0
  5  6  1  0
  5  7  2  0
  1  2  1  0
  1  3  1  0
  1  4  1  0
  8 12  1  0
 12 13  2  0
 13 15  1  0
 15 17  2  0
 17 19  1  0
 19 21  2  0
 21 12  1  0
  8  9  1  0
  8 10  1  0
  8 11  1  0
 13 14  1  0
 15 16  1  0
 17 18  1  0
 19 20  1  0
 21 22  1  0
M  CHG  1   6  -1
M  END
>  <PDB_ID>  (104) 
pdb3e6i

>  <RESIDUE_NAME>  (104) 
ASP   PHE

>  <FRAG_NAME>  (104) 
ACET   MBZ

>  <FRAG_ATOM_NUM>  (104) 
fragi: 7  fragj: 15

>  <atom.prop.CHAIN_ID>  (104) 
A A A A A A A Z Z Z Z Z Z Z Z Z Z Z Z Z Z Z

>  <atom.prop.IS_HEAVY_ATOM>  (104) 
1 0 0 0 1 1 1 1 0 0 0 1 1 0 1 0 1 0 1 0 1 0

>  <DIFUSE_FUNC_ATOM>  (104) 
atom 6   atom 7   

>  <FINAL_SINGLE_POINT_ENERGY>  (104) 
0

>  <NONCOV_INTER_ENERGY_QM>  (104) 
0

>  <FF_Energy>  (104) 
5.66

>  <QM_Energy>  (104) 
-6.82

>  <source>  (104) 
ACET_MBZ_01

>  <Index>  (104) 
11183

$$$$
ACET-pdb3eaq-A-GLU-215:MBZ-pdb3eaq-A-PHE-361
     RDKit          3D

 22 21  0  0  0  0  0  0  0  0999 V2000
    5.2457    0.5183   -1.2960 C   0  0  0  0  0  0  0  0  0  0  0  0
    5.9609    0.0427   -1.7642 H   0  0  0  0  0  0  0  0  0  0  0  0
    5.5733    1.2578   -0.7459 H   0  0  0  0  0  0  0  0  0  0  0  0
    4.5540    0.9175   -2.0378 H   0  0  0  0  0  0  0  0  0  0  0  0
    4.5591   -0.4646   -0.3830 C   0  0  0  0  0  0  0  0  0  0  0  0
    3.8386   -0.0138    0.5465 O   0  0  0  0  0  1  0  0  0  0  0  0
    4.6498   -1.6767   -0.6771 O   0  0  0  0  0  0  0  0  0  0  0  0
   -0.0157    2.9042   -0.0331 C   0  0  0  0  0  0  0  0  0  0  0  0
   -0.9508    3.2146    0.0709 H   0  0  0  0  0  0  0  0  0  0  0  0
    0.3598    3.1891   -0.9045 H   0  0  0  0  0  0  0  0  0  0  0  0
    0.5712    3.3963    0.7426 H   0  0  0  0  0  0  0  0  0  0  0  0
   -0.0031    1.4047    0.0227 C   0  0  0  0  0  0  0  0  0  0  0  0
   -1.1942    0.6984   -0.0209 C   0  0  0  0  0  0  0  0  0  0  0  0
   -2.0618    1.1877   -0.0693 H   0  0  0  0  0  0  0  0  0  0  0  0
   -1.1997   -0.6891    0.0000 C   0  0  0  0  0  0  0  0  0  0  0  0
   -2.0772   -1.1848    0.0094 H   0  0  0  0  0  0  0  0  0  0  0  0
    0.0030   -1.3944    0.0096 C   0  0  0  0  0  0  0  0  0  0  0  0
   -0.0135   -2.3937    0.0231 H   0  0  0  0  0  0  0  0  0  0  0  0
    1.1997   -0.7096   -0.0000 C   0  0  0  0  0  0  0  0  0  0  0  0
    2.0823   -1.2003    0.0029 H   0  0  0  0  0  0  0  0  0  0  0  0
    1.1944    0.6901   -0.0115 C   0  0  0  0  0  0  0  0  0  0  0  0
    2.0633    1.1828   -0.0451 H   0  0  0  0  0  0  0  0  0  0  0  0
  1  5  1  0
  5  6  1  0
  5  7  2  0
  1  2  1  0
  1  3  1  0
  1  4  1  0
  8 12  1  0
 12 13  2  0
 13 15  1  0
 15 17  2  0
 17 19  1  0
 19 21  2  0
 21 12  1  0
  8  9  1  0
  8 10  1  0
  8 11  1  0
 13 14  1  0
 15 16  1  0
 17 18  1  0
 19 20  1  0
 21 22  1  0
M  CHG  1   6  -1
M  END
>  <PDB_ID>  (105) 
pdb3eaq

>  <RESIDUE_NAME>  (105) 
GLU   PHE

>  <FRAG_NAME>  (105) 
ACET   MBZ

>  <FRAG_ATOM_NUM>  (105) 
fragi: 7  fragj: 15

>  <atom.prop.CHAIN_ID>  (105) 
A A A A A A A Z Z Z Z Z Z Z Z Z Z Z Z Z Z Z

>  <atom.prop.IS_HEAVY_ATOM>  (105) 
1 0 0 0 1 1 1 1 0 0 0 1 1 0 1 0 1 0 1 0 1 0

>  <DIFUSE_FUNC_ATOM>  (105) 
atom 6   atom 7   

>  <FINAL_SINGLE_POINT_ENERGY>  (105) 
0

>  <NONCOV_INTER_ENERGY_QM>  (105) 
0

>  <FF_Energy>  (105) 
4.54

>  <QM_Energy>  (105) 
-5.5

>  <source>  (105) 
ACET_MBZ_01

>  <Index>  (105) 
11301

$$$$
ACET-pdb3epz-B-ASP-362:MBZ-pdb3epz-B-PHE-348
     RDKit          3D

 22 21  0  0  0  0  0  0  0  0999 V2000
   -3.0539   -0.6614   -3.1416 C   0  0  0  0  0  0  0  0  0  0  0  0
   -3.7409   -0.6601   -3.8648 H   0  0  0  0  0  0  0  0  0  0  0  0
   -3.1019   -1.5153   -2.6298 H   0  0  0  0  0  0  0  0  0  0  0  0
   -2.0720   -0.6054   -3.6115 H   0  0  0  0  0  0  0  0  0  0  0  0
   -3.3423    0.4902   -2.1956 C   0  0  0  0  0  0  0  0  0  0  0  0
   -2.4953    1.3866   -2.0148 O   0  0  0  0  0  1  0  0  0  0  0  0
   -4.4569    0.4862   -1.6410 O   0  0  0  0  0  0  0  0  0  0  0  0
    0.0034    2.9021    0.0045 C   0  0  0  0  0  0  0  0  0  0  0  0
   -0.8628    3.2144   -0.3513 H   0  0  0  0  0  0  0  0  0  0  0  0
    0.7574    3.2111   -0.5526 H   0  0  0  0  0  0  0  0  0  0  0  0
    0.1280    3.3324    0.9983 H   0  0  0  0  0  0  0  0  0  0  0  0
   -0.0001    1.4011   -0.0029 C   0  0  0  0  0  0  0  0  0  0  0  0
   -1.1969    0.6954    0.0008 C   0  0  0  0  0  0  0  0  0  0  0  0
   -2.0630    1.1861    0.0022 H   0  0  0  0  0  0  0  0  0  0  0  0
   -1.2031   -0.6952    0.0000 C   0  0  0  0  0  0  0  0  0  0  0  0
   -2.0810   -1.1874   -0.0007 H   0  0  0  0  0  0  0  0  0  0  0  0
   -0.0031   -1.3930    0.0028 C   0  0  0  0  0  0  0  0  0  0  0  0
   -0.0078   -2.3924    0.0059 H   0  0  0  0  0  0  0  0  0  0  0  0
    1.2031   -0.6993   -0.0000 C   0  0  0  0  0  0  0  0  0  0  0  0
    2.0807   -1.1998   -0.0002 H   0  0  0  0  0  0  0  0  0  0  0  0
    1.2001    0.6909   -0.0007 C   0  0  0  0  0  0  0  0  0  0  0  0
    2.0664    1.1884   -0.0008 H   0  0  0  0  0  0  0  0  0  0  0  0
  1  5  1  0
  5  6  1  0
  5  7  2  0
  1  2  1  0
  1  3  1  0
  1  4  1  0
  8 12  1  0
 12 13  2  0
 13 15  1  0
 15 17  2  0
 17 19  1  0
 19 21  2  0
 21 12  1  0
  8  9  1  0
  8 10  1  0
  8 11  1  0
 13 14  1  0
 15 16  1  0
 17 18  1  0
 19 20  1  0
 21 22  1  0
M  CHG  1   6  -1
M  END
>  <PDB_ID>  (106) 
pdb3epz

>  <RESIDUE_NAME>  (106) 
ASP   PHE

>  <FRAG_NAME>  (106) 
ACET   MBZ

>  <FRAG_ATOM_NUM>  (106) 
fragi: 7  fragj: 15

>  <atom.prop.CHAIN_ID>  (106) 
A A A A A A A Z Z Z Z Z Z Z Z Z Z Z Z Z Z Z

>  <atom.prop.IS_HEAVY_ATOM>  (106) 
1 0 0 0 1 1 1 1 0 0 0 1 1 0 1 0 1 0 1 0 1 0

>  <DIFUSE_FUNC_ATOM>  (106) 
atom 6   atom 7   

>  <FINAL_SINGLE_POINT_ENERGY>  (106) 
0

>  <NONCOV_INTER_ENERGY_QM>  (106) 
0

>  <FF_Energy>  (106) 
13.98

>  <QM_Energy>  (106) 
-1.88

>  <source>  (106) 
ACET_MBZ_01

>  <Index>  (106) 
11989

$$$$
ACET-pdb4amq-A-GLU-9:MBZ-pdb4amq-A-PHE-4
     RDKit          3D

 22 21  0  0  0  0  0  0  0  0999 V2000
    1.6228   -4.4831   -2.3309 C   0  0  0  0  0  0  0  0  0  0  0  0
    1.7998   -5.2430   -2.9303 H   0  0  0  0  0  0  0  0  0  0  0  0
    2.4518   -4.1046   -1.9598 H   0  0  0  0  0  0  0  0  0  0  0  0
    1.1232   -3.7058   -2.9093 H   0  0  0  0  0  0  0  0  0  0  0  0
    0.7919   -5.0003   -1.1648 C   0  0  0  0  0  0  0  0  0  0  0  0
   -0.0115   -4.2281   -0.6027 O   0  0  0  0  0  1  0  0  0  0  0  0
    0.9415   -6.1890   -0.8112 O   0  0  0  0  0  0  0  0  0  0  0  0
   -0.0010    2.8926   -0.0114 C   0  0  0  0  0  0  0  0  0  0  0  0
    0.8689    3.2043    0.3347 H   0  0  0  0  0  0  0  0  0  0  0  0
   -0.7493    3.2054    0.5515 H   0  0  0  0  0  0  0  0  0  0  0  0
   -0.1340    3.3140   -1.0078 H   0  0  0  0  0  0  0  0  0  0  0  0
   -0.0000    1.3928    0.0052 C   0  0  0  0  0  0  0  0  0  0  0  0
   -1.1914    0.6870   -0.0009 C   0  0  0  0  0  0  0  0  0  0  0  0
   -2.0589    1.1801   -0.0071 H   0  0  0  0  0  0  0  0  0  0  0  0
   -1.1938   -0.6918    0.0000 C   0  0  0  0  0  0  0  0  0  0  0  0
   -2.0716   -1.1898    0.0029 H   0  0  0  0  0  0  0  0  0  0  0  0
    0.0007   -1.3819   -0.0007 C   0  0  0  0  0  0  0  0  0  0  0  0
   -0.0042   -2.3853   -0.0021 H   0  0  0  0  0  0  0  0  0  0  0  0
    1.1938   -0.6937    0.0000 C   0  0  0  0  0  0  0  0  0  0  0  0
    2.0772   -1.1940    0.0048 H   0  0  0  0  0  0  0  0  0  0  0  0
    1.1907    0.6875   -0.0036 C   0  0  0  0  0  0  0  0  0  0  0  0
    2.0605    1.1855   -0.0133 H   0  0  0  0  0  0  0  0  0  0  0  0
  1  5  1  0
  5  6  1  0
  5  7  2  0
  1  2  1  0
  1  3  1  0
  1  4  1  0
  8 12  1  0
 12 13  2  0
 13 15  1  0
 15 17  2  0
 17 19  1  0
 19 21  2  0
 21 12  1  0
  8  9  1  0
  8 10  1  0
  8 11  1  0
 13 14  1  0
 15 16  1  0
 17 18  1  0
 19 20  1  0
 21 22  1  0
M  CHG  1   6  -1
M  END
>  <PDB_ID>  (107) 
pdb4amq

>  <RESIDUE_NAME>  (107) 
GLU   PHE

>  <FRAG_NAME>  (107) 
ACET   MBZ

>  <FRAG_ATOM_NUM>  (107) 
fragi: 7  fragj: 15

>  <atom.prop.CHAIN_ID>  (107) 
A A A A A A A Z Z Z Z Z Z Z Z Z Z Z Z Z Z Z

>  <atom.prop.IS_HEAVY_ATOM>  (107) 
1 0 0 0 1 1 1 1 0 0 0 1 1 0 1 0 1 0 1 0 1 0

>  <DIFUSE_FUNC_ATOM>  (107) 
atom 6   atom 7   

>  <FINAL_SINGLE_POINT_ENERGY>  (107) 
0

>  <NONCOV_INTER_ENERGY_QM>  (107) 
0

>  <FF_Energy>  (107) 
9.0

>  <QM_Energy>  (107) 
-4.79

>  <source>  (107) 
ACET_MBZ_01

>  <Index>  (107) 
13070

$$$$
ACET-pdb4cil-A-GLU-75:MBZ-pdb4cil-A-PHE-104
     RDKit          3D

 22 21  0  0  0  0  0  0  0  0999 V2000
    4.2597   -1.4418   -0.5251 C   0  0  0  0  0  0  0  0  0  0  0  0
    4.6175   -0.5600   -0.3110 H   0  0  0  0  0  0  0  0  0  0  0  0
    3.4137   -1.4112   -1.0107 H   0  0  0  0  0  0  0  0  0  0  0  0
    4.9946   -2.0092   -1.0962 H   0  0  0  0  0  0  0  0  0  0  0  0
    3.9854   -2.1401    0.7961 C   0  0  0  0  0  0  0  0  0  0  0  0
    3.1029   -3.0462    0.7993 O   0  0  0  0  0  1  0  0  0  0  0  0
    4.6529   -1.7384    1.7890 O   0  0  0  0  0  0  0  0  0  0  0  0
   -0.0261    2.9113    0.0309 C   0  0  0  0  0  0  0  0  0  0  0  0
    0.8820    3.2229    0.2395 H   0  0  0  0  0  0  0  0  0  0  0  0
   -0.6844    3.2016    0.7009 H   0  0  0  0  0  0  0  0  0  0  0  0
   -0.3147    3.3429   -0.9276 H   0  0  0  0  0  0  0  0  0  0  0  0
   -0.0087    1.3928    0.0206 C   0  0  0  0  0  0  0  0  0  0  0  0
   -1.1708    0.7017    0.0043 C   0  0  0  0  0  0  0  0  0  0  0  0
   -2.0531    1.1786   -0.0062 H   0  0  0  0  0  0  0  0  0  0  0  0
   -1.1764   -0.6911    0.0000 C   0  0  0  0  0  0  0  0  0  0  0  0
   -2.0638   -1.1763    0.0309 H   0  0  0  0  0  0  0  0  0  0  0  0
    0.0045   -1.3892   -0.0430 C   0  0  0  0  0  0  0  0  0  0  0  0
   -0.0069   -2.3872   -0.1055 H   0  0  0  0  0  0  0  0  0  0  0  0
    1.1764   -0.7007    0.0000 C   0  0  0  0  0  0  0  0  0  0  0  0
    2.0709   -1.1907    0.0212 H   0  0  0  0  0  0  0  0  0  0  0  0
    1.1750    0.6864    0.0180 C   0  0  0  0  0  0  0  0  0  0  0  0
    2.0491    1.1780    0.0282 H   0  0  0  0  0  0  0  0  0  0  0  0
  1  5  1  0
  5  6  1  0
  5  7  2  0
  1  2  1  0
  1  3  1  0
  1  4  1  0
  8 12  1  0
 12 13  2  0
 13 15  1  0
 15 17  2  0
 17 19  1  0
 19 21  2  0
 21 12  1  0
  8  9  1  0
  8 10  1  0
  8 11  1  0
 13 14  1  0
 15 16  1  0
 17 18  1  0
 19 20  1  0
 21 22  1  0
M  CHG  1   6  -1
M  END
>  <PDB_ID>  (108) 
pdb4cil

>  <RESIDUE_NAME>  (108) 
GLU   PHE

>  <FRAG_NAME>  (108) 
ACET   MBZ

>  <FRAG_ATOM_NUM>  (108) 
fragi: 7  fragj: 15

>  <atom.prop.CHAIN_ID>  (108) 
A A A A A A A Z Z Z Z Z Z Z Z Z Z Z Z Z Z Z

>  <atom.prop.IS_HEAVY_ATOM>  (108) 
1 0 0 0 1 1 1 1 0 0 0 1 1 0 1 0 1 0 1 0 1 0

>  <DIFUSE_FUNC_ATOM>  (108) 
atom 6   atom 7   

>  <FINAL_SINGLE_POINT_ENERGY>  (108) 
0

>  <NONCOV_INTER_ENERGY_QM>  (108) 
0

>  <FF_Energy>  (108) 
14.79

>  <QM_Energy>  (108) 
-1.27

>  <source>  (108) 
ACET_MBZ_01

>  <Index>  (108) 
16679

$$$$
ACET-pdb3geb-D-ASP-340:MBZ-pdb3geb-D-PHE-382
     RDKit          3D

 22 21  0  0  0  0  0  0  0  0999 V2000
    5.3856   -0.9402    1.9023 C   0  0  0  0  0  0  0  0  0  0  0  0
    5.6695   -0.1297    2.4007 H   0  0  0  0  0  0  0  0  0  0  0  0
    6.1698   -1.5118    1.6915 H   0  0  0  0  0  0  0  0  0  0  0  0
    4.7130   -1.5118    2.5418 H   0  0  0  0  0  0  0  0  0  0  0  0
    4.7324   -0.5076    0.6008 C   0  0  0  0  0  0  0  0  0  0  0  0
    3.8133    0.3328    0.6527 O   0  0  0  0  0  1  0  0  0  0  0  0
    5.1316   -1.0059   -0.4728 O   0  0  0  0  0  0  0  0  0  0  0  0
   -0.0062    2.9274   -0.0118 C   0  0  0  0  0  0  0  0  0  0  0  0
   -0.5684    3.2333    0.7410 H   0  0  0  0  0  0  0  0  0  0  0  0
   -0.3734    3.2220   -0.8807 H   0  0  0  0  0  0  0  0  0  0  0  0
    0.9785    3.3806    0.1031 H   0  0  0  0  0  0  0  0  0  0  0  0
    0.0007    1.4119   -0.0003 C   0  0  0  0  0  0  0  0  0  0  0  0
   -1.1999    0.6992    0.0001 C   0  0  0  0  0  0  0  0  0  0  0  0
   -2.0669    1.1862   -0.0005 H   0  0  0  0  0  0  0  0  0  0  0  0
   -1.2068   -0.7029   -0.0000 C   0  0  0  0  0  0  0  0  0  0  0  0
   -2.0820   -1.1923    0.0011 H   0  0  0  0  0  0  0  0  0  0  0  0
   -0.0001   -1.4032    0.0007 C   0  0  0  0  0  0  0  0  0  0  0  0
   -0.0025   -2.3981    0.0009 H   0  0  0  0  0  0  0  0  0  0  0  0
    1.2068   -0.7010    0.0000 C   0  0  0  0  0  0  0  0  0  0  0  0
    2.0867   -1.1964    0.0014 H   0  0  0  0  0  0  0  0  0  0  0  0
    1.1993    0.6960   -0.0005 C   0  0  0  0  0  0  0  0  0  0  0  0
    2.0682    1.1913   -0.0015 H   0  0  0  0  0  0  0  0  0  0  0  0
  1  5  1  0
  5  6  1  0
  5  7  2  0
  1  2  1  0
  1  3  1  0
  1  4  1  0
  8 12  1  0
 12 13  2  0
 13 15  1  0
 15 17  2  0
 17 19  1  0
 19 21  2  0
 21 12  1  0
  8  9  1  0
  8 10  1  0
  8 11  1  0
 13 14  1  0
 15 16  1  0
 17 18  1  0
 19 20  1  0
 21 22  1  0
M  CHG  1   6  -1
M  END
>  <PDB_ID>  (109) 
pdb3geb

>  <RESIDUE_NAME>  (109) 
ASP   PHE

>  <FRAG_NAME>  (109) 
ACET   MBZ

>  <FRAG_ATOM_NUM>  (109) 
fragi: 7  fragj: 15

>  <atom.prop.CHAIN_ID>  (109) 
A A A A A A A Z Z Z Z Z Z Z Z Z Z Z Z Z Z Z

>  <atom.prop.IS_HEAVY_ATOM>  (109) 
1 0 0 0 1 1 1 1 0 0 0 1 1 0 1 0 1 0 1 0 1 0

>  <DIFUSE_FUNC_ATOM>  (109) 
atom 6   atom 7   

>  <FINAL_SINGLE_POINT_ENERGY>  (109) 
0

>  <NONCOV_INTER_ENERGY_QM>  (109) 
0

>  <FF_Energy>  (109) 
6.4

>  <QM_Energy>  (109) 
-4.98

>  <source>  (109) 
ACET_MBZ_01

>  <Index>  (109) 
16795

$$$$
ACET-pdb4cq1-H-ASP-424:MBZ-pdb4cq1-C-PHE-488
     RDKit          3D

 22 21  0  0  0  0  0  0  0  0999 V2000
   -5.2613    0.7929    2.3018 C   0  0  0  0  0  0  0  0  0  0  0  0
   -6.1849    0.8544    1.9417 H   0  0  0  0  0  0  0  0  0  0  0  0
   -5.0794    1.5421    2.9264 H   0  0  0  0  0  0  0  0  0  0  0  0
   -5.1771   -0.1402    2.8589 H   0  0  0  0  0  0  0  0  0  0  0  0
   -4.2827    0.8698    1.1482 C   0  0  0  0  0  0  0  0  0  0  0  0
   -4.2144   -0.0997    0.3621 O   0  0  0  0  0  1  0  0  0  0  0  0
   -3.5903    1.9028    1.0237 O   0  0  0  0  0  0  0  0  0  0  0  0
   -0.0021    2.8969    0.0256 C   0  0  0  0  0  0  0  0  0  0  0  0
    0.9364    3.2037    0.0794 H   0  0  0  0  0  0  0  0  0  0  0  0
   -0.5222    3.1916    0.8133 H   0  0  0  0  0  0  0  0  0  0  0  0
   -0.4510    3.3485   -0.8590 H   0  0  0  0  0  0  0  0  0  0  0  0
   -0.0005    1.3964    0.0041 C   0  0  0  0  0  0  0  0  0  0  0  0
   -1.1904    0.6893   -0.0019 C   0  0  0  0  0  0  0  0  0  0  0  0
   -2.0600    1.1811   -0.0096 H   0  0  0  0  0  0  0  0  0  0  0  0
   -1.1951   -0.6931    0.0000 C   0  0  0  0  0  0  0  0  0  0  0  0
   -2.0738   -1.1879    0.0055 H   0  0  0  0  0  0  0  0  0  0  0  0
   -0.0007   -1.3856   -0.0041 C   0  0  0  0  0  0  0  0  0  0  0  0
   -0.0050   -2.3874   -0.0101 H   0  0  0  0  0  0  0  0  0  0  0  0
    1.1951   -0.6947   -0.0000 C   0  0  0  0  0  0  0  0  0  0  0  0
    2.0775   -1.1948    0.0032 H   0  0  0  0  0  0  0  0  0  0  0  0
    1.1916    0.6877    0.0020 C   0  0  0  0  0  0  0  0  0  0  0  0
    2.0621    1.1863    0.0010 H   0  0  0  0  0  0  0  0  0  0  0  0
  1  5  1  0
  5  6  1  0
  5  7  2  0
  1  2  1  0
  1  3  1  0
  1  4  1  0
  8 12  1  0
 12 13  2  0
 13 15  1  0
 15 17  2  0
 17 19  1  0
 19 21  2  0
 21 12  1  0
  8  9  1  0
  8 10  1  0
  8 11  1  0
 13 14  1  0
 15 16  1  0
 17 18  1  0
 19 20  1  0
 21 22  1  0
M  CHG  1   6  -1
M  END
>  <PDB_ID>  (110) 
pdb4cq1

>  <RESIDUE_NAME>  (110) 
ASP   PHE

>  <FRAG_NAME>  (110) 
ACET   MBZ

>  <FRAG_ATOM_NUM>  (110) 
fragi: 7  fragj: 15

>  <atom.prop.CHAIN_ID>  (110) 
A A A A A A A Z Z Z Z Z Z Z Z Z Z Z Z Z Z Z

>  <atom.prop.IS_HEAVY_ATOM>  (110) 
1 0 0 0 1 1 1 1 0 0 0 1 1 0 1 0 1 0 1 0 1 0

>  <DIFUSE_FUNC_ATOM>  (110) 
atom 6   atom 7   

>  <FINAL_SINGLE_POINT_ENERGY>  (110) 
0

>  <NONCOV_INTER_ENERGY_QM>  (110) 
0

>  <FF_Energy>  (110) 
8.0

>  <QM_Energy>  (110) 
-7.78

>  <source>  (110) 
ACET_MBZ_01

>  <Index>  (110) 
16968

$$$$
ACET-pdb3gmw-C-GLU-37:MBZ-pdb3gmw-C-PHE-60
     RDKit          3D

 22 21  0  0  0  0  0  0  0  0999 V2000
    3.5828   -3.0737   -2.1115 C   0  0  0  0  0  0  0  0  0  0  0  0
    4.4560   -2.6381   -2.0418 H   0  0  0  0  0  0  0  0  0  0  0  0
    2.8958   -2.4969   -2.5011 H   0  0  0  0  0  0  0  0  0  0  0  0
    3.6884   -3.9584   -2.7394 H   0  0  0  0  0  0  0  0  0  0  0  0
    3.1369   -3.4382   -0.7095 C   0  0  0  0  0  0  0  0  0  0  0  0
    2.6851   -4.5821   -0.5239 O   0  0  0  0  0  1  0  0  0  0  0  0
    3.2613   -2.6109    0.2189 O   0  0  0  0  0  0  0  0  0  0  0  0
   -0.0041    2.8724    0.0212 C   0  0  0  0  0  0  0  0  0  0  0  0
   -0.7467    3.2009   -0.5401 H   0  0  0  0  0  0  0  0  0  0  0  0
    0.8685    3.2030   -0.3008 H   0  0  0  0  0  0  0  0  0  0  0  0
   -0.1527    3.2750    1.0232 H   0  0  0  0  0  0  0  0  0  0  0  0
    0.0030    1.3928   -0.0132 C   0  0  0  0  0  0  0  0  0  0  0  0
   -1.1903    0.6883   -0.0010 C   0  0  0  0  0  0  0  0  0  0  0  0
   -2.0567    1.1835    0.0062 H   0  0  0  0  0  0  0  0  0  0  0  0
   -1.1933   -0.6885   -0.0000 C   0  0  0  0  0  0  0  0  0  0  0  0
   -2.0770   -1.1842   -0.0076 H   0  0  0  0  0  0  0  0  0  0  0  0
   -0.0066   -1.3847    0.0134 C   0  0  0  0  0  0  0  0  0  0  0  0
   -0.0168   -2.3884    0.0322 H   0  0  0  0  0  0  0  0  0  0  0  0
    1.1933   -0.7053   -0.0000 C   0  0  0  0  0  0  0  0  0  0  0  0
    2.0736   -1.1992   -0.0088 H   0  0  0  0  0  0  0  0  0  0  0  0
    1.1938    0.6973    0.0008 C   0  0  0  0  0  0  0  0  0  0  0  0
    2.0639    1.1829    0.0108 H   0  0  0  0  0  0  0  0  0  0  0  0
  1  5  1  0
  5  6  1  0
  5  7  2  0
  1  2  1  0
  1  3  1  0
  1  4  1  0
  8 12  1  0
 12 13  2  0
 13 15  1  0
 15 17  2  0
 17 19  1  0
 19 21  2  0
 21 12  1  0
  8  9  1  0
  8 10  1  0
  8 11  1  0
 13 14  1  0
 15 16  1  0
 17 18  1  0
 19 20  1  0
 21 22  1  0
M  CHG  1   6  -1
M  END
>  <PDB_ID>  (111) 
pdb3gmw

>  <RESIDUE_NAME>  (111) 
GLU   PHE

>  <FRAG_NAME>  (111) 
ACET   MBZ

>  <FRAG_ATOM_NUM>  (111) 
fragi: 7  fragj: 15

>  <atom.prop.CHAIN_ID>  (111) 
A A A A A A A Z Z Z Z Z Z Z Z Z Z Z Z Z Z Z

>  <atom.prop.IS_HEAVY_ATOM>  (111) 
1 0 0 0 1 1 1 1 0 0 0 1 1 0 1 0 1 0 1 0 1 0

>  <DIFUSE_FUNC_ATOM>  (111) 
atom 6   atom 7   

>  <FINAL_SINGLE_POINT_ENERGY>  (111) 
0

>  <NONCOV_INTER_ENERGY_QM>  (111) 
0

>  <FF_Energy>  (111) 
18.53

>  <QM_Energy>  (111) 
-4.62

>  <source>  (111) 
ACET_MBZ_01

>  <Index>  (111) 
17482

$$$$
ACET-pdb3h43-F-GLU-78:MBZ-pdb3h43-G-PHE-123
     RDKit          3D

 22 21  0  0  0  0  0  0  0  0999 V2000
    3.5033   -3.0139   -0.4480 C   0  0  0  0  0  0  0  0  0  0  0  0
    2.6005   -2.6734   -0.2848 H   0  0  0  0  0  0  0  0  0  0  0  0
    3.5783   -3.9800   -0.3128 H   0  0  0  0  0  0  0  0  0  0  0  0
    3.7892   -2.7770   -1.4728 H   0  0  0  0  0  0  0  0  0  0  0  0
    4.4275   -2.3441    0.5450 C   0  0  0  0  0  0  0  0  0  0  0  0
    4.5355   -1.0947    0.5008 O   0  0  0  0  0  1  0  0  0  0  0  0
    5.0478   -3.0679    1.3578 O   0  0  0  0  0  0  0  0  0  0  0  0
    0.0063    2.9096    0.0554 C   0  0  0  0  0  0  0  0  0  0  0  0
   -0.8841    3.2319   -0.2244 H   0  0  0  0  0  0  0  0  0  0  0  0
    0.7169    3.2361   -0.5471 H   0  0  0  0  0  0  0  0  0  0  0  0
    0.2055    3.3103    1.0493 H   0  0  0  0  0  0  0  0  0  0  0  0
   -0.0006    1.4072    0.0009 C   0  0  0  0  0  0  0  0  0  0  0  0
   -1.1983    0.7015   -0.0012 C   0  0  0  0  0  0  0  0  0  0  0  0
   -2.0644    1.1877   -0.0048 H   0  0  0  0  0  0  0  0  0  0  0  0
   -1.2048   -0.6995   -0.0000 C   0  0  0  0  0  0  0  0  0  0  0  0
   -2.0809   -1.1884    0.0007 H   0  0  0  0  0  0  0  0  0  0  0  0
    0.0006   -1.4011    0.0018 C   0  0  0  0  0  0  0  0  0  0  0  0
   -0.0045   -2.3970    0.0038 H   0  0  0  0  0  0  0  0  0  0  0  0
    1.2048   -0.7014    0.0000 C   0  0  0  0  0  0  0  0  0  0  0  0
    2.0856   -1.1972    0.0016 H   0  0  0  0  0  0  0  0  0  0  0  0
    1.1983    0.6934   -0.0015 C   0  0  0  0  0  0  0  0  0  0  0  0
    2.0668    1.1902   -0.0056 H   0  0  0  0  0  0  0  0  0  0  0  0
  1  5  1  0
  5  6  1  0
  5  7  2  0
  1  2  1  0
  1  3  1  0
  1  4  1  0
  8 12  1  0
 12 13  2  0
 13 15  1  0
 15 17  2  0
 17 19  1  0
 19 21  2  0
 21 12  1  0
  8  9  1  0
  8 10  1  0
  8 11  1  0
 13 14  1  0
 15 16  1  0
 17 18  1  0
 19 20  1  0
 21 22  1  0
M  CHG  1   6  -1
M  END
>  <PDB_ID>  (112) 
pdb3h43

>  <RESIDUE_NAME>  (112) 
GLU   PHE

>  <FRAG_NAME>  (112) 
ACET   MBZ

>  <FRAG_ATOM_NUM>  (112) 
fragi: 7  fragj: 15

>  <atom.prop.CHAIN_ID>  (112) 
A A A A A A A Z Z Z Z Z Z Z Z Z Z Z Z Z Z Z

>  <atom.prop.IS_HEAVY_ATOM>  (112) 
1 0 0 0 1 1 1 1 0 0 0 1 1 0 1 0 1 0 1 0 1 0

>  <DIFUSE_FUNC_ATOM>  (112) 
atom 6   atom 7   

>  <FINAL_SINGLE_POINT_ENERGY>  (112) 
0

>  <NONCOV_INTER_ENERGY_QM>  (112) 
0

>  <FF_Energy>  (112) 
16.81

>  <QM_Energy>  (112) 
-1.48

>  <source>  (112) 
ACET_MBZ_01

>  <Index>  (112) 
18804

$$$$
ACET-pdb3hl4-B-ASP-212:MBZ-pdb3hl4-A-PHE-124
     RDKit          3D

 22 21  0  0  0  0  0  0  0  0999 V2000
    3.2601   -1.2788   -3.3752 C   0  0  0  0  0  0  0  0  0  0  0  0
    4.2475   -1.2049   -3.3040 H   0  0  0  0  0  0  0  0  0  0  0  0
    2.8281   -0.4070   -3.1853 H   0  0  0  0  0  0  0  0  0  0  0  0
    3.0195   -1.5535   -4.4021 H   0  0  0  0  0  0  0  0  0  0  0  0
    2.7724   -2.3037   -2.3270 C   0  0  0  0  0  0  0  0  0  0  0  0
    3.1240   -2.1453   -1.1191 O   0  0  0  0  0  1  0  0  0  0  0  0
    2.0146   -3.2380   -2.6683 O   0  0  0  0  0  0  0  0  0  0  0  0
    0.0062    2.9316    0.0385 C   0  0  0  0  0  0  0  0  0  0  0  0
   -0.6622    3.2602   -0.6053 H   0  0  0  0  0  0  0  0  0  0  0  0
    0.9140    3.2433   -0.1792 H   0  0  0  0  0  0  0  0  0  0  0  0
   -0.2535    3.3394    1.0154 H   0  0  0  0  0  0  0  0  0  0  0  0
    0.0012    1.4251   -0.0014 C   0  0  0  0  0  0  0  0  0  0  0  0
   -1.2108    0.7171    0.0134 C   0  0  0  0  0  0  0  0  0  0  0  0
   -2.0732    1.1997    0.0320 H   0  0  0  0  0  0  0  0  0  0  0  0
   -1.2265   -0.7111   -0.0000 C   0  0  0  0  0  0  0  0  0  0  0  0
   -2.0979   -1.1896   -0.0042 H   0  0  0  0  0  0  0  0  0  0  0  0
   -0.0043   -1.4286   -0.0047 C   0  0  0  0  0  0  0  0  0  0  0  0
   -0.0044   -2.4120   -0.0115 H   0  0  0  0  0  0  0  0  0  0  0  0
    1.2265   -0.7083    0.0000 C   0  0  0  0  0  0  0  0  0  0  0  0
    2.0978   -1.2025    0.0102 H   0  0  0  0  0  0  0  0  0  0  0  0
    1.2138    0.7057   -0.0073 C   0  0  0  0  0  0  0  0  0  0  0  0
    2.0777    1.2007   -0.0180 H   0  0  0  0  0  0  0  0  0  0  0  0
  1  5  1  0
  5  6  1  0
  5  7  2  0
  1  2  1  0
  1  3  1  0
  1  4  1  0
  8 12  1  0
 12 13  2  0
 13 15  1  0
 15 17  2  0
 17 19  1  0
 19 21  2  0
 21 12  1  0
  8  9  1  0
  8 10  1  0
  8 11  1  0
 13 14  1  0
 15 16  1  0
 17 18  1  0
 19 20  1  0
 21 22  1  0
M  CHG  1   6  -1
M  END
>  <PDB_ID>  (113) 
pdb3hl4

>  <RESIDUE_NAME>  (113) 
ASP   PHE

>  <FRAG_NAME>  (113) 
ACET   MBZ

>  <FRAG_ATOM_NUM>  (113) 
fragi: 7  fragj: 15

>  <atom.prop.CHAIN_ID>  (113) 
A A A A A A A Z Z Z Z Z Z Z Z Z Z Z Z Z Z Z

>  <atom.prop.IS_HEAVY_ATOM>  (113) 
1 0 0 0 1 1 1 1 0 0 0 1 1 0 1 0 1 0 1 0 1 0

>  <DIFUSE_FUNC_ATOM>  (113) 
atom 6   atom 7   

>  <FINAL_SINGLE_POINT_ENERGY>  (113) 
0

>  <NONCOV_INTER_ENERGY_QM>  (113) 
0

>  <FF_Energy>  (113) 
33.84

>  <QM_Energy>  (113) 
-1.99

>  <source>  (113) 
ACET_MBZ_01

>  <Index>  (113) 
20147

$$$$
ACET-pdb3hm2-F-GLU-128:MBZ-pdb3hm2-G-PHE-158
     RDKit          3D

 22 21  0  0  0  0  0  0  0  0999 V2000
   -5.9126    2.1349   -0.3776 C   0  0  0  0  0  0  0  0  0  0  0  0
   -5.7473    1.4554   -1.0679 H   0  0  0  0  0  0  0  0  0  0  0  0
   -6.4972    2.8571   -0.6981 H   0  0  0  0  0  0  0  0  0  0  0  0
   -6.3982    1.6499    0.4691 H   0  0  0  0  0  0  0  0  0  0  0  0
   -4.5689    2.7612   -0.0190 C   0  0  0  0  0  0  0  0  0  0  0  0
   -3.5348    2.0726   -0.1815 O   0  0  0  0  0  1  0  0  0  0  0  0
   -4.5421    3.9312    0.4273 O   0  0  0  0  0  0  0  0  0  0  0  0
   -0.0244    2.8670   -0.0206 C   0  0  0  0  0  0  0  0  0  0  0  0
    0.8738    3.1899   -0.2718 H   0  0  0  0  0  0  0  0  0  0  0  0
   -0.2891    3.1866    0.8756 H   0  0  0  0  0  0  0  0  0  0  0  0
   -0.7358    3.2716   -0.7407 H   0  0  0  0  0  0  0  0  0  0  0  0
    0.0003    1.3784   -0.0004 C   0  0  0  0  0  0  0  0  0  0  0  0
   -1.1902    0.6743    0.0032 C   0  0  0  0  0  0  0  0  0  0  0  0
   -2.0565    1.1814    0.0073 H   0  0  0  0  0  0  0  0  0  0  0  0
   -1.2011   -0.6835    0.0000 C   0  0  0  0  0  0  0  0  0  0  0  0
   -2.0768   -1.1874   -0.0016 H   0  0  0  0  0  0  0  0  0  0  0  0
   -0.0071   -1.3731    0.0003 C   0  0  0  0  0  0  0  0  0  0  0  0
   -0.0075   -2.3759    0.0005 H   0  0  0  0  0  0  0  0  0  0  0  0
    1.2011   -0.6823    0.0000 C   0  0  0  0  0  0  0  0  0  0  0  0
    2.0755   -1.1940    0.0037 H   0  0  0  0  0  0  0  0  0  0  0  0
    1.1970    0.6863   -0.0031 C   0  0  0  0  0  0  0  0  0  0  0  0
    2.0596    1.1931   -0.0083 H   0  0  0  0  0  0  0  0  0  0  0  0
  1  5  1  0
  5  6  1  0
  5  7  2  0
  1  2  1  0
  1  3  1  0
  1  4  1  0
  8 12  1  0
 12 13  2  0
 13 15  1  0
 15 17  2  0
 17 19  1  0
 19 21  2  0
 21 12  1  0
  8  9  1  0
  8 10  1  0
  8 11  1  0
 13 14  1  0
 15 16  1  0
 17 18  1  0
 19 20  1  0
 21 22  1  0
M  CHG  1   6  -1
M  END
>  <PDB_ID>  (114) 
pdb3hm2

>  <RESIDUE_NAME>  (114) 
GLU   PHE

>  <FRAG_NAME>  (114) 
ACET   MBZ

>  <FRAG_ATOM_NUM>  (114) 
fragi: 7  fragj: 15

>  <atom.prop.CHAIN_ID>  (114) 
A A A A A A A Z Z Z Z Z Z Z Z Z Z Z Z Z Z Z

>  <atom.prop.IS_HEAVY_ATOM>  (114) 
1 0 0 0 1 1 1 1 0 0 0 1 1 0 1 0 1 0 1 0 1 0

>  <DIFUSE_FUNC_ATOM>  (114) 
atom 6   atom 7   

>  <FINAL_SINGLE_POINT_ENERGY>  (114) 
0

>  <NONCOV_INTER_ENERGY_QM>  (114) 
0

>  <FF_Energy>  (114) 
47.43

>  <QM_Energy>  (114) 
-4.84

>  <source>  (114) 
ACET_MBZ_01

>  <Index>  (114) 
20266

$$$$
ACET-pdb3hm2-D-ASP-28:MBZ-pdb3hm2-D-PHE-96
     RDKit          3D

 22 21  0  0  0  0  0  0  0  0999 V2000
    4.2946    4.6146   -0.6491 C   0  0  0  0  0  0  0  0  0  0  0  0
    3.7740    4.7751   -1.4826 H   0  0  0  0  0  0  0  0  0  0  0  0
    5.2036    5.0111   -0.7305 H   0  0  0  0  0  0  0  0  0  0  0  0
    3.7807    5.1167    0.1706 H   0  0  0  0  0  0  0  0  0  0  0  0
    4.4436    3.0974   -0.4568 C   0  0  0  0  0  0  0  0  0  0  0  0
    3.6623    2.4700    0.2998 O   0  0  0  0  0  1  0  0  0  0  0  0
    5.3762    2.5316   -1.0858 O   0  0  0  0  0  0  0  0  0  0  0  0
    0.0037    2.9452   -0.0238 C   0  0  0  0  0  0  0  0  0  0  0  0
   -0.3617    3.2269   -0.8976 H   0  0  0  0  0  0  0  0  0  0  0  0
    0.9396    3.2411    0.0891 H   0  0  0  0  0  0  0  0  0  0  0  0
   -0.5957    3.4073    0.7607 H   0  0  0  0  0  0  0  0  0  0  0  0
   -0.0004    1.4207    0.0030 C   0  0  0  0  0  0  0  0  0  0  0  0
   -1.2024    0.6965    0.0029 C   0  0  0  0  0  0  0  0  0  0  0  0
   -2.0699    1.1820    0.0036 H   0  0  0  0  0  0  0  0  0  0  0  0
   -1.2070   -0.7089   -0.0000 C   0  0  0  0  0  0  0  0  0  0  0  0
   -2.0815   -1.1980   -0.0010 H   0  0  0  0  0  0  0  0  0  0  0  0
    0.0013   -1.4067    0.0008 C   0  0  0  0  0  0  0  0  0  0  0  0
    0.0001   -2.4031    0.0013 H   0  0  0  0  0  0  0  0  0  0  0  0
    1.2070   -0.7039    0.0000 C   0  0  0  0  0  0  0  0  0  0  0  0
    2.0881   -1.1953    0.0057 H   0  0  0  0  0  0  0  0  0  0  0  0
    1.2015    0.7022   -0.0067 C   0  0  0  0  0  0  0  0  0  0  0  0
    2.0695    1.1941   -0.0193 H   0  0  0  0  0  0  0  0  0  0  0  0
  1  5  1  0
  5  6  1  0
  5  7  2  0
  1  2  1  0
  1  3  1  0
  1  4  1  0
  8 12  1  0
 12 13  2  0
 13 15  1  0
 15 17  2  0
 17 19  1  0
 19 21  2  0
 21 12  1  0
  8  9  1  0
  8 10  1  0
  8 11  1  0
 13 14  1  0
 15 16  1  0
 17 18  1  0
 19 20  1  0
 21 22  1  0
M  CHG  1   6  -1
M  END
>  <PDB_ID>  (115) 
pdb3hm2

>  <RESIDUE_NAME>  (115) 
ASP   PHE

>  <FRAG_NAME>  (115) 
ACET   MBZ

>  <FRAG_ATOM_NUM>  (115) 
fragi: 7  fragj: 15

>  <atom.prop.CHAIN_ID>  (115) 
A A A A A A A Z Z Z Z Z Z Z Z Z Z Z Z Z Z Z

>  <atom.prop.IS_HEAVY_ATOM>  (115) 
1 0 0 0 1 1 1 1 0 0 0 1 1 0 1 0 1 0 1 0 1 0

>  <DIFUSE_FUNC_ATOM>  (115) 
atom 6   atom 7   

>  <FINAL_SINGLE_POINT_ENERGY>  (115) 
0

>  <NONCOV_INTER_ENERGY_QM>  (115) 
0

>  <FF_Energy>  (115) 
2.07

>  <QM_Energy>  (115) 
-7.96

>  <source>  (115) 
ACET_MBZ_01

>  <Index>  (115) 
20521

$$$$
ACET-pdb3huf-C-GLU-7:MBZ-pdb3huf-C-PHE-107
     RDKit          3D

 22 21  0  0  0  0  0  0  0  0999 V2000
    3.8745    1.6687   -1.4707 C   0  0  0  0  0  0  0  0  0  0  0  0
    2.9188    1.6033   -1.2243 H   0  0  0  0  0  0  0  0  0  0  0  0
    4.4080    0.9620   -1.0301 H   0  0  0  0  0  0  0  0  0  0  0  0
    3.9526    1.5252   -2.5484 H   0  0  0  0  0  0  0  0  0  0  0  0
    4.3911    3.0345   -0.9217 C   0  0  0  0  0  0  0  0  0  0  0  0
    3.7568    3.5647    0.0323 O   0  0  0  0  0  1  0  0  0  0  0  0
    5.4102    3.5842   -1.4178 O   0  0  0  0  0  0  0  0  0  0  0  0
    0.0040    2.9265   -0.0272 C   0  0  0  0  0  0  0  0  0  0  0  0
   -0.8634    3.2230   -0.4018 H   0  0  0  0  0  0  0  0  0  0  0  0
    0.7579    3.2150   -0.6000 H   0  0  0  0  0  0  0  0  0  0  0  0
    0.1259    3.3994    0.9474 H   0  0  0  0  0  0  0  0  0  0  0  0
   -0.0001    1.4105    0.0029 C   0  0  0  0  0  0  0  0  0  0  0  0
   -1.1870    0.7032   -0.0082 C   0  0  0  0  0  0  0  0  0  0  0  0
   -2.0593    1.1831   -0.0235 H   0  0  0  0  0  0  0  0  0  0  0  0
   -1.1900   -0.7004    0.0000 C   0  0  0  0  0  0  0  0  0  0  0  0
   -2.0724   -1.1863    0.0031 H   0  0  0  0  0  0  0  0  0  0  0  0
    0.0054   -1.4016    0.0050 C   0  0  0  0  0  0  0  0  0  0  0  0
   -0.0054   -2.3996    0.0121 H   0  0  0  0  0  0  0  0  0  0  0  0
    1.1900   -0.7090    0.0000 C   0  0  0  0  0  0  0  0  0  0  0  0
    2.0801   -1.1914   -0.0026 H   0  0  0  0  0  0  0  0  0  0  0  0
    1.1817    0.6973    0.0003 C   0  0  0  0  0  0  0  0  0  0  0  0
    2.0605    1.1828   -0.0028 H   0  0  0  0  0  0  0  0  0  0  0  0
  1  5  1  0
  5  6  1  0
  5  7  2  0
  1  2  1  0
  1  3  1  0
  1  4  1  0
  8 12  1  0
 12 13  2  0
 13 15  1  0
 15 17  2  0
 17 19  1  0
 19 21  2  0
 21 12  1  0
  8  9  1  0
  8 10  1  0
  8 11  1  0
 13 14  1  0
 15 16  1  0
 17 18  1  0
 19 20  1  0
 21 22  1  0
M  CHG  1   6  -1
M  END
>  <PDB_ID>  (116) 
pdb3huf

>  <RESIDUE_NAME>  (116) 
GLU   PHE

>  <FRAG_NAME>  (116) 
ACET   MBZ

>  <FRAG_ATOM_NUM>  (116) 
fragi: 7  fragj: 15

>  <atom.prop.CHAIN_ID>  (116) 
A A A A A A A Z Z Z Z Z Z Z Z Z Z Z Z Z Z Z

>  <atom.prop.IS_HEAVY_ATOM>  (116) 
1 0 0 0 1 1 1 1 0 0 0 1 1 0 1 0 1 0 1 0 1 0

>  <DIFUSE_FUNC_ATOM>  (116) 
atom 6   atom 7   

>  <FINAL_SINGLE_POINT_ENERGY>  (116) 
0

>  <NONCOV_INTER_ENERGY_QM>  (116) 
0

>  <FF_Energy>  (116) 
22.37

>  <QM_Energy>  (116) 
-0.41

>  <source>  (116) 
ACET_MBZ_01

>  <Index>  (116) 
20798

$$$$
ACET-pdb3itj-D-GLU-205:MBZ-pdb3itj-D-PHE-180
     RDKit          3D

 22 21  0  0  0  0  0  0  0  0999 V2000
   -4.8273    0.5766   -1.2819 C   0  0  0  0  0  0  0  0  0  0  0  0
   -4.2764    1.1975   -0.7526 H   0  0  0  0  0  0  0  0  0  0  0  0
   -5.7631    0.8776   -1.3464 H   0  0  0  0  0  0  0  0  0  0  0  0
   -4.4134    0.5283   -2.2891 H   0  0  0  0  0  0  0  0  0  0  0  0
   -4.8186   -0.7546   -0.5865 C   0  0  0  0  0  0  0  0  0  0  0  0
   -5.7954   -1.0625    0.1574 O   0  0  0  0  0  1  0  0  0  0  0  0
   -3.8435   -1.5042   -0.7616 O   0  0  0  0  0  0  0  0  0  0  0  0
   -0.0126    2.8737   -0.0409 C   0  0  0  0  0  0  0  0  0  0  0  0
    0.8975    3.2140    0.1534 H   0  0  0  0  0  0  0  0  0  0  0  0
   -0.6667    3.2128    0.6211 H   0  0  0  0  0  0  0  0  0  0  0  0
   -0.3049    3.2614   -1.0168 H   0  0  0  0  0  0  0  0  0  0  0  0
    0.0049    1.4107    0.0144 C   0  0  0  0  0  0  0  0  0  0  0  0
   -1.1949    0.6854    0.0123 C   0  0  0  0  0  0  0  0  0  0  0  0
   -2.0627    1.1779    0.0187 H   0  0  0  0  0  0  0  0  0  0  0  0
   -1.1999   -0.7046    0.0000 C   0  0  0  0  0  0  0  0  0  0  0  0
   -2.0781   -1.1987   -0.0073 H   0  0  0  0  0  0  0  0  0  0  0  0
    0.0012   -1.4079   -0.0003 C   0  0  0  0  0  0  0  0  0  0  0  0
   -0.0046   -2.4030   -0.0010 H   0  0  0  0  0  0  0  0  0  0  0  0
    1.1999   -0.7070   -0.0000 C   0  0  0  0  0  0  0  0  0  0  0  0
    2.0860   -1.1808    0.0199 H   0  0  0  0  0  0  0  0  0  0  0  0
    1.1889    0.7234   -0.0263 C   0  0  0  0  0  0  0  0  0  0  0  0
    2.0624    1.1977   -0.0756 H   0  0  0  0  0  0  0  0  0  0  0  0
  1  5  1  0
  5  6  1  0
  5  7  2  0
  1  2  1  0
  1  3  1  0
  1  4  1  0
  8 12  1  0
 12 13  2  0
 13 15  1  0
 15 17  2  0
 17 19  1  0
 19 21  2  0
 21 12  1  0
  8  9  1  0
  8 10  1  0
  8 11  1  0
 13 14  1  0
 15 16  1  0
 17 18  1  0
 19 20  1  0
 21 22  1  0
M  CHG  1   6  -1
M  END
>  <PDB_ID>  (117) 
pdb3itj

>  <RESIDUE_NAME>  (117) 
GLU   PHE

>  <FRAG_NAME>  (117) 
ACET   MBZ

>  <FRAG_ATOM_NUM>  (117) 
fragi: 7  fragj: 15

>  <atom.prop.CHAIN_ID>  (117) 
A A A A A A A Z Z Z Z Z Z Z Z Z Z Z Z Z Z Z

>  <atom.prop.IS_HEAVY_ATOM>  (117) 
1 0 0 0 1 1 1 1 0 0 0 1 1 0 1 0 1 0 1 0 1 0

>  <DIFUSE_FUNC_ATOM>  (117) 
atom 6   atom 7   

>  <FINAL_SINGLE_POINT_ENERGY>  (117) 
0

>  <NONCOV_INTER_ENERGY_QM>  (117) 
0

>  <FF_Energy>  (117) 
8.92

>  <QM_Energy>  (117) 
-4.82

>  <source>  (117) 
ACET_MBZ_01

>  <Index>  (117) 
23362

$$$$
ACET-pdb4gl0-A-ASP-118:MBZ-pdb4gl0-A-PHE-121
     RDKit          3D

 22 21  0  0  0  0  0  0  0  0999 V2000
    4.5460    0.7457   -0.0775 C   0  0  0  0  0  0  0  0  0  0  0  0
    4.9370    0.2487    0.6881 H   0  0  0  0  0  0  0  0  0  0  0  0
    3.5829    0.9286    0.0802 H   0  0  0  0  0  0  0  0  0  0  0  0
    5.0700    1.6961   -0.1791 H   0  0  0  0  0  0  0  0  0  0  0  0
    4.6688   -0.1268   -1.3264 C   0  0  0  0  0  0  0  0  0  0  0  0
    4.4975    0.3576   -2.4679 O   0  0  0  0  0  1  0  0  0  0  0  0
    4.9268   -1.3123   -1.1569 O   0  0  0  0  0  0  0  0  0  0  0  0
   -0.0042    2.9104   -0.0768 C   0  0  0  0  0  0  0  0  0  0  0  0
    0.8849    3.2299    0.1886 H   0  0  0  0  0  0  0  0  0  0  0  0
   -0.7161    3.2424    0.5117 H   0  0  0  0  0  0  0  0  0  0  0  0
   -0.2056    3.2638   -1.0880 H   0  0  0  0  0  0  0  0  0  0  0  0
    0.0009    1.4005    0.0092 C   0  0  0  0  0  0  0  0  0  0  0  0
   -1.1693    0.6957   -0.0051 C   0  0  0  0  0  0  0  0  0  0  0  0
   -2.0488    1.1828   -0.0211 H   0  0  0  0  0  0  0  0  0  0  0  0
   -1.1802   -0.6875    0.0000 C   0  0  0  0  0  0  0  0  0  0  0  0
   -2.0714   -1.1722    0.0050 H   0  0  0  0  0  0  0  0  0  0  0  0
   -0.0048   -1.3951    0.0004 C   0  0  0  0  0  0  0  0  0  0  0  0
   -0.0179   -2.3927    0.0007 H   0  0  0  0  0  0  0  0  0  0  0  0
    1.1802   -0.7079    0.0000 C   0  0  0  0  0  0  0  0  0  0  0  0
    2.0690   -1.1928    0.0046 H   0  0  0  0  0  0  0  0  0  0  0  0
    1.1731    0.6943   -0.0045 C   0  0  0  0  0  0  0  0  0  0  0  0
    2.0551    1.1776   -0.0190 H   0  0  0  0  0  0  0  0  0  0  0  0
  1  5  1  0
  5  6  1  0
  5  7  2  0
  1  2  1  0
  1  3  1  0
  1  4  1  0
  8 12  1  0
 12 13  2  0
 13 15  1  0
 15 17  2  0
 17 19  1  0
 19 21  2  0
 21 12  1  0
  8  9  1  0
  8 10  1  0
  8 11  1  0
 13 14  1  0
 15 16  1  0
 17 18  1  0
 19 20  1  0
 21 22  1  0
M  CHG  1   6  -1
M  END
>  <PDB_ID>  (118) 
pdb4gl0

>  <RESIDUE_NAME>  (118) 
ASP   PHE

>  <FRAG_NAME>  (118) 
ACET   MBZ

>  <FRAG_ATOM_NUM>  (118) 
fragi: 7  fragj: 15

>  <atom.prop.CHAIN_ID>  (118) 
A A A A A A A Z Z Z Z Z Z Z Z Z Z Z Z Z Z Z

>  <atom.prop.IS_HEAVY_ATOM>  (118) 
1 0 0 0 1 1 1 1 0 0 0 1 1 0 1 0 1 0 1 0 1 0

>  <DIFUSE_FUNC_ATOM>  (118) 
atom 6   atom 7   

>  <FINAL_SINGLE_POINT_ENERGY>  (118) 
0

>  <NONCOV_INTER_ENERGY_QM>  (118) 
0

>  <FF_Energy>  (118) 
19.71

>  <QM_Energy>  (118) 
-0.12

>  <source>  (118) 
ACET_MBZ_01

>  <Index>  (118) 
24575

$$$$
ACET-pdb3k94-A-ASP-16:MBZ-pdb3k94-A-PHE-19
     RDKit          3D

 22 21  0  0  0  0  0  0  0  0999 V2000
    4.0076    0.4925    1.9650 C   0  0  0  0  0  0  0  0  0  0  0  0
    4.2020   -0.1494    2.6981 H   0  0  0  0  0  0  0  0  0  0  0  0
    3.0430    0.7278    1.9553 H   0  0  0  0  0  0  0  0  0  0  0  0
    4.5738    1.4035    2.1591 H   0  0  0  0  0  0  0  0  0  0  0  0
    4.3661   -0.1583    0.6371 C   0  0  0  0  0  0  0  0  0  0  0  0
    4.9828    0.5079   -0.2272 O   0  0  0  0  0  1  0  0  0  0  0  0
    4.0183   -1.3423    0.4616 O   0  0  0  0  0  0  0  0  0  0  0  0
    0.0055    2.8911   -0.0264 C   0  0  0  0  0  0  0  0  0  0  0  0
    0.6681    3.2141    0.6269 H   0  0  0  0  0  0  0  0  0  0  0  0
   -0.9035    3.2088    0.1815 H   0  0  0  0  0  0  0  0  0  0  0  0
    0.2799    3.2937   -1.0015 H   0  0  0  0  0  0  0  0  0  0  0  0
    0.0011    1.3915    0.0090 C   0  0  0  0  0  0  0  0  0  0  0  0
   -1.1899    0.6896   -0.0067 C   0  0  0  0  0  0  0  0  0  0  0  0
   -2.0575    1.1817   -0.0243 H   0  0  0  0  0  0  0  0  0  0  0  0
   -1.1934   -0.6913    0.0000 C   0  0  0  0  0  0  0  0  0  0  0  0
   -2.0723   -1.1877    0.0042 H   0  0  0  0  0  0  0  0  0  0  0  0
    0.0005   -1.3826    0.0021 C   0  0  0  0  0  0  0  0  0  0  0  0
   -0.0041   -2.3848    0.0045 H   0  0  0  0  0  0  0  0  0  0  0  0
    1.1934   -0.6924   -0.0000 C   0  0  0  0  0  0  0  0  0  0  0  0
    2.0764   -1.1931    0.0032 H   0  0  0  0  0  0  0  0  0  0  0  0
    1.1883    0.6851   -0.0045 C   0  0  0  0  0  0  0  0  0  0  0  0
    2.0596    1.1851   -0.0191 H   0  0  0  0  0  0  0  0  0  0  0  0
  1  5  1  0
  5  6  1  0
  5  7  2  0
  1  2  1  0
  1  3  1  0
  1  4  1  0
  8 12  1  0
 12 13  2  0
 13 15  1  0
 15 17  2  0
 17 19  1  0
 19 21  2  0
 21 12  1  0
  8  9  1  0
  8 10  1  0
  8 11  1  0
 13 14  1  0
 15 16  1  0
 17 18  1  0
 19 20  1  0
 21 22  1  0
M  CHG  1   6  -1
M  END
>  <PDB_ID>  (119) 
pdb3k94

>  <RESIDUE_NAME>  (119) 
ASP   PHE

>  <FRAG_NAME>  (119) 
ACET   MBZ

>  <FRAG_ATOM_NUM>  (119) 
fragi: 7  fragj: 15

>  <atom.prop.CHAIN_ID>  (119) 
A A A A A A A Z Z Z Z Z Z Z Z Z Z Z Z Z Z Z

>  <atom.prop.IS_HEAVY_ATOM>  (119) 
1 0 0 0 1 1 1 1 0 0 0 1 1 0 1 0 1 0 1 0 1 0

>  <DIFUSE_FUNC_ATOM>  (119) 
atom 6   atom 7   

>  <FINAL_SINGLE_POINT_ENERGY>  (119) 
0

>  <NONCOV_INTER_ENERGY_QM>  (119) 
0

>  <FF_Energy>  (119) 
6.13

>  <QM_Energy>  (119) 
-5.73

>  <source>  (119) 
ACET_MBZ_01

>  <Index>  (119) 
25254

$$$$
ACET-pdb3l8r-B-GLU-95:MBZ-pdb3l8r-C-PHE-28
     RDKit          3D

 22 21  0  0  0  0  0  0  0  0999 V2000
    1.0099    1.2364   -3.2342 C   0  0  0  0  0  0  0  0  0  0  0  0
    0.9769    0.9973   -2.2707 H   0  0  0  0  0  0  0  0  0  0  0  0
    1.8390    1.7435   -3.4392 H   0  0  0  0  0  0  0  0  0  0  0  0
    1.0292    0.3106   -3.8091 H   0  0  0  0  0  0  0  0  0  0  0  0
   -0.1559    2.1287   -3.5257 C   0  0  0  0  0  0  0  0  0  0  0  0
   -0.8198    2.0008   -4.5770 O   0  0  0  0  0  1  0  0  0  0  0  0
   -0.4188    2.9786   -2.6784 O   0  0  0  0  0  0  0  0  0  0  0  0
    0.0038    2.8944    0.0200 C   0  0  0  0  0  0  0  0  0  0  0  0
   -0.9059    3.2057    0.2428 H   0  0  0  0  0  0  0  0  0  0  0  0
    0.2907    3.2167   -0.8678 H   0  0  0  0  0  0  0  0  0  0  0  0
    0.6863    3.3132    0.7595 H   0  0  0  0  0  0  0  0  0  0  0  0
   -0.0076    1.3926   -0.0067 C   0  0  0  0  0  0  0  0  0  0  0  0
   -1.2064    0.6967    0.0035 C   0  0  0  0  0  0  0  0  0  0  0  0
   -2.0669    1.2042    0.0121 H   0  0  0  0  0  0  0  0  0  0  0  0
   -1.2164   -0.6640   -0.0000 C   0  0  0  0  0  0  0  0  0  0  0  0
   -2.0799   -1.1798   -0.0011 H   0  0  0  0  0  0  0  0  0  0  0  0
    0.0117   -1.3868    0.0000 C   0  0  0  0  0  0  0  0  0  0  0  0
   -0.0219   -2.3819   -0.0004 H   0  0  0  0  0  0  0  0  0  0  0  0
    1.2164   -0.7088    0.0000 C   0  0  0  0  0  0  0  0  0  0  0  0
    2.0908   -1.2094   -0.0009 H   0  0  0  0  0  0  0  0  0  0  0  0
    1.2023    0.6704    0.0032 C   0  0  0  0  0  0  0  0  0  0  0  0
    2.0655    1.1824    0.0120 H   0  0  0  0  0  0  0  0  0  0  0  0
  1  5  1  0
  5  6  1  0
  5  7  2  0
  1  2  1  0
  1  3  1  0
  1  4  1  0
  8 12  1  0
 12 13  2  0
 13 15  1  0
 15 17  2  0
 17 19  1  0
 19 21  2  0
 21 12  1  0
  8  9  1  0
  8 10  1  0
  8 11  1  0
 13 14  1  0
 15 16  1  0
 17 18  1  0
 19 20  1  0
 21 22  1  0
M  CHG  1   6  -1
M  END
>  <PDB_ID>  (120) 
pdb3l8r

>  <RESIDUE_NAME>  (120) 
GLU   PHE

>  <FRAG_NAME>  (120) 
ACET   MBZ

>  <FRAG_ATOM_NUM>  (120) 
fragi: 7  fragj: 15

>  <atom.prop.CHAIN_ID>  (120) 
A A A A A A A Z Z Z Z Z Z Z Z Z Z Z Z Z Z Z

>  <atom.prop.IS_HEAVY_ATOM>  (120) 
1 0 0 0 1 1 1 1 0 0 0 1 1 0 1 0 1 0 1 0 1 0

>  <DIFUSE_FUNC_ATOM>  (120) 
atom 6   atom 7   

>  <FINAL_SINGLE_POINT_ENERGY>  (120) 
0

>  <NONCOV_INTER_ENERGY_QM>  (120) 
0

>  <FF_Energy>  (120) 
16.02

>  <QM_Energy>  (120) 
-0.65

>  <source>  (120) 
ACET_MBZ_01

>  <Index>  (120) 
27702

$$$$
ACET-pdb3l8r-F-GLU-95:MBZ-pdb3l8r-D-PHE-28
     RDKit          3D

 22 21  0  0  0  0  0  0  0  0999 V2000
   -0.5898    0.9052    3.2630 C   0  0  0  0  0  0  0  0  0  0  0  0
    0.1607    0.6172    3.8393 H   0  0  0  0  0  0  0  0  0  0  0  0
   -0.4561    0.6132    2.3281 H   0  0  0  0  0  0  0  0  0  0  0  0
   -1.5293    0.5096    3.6486 H   0  0  0  0  0  0  0  0  0  0  0  0
   -0.5254    2.4594    3.2317 C   0  0  0  0  0  0  0  0  0  0  0  0
   -1.3913    3.1026    2.5757 O   0  0  0  0  0  1  0  0  0  0  0  0
    0.4241    3.0152    3.8532 O   0  0  0  0  0  0  0  0  0  0  0  0
    0.0195    2.8931   -0.0263 C   0  0  0  0  0  0  0  0  0  0  0  0
    0.9576    3.1910   -0.1070 H   0  0  0  0  0  0  0  0  0  0  0  0
   -0.3927    3.2147    0.8116 H   0  0  0  0  0  0  0  0  0  0  0  0
   -0.5368    3.3314   -0.8548 H   0  0  0  0  0  0  0  0  0  0  0  0
    0.0040    1.3877   -0.0105 C   0  0  0  0  0  0  0  0  0  0  0  0
   -1.2003    0.6890   -0.0107 C   0  0  0  0  0  0  0  0  0  0  0  0
   -2.0590    1.1961   -0.0203 H   0  0  0  0  0  0  0  0  0  0  0  0
   -1.2084   -0.6757    0.0000 C   0  0  0  0  0  0  0  0  0  0  0  0
   -2.0830   -1.1820    0.0085 H   0  0  0  0  0  0  0  0  0  0  0  0
   -0.0042   -1.3817    0.0012 C   0  0  0  0  0  0  0  0  0  0  0  0
   -0.0134   -2.3779    0.0026 H   0  0  0  0  0  0  0  0  0  0  0  0
    1.2084   -0.6889    0.0000 C   0  0  0  0  0  0  0  0  0  0  0  0
    2.0794   -1.2048   -0.0140 H   0  0  0  0  0  0  0  0  0  0  0  0
    1.2005    0.6696    0.0200 C   0  0  0  0  0  0  0  0  0  0  0  0
    2.0665    1.1831    0.0564 H   0  0  0  0  0  0  0  0  0  0  0  0
  1  5  1  0
  5  6  1  0
  5  7  2  0
  1  2  1  0
  1  3  1  0
  1  4  1  0
  8 12  1  0
 12 13  2  0
 13 15  1  0
 15 17  2  0
 17 19  1  0
 19 21  2  0
 21 12  1  0
  8  9  1  0
  8 10  1  0
  8 11  1  0
 13 14  1  0
 15 16  1  0
 17 18  1  0
 19 20  1  0
 21 22  1  0
M  CHG  1   6  -1
M  END
>  <PDB_ID>  (121) 
pdb3l8r

>  <RESIDUE_NAME>  (121) 
GLU   PHE

>  <FRAG_NAME>  (121) 
ACET   MBZ

>  <FRAG_ATOM_NUM>  (121) 
fragi: 7  fragj: 15

>  <atom.prop.CHAIN_ID>  (121) 
A A A A A A A Z Z Z Z Z Z Z Z Z Z Z Z Z Z Z

>  <atom.prop.IS_HEAVY_ATOM>  (121) 
1 0 0 0 1 1 1 1 0 0 0 1 1 0 1 0 1 0 1 0 1 0

>  <DIFUSE_FUNC_ATOM>  (121) 
atom 6   atom 7   

>  <FINAL_SINGLE_POINT_ENERGY>  (121) 
0

>  <NONCOV_INTER_ENERGY_QM>  (121) 
0

>  <FF_Energy>  (121) 
8.56

>  <QM_Energy>  (121) 
-4.51

>  <source>  (121) 
ACET_MBZ_01

>  <Index>  (121) 
27703

$$$$
ACET-pdb4i2v-C-GLU-79:MBZ-pdb4i2v-D-PHE-172
     RDKit          3D

 22 21  0  0  0  0  0  0  0  0999 V2000
    5.5098    3.0541   -0.9321 C   0  0  0  0  0  0  0  0  0  0  0  0
    6.2558    3.2497   -0.3169 H   0  0  0  0  0  0  0  0  0  0  0  0
    5.3192    3.8171   -1.5280 H   0  0  0  0  0  0  0  0  0  0  0  0
    5.7977    2.2047   -1.5515 H   0  0  0  0  0  0  0  0  0  0  0  0
    4.2798    2.8013   -0.0997 C   0  0  0  0  0  0  0  0  0  0  0  0
    3.5306    3.7665    0.1381 O   0  0  0  0  0  1  0  0  0  0  0  0
    4.0677    1.6493    0.3277 O   0  0  0  0  0  0  0  0  0  0  0  0
   -0.0040    2.9058   -0.0071 C   0  0  0  0  0  0  0  0  0  0  0  0
   -0.8008    3.2121   -0.5075 H   0  0  0  0  0  0  0  0  0  0  0  0
    0.8311    3.2131   -0.4395 H   0  0  0  0  0  0  0  0  0  0  0  0
   -0.0456    3.3629    0.9815 H   0  0  0  0  0  0  0  0  0  0  0  0
   -0.0027    1.3975   -0.0009 C   0  0  0  0  0  0  0  0  0  0  0  0
   -1.1874    0.6894   -0.0080 C   0  0  0  0  0  0  0  0  0  0  0  0
   -2.0594    1.1786   -0.0207 H   0  0  0  0  0  0  0  0  0  0  0  0
   -1.1907   -0.6921   -0.0000 C   0  0  0  0  0  0  0  0  0  0  0  0
   -2.0719   -1.1861    0.0019 H   0  0  0  0  0  0  0  0  0  0  0  0
   -0.0011   -1.3837    0.0068 C   0  0  0  0  0  0  0  0  0  0  0  0
   -0.0089   -2.3883    0.0165 H   0  0  0  0  0  0  0  0  0  0  0  0
    1.1907   -0.6997    0.0000 C   0  0  0  0  0  0  0  0  0  0  0  0
    2.0746   -1.1970   -0.0051 H   0  0  0  0  0  0  0  0  0  0  0  0
    1.1912    0.6886    0.0022 C   0  0  0  0  0  0  0  0  0  0  0  0
    2.0605    1.1826    0.0052 H   0  0  0  0  0  0  0  0  0  0  0  0
  1  5  1  0
  5  6  1  0
  5  7  2  0
  1  2  1  0
  1  3  1  0
  1  4  1  0
  8 12  1  0
 12 13  2  0
 13 15  1  0
 15 17  2  0
 17 19  1  0
 19 21  2  0
 21 12  1  0
  8  9  1  0
  8 10  1  0
  8 11  1  0
 13 14  1  0
 15 16  1  0
 17 18  1  0
 19 20  1  0
 21 22  1  0
M  CHG  1   6  -1
M  END
>  <PDB_ID>  (122) 
pdb4i2v

>  <RESIDUE_NAME>  (122) 
GLU   PHE

>  <FRAG_NAME>  (122) 
ACET   MBZ

>  <FRAG_ATOM_NUM>  (122) 
fragi: 7  fragj: 15

>  <atom.prop.CHAIN_ID>  (122) 
A A A A A A A Z Z Z Z Z Z Z Z Z Z Z Z Z Z Z

>  <atom.prop.IS_HEAVY_ATOM>  (122) 
1 0 0 0 1 1 1 1 0 0 0 1 1 0 1 0 1 0 1 0 1 0

>  <DIFUSE_FUNC_ATOM>  (122) 
atom 6   atom 7   

>  <FINAL_SINGLE_POINT_ENERGY>  (122) 
0

>  <NONCOV_INTER_ENERGY_QM>  (122) 
0

>  <FF_Energy>  (122) 
1.3

>  <QM_Energy>  (122) 
-8.7

>  <source>  (122) 
ACET_MBZ_01

>  <Index>  (122) 
27708

$$$$
ACET-pdb4ian-A-ASP-834:MBZ-pdb4ian-A-PHE-698
     RDKit          3D

 22 21  0  0  0  0  0  0  0  0999 V2000
   -0.7457   -5.1704   -2.0758 C   0  0  0  0  0  0  0  0  0  0  0  0
    0.1942   -5.3147   -2.3509 H   0  0  0  0  0  0  0  0  0  0  0  0
   -1.3727   -5.4821   -2.7745 H   0  0  0  0  0  0  0  0  0  0  0  0
   -0.9282   -5.7493   -1.1705 H   0  0  0  0  0  0  0  0  0  0  0  0
   -0.9658   -3.6914   -1.8457 C   0  0  0  0  0  0  0  0  0  0  0  0
   -1.6609   -3.3692   -0.8513 O   0  0  0  0  0  1  0  0  0  0  0  0
   -0.4492   -2.8568   -2.6294 O   0  0  0  0  0  0  0  0  0  0  0  0
    0.0059    2.8897   -0.0059 C   0  0  0  0  0  0  0  0  0  0  0  0
   -0.1788    3.2003    0.9142 H   0  0  0  0  0  0  0  0  0  0  0  0
   -0.6903    3.1969   -0.6366 H   0  0  0  0  0  0  0  0  0  0  0  0
    0.9565    3.3199   -0.3212 H   0  0  0  0  0  0  0  0  0  0  0  0
   -0.0009    1.3899   -0.0002 C   0  0  0  0  0  0  0  0  0  0  0  0
   -1.1934    0.6907   -0.0008 C   0  0  0  0  0  0  0  0  0  0  0  0
   -2.0595    1.1837   -0.0027 H   0  0  0  0  0  0  0  0  0  0  0  0
   -1.1941   -0.6868    0.0000 C   0  0  0  0  0  0  0  0  0  0  0  0
   -2.0699   -1.1879    0.0015 H   0  0  0  0  0  0  0  0  0  0  0  0
    0.0043   -1.3774    0.0006 C   0  0  0  0  0  0  0  0  0  0  0  0
   -0.0054   -2.3820    0.0005 H   0  0  0  0  0  0  0  0  0  0  0  0
    1.1941   -0.6933   -0.0000 C   0  0  0  0  0  0  0  0  0  0  0  0
    2.0777   -1.1968    0.0006 H   0  0  0  0  0  0  0  0  0  0  0  0
    1.1901    0.6769    0.0004 C   0  0  0  0  0  0  0  0  0  0  0  0
    2.0599    1.1812    0.0004 H   0  0  0  0  0  0  0  0  0  0  0  0
  1  5  1  0
  5  6  1  0
  5  7  2  0
  1  2  1  0
  1  3  1  0
  1  4  1  0
  8 12  1  0
 12 13  2  0
 13 15  1  0
 15 17  2  0
 17 19  1  0
 19 21  2  0
 21 12  1  0
  8  9  1  0
  8 10  1  0
  8 11  1  0
 13 14  1  0
 15 16  1  0
 17 18  1  0
 19 20  1  0
 21 22  1  0
M  CHG  1   6  -1
M  END
>  <PDB_ID>  (123) 
pdb4ian

>  <RESIDUE_NAME>  (123) 
ASP   PHE

>  <FRAG_NAME>  (123) 
ACET   MBZ

>  <FRAG_ATOM_NUM>  (123) 
fragi: 7  fragj: 15

>  <atom.prop.CHAIN_ID>  (123) 
A A A A A A A Z Z Z Z Z Z Z Z Z Z Z Z Z Z Z

>  <atom.prop.IS_HEAVY_ATOM>  (123) 
1 0 0 0 1 1 1 1 0 0 0 1 1 0 1 0 1 0 1 0 1 0

>  <DIFUSE_FUNC_ATOM>  (123) 
atom 6   atom 7   

>  <FINAL_SINGLE_POINT_ENERGY>  (123) 
0

>  <NONCOV_INTER_ENERGY_QM>  (123) 
0

>  <FF_Energy>  (123) 
9.22

>  <QM_Energy>  (123) 
-1.76

>  <source>  (123) 
ACET_MBZ_01

>  <Index>  (123) 
28044

$$$$
ACET-pdb4il2-A-GLU-288:MBZ-pdb4il2-A-PHE-314
     RDKit          3D

 22 21  0  0  0  0  0  0  0  0999 V2000
    0.2367   -4.5646    0.9058 C   0  0  0  0  0  0  0  0  0  0  0  0
   -0.2777   -4.9797    1.6414 H   0  0  0  0  0  0  0  0  0  0  0  0
    0.3128   -3.5865    1.0282 H   0  0  0  0  0  0  0  0  0  0  0  0
    1.2387   -4.9936    0.8982 H   0  0  0  0  0  0  0  0  0  0  0  0
   -0.5476   -4.7970   -0.3784 C   0  0  0  0  0  0  0  0  0  0  0  0
   -0.0352   -5.4916   -1.3024 O   0  0  0  0  0  1  0  0  0  0  0  0
   -1.7009   -4.2882   -0.4453 O   0  0  0  0  0  0  0  0  0  0  0  0
    0.0075    2.9013    0.0170 C   0  0  0  0  0  0  0  0  0  0  0  0
   -0.7321    3.2167   -0.5525 H   0  0  0  0  0  0  0  0  0  0  0  0
    0.8835    3.2091   -0.3138 H   0  0  0  0  0  0  0  0  0  0  0  0
   -0.1371    3.3225    1.0118 H   0  0  0  0  0  0  0  0  0  0  0  0
    0.0027    1.3934   -0.0012 C   0  0  0  0  0  0  0  0  0  0  0  0
   -1.1897    0.6850   -0.0022 C   0  0  0  0  0  0  0  0  0  0  0  0
   -2.0577    1.1731   -0.0059 H   0  0  0  0  0  0  0  0  0  0  0  0
   -1.1870   -0.6994   -0.0000 C   0  0  0  0  0  0  0  0  0  0  0  0
   -2.0653   -1.1949    0.0003 H   0  0  0  0  0  0  0  0  0  0  0  0
    0.0030   -1.3749    0.0036 C   0  0  0  0  0  0  0  0  0  0  0  0
    0.0025   -2.3845    0.0085 H   0  0  0  0  0  0  0  0  0  0  0  0
    1.1870   -0.6912    0.0000 C   0  0  0  0  0  0  0  0  0  0  0  0
    2.0740   -1.1892   -0.0011 H   0  0  0  0  0  0  0  0  0  0  0  0
    1.1840    0.6872   -0.0002 C   0  0  0  0  0  0  0  0  0  0  0  0
    2.0586    1.1832   -0.0004 H   0  0  0  0  0  0  0  0  0  0  0  0
  1  5  1  0
  5  6  1  0
  5  7  2  0
  1  2  1  0
  1  3  1  0
  1  4  1  0
  8 12  1  0
 12 13  2  0
 13 15  1  0
 15 17  2  0
 17 19  1  0
 19 21  2  0
 21 12  1  0
  8  9  1  0
  8 10  1  0
  8 11  1  0
 13 14  1  0
 15 16  1  0
 17 18  1  0
 19 20  1  0
 21 22  1  0
M  CHG  1   6  -1
M  END
>  <PDB_ID>  (124) 
pdb4il2

>  <RESIDUE_NAME>  (124) 
GLU   PHE

>  <FRAG_NAME>  (124) 
ACET   MBZ

>  <FRAG_ATOM_NUM>  (124) 
fragi: 7  fragj: 15

>  <atom.prop.CHAIN_ID>  (124) 
A A A A A A A Z Z Z Z Z Z Z Z Z Z Z Z Z Z Z

>  <atom.prop.IS_HEAVY_ATOM>  (124) 
1 0 0 0 1 1 1 1 0 0 0 1 1 0 1 0 1 0 1 0 1 0

>  <DIFUSE_FUNC_ATOM>  (124) 
atom 6   atom 7   

>  <FINAL_SINGLE_POINT_ENERGY>  (124) 
0

>  <NONCOV_INTER_ENERGY_QM>  (124) 
0

>  <FF_Energy>  (124) 
14.85

>  <QM_Energy>  (124) 
-1.15

>  <source>  (124) 
ACET_MBZ_01

>  <Index>  (124) 
28701

$$$$
ACET-pdb3mad-B-GLU-170:MBZ-pdb3mad-B-PHE-350
     RDKit          3D

 22 21  0  0  0  0  0  0  0  0999 V2000
    3.9192    1.4048   -1.6208 C   0  0  0  0  0  0  0  0  0  0  0  0
    3.5618    0.7337   -2.2521 H   0  0  0  0  0  0  0  0  0  0  0  0
    3.4841    1.3327   -0.7363 H   0  0  0  0  0  0  0  0  0  0  0  0
    4.9844    1.2130   -1.4913 H   0  0  0  0  0  0  0  0  0  0  0  0
    3.6044    2.7710   -2.1763 C   0  0  0  0  0  0  0  0  0  0  0  0
    4.4261    3.6963   -2.0142 O   0  0  0  0  0  1  0  0  0  0  0  0
    2.5170    2.9194   -2.7725 O   0  0  0  0  0  0  0  0  0  0  0  0
   -0.0086    2.8853   -0.0010 C   0  0  0  0  0  0  0  0  0  0  0  0
    0.8804    3.2003   -0.2965 H   0  0  0  0  0  0  0  0  0  0  0  0
   -0.2122    3.1935    0.9167 H   0  0  0  0  0  0  0  0  0  0  0  0
   -0.7531    3.3177   -0.6694 H   0  0  0  0  0  0  0  0  0  0  0  0
   -0.0005    1.3923   -0.0023 C   0  0  0  0  0  0  0  0  0  0  0  0
   -1.1890    0.6859    0.0037 C   0  0  0  0  0  0  0  0  0  0  0  0
   -2.0590    1.1778    0.0096 H   0  0  0  0  0  0  0  0  0  0  0  0
   -1.1921   -0.6937    0.0000 C   0  0  0  0  0  0  0  0  0  0  0  0
   -2.0709   -1.1906   -0.0001 H   0  0  0  0  0  0  0  0  0  0  0  0
    0.0007   -1.3830   -0.0019 C   0  0  0  0  0  0  0  0  0  0  0  0
   -0.0020   -2.3860   -0.0049 H   0  0  0  0  0  0  0  0  0  0  0  0
    1.1921   -0.6919    0.0000 C   0  0  0  0  0  0  0  0  0  0  0  0
    2.0768   -1.1908    0.0025 H   0  0  0  0  0  0  0  0  0  0  0  0
    1.1888    0.6903    0.0005 C   0  0  0  0  0  0  0  0  0  0  0  0
    2.0590    1.1879    0.0024 H   0  0  0  0  0  0  0  0  0  0  0  0
  1  5  1  0
  5  6  1  0
  5  7  2  0
  1  2  1  0
  1  3  1  0
  1  4  1  0
  8 12  1  0
 12 13  2  0
 13 15  1  0
 15 17  2  0
 17 19  1  0
 19 21  2  0
 21 12  1  0
  8  9  1  0
  8 10  1  0
  8 11  1  0
 13 14  1  0
 15 16  1  0
 17 18  1  0
 19 20  1  0
 21 22  1  0
M  CHG  1   6  -1
M  END
>  <PDB_ID>  (125) 
pdb3mad

>  <RESIDUE_NAME>  (125) 
GLU   PHE

>  <FRAG_NAME>  (125) 
ACET   MBZ

>  <FRAG_ATOM_NUM>  (125) 
fragi: 7  fragj: 15

>  <atom.prop.CHAIN_ID>  (125) 
A A A A A A A Z Z Z Z Z Z Z Z Z Z Z Z Z Z Z

>  <atom.prop.IS_HEAVY_ATOM>  (125) 
1 0 0 0 1 1 1 1 0 0 0 1 1 0 1 0 1 0 1 0 1 0

>  <DIFUSE_FUNC_ATOM>  (125) 
atom 6   atom 7   

>  <FINAL_SINGLE_POINT_ENERGY>  (125) 
0

>  <NONCOV_INTER_ENERGY_QM>  (125) 
0

>  <FF_Energy>  (125) 
13.44

>  <QM_Energy>  (125) 
-0.84

>  <source>  (125) 
ACET_MBZ_01

>  <Index>  (125) 
30460

$$$$
ACET-pdb4jta-B-GLU-142:MBZ-pdb4jta-B-PHE-145
     RDKit          3D

 22 21  0  0  0  0  0  0  0  0999 V2000
    3.8149    5.2026   -0.7007 C   0  0  0  0  0  0  0  0  0  0  0  0
    3.1327    5.7824   -1.1444 H   0  0  0  0  0  0  0  0  0  0  0  0
    4.6813    5.2681   -1.1954 H   0  0  0  0  0  0  0  0  0  0  0  0
    3.9765    5.5913    0.3048 H   0  0  0  0  0  0  0  0  0  0  0  0
    3.3412    3.7844   -0.7961 C   0  0  0  0  0  0  0  0  0  0  0  0
    3.1334    3.0669    0.1712 O   0  0  0  0  0  1  0  0  0  0  0  0
    3.1950    3.4136   -1.9792 O   0  0  0  0  0  0  0  0  0  0  0  0
   -0.0063    2.9075   -0.0005 C   0  0  0  0  0  0  0  0  0  0  0  0
   -0.3933    3.2118   -0.8569 H   0  0  0  0  0  0  0  0  0  0  0  0
    0.9263    3.2178    0.1051 H   0  0  0  0  0  0  0  0  0  0  0  0
   -0.5956    3.3439    0.8059 H   0  0  0  0  0  0  0  0  0  0  0  0
    0.0003    1.4035   -0.0003 C   0  0  0  0  0  0  0  0  0  0  0  0
   -1.1978    0.6933   -0.0005 C   0  0  0  0  0  0  0  0  0  0  0  0
   -2.0646    1.1853   -0.0021 H   0  0  0  0  0  0  0  0  0  0  0  0
   -1.2048   -0.6978   -0.0000 C   0  0  0  0  0  0  0  0  0  0  0  0
   -2.0808   -1.1908    0.0016 H   0  0  0  0  0  0  0  0  0  0  0  0
   -0.0021   -1.3965    0.0004 C   0  0  0  0  0  0  0  0  0  0  0  0
   -0.0060   -2.3936    0.0005 H   0  0  0  0  0  0  0  0  0  0  0  0
    1.2048   -0.6992    0.0000 C   0  0  0  0  0  0  0  0  0  0  0  0
    2.0838   -1.1962    0.0005 H   0  0  0  0  0  0  0  0  0  0  0  0
    1.1996    0.6968    0.0005 C   0  0  0  0  0  0  0  0  0  0  0  0
    2.0668    1.1917    0.0009 H   0  0  0  0  0  0  0  0  0  0  0  0
  1  5  1  0
  5  6  1  0
  5  7  2  0
  1  2  1  0
  1  3  1  0
  1  4  1  0
  8 12  1  0
 12 13  2  0
 13 15  1  0
 15 17  2  0
 17 19  1  0
 19 21  2  0
 21 12  1  0
  8  9  1  0
  8 10  1  0
  8 11  1  0
 13 14  1  0
 15 16  1  0
 17 18  1  0
 19 20  1  0
 21 22  1  0
M  CHG  1   6  -1
M  END
>  <PDB_ID>  (126) 
pdb4jta

>  <RESIDUE_NAME>  (126) 
GLU   PHE

>  <FRAG_NAME>  (126) 
ACET   MBZ

>  <FRAG_ATOM_NUM>  (126) 
fragi: 7  fragj: 15

>  <atom.prop.CHAIN_ID>  (126) 
A A A A A A A Z Z Z Z Z Z Z Z Z Z Z Z Z Z Z

>  <atom.prop.IS_HEAVY_ATOM>  (126) 
1 0 0 0 1 1 1 1 0 0 0 1 1 0 1 0 1 0 1 0 1 0

>  <DIFUSE_FUNC_ATOM>  (126) 
atom 6   atom 7   

>  <FINAL_SINGLE_POINT_ENERGY>  (126) 
0

>  <NONCOV_INTER_ENERGY_QM>  (126) 
0

>  <FF_Energy>  (126) 
2.38

>  <QM_Energy>  (126) 
-8.24

>  <source>  (126) 
ACET_MBZ_01

>  <Index>  (126) 
31416

$$$$
ACET-pdb3msv-A-GLU-31:MBZ-pdb3msv-A-PHE-249
     RDKit          3D

 22 21  0  0  0  0  0  0  0  0999 V2000
   -4.1209    1.8362   -0.1681 C   0  0  0  0  0  0  0  0  0  0  0  0
   -3.5929    1.8548    0.6607 H   0  0  0  0  0  0  0  0  0  0  0  0
   -3.6531    1.3719   -0.8973 H   0  0  0  0  0  0  0  0  0  0  0  0
   -5.0606    1.3202    0.0291 H   0  0  0  0  0  0  0  0  0  0  0  0
   -4.3355    3.2650   -0.6039 C   0  0  0  0  0  0  0  0  0  0  0  0
   -5.3147    3.8825   -0.1403 O   0  0  0  0  0  1  0  0  0  0  0  0
   -3.5126    3.7692   -1.3963 O   0  0  0  0  0  0  0  0  0  0  0  0
   -0.0043    2.8917   -0.0069 C   0  0  0  0  0  0  0  0  0  0  0  0
    0.9147    3.2062    0.1796 H   0  0  0  0  0  0  0  0  0  0  0  0
   -0.6378    3.2019    0.6870 H   0  0  0  0  0  0  0  0  0  0  0  0
   -0.3163    3.3237   -0.9578 H   0  0  0  0  0  0  0  0  0  0  0  0
    0.0019    1.3992   -0.0009 C   0  0  0  0  0  0  0  0  0  0  0  0
   -1.1959    0.6903    0.0016 C   0  0  0  0  0  0  0  0  0  0  0  0
   -2.0615    1.1808    0.0029 H   0  0  0  0  0  0  0  0  0  0  0  0
   -1.2010   -0.7018   -0.0000 C   0  0  0  0  0  0  0  0  0  0  0  0
   -2.0771   -1.1946    0.0010 H   0  0  0  0  0  0  0  0  0  0  0  0
   -0.0006   -1.3935   -0.0014 C   0  0  0  0  0  0  0  0  0  0  0  0
    0.0001   -2.3922   -0.0035 H   0  0  0  0  0  0  0  0  0  0  0  0
    1.2010   -0.6936    0.0000 C   0  0  0  0  0  0  0  0  0  0  0  0
    2.0827   -1.1894    0.0018 H   0  0  0  0  0  0  0  0  0  0  0  0
    1.1946    0.6994    0.0007 C   0  0  0  0  0  0  0  0  0  0  0  0
    2.0634    1.1940    0.0012 H   0  0  0  0  0  0  0  0  0  0  0  0
  1  5  1  0
  5  6  1  0
  5  7  2  0
  1  2  1  0
  1  3  1  0
  1  4  1  0
  8 12  1  0
 12 13  2  0
 13 15  1  0
 15 17  2  0
 17 19  1  0
 19 21  2  0
 21 12  1  0
  8  9  1  0
  8 10  1  0
  8 11  1  0
 13 14  1  0
 15 16  1  0
 17 18  1  0
 19 20  1  0
 21 22  1  0
M  CHG  1   6  -1
M  END
>  <PDB_ID>  (127) 
pdb3msv

>  <RESIDUE_NAME>  (127) 
GLU   PHE

>  <FRAG_NAME>  (127) 
ACET   MBZ

>  <FRAG_ATOM_NUM>  (127) 
fragi: 7  fragj: 15

>  <atom.prop.CHAIN_ID>  (127) 
A A A A A A A Z Z Z Z Z Z Z Z Z Z Z Z Z Z Z

>  <atom.prop.IS_HEAVY_ATOM>  (127) 
1 0 0 0 1 1 1 1 0 0 0 1 1 0 1 0 1 0 1 0 1 0

>  <DIFUSE_FUNC_ATOM>  (127) 
atom 6   atom 7   

>  <FINAL_SINGLE_POINT_ENERGY>  (127) 
0

>  <NONCOV_INTER_ENERGY_QM>  (127) 
0

>  <FF_Energy>  (127) 
13.13

>  <QM_Energy>  (127) 
-0.75

>  <source>  (127) 
ACET_MBZ_01

>  <Index>  (127) 
31550

$$$$
ACET-pdb3msy-C-GLU-319:MBZ-pdb3msy-C-PHE-340
     RDKit          3D

 22 21  0  0  0  0  0  0  0  0999 V2000
    1.3539   -3.8372   -1.9226 C   0  0  0  0  0  0  0  0  0  0  0  0
    0.9391   -2.9599   -2.0620 H   0  0  0  0  0  0  0  0  0  0  0  0
    0.8480   -4.5658   -2.3394 H   0  0  0  0  0  0  0  0  0  0  0  0
    2.3553   -3.8185   -2.3529 H   0  0  0  0  0  0  0  0  0  0  0  0
    1.3704   -4.0989   -0.4172 C   0  0  0  0  0  0  0  0  0  0  0  0
    2.0712   -3.3687    0.3225 O   0  0  0  0  0  1  0  0  0  0  0  0
    0.6795   -5.0263    0.0418 O   0  0  0  0  0  0  0  0  0  0  0  0
    0.0050    2.8886   -0.0008 C   0  0  0  0  0  0  0  0  0  0  0  0
    0.8871    3.1980    0.3283 H   0  0  0  0  0  0  0  0  0  0  0  0
   -0.7249    3.2018    0.5911 H   0  0  0  0  0  0  0  0  0  0  0  0
   -0.1547    3.3302   -0.9844 H   0  0  0  0  0  0  0  0  0  0  0  0
    0.0017    1.3976    0.0003 C   0  0  0  0  0  0  0  0  0  0  0  0
   -1.1987    0.6917   -0.0010 C   0  0  0  0  0  0  0  0  0  0  0  0
   -2.0624    1.1821   -0.0041 H   0  0  0  0  0  0  0  0  0  0  0  0
   -1.2007   -0.6996   -0.0000 C   0  0  0  0  0  0  0  0  0  0  0  0
   -2.0769   -1.1937    0.0018 H   0  0  0  0  0  0  0  0  0  0  0  0
   -0.0008   -1.3885    0.0003 C   0  0  0  0  0  0  0  0  0  0  0  0
   -0.0003   -2.3893   -0.0002 H   0  0  0  0  0  0  0  0  0  0  0  0
    1.2007   -0.6919    0.0000 C   0  0  0  0  0  0  0  0  0  0  0  0
    2.0808   -1.1943    0.0011 H   0  0  0  0  0  0  0  0  0  0  0  0
    1.1979    0.6908    0.0005 C   0  0  0  0  0  0  0  0  0  0  0  0
    2.0654    1.1900   -0.0002 H   0  0  0  0  0  0  0  0  0  0  0  0
  1  5  1  0
  5  6  1  0
  5  7  2  0
  1  2  1  0
  1  3  1  0
  1  4  1  0
  8 12  1  0
 12 13  2  0
 13 15  1  0
 15 17  2  0
 17 19  1  0
 19 21  2  0
 21 12  1  0
  8  9  1  0
  8 10  1  0
  8 11  1  0
 13 14  1  0
 15 16  1  0
 17 18  1  0
 19 20  1  0
 21 22  1  0
M  CHG  1   6  -1
M  END
>  <PDB_ID>  (128) 
pdb3msy

>  <RESIDUE_NAME>  (128) 
GLU   PHE

>  <FRAG_NAME>  (128) 
ACET   MBZ

>  <FRAG_ATOM_NUM>  (128) 
fragi: 7  fragj: 15

>  <atom.prop.CHAIN_ID>  (128) 
A A A A A A A Z Z Z Z Z Z Z Z Z Z Z Z Z Z Z

>  <atom.prop.IS_HEAVY_ATOM>  (128) 
1 0 0 0 1 1 1 1 0 0 0 1 1 0 1 0 1 0 1 0 1 0

>  <DIFUSE_FUNC_ATOM>  (128) 
atom 6   atom 7   

>  <FINAL_SINGLE_POINT_ENERGY>  (128) 
0

>  <NONCOV_INTER_ENERGY_QM>  (128) 
0

>  <FF_Energy>  (128) 
8.47

>  <QM_Energy>  (128) 
-3.68

>  <source>  (128) 
ACET_MBZ_01

>  <Index>  (128) 
31565

$$$$
ACET-pdb3mmy-G-GLU-33:MBZ-pdb3mmy-G-PHE-354
     RDKit          3D

 22 21  0  0  0  0  0  0  0  0999 V2000
    4.4803   -0.7584    0.4983 C   0  0  0  0  0  0  0  0  0  0  0  0
    3.5065   -0.6397    0.6144 H   0  0  0  0  0  0  0  0  0  0  0  0
    4.8026   -0.3184   -0.3252 H   0  0  0  0  0  0  0  0  0  0  0  0
    4.9824   -0.2996    1.3502 H   0  0  0  0  0  0  0  0  0  0  0  0
    4.7438   -2.2485    0.3502 C   0  0  0  0  0  0  0  0  0  0  0  0
    5.2576   -2.8611    1.3106 O   0  0  0  0  0  1  0  0  0  0  0  0
    4.4200   -2.8092   -0.7318 O   0  0  0  0  0  0  0  0  0  0  0  0
    0.0062    2.9078   -0.0052 C   0  0  0  0  0  0  0  0  0  0  0  0
   -0.9348    3.2154    0.0155 H   0  0  0  0  0  0  0  0  0  0  0  0
    0.4587    3.2046   -0.8355 H   0  0  0  0  0  0  0  0  0  0  0  0
    0.5247    3.3638    0.8382 H   0  0  0  0  0  0  0  0  0  0  0  0
    0.0036    1.4047    0.0102 C   0  0  0  0  0  0  0  0  0  0  0  0
   -1.1993    0.6951    0.0013 C   0  0  0  0  0  0  0  0  0  0  0  0
   -2.0627    1.1793   -0.0048 H   0  0  0  0  0  0  0  0  0  0  0  0
   -1.1920   -0.7018    0.0000 C   0  0  0  0  0  0  0  0  0  0  0  0
   -2.0696   -1.1973    0.0060 H   0  0  0  0  0  0  0  0  0  0  0  0
    0.0072   -1.3894   -0.0073 C   0  0  0  0  0  0  0  0  0  0  0  0
    0.0024   -2.3923   -0.0182 H   0  0  0  0  0  0  0  0  0  0  0  0
    1.1920   -0.6977   -0.0000 C   0  0  0  0  0  0  0  0  0  0  0  0
    2.0809   -1.1913    0.0101 H   0  0  0  0  0  0  0  0  0  0  0  0
    1.1884    0.6891   -0.0042 C   0  0  0  0  0  0  0  0  0  0  0  0
    2.0641    1.1828   -0.0185 H   0  0  0  0  0  0  0  0  0  0  0  0
  1  5  1  0
  5  6  1  0
  5  7  2  0
  1  2  1  0
  1  3  1  0
  1  4  1  0
  8 12  1  0
 12 13  2  0
 13 15  1  0
 15 17  2  0
 17 19  1  0
 19 21  2  0
 21 12  1  0
  8  9  1  0
  8 10  1  0
  8 11  1  0
 13 14  1  0
 15 16  1  0
 17 18  1  0
 19 20  1  0
 21 22  1  0
M  CHG  1   6  -1
M  END
>  <PDB_ID>  (129) 
pdb3mmy

>  <RESIDUE_NAME>  (129) 
GLU   PHE

>  <FRAG_NAME>  (129) 
ACET   MBZ

>  <FRAG_ATOM_NUM>  (129) 
fragi: 7  fragj: 15

>  <atom.prop.CHAIN_ID>  (129) 
A A A A A A A Z Z Z Z Z Z Z Z Z Z Z Z Z Z Z

>  <atom.prop.IS_HEAVY_ATOM>  (129) 
1 0 0 0 1 1 1 1 0 0 0 1 1 0 1 0 1 0 1 0 1 0

>  <DIFUSE_FUNC_ATOM>  (129) 
atom 6   atom 7   

>  <FINAL_SINGLE_POINT_ENERGY>  (129) 
0

>  <NONCOV_INTER_ENERGY_QM>  (129) 
0

>  <FF_Energy>  (129) 
10.44

>  <QM_Energy>  (129) 
-0.7

>  <source>  (129) 
ACET_MBZ_01

>  <Index>  (129) 
31748

$$$$
ACET-pdb4lrz-E-GLU-276:MBZ-pdb4lrz-E-PHE-281
     RDKit          3D

 22 21  0  0  0  0  0  0  0  0999 V2000
    5.8727   -0.2411   -1.0895 C   0  0  0  0  0  0  0  0  0  0  0  0
    6.7547   -0.5999   -1.3399 H   0  0  0  0  0  0  0  0  0  0  0  0
    5.9316    0.6844   -0.7586 H   0  0  0  0  0  0  0  0  0  0  0  0
    5.2475   -0.2387   -1.9824 H   0  0  0  0  0  0  0  0  0  0  0  0
    5.3287   -1.1046    0.0491 C   0  0  0  0  0  0  0  0  0  0  0  0
    4.1048   -1.3794    0.0843 O   0  0  0  0  0  1  0  0  0  0  0  0
    6.1381   -1.4933    0.9256 O   0  0  0  0  0  0  0  0  0  0  0  0
   -0.0304    2.9449   -0.0101 C   0  0  0  0  0  0  0  0  0  0  0  0
   -0.0721    3.2501    0.9294 H   0  0  0  0  0  0  0  0  0  0  0  0
   -0.8325    3.2251   -0.5152 H   0  0  0  0  0  0  0  0  0  0  0  0
    0.8356    3.4168   -0.4743 H   0  0  0  0  0  0  0  0  0  0  0  0
   -0.0011    1.4166    0.0010 C   0  0  0  0  0  0  0  0  0  0  0  0
   -1.2129    0.6922   -0.0035 C   0  0  0  0  0  0  0  0  0  0  0  0
   -2.0754    1.1839   -0.0107 H   0  0  0  0  0  0  0  0  0  0  0  0
   -1.2205   -0.7101    0.0000 C   0  0  0  0  0  0  0  0  0  0  0  0
   -2.0873   -1.2039    0.0023 H   0  0  0  0  0  0  0  0  0  0  0  0
    0.0003   -1.4071    0.0026 C   0  0  0  0  0  0  0  0  0  0  0  0
    0.0031   -2.4007    0.0058 H   0  0  0  0  0  0  0  0  0  0  0  0
    1.2205   -0.6974   -0.0000 C   0  0  0  0  0  0  0  0  0  0  0  0
    2.0948   -1.1954   -0.0002 H   0  0  0  0  0  0  0  0  0  0  0  0
    1.2137    0.7058   -0.0001 C   0  0  0  0  0  0  0  0  0  0  0  0
    2.0738    1.2035   -0.0016 H   0  0  0  0  0  0  0  0  0  0  0  0
  1  5  1  0
  5  6  1  0
  5  7  2  0
  1  2  1  0
  1  3  1  0
  1  4  1  0
  8 12  1  0
 12 13  2  0
 13 15  1  0
 15 17  2  0
 17 19  1  0
 19 21  2  0
 21 12  1  0
  8  9  1  0
  8 10  1  0
  8 11  1  0
 13 14  1  0
 15 16  1  0
 17 18  1  0
 19 20  1  0
 21 22  1  0
M  CHG  1   6  -1
M  END
>  <PDB_ID>  (130) 
pdb4lrz

>  <RESIDUE_NAME>  (130) 
GLU   PHE

>  <FRAG_NAME>  (130) 
ACET   MBZ

>  <FRAG_ATOM_NUM>  (130) 
fragi: 7  fragj: 15

>  <atom.prop.CHAIN_ID>  (130) 
A A A A A A A Z Z Z Z Z Z Z Z Z Z Z Z Z Z Z

>  <atom.prop.IS_HEAVY_ATOM>  (130) 
1 0 0 0 1 1 1 1 0 0 0 1 1 0 1 0 1 0 1 0 1 0

>  <DIFUSE_FUNC_ATOM>  (130) 
atom 6   atom 7   

>  <FINAL_SINGLE_POINT_ENERGY>  (130) 
0

>  <NONCOV_INTER_ENERGY_QM>  (130) 
0

>  <FF_Energy>  (130) 
4.02

>  <QM_Energy>  (130) 
-6.13

>  <source>  (130) 
ACET_MBZ_01

>  <Index>  (130) 
34933

$$$$
ACET-pdb4n8x-D-GLU-89:MBZ-pdb4n8x-E-PHE-52
     RDKit          3D

 22 21  0  0  0  0  0  0  0  0999 V2000
    2.8510    0.5608   -3.9452 C   0  0  0  0  0  0  0  0  0  0  0  0
    3.3359    0.0262   -4.6149 H   0  0  0  0  0  0  0  0  0  0  0  0
    2.6646    1.4728   -4.2648 H   0  0  0  0  0  0  0  0  0  0  0  0
    1.8967    0.0707   -3.7523 H   0  0  0  0  0  0  0  0  0  0  0  0
    3.7395    0.6756   -2.7139 C   0  0  0  0  0  0  0  0  0  0  0  0
    4.9407    0.9962   -2.8639 O   0  0  0  0  0  1  0  0  0  0  0  0
    3.2373    0.4581   -1.5939 O   0  0  0  0  0  0  0  0  0  0  0  0
   -0.0031    2.9082    0.0068 C   0  0  0  0  0  0  0  0  0  0  0  0
   -0.4141    3.2176   -0.8351 H   0  0  0  0  0  0  0  0  0  0  0  0
    0.9294    3.2192    0.0938 H   0  0  0  0  0  0  0  0  0  0  0  0
   -0.5740    3.3341    0.8319 H   0  0  0  0  0  0  0  0  0  0  0  0
    0.0035    1.4064    0.0001 C   0  0  0  0  0  0  0  0  0  0  0  0
   -1.1986    0.6956   -0.0020 C   0  0  0  0  0  0  0  0  0  0  0  0
   -2.0630    1.1859   -0.0063 H   0  0  0  0  0  0  0  0  0  0  0  0
   -1.2050   -0.7011    0.0000 C   0  0  0  0  0  0  0  0  0  0  0  0
   -2.0830   -1.1902    0.0040 H   0  0  0  0  0  0  0  0  0  0  0  0
   -0.0043   -1.3997   -0.0013 C   0  0  0  0  0  0  0  0  0  0  0  0
   -0.0045   -2.3964   -0.0033 H   0  0  0  0  0  0  0  0  0  0  0  0
    1.2050   -0.6985   -0.0000 C   0  0  0  0  0  0  0  0  0  0  0  0
    2.0831   -1.1963   -0.0001 H   0  0  0  0  0  0  0  0  0  0  0  0
    1.1993    0.6973    0.0032 C   0  0  0  0  0  0  0  0  0  0  0  0
    2.0684    1.1913    0.0070 H   0  0  0  0  0  0  0  0  0  0  0  0
  1  5  1  0
  5  6  1  0
  5  7  2  0
  1  2  1  0
  1  3  1  0
  1  4  1  0
  8 12  1  0
 12 13  2  0
 13 15  1  0
 15 17  2  0
 17 19  1  0
 19 21  2  0
 21 12  1  0
  8  9  1  0
  8 10  1  0
  8 11  1  0
 13 14  1  0
 15 16  1  0
 17 18  1  0
 19 20  1  0
 21 22  1  0
M  CHG  1   6  -1
M  END
>  <PDB_ID>  (131) 
pdb4n8x

>  <RESIDUE_NAME>  (131) 
GLU   PHE

>  <FRAG_NAME>  (131) 
ACET   MBZ

>  <FRAG_ATOM_NUM>  (131) 
fragi: 7  fragj: 15

>  <atom.prop.CHAIN_ID>  (131) 
A A A A A A A Z Z Z Z Z Z Z Z Z Z Z Z Z Z Z

>  <atom.prop.IS_HEAVY_ATOM>  (131) 
1 0 0 0 1 1 1 1 0 0 0 1 1 0 1 0 1 0 1 0 1 0

>  <DIFUSE_FUNC_ATOM>  (131) 
atom 6   atom 7   

>  <FINAL_SINGLE_POINT_ENERGY>  (131) 
0

>  <NONCOV_INTER_ENERGY_QM>  (131) 
0

>  <FF_Energy>  (131) 
8.3

>  <QM_Energy>  (131) 
-2.16

>  <source>  (131) 
ACET_MBZ_01

>  <Index>  (131) 
38108

$$$$
ACET-pdb4ntw-A-ASP-312:MBZ-pdb4ntw-A-PHE-300
     RDKit          3D

 22 21  0  0  0  0  0  0  0  0999 V2000
    5.2467    1.7845   -1.2545 C   0  0  0  0  0  0  0  0  0  0  0  0
    6.1225    2.1903   -1.4978 H   0  0  0  0  0  0  0  0  0  0  0  0
    5.0664    0.9889   -1.8234 H   0  0  0  0  0  0  0  0  0  0  0  0
    5.3132    1.4457   -0.2206 H   0  0  0  0  0  0  0  0  0  0  0  0
    4.1537    2.8052   -1.4747 C   0  0  0  0  0  0  0  0  0  0  0  0
    3.1800    2.8171   -0.6974 O   0  0  0  0  0  1  0  0  0  0  0  0
    4.2563    3.5886   -2.4481 O   0  0  0  0  0  0  0  0  0  0  0  0
   -0.0020    2.8997    0.0017 C   0  0  0  0  0  0  0  0  0  0  0  0
    0.9357    3.2088    0.0026 H   0  0  0  0  0  0  0  0  0  0  0  0
   -0.4854    3.2038    0.8072 H   0  0  0  0  0  0  0  0  0  0  0  0
   -0.4953    3.3359   -0.8669 H   0  0  0  0  0  0  0  0  0  0  0  0
    0.0018    1.3972   -0.0009 C   0  0  0  0  0  0  0  0  0  0  0  0
   -1.1946    0.6882    0.0036 C   0  0  0  0  0  0  0  0  0  0  0  0
   -2.0599    1.1847    0.0079 H   0  0  0  0  0  0  0  0  0  0  0  0
   -1.1997   -0.6906    0.0000 C   0  0  0  0  0  0  0  0  0  0  0  0
   -2.0776   -1.1882   -0.0020 H   0  0  0  0  0  0  0  0  0  0  0  0
   -0.0034   -1.3868    0.0004 C   0  0  0  0  0  0  0  0  0  0  0  0
   -0.0093   -2.3876    0.0005 H   0  0  0  0  0  0  0  0  0  0  0  0
    1.1997   -0.6963   -0.0000 C   0  0  0  0  0  0  0  0  0  0  0  0
    2.0781   -1.1976    0.0030 H   0  0  0  0  0  0  0  0  0  0  0  0
    1.1961    0.6884   -0.0031 C   0  0  0  0  0  0  0  0  0  0  0  0
    2.0653    1.1868   -0.0079 H   0  0  0  0  0  0  0  0  0  0  0  0
  1  5  1  0
  5  6  1  0
  5  7  2  0
  1  2  1  0
  1  3  1  0
  1  4  1  0
  8 12  1  0
 12 13  2  0
 13 15  1  0
 15 17  2  0
 17 19  1  0
 19 21  2  0
 21 12  1  0
  8  9  1  0
  8 10  1  0
  8 11  1  0
 13 14  1  0
 15 16  1  0
 17 18  1  0
 19 20  1  0
 21 22  1  0
M  CHG  1   6  -1
M  END
>  <PDB_ID>  (132) 
pdb4ntw

>  <RESIDUE_NAME>  (132) 
ASP   PHE

>  <FRAG_NAME>  (132) 
ACET   MBZ

>  <FRAG_ATOM_NUM>  (132) 
fragi: 7  fragj: 15

>  <atom.prop.CHAIN_ID>  (132) 
A A A A A A A Z Z Z Z Z Z Z Z Z Z Z Z Z Z Z

>  <atom.prop.IS_HEAVY_ATOM>  (132) 
1 0 0 0 1 1 1 1 0 0 0 1 1 0 1 0 1 0 1 0 1 0

>  <DIFUSE_FUNC_ATOM>  (132) 
atom 6   atom 7   

>  <FINAL_SINGLE_POINT_ENERGY>  (132) 
0

>  <NONCOV_INTER_ENERGY_QM>  (132) 
0

>  <FF_Energy>  (132) 
2.59

>  <QM_Energy>  (132) 
-7.81

>  <source>  (132) 
ACET_MBZ_01

>  <Index>  (132) 
39350

$$$$
ACET-pdb3q15-D-GLU-110:MBZ-pdb3q15-D-PHE-102
     RDKit          3D

 22 21  0  0  0  0  0  0  0  0999 V2000
   -4.0527   -2.5165    0.4363 C   0  0  0  0  0  0  0  0  0  0  0  0
   -3.0792   -2.3817    0.4364 H   0  0  0  0  0  0  0  0  0  0  0  0
   -4.3257   -3.2636   -0.1414 H   0  0  0  0  0  0  0  0  0  0  0  0
   -4.3652   -2.7410    1.4561 H   0  0  0  0  0  0  0  0  0  0  0  0
   -4.6916   -1.2550   -0.1130 C   0  0  0  0  0  0  0  0  0  0  0  0
   -5.6679   -0.7644    0.4920 O   0  0  0  0  0  1  0  0  0  0  0  0
   -4.2146   -0.7516   -1.1522 O   0  0  0  0  0  0  0  0  0  0  0  0
   -0.0034    2.8963    0.0045 C   0  0  0  0  0  0  0  0  0  0  0  0
    0.8995    3.2035    0.2650 H   0  0  0  0  0  0  0  0  0  0  0  0
   -0.6867    3.1980    0.6528 H   0  0  0  0  0  0  0  0  0  0  0  0
   -0.2413    3.3408   -0.9619 H   0  0  0  0  0  0  0  0  0  0  0  0
    0.0007    1.3939   -0.0020 C   0  0  0  0  0  0  0  0  0  0  0  0
   -1.1915    0.6858    0.0020 C   0  0  0  0  0  0  0  0  0  0  0  0
   -2.0593    1.1788    0.0047 H   0  0  0  0  0  0  0  0  0  0  0  0
   -1.1942   -0.6937    0.0000 C   0  0  0  0  0  0  0  0  0  0  0  0
   -2.0730   -1.1904    0.0006 H   0  0  0  0  0  0  0  0  0  0  0  0
   -0.0010   -1.3832   -0.0006 C   0  0  0  0  0  0  0  0  0  0  0  0
   -0.0036   -2.3855   -0.0019 H   0  0  0  0  0  0  0  0  0  0  0  0
    1.1942   -0.6916    0.0000 C   0  0  0  0  0  0  0  0  0  0  0  0
    2.0765   -1.1933    0.0015 H   0  0  0  0  0  0  0  0  0  0  0  0
    1.1919    0.6888    0.0006 C   0  0  0  0  0  0  0  0  0  0  0  0
    2.0611    1.1872    0.0018 H   0  0  0  0  0  0  0  0  0  0  0  0
  1  5  1  0
  5  6  1  0
  5  7  2  0
  1  2  1  0
  1  3  1  0
  1  4  1  0
  8 12  1  0
 12 13  2  0
 13 15  1  0
 15 17  2  0
 17 19  1  0
 19 21  2  0
 21 12  1  0
  8  9  1  0
  8 10  1  0
  8 11  1  0
 13 14  1  0
 15 16  1  0
 17 18  1  0
 19 20  1  0
 21 22  1  0
M  CHG  1   6  -1
M  END
>  <PDB_ID>  (133) 
pdb3q15

>  <RESIDUE_NAME>  (133) 
GLU   PHE

>  <FRAG_NAME>  (133) 
ACET   MBZ

>  <FRAG_ATOM_NUM>  (133) 
fragi: 7  fragj: 15

>  <atom.prop.CHAIN_ID>  (133) 
A A A A A A A Z Z Z Z Z Z Z Z Z Z Z Z Z Z Z

>  <atom.prop.IS_HEAVY_ATOM>  (133) 
1 0 0 0 1 1 1 1 0 0 0 1 1 0 1 0 1 0 1 0 1 0

>  <DIFUSE_FUNC_ATOM>  (133) 
atom 6   atom 7   

>  <FINAL_SINGLE_POINT_ENERGY>  (133) 
0

>  <NONCOV_INTER_ENERGY_QM>  (133) 
0

>  <FF_Energy>  (133) 
12.31

>  <QM_Energy>  (133) 
-2.17

>  <source>  (133) 
ACET_MBZ_01

>  <Index>  (133) 
39530

$$$$
ACET-pdb3q6a-D-GLU-94:MBZ-pdb3q6a-D-PHE-97
     RDKit          3D

 22 21  0  0  0  0  0  0  0  0999 V2000
    2.7255   -3.6687   -0.2482 C   0  0  0  0  0  0  0  0  0  0  0  0
    2.4204   -2.7408   -0.3858 H   0  0  0  0  0  0  0  0  0  0  0  0
    2.9788   -4.0997   -1.0979 H   0  0  0  0  0  0  0  0  0  0  0  0
    3.6048   -3.6436    0.3954 H   0  0  0  0  0  0  0  0  0  0  0  0
    1.5619   -4.4535    0.3339 C   0  0  0  0  0  0  0  0  0  0  0  0
    1.4306   -4.5339    1.5714 O   0  0  0  0  0  1  0  0  0  0  0  0
    0.7606   -4.9785   -0.4644 O   0  0  0  0  0  0  0  0  0  0  0  0
   -0.0031    2.8969    0.0141 C   0  0  0  0  0  0  0  0  0  0  0  0
    0.8525    3.2033    0.4058 H   0  0  0  0  0  0  0  0  0  0  0  0
   -0.7742    3.1985    0.5568 H   0  0  0  0  0  0  0  0  0  0  0  0
   -0.0960    3.3466   -0.9745 H   0  0  0  0  0  0  0  0  0  0  0  0
   -0.0000    1.3983    0.0016 C   0  0  0  0  0  0  0  0  0  0  0  0
   -1.1928    0.6917   -0.0007 C   0  0  0  0  0  0  0  0  0  0  0  0
   -2.0609    1.1833   -0.0039 H   0  0  0  0  0  0  0  0  0  0  0  0
   -1.1999   -0.6946    0.0000 C   0  0  0  0  0  0  0  0  0  0  0  0
   -2.0782   -1.1878    0.0025 H   0  0  0  0  0  0  0  0  0  0  0  0
   -0.0017   -1.3933   -0.0009 C   0  0  0  0  0  0  0  0  0  0  0  0
   -0.0049   -2.3906   -0.0026 H   0  0  0  0  0  0  0  0  0  0  0  0
    1.1999   -0.6950   -0.0000 C   0  0  0  0  0  0  0  0  0  0  0  0
    2.0811   -1.1943    0.0025 H   0  0  0  0  0  0  0  0  0  0  0  0
    1.1946    0.6929   -0.0000 C   0  0  0  0  0  0  0  0  0  0  0  0
    2.0630    1.1903   -0.0021 H   0  0  0  0  0  0  0  0  0  0  0  0
  1  5  1  0
  5  6  1  0
  5  7  2  0
  1  2  1  0
  1  3  1  0
  1  4  1  0
  8 12  1  0
 12 13  2  0
 13 15  1  0
 15 17  2  0
 17 19  1  0
 19 21  2  0
 21 12  1  0
  8  9  1  0
  8 10  1  0
  8 11  1  0
 13 14  1  0
 15 16  1  0
 17 18  1  0
 19 20  1  0
 21 22  1  0
M  CHG  1   6  -1
M  END
>  <PDB_ID>  (134) 
pdb3q6a

>  <RESIDUE_NAME>  (134) 
GLU   PHE

>  <FRAG_NAME>  (134) 
ACET   MBZ

>  <FRAG_ATOM_NUM>  (134) 
fragi: 7  fragj: 15

>  <atom.prop.CHAIN_ID>  (134) 
A A A A A A A Z Z Z Z Z Z Z Z Z Z Z Z Z Z Z

>  <atom.prop.IS_HEAVY_ATOM>  (134) 
1 0 0 0 1 1 1 1 0 0 0 1 1 0 1 0 1 0 1 0 1 0

>  <DIFUSE_FUNC_ATOM>  (134) 
atom 6   atom 7   

>  <FINAL_SINGLE_POINT_ENERGY>  (134) 
0

>  <NONCOV_INTER_ENERGY_QM>  (134) 
0

>  <FF_Energy>  (134) 
10.78

>  <QM_Energy>  (134) 
-1.37

>  <source>  (134) 
ACET_MBZ_02

>  <Index>  (134) 
152

$$$$
ACET-pdb4ork-C-GLU-145:MBZ-pdb4ork-D-PHE-23
     RDKit          3D

 22 21  0  0  0  0  0  0  0  0999 V2000
   -5.2837    1.2299    0.2511 C   0  0  0  0  0  0  0  0  0  0  0  0
   -6.0421    1.3191    0.8688 H   0  0  0  0  0  0  0  0  0  0  0  0
   -4.7364    0.4370    0.4424 H   0  0  0  0  0  0  0  0  0  0  0  0
   -5.6727    1.1471   -0.7637 H   0  0  0  0  0  0  0  0  0  0  0  0
   -4.4046    2.4444    0.4282 C   0  0  0  0  0  0  0  0  0  0  0  0
   -3.4525    2.6041   -0.3515 O   0  0  0  0  0  1  0  0  0  0  0  0
   -4.6561    3.2413    1.3617 O   0  0  0  0  0  0  0  0  0  0  0  0
    0.0018    2.9290    0.0089 C   0  0  0  0  0  0  0  0  0  0  0  0
    0.9390    3.2246    0.0924 H   0  0  0  0  0  0  0  0  0  0  0  0
   -0.5432    3.2238    0.7771 H   0  0  0  0  0  0  0  0  0  0  0  0
   -0.4149    3.3790   -0.8922 H   0  0  0  0  0  0  0  0  0  0  0  0
   -0.0004    1.4050    0.0004 C   0  0  0  0  0  0  0  0  0  0  0  0
   -1.1937    0.6909    0.0014 C   0  0  0  0  0  0  0  0  0  0  0  0
   -2.0625    1.1840    0.0017 H   0  0  0  0  0  0  0  0  0  0  0  0
   -1.2027   -0.6955    0.0000 C   0  0  0  0  0  0  0  0  0  0  0  0
   -2.0796   -1.1895    0.0047 H   0  0  0  0  0  0  0  0  0  0  0  0
   -0.0014   -1.3973   -0.0052 C   0  0  0  0  0  0  0  0  0  0  0  0
   -0.0056   -2.3932   -0.0128 H   0  0  0  0  0  0  0  0  0  0  0  0
    1.2027   -0.6980   -0.0000 C   0  0  0  0  0  0  0  0  0  0  0  0
    2.0831   -1.1941    0.0031 H   0  0  0  0  0  0  0  0  0  0  0  0
    1.1954    0.6948    0.0035 C   0  0  0  0  0  0  0  0  0  0  0  0
    2.0643    1.1913    0.0075 H   0  0  0  0  0  0  0  0  0  0  0  0
  1  5  1  0
  5  6  1  0
  5  7  2  0
  1  2  1  0
  1  3  1  0
  1  4  1  0
  8 12  1  0
 12 13  2  0
 13 15  1  0
 15 17  2  0
 17 19  1  0
 19 21  2  0
 21 12  1  0
  8  9  1  0
  8 10  1  0
  8 11  1  0
 13 14  1  0
 15 16  1  0
 17 18  1  0
 19 20  1  0
 21 22  1  0
M  CHG  1   6  -1
M  END
>  <PDB_ID>  (135) 
pdb4ork

>  <RESIDUE_NAME>  (135) 
GLU   PHE

>  <FRAG_NAME>  (135) 
ACET   MBZ

>  <FRAG_ATOM_NUM>  (135) 
fragi: 7  fragj: 15

>  <atom.prop.CHAIN_ID>  (135) 
A A A A A A A Z Z Z Z Z Z Z Z Z Z Z Z Z Z Z

>  <atom.prop.IS_HEAVY_ATOM>  (135) 
1 0 0 0 1 1 1 1 0 0 0 1 1 0 1 0 1 0 1 0 1 0

>  <DIFUSE_FUNC_ATOM>  (135) 
atom 6   atom 7   

>  <FINAL_SINGLE_POINT_ENERGY>  (135) 
0

>  <NONCOV_INTER_ENERGY_QM>  (135) 
0

>  <FF_Energy>  (135) 
4.77

>  <QM_Energy>  (135) 
-6.95

>  <source>  (135) 
ACET_MBZ_02

>  <Index>  (135) 
1755

$$$$
ACET-pdb4om9-A-ASP-860:MBZ-pdb4om9-A-PHE-835
     RDKit          3D

 22 21  0  0  0  0  0  0  0  0999 V2000
   -1.8066    4.6389    2.2171 C   0  0  0  0  0  0  0  0  0  0  0  0
   -1.7968    5.6066    1.9967 H   0  0  0  0  0  0  0  0  0  0  0  0
   -1.0461    4.1723    1.7834 H   0  0  0  0  0  0  0  0  0  0  0  0
   -1.6974    4.5351    3.2966 H   0  0  0  0  0  0  0  0  0  0  0  0
   -3.1078    4.0365    1.6954 C   0  0  0  0  0  0  0  0  0  0  0  0
   -3.7675    3.2947    2.4568 O   0  0  0  0  0  1  0  0  0  0  0  0
   -3.4633    4.2856    0.5192 O   0  0  0  0  0  0  0  0  0  0  0  0
   -0.0015    2.8942   -0.0213 C   0  0  0  0  0  0  0  0  0  0  0  0
    0.8552    3.2078    0.3550 H   0  0  0  0  0  0  0  0  0  0  0  0
   -0.7708    3.2088    0.5110 H   0  0  0  0  0  0  0  0  0  0  0  0
   -0.0974    3.3118   -1.0235 H   0  0  0  0  0  0  0  0  0  0  0  0
   -0.0004    1.3937    0.0007 C   0  0  0  0  0  0  0  0  0  0  0  0
   -1.1925    0.6868   -0.0025 C   0  0  0  0  0  0  0  0  0  0  0  0
   -2.0602    1.1793   -0.0075 H   0  0  0  0  0  0  0  0  0  0  0  0
   -1.1949   -0.6937    0.0000 C   0  0  0  0  0  0  0  0  0  0  0  0
   -2.0726   -1.1918   -0.0004 H   0  0  0  0  0  0  0  0  0  0  0  0
    0.0013   -1.3838    0.0042 C   0  0  0  0  0  0  0  0  0  0  0  0
   -0.0018   -2.3862    0.0095 H   0  0  0  0  0  0  0  0  0  0  0  0
    1.1949   -0.6915   -0.0000 C   0  0  0  0  0  0  0  0  0  0  0  0
    2.0785   -1.1916   -0.0001 H   0  0  0  0  0  0  0  0  0  0  0  0
    1.1916    0.6886   -0.0025 C   0  0  0  0  0  0  0  0  0  0  0  0
    2.0608    1.1879   -0.0070 H   0  0  0  0  0  0  0  0  0  0  0  0
  1  5  1  0
  5  6  1  0
  5  7  2  0
  1  2  1  0
  1  3  1  0
  1  4  1  0
  8 12  1  0
 12 13  2  0
 13 15  1  0
 15 17  2  0
 17 19  1  0
 19 21  2  0
 21 12  1  0
  8  9  1  0
  8 10  1  0
  8 11  1  0
 13 14  1  0
 15 16  1  0
 17 18  1  0
 19 20  1  0
 21 22  1  0
M  CHG  1   6  -1
M  END
>  <PDB_ID>  (136) 
pdb4om9

>  <RESIDUE_NAME>  (136) 
ASP   PHE

>  <FRAG_NAME>  (136) 
ACET   MBZ

>  <FRAG_ATOM_NUM>  (136) 
fragi: 7  fragj: 15

>  <atom.prop.CHAIN_ID>  (136) 
A A A A A A A Z Z Z Z Z Z Z Z Z Z Z Z Z Z Z

>  <atom.prop.IS_HEAVY_ATOM>  (136) 
1 0 0 0 1 1 1 1 0 0 0 1 1 0 1 0 1 0 1 0 1 0

>  <DIFUSE_FUNC_ATOM>  (136) 
atom 6   atom 7   

>  <FINAL_SINGLE_POINT_ENERGY>  (136) 
0

>  <NONCOV_INTER_ENERGY_QM>  (136) 
0

>  <FF_Energy>  (136) 
10.46

>  <QM_Energy>  (136) 
-1.69

>  <source>  (136) 
ACET_MBZ_02

>  <Index>  (136) 
1869

$$$$
ACET-pdb3re8-C-ASP-437:MBZ-pdb3re8-C-PHE-293
     RDKit          3D

 22 21  0  0  0  0  0  0  0  0999 V2000
    5.2697    0.3666   -0.5235 C   0  0  0  0  0  0  0  0  0  0  0  0
    5.3503    0.6425    0.4279 H   0  0  0  0  0  0  0  0  0  0  0  0
    4.6094    0.9386   -0.9965 H   0  0  0  0  0  0  0  0  0  0  0  0
    6.2406    0.5053   -0.9988 H   0  0  0  0  0  0  0  0  0  0  0  0
    4.7957   -1.0706   -0.5756 C   0  0  0  0  0  0  0  0  0  0  0  0
    5.2612   -1.8343   -1.4519 O   0  0  0  0  0  1  0  0  0  0  0  0
    3.9438   -1.4341    0.2577 O   0  0  0  0  0  0  0  0  0  0  0  0
   -0.0039    2.9058   -0.0327 C   0  0  0  0  0  0  0  0  0  0  0  0
   -0.7938    3.2014   -0.5516 H   0  0  0  0  0  0  0  0  0  0  0  0
    0.8366    3.2051   -0.4636 H   0  0  0  0  0  0  0  0  0  0  0  0
   -0.0580    3.3763    0.9490 H   0  0  0  0  0  0  0  0  0  0  0  0
   -0.0023    1.4038   -0.0013 C   0  0  0  0  0  0  0  0  0  0  0  0
   -1.1980    0.6932    0.0011 C   0  0  0  0  0  0  0  0  0  0  0  0
   -2.0659    1.1809    0.0025 H   0  0  0  0  0  0  0  0  0  0  0  0
   -1.2019   -0.7007   -0.0000 C   0  0  0  0  0  0  0  0  0  0  0  0
   -2.0759   -1.1948    0.0019 H   0  0  0  0  0  0  0  0  0  0  0  0
    0.0045   -1.3958   -0.0009 C   0  0  0  0  0  0  0  0  0  0  0  0
    0.0005   -2.3937   -0.0024 H   0  0  0  0  0  0  0  0  0  0  0  0
    1.2019   -0.6969   -0.0000 C   0  0  0  0  0  0  0  0  0  0  0  0
    2.0852   -1.1910    0.0014 H   0  0  0  0  0  0  0  0  0  0  0  0
    1.1958    0.6965    0.0011 C   0  0  0  0  0  0  0  0  0  0  0  0
    2.0636    1.1930    0.0034 H   0  0  0  0  0  0  0  0  0  0  0  0
  1  5  1  0
  5  6  1  0
  5  7  2  0
  1  2  1  0
  1  3  1  0
  1  4  1  0
  8 12  1  0
 12 13  2  0
 13 15  1  0
 15 17  2  0
 17 19  1  0
 19 21  2  0
 21 12  1  0
  8  9  1  0
  8 10  1  0
  8 11  1  0
 13 14  1  0
 15 16  1  0
 17 18  1  0
 19 20  1  0
 21 22  1  0
M  CHG  1   6  -1
M  END
>  <PDB_ID>  (137) 
pdb3re8

>  <RESIDUE_NAME>  (137) 
ASP   PHE

>  <FRAG_NAME>  (137) 
ACET   MBZ

>  <FRAG_ATOM_NUM>  (137) 
fragi: 7  fragj: 15

>  <atom.prop.CHAIN_ID>  (137) 
A A A A A A A Z Z Z Z Z Z Z Z Z Z Z Z Z Z Z

>  <atom.prop.IS_HEAVY_ATOM>  (137) 
1 0 0 0 1 1 1 1 0 0 0 1 1 0 1 0 1 0 1 0 1 0

>  <DIFUSE_FUNC_ATOM>  (137) 
atom 6   atom 7   

>  <FINAL_SINGLE_POINT_ENERGY>  (137) 
0

>  <NONCOV_INTER_ENERGY_QM>  (137) 
0

>  <FF_Energy>  (137) 
13.76

>  <QM_Energy>  (137) 
-5.18

>  <source>  (137) 
ACET_MBZ_02

>  <Index>  (137) 
3078

$$$$
ACET-pdb4pl7-A-GLU-57:MBZ-pdb4pl7-A-PHE-53
     RDKit          3D

 22 21  0  0  0  0  0  0  0  0999 V2000
   -3.1322    4.3480    0.6371 C   0  0  0  0  0  0  0  0  0  0  0  0
   -2.8716    5.2886    0.5645 H   0  0  0  0  0  0  0  0  0  0  0  0
   -2.3681    3.7479    0.7596 H   0  0  0  0  0  0  0  0  0  0  0  0
   -3.7946    4.2415    1.4962 H   0  0  0  0  0  0  0  0  0  0  0  0
   -3.8173    3.9591   -0.6663 C   0  0  0  0  0  0  0  0  0  0  0  0
   -3.0912    3.6527   -1.6549 O   0  0  0  0  0  1  0  0  0  0  0  0
   -5.0834    3.9897   -0.6958 O   0  0  0  0  0  0  0  0  0  0  0  0
    0.0088    2.9414    0.0408 C   0  0  0  0  0  0  0  0  0  0  0  0
    0.7352    3.2155    0.6564 H   0  0  0  0  0  0  0  0  0  0  0  0
   -0.8739    3.2346    0.3823 H   0  0  0  0  0  0  0  0  0  0  0  0
    0.1780    3.4235   -0.9221 H   0  0  0  0  0  0  0  0  0  0  0  0
   -0.0014    1.4250   -0.0050 C   0  0  0  0  0  0  0  0  0  0  0  0
   -1.1995    0.7217    0.0055 C   0  0  0  0  0  0  0  0  0  0  0  0
   -2.0689    1.1990    0.0153 H   0  0  0  0  0  0  0  0  0  0  0  0
   -1.2141   -0.7052    0.0000 C   0  0  0  0  0  0  0  0  0  0  0  0
   -2.0902   -1.1815    0.0021 H   0  0  0  0  0  0  0  0  0  0  0  0
   -0.0010   -1.4227   -0.0069 C   0  0  0  0  0  0  0  0  0  0  0  0
   -0.0114   -2.4115   -0.0175 H   0  0  0  0  0  0  0  0  0  0  0  0
    1.2141   -0.7186    0.0000 C   0  0  0  0  0  0  0  0  0  0  0  0
    2.0907   -1.2046    0.0016 H   0  0  0  0  0  0  0  0  0  0  0  0
    1.2020    0.6998    0.0064 C   0  0  0  0  0  0  0  0  0  0  0  0
    2.0721    1.1890    0.0182 H   0  0  0  0  0  0  0  0  0  0  0  0
  1  5  1  0
  5  6  1  0
  5  7  2  0
  1  2  1  0
  1  3  1  0
  1  4  1  0
  8 12  1  0
 12 13  2  0
 13 15  1  0
 15 17  2  0
 17 19  1  0
 19 21  2  0
 21 12  1  0
  8  9  1  0
  8 10  1  0
  8 11  1  0
 13 14  1  0
 15 16  1  0
 17 18  1  0
 19 20  1  0
 21 22  1  0
M  CHG  1   6  -1
M  END
>  <PDB_ID>  (138) 
pdb4pl7

>  <RESIDUE_NAME>  (138) 
GLU   PHE

>  <FRAG_NAME>  (138) 
ACET   MBZ

>  <FRAG_ATOM_NUM>  (138) 
fragi: 7  fragj: 15

>  <atom.prop.CHAIN_ID>  (138) 
A A A A A A A Z Z Z Z Z Z Z Z Z Z Z Z Z Z Z

>  <atom.prop.IS_HEAVY_ATOM>  (138) 
1 0 0 0 1 1 1 1 0 0 0 1 1 0 1 0 1 0 1 0 1 0

>  <DIFUSE_FUNC_ATOM>  (138) 
atom 6   atom 7   

>  <FINAL_SINGLE_POINT_ENERGY>  (138) 
0

>  <NONCOV_INTER_ENERGY_QM>  (138) 
0

>  <FF_Energy>  (138) 
8.51

>  <QM_Energy>  (138) 
-2.15

>  <source>  (138) 
ACET_MBZ_02

>  <Index>  (138) 
3155

$$$$
ACET-pdb3rq1-D-ASP-67:MBZ-pdb3rq1-B-PHE-54
     RDKit          3D

 22 21  0  0  0  0  0  0  0  0999 V2000
    3.7754    3.5770   -1.6386 C   0  0  0  0  0  0  0  0  0  0  0  0
    4.0425    4.5092   -1.8376 H   0  0  0  0  0  0  0  0  0  0  0  0
    2.8300    3.4171   -1.8812 H   0  0  0  0  0  0  0  0  0  0  0  0
    4.4038    2.9028   -2.2206 H   0  0  0  0  0  0  0  0  0  0  0  0
    3.9409    3.3346   -0.1537 C   0  0  0  0  0  0  0  0  0  0  0  0
    3.0817    2.6525    0.4374 O   0  0  0  0  0  1  0  0  0  0  0  0
    4.9664    3.7752    0.4037 O   0  0  0  0  0  0  0  0  0  0  0  0
    0.0380    2.9422   -0.0130 C   0  0  0  0  0  0  0  0  0  0  0  0
    0.4651    3.2220   -0.8616 H   0  0  0  0  0  0  0  0  0  0  0  0
    0.5724    3.2349    0.7683 H   0  0  0  0  0  0  0  0  0  0  0  0
   -0.9307    3.4385    0.0466 H   0  0  0  0  0  0  0  0  0  0  0  0
   -0.0005    1.4076    0.0017 C   0  0  0  0  0  0  0  0  0  0  0  0
   -1.1940    0.6998    0.0016 C   0  0  0  0  0  0  0  0  0  0  0  0
   -2.0624    1.1917    0.0015 H   0  0  0  0  0  0  0  0  0  0  0  0
   -1.1990   -0.6862    0.0000 C   0  0  0  0  0  0  0  0  0  0  0  0
   -2.0775   -1.1824   -0.0038 H   0  0  0  0  0  0  0  0  0  0  0  0
    0.0029   -1.3964    0.0054 C   0  0  0  0  0  0  0  0  0  0  0  0
   -0.0144   -2.3930    0.0119 H   0  0  0  0  0  0  0  0  0  0  0  0
    1.1990   -0.7085    0.0000 C   0  0  0  0  0  0  0  0  0  0  0  0
    2.0815   -1.2022    0.0041 H   0  0  0  0  0  0  0  0  0  0  0  0
    1.1916    0.6836   -0.0087 C   0  0  0  0  0  0  0  0  0  0  0  0
    2.0650    1.1795   -0.0241 H   0  0  0  0  0  0  0  0  0  0  0  0
  1  5  1  0
  5  6  1  0
  5  7  2  0
  1  2  1  0
  1  3  1  0
  1  4  1  0
  8 12  1  0
 12 13  2  0
 13 15  1  0
 15 17  2  0
 17 19  1  0
 19 21  2  0
 21 12  1  0
  8  9  1  0
  8 10  1  0
  8 11  1  0
 13 14  1  0
 15 16  1  0
 17 18  1  0
 19 20  1  0
 21 22  1  0
M  CHG  1   6  -1
M  END
>  <PDB_ID>  (139) 
pdb3rq1

>  <RESIDUE_NAME>  (139) 
ASP   PHE

>  <FRAG_NAME>  (139) 
ACET   MBZ

>  <FRAG_ATOM_NUM>  (139) 
fragi: 7  fragj: 15

>  <atom.prop.CHAIN_ID>  (139) 
A A A A A A A Z Z Z Z Z Z Z Z Z Z Z Z Z Z Z

>  <atom.prop.IS_HEAVY_ATOM>  (139) 
1 0 0 0 1 1 1 1 0 0 0 1 1 0 1 0 1 0 1 0 1 0

>  <DIFUSE_FUNC_ATOM>  (139) 
atom 6   atom 7   

>  <FINAL_SINGLE_POINT_ENERGY>  (139) 
0

>  <NONCOV_INTER_ENERGY_QM>  (139) 
0

>  <FF_Energy>  (139) 
21.46

>  <QM_Energy>  (139) 
-5.29

>  <source>  (139) 
ACET_MBZ_02

>  <Index>  (139) 
3761

$$$$
ACET-pdb4qy7-A-ASP-53:MBZ-pdb4qy7-A-PHE-73
     RDKit          3D

 22 21  0  0  0  0  0  0  0  0999 V2000
   -5.4497    0.3755    2.0641 C   0  0  0  0  0  0  0  0  0  0  0  0
   -4.8798   -0.3435    2.4534 H   0  0  0  0  0  0  0  0  0  0  0  0
   -6.1791   -0.0270    1.5177 H   0  0  0  0  0  0  0  0  0  0  0  0
   -5.9157    0.9095    2.8921 H   0  0  0  0  0  0  0  0  0  0  0  0
   -4.5951    1.2558    1.1758 C   0  0  0  0  0  0  0  0  0  0  0  0
   -4.4742    2.4734    1.4209 O   0  0  0  0  0  1  0  0  0  0  0  0
   -4.0251    0.6965    0.2212 O   0  0  0  0  0  0  0  0  0  0  0  0
   -0.0026    2.9138   -0.0709 C   0  0  0  0  0  0  0  0  0  0  0  0
    0.9069    3.2271    0.1017 H   0  0  0  0  0  0  0  0  0  0  0  0
   -0.6552    3.2405    0.5789 H   0  0  0  0  0  0  0  0  0  0  0  0
   -0.2992    3.2863   -1.0513 H   0  0  0  0  0  0  0  0  0  0  0  0
   -0.0014    1.4054   -0.0260 C   0  0  0  0  0  0  0  0  0  0  0  0
   -1.1915    0.6948   -0.0059 C   0  0  0  0  0  0  0  0  0  0  0  0
   -2.0625    1.1764    0.0036 H   0  0  0  0  0  0  0  0  0  0  0  0
   -1.1900   -0.7040    0.0000 C   0  0  0  0  0  0  0  0  0  0  0  0
   -2.0698   -1.1937   -0.0261 H   0  0  0  0  0  0  0  0  0  0  0  0
    0.0026   -1.3897    0.0429 C   0  0  0  0  0  0  0  0  0  0  0  0
   -0.0023   -2.3923    0.1052 H   0  0  0  0  0  0  0  0  0  0  0  0
    1.1900   -0.7032    0.0000 C   0  0  0  0  0  0  0  0  0  0  0  0
    2.0769   -1.1941   -0.0226 H   0  0  0  0  0  0  0  0  0  0  0  0
    1.1903    0.6966   -0.0109 C   0  0  0  0  0  0  0  0  0  0  0  0
    2.0616    1.1846   -0.0090 H   0  0  0  0  0  0  0  0  0  0  0  0
  1  5  1  0
  5  6  1  0
  5  7  2  0
  1  2  1  0
  1  3  1  0
  1  4  1  0
  8 12  1  0
 12 13  2  0
 13 15  1  0
 15 17  2  0
 17 19  1  0
 19 21  2  0
 21 12  1  0
  8  9  1  0
  8 10  1  0
  8 11  1  0
 13 14  1  0
 15 16  1  0
 17 18  1  0
 19 20  1  0
 21 22  1  0
M  CHG  1   6  -1
M  END
>  <PDB_ID>  (140) 
pdb4qy7

>  <RESIDUE_NAME>  (140) 
ASP   PHE

>  <FRAG_NAME>  (140) 
ACET   MBZ

>  <FRAG_ATOM_NUM>  (140) 
fragi: 7  fragj: 15

>  <atom.prop.CHAIN_ID>  (140) 
A A A A A A A Z Z Z Z Z Z Z Z Z Z Z Z Z Z Z

>  <atom.prop.IS_HEAVY_ATOM>  (140) 
1 0 0 0 1 1 1 1 0 0 0 1 1 0 1 0 1 0 1 0 1 0

>  <DIFUSE_FUNC_ATOM>  (140) 
atom 6   atom 7   

>  <FINAL_SINGLE_POINT_ENERGY>  (140) 
0

>  <NONCOV_INTER_ENERGY_QM>  (140) 
0

>  <FF_Energy>  (140) 
4.42

>  <QM_Energy>  (140) 
-7.0

>  <source>  (140) 
ACET_MBZ_02

>  <Index>  (140) 
5972

$$$$
ACET-pdb3tcj-A-GLU-93:MBZ-pdb3tcj-A-PHE-90
     RDKit          3D

 22 21  0  0  0  0  0  0  0  0999 V2000
   -3.4348    4.8423    0.1367 C   0  0  0  0  0  0  0  0  0  0  0  0
   -2.6613    4.8790   -0.4660 H   0  0  0  0  0  0  0  0  0  0  0  0
   -3.1970    5.0484    1.0667 H   0  0  0  0  0  0  0  0  0  0  0  0
   -4.1709    5.5711   -0.2028 H   0  0  0  0  0  0  0  0  0  0  0  0
   -3.9720    3.4265    0.1057 C   0  0  0  0  0  0  0  0  0  0  0  0
   -5.1027    3.2305   -0.3920 O   0  0  0  0  0  1  0  0  0  0  0  0
   -3.2661    2.5112    0.5780 O   0  0  0  0  0  0  0  0  0  0  0  0
   -0.0000    2.9009    0.0038 C   0  0  0  0  0  0  0  0  0  0  0  0
    0.7646    3.2044    0.5520 H   0  0  0  0  0  0  0  0  0  0  0  0
   -0.8598    3.2057    0.3863 H   0  0  0  0  0  0  0  0  0  0  0  0
    0.1012    3.3476   -0.9853 H   0  0  0  0  0  0  0  0  0  0  0  0
   -0.0002    1.3963   -0.0010 C   0  0  0  0  0  0  0  0  0  0  0  0
   -1.1904    0.6886    0.0004 C   0  0  0  0  0  0  0  0  0  0  0  0
   -2.0600    1.1799    0.0004 H   0  0  0  0  0  0  0  0  0  0  0  0
   -1.1944   -0.6948   -0.0000 C   0  0  0  0  0  0  0  0  0  0  0  0
   -2.0728   -1.1895    0.0012 H   0  0  0  0  0  0  0  0  0  0  0  0
   -0.0005   -1.3863   -0.0004 C   0  0  0  0  0  0  0  0  0  0  0  0
   -0.0037   -2.3874   -0.0018 H   0  0  0  0  0  0  0  0  0  0  0  0
    1.1944   -0.6935    0.0000 C   0  0  0  0  0  0  0  0  0  0  0  0
    2.0776   -1.1932    0.0009 H   0  0  0  0  0  0  0  0  0  0  0  0
    1.1911    0.6897    0.0010 C   0  0  0  0  0  0  0  0  0  0  0  0
    2.0609    1.1875    0.0028 H   0  0  0  0  0  0  0  0  0  0  0  0
  1  5  1  0
  5  6  1  0
  5  7  2  0
  1  2  1  0
  1  3  1  0
  1  4  1  0
  8 12  1  0
 12 13  2  0
 13 15  1  0
 15 17  2  0
 17 19  1  0
 19 21  2  0
 21 12  1  0
  8  9  1  0
  8 10  1  0
  8 11  1  0
 13 14  1  0
 15 16  1  0
 17 18  1  0
 19 20  1  0
 21 22  1  0
M  CHG  1   6  -1
M  END
>  <PDB_ID>  (141) 
pdb3tcj

>  <RESIDUE_NAME>  (141) 
GLU   PHE

>  <FRAG_NAME>  (141) 
ACET   MBZ

>  <FRAG_ATOM_NUM>  (141) 
fragi: 7  fragj: 15

>  <atom.prop.CHAIN_ID>  (141) 
A A A A A A A Z Z Z Z Z Z Z Z Z Z Z Z Z Z Z

>  <atom.prop.IS_HEAVY_ATOM>  (141) 
1 0 0 0 1 1 1 1 0 0 0 1 1 0 1 0 1 0 1 0 1 0

>  <DIFUSE_FUNC_ATOM>  (141) 
atom 6   atom 7   

>  <FINAL_SINGLE_POINT_ENERGY>  (141) 
0

>  <NONCOV_INTER_ENERGY_QM>  (141) 
0

>  <FF_Energy>  (141) 
15.12

>  <QM_Energy>  (141) 
-6.76

>  <source>  (141) 
ACET_MBZ_02

>  <Index>  (141) 
6823

$$$$
ACET-pdb3tqx-B-ASP-125:MBZ-pdb3tqx-B-PHE-173
     RDKit          3D

 22 21  0  0  0  0  0  0  0  0999 V2000
    2.5956    6.1140   -1.4455 C   0  0  0  0  0  0  0  0  0  0  0  0
    3.4156    6.6637   -1.3361 H   0  0  0  0  0  0  0  0  0  0  0  0
    1.9608    6.2803   -0.7009 H   0  0  0  0  0  0  0  0  0  0  0  0
    2.1111    6.4130   -2.3750 H   0  0  0  0  0  0  0  0  0  0  0  0
    2.9848    4.6500   -1.4392 C   0  0  0  0  0  0  0  0  0  0  0  0
    2.1616    3.8158   -1.8738 O   0  0  0  0  0  1  0  0  0  0  0  0
    4.1154    4.3329   -1.0102 O   0  0  0  0  0  0  0  0  0  0  0  0
    0.0049    2.8942    0.0028 C   0  0  0  0  0  0  0  0  0  0  0  0
    0.8157    3.1995   -0.4763 H   0  0  0  0  0  0  0  0  0  0  0  0
    0.0098    3.1999    0.9445 H   0  0  0  0  0  0  0  0  0  0  0  0
   -0.8597    3.3419   -0.4873 H   0  0  0  0  0  0  0  0  0  0  0  0
   -0.0006    1.3941   -0.0004 C   0  0  0  0  0  0  0  0  0  0  0  0
   -1.1918    0.6903   -0.0004 C   0  0  0  0  0  0  0  0  0  0  0  0
   -2.0597    1.1809   -0.0017 H   0  0  0  0  0  0  0  0  0  0  0  0
   -1.1949   -0.6931    0.0000 C   0  0  0  0  0  0  0  0  0  0  0  0
   -2.0734   -1.1890    0.0016 H   0  0  0  0  0  0  0  0  0  0  0  0
    0.0013   -1.3845   -0.0002 C   0  0  0  0  0  0  0  0  0  0  0  0
   -0.0037   -2.3869   -0.0010 H   0  0  0  0  0  0  0  0  0  0  0  0
    1.1949   -0.6936   -0.0000 C   0  0  0  0  0  0  0  0  0  0  0  0
    2.0784   -1.1943    0.0013 H   0  0  0  0  0  0  0  0  0  0  0  0
    1.1910    0.6868    0.0009 C   0  0  0  0  0  0  0  0  0  0  0  0
    2.0603    1.1862    0.0022 H   0  0  0  0  0  0  0  0  0  0  0  0
  1  5  1  0
  5  6  1  0
  5  7  2  0
  1  2  1  0
  1  3  1  0
  1  4  1  0
  8 12  1  0
 12 13  2  0
 13 15  1  0
 15 17  2  0
 17 19  1  0
 19 21  2  0
 21 12  1  0
  8  9  1  0
  8 10  1  0
  8 11  1  0
 13 14  1  0
 15 16  1  0
 17 18  1  0
 19 20  1  0
 21 22  1  0
M  CHG  1   6  -1
M  END
>  <PDB_ID>  (142) 
pdb3tqx

>  <RESIDUE_NAME>  (142) 
ASP   PHE

>  <FRAG_NAME>  (142) 
ACET   MBZ

>  <FRAG_ATOM_NUM>  (142) 
fragi: 7  fragj: 15

>  <atom.prop.CHAIN_ID>  (142) 
A A A A A A A Z Z Z Z Z Z Z Z Z Z Z Z Z Z Z

>  <atom.prop.IS_HEAVY_ATOM>  (142) 
1 0 0 0 1 1 1 1 0 0 0 1 1 0 1 0 1 0 1 0 1 0

>  <DIFUSE_FUNC_ATOM>  (142) 
atom 6   atom 7   

>  <FINAL_SINGLE_POINT_ENERGY>  (142) 
0

>  <NONCOV_INTER_ENERGY_QM>  (142) 
0

>  <FF_Energy>  (142) 
4.1

>  <QM_Energy>  (142) 
-6.0

>  <source>  (142) 
ACET_MBZ_02

>  <Index>  (142) 
7825

$$$$
ACET-pdb3twk-B-GLU-119:MBZ-pdb3twk-B-PHE-111
     RDKit          3D

 22 21  0  0  0  0  0  0  0  0999 V2000
   -0.1271   -4.0426    2.3995 C   0  0  0  0  0  0  0  0  0  0  0  0
    0.5097   -3.2948    2.3589 H   0  0  0  0  0  0  0  0  0  0  0  0
    0.1154   -4.7024    3.0858 H   0  0  0  0  0  0  0  0  0  0  0  0
   -1.1100   -3.6397    2.6437 H   0  0  0  0  0  0  0  0  0  0  0  0
   -0.0947   -4.7475    1.0547 C   0  0  0  0  0  0  0  0  0  0  0  0
   -0.6032   -4.1834    0.0634 O   0  0  0  0  0  1  0  0  0  0  0  0
    0.4502   -5.8691    0.9852 O   0  0  0  0  0  0  0  0  0  0  0  0
   -0.0017    2.9024    0.0335 C   0  0  0  0  0  0  0  0  0  0  0  0
   -0.6590    3.2234   -0.6305 H   0  0  0  0  0  0  0  0  0  0  0  0
    0.9106    3.2143   -0.1824 H   0  0  0  0  0  0  0  0  0  0  0  0
   -0.2763    3.3178    1.0031 H   0  0  0  0  0  0  0  0  0  0  0  0
   -0.0007    1.4010    0.0002 C   0  0  0  0  0  0  0  0  0  0  0  0
   -1.1968    0.6925   -0.0005 C   0  0  0  0  0  0  0  0  0  0  0  0
   -2.0636    1.1836   -0.0027 H   0  0  0  0  0  0  0  0  0  0  0  0
   -1.2016   -0.6970    0.0000 C   0  0  0  0  0  0  0  0  0  0  0  0
   -2.0766   -1.1915    0.0013 H   0  0  0  0  0  0  0  0  0  0  0  0
    0.0012   -1.3925    0.0006 C   0  0  0  0  0  0  0  0  0  0  0  0
   -0.0037   -2.3916    0.0015 H   0  0  0  0  0  0  0  0  0  0  0  0
    1.2016   -0.6975    0.0000 C   0  0  0  0  0  0  0  0  0  0  0  0
    2.0833   -1.1944    0.0017 H   0  0  0  0  0  0  0  0  0  0  0  0
    1.1963    0.6935   -0.0003 C   0  0  0  0  0  0  0  0  0  0  0  0
    2.0644    1.1897   -0.0019 H   0  0  0  0  0  0  0  0  0  0  0  0
  1  5  1  0
  5  6  1  0
  5  7  2  0
  1  2  1  0
  1  3  1  0
  1  4  1  0
  8 12  1  0
 12 13  2  0
 13 15  1  0
 15 17  2  0
 17 19  1  0
 19 21  2  0
 21 12  1  0
  8  9  1  0
  8 10  1  0
  8 11  1  0
 13 14  1  0
 15 16  1  0
 17 18  1  0
 19 20  1  0
 21 22  1  0
M  CHG  1   6  -1
M  END
>  <PDB_ID>  (143) 
pdb3twk

>  <RESIDUE_NAME>  (143) 
GLU   PHE

>  <FRAG_NAME>  (143) 
ACET   MBZ

>  <FRAG_ATOM_NUM>  (143) 
fragi: 7  fragj: 15

>  <atom.prop.CHAIN_ID>  (143) 
A A A A A A A Z Z Z Z Z Z Z Z Z Z Z Z Z Z Z

>  <atom.prop.IS_HEAVY_ATOM>  (143) 
1 0 0 0 1 1 1 1 0 0 0 1 1 0 1 0 1 0 1 0 1 0

>  <DIFUSE_FUNC_ATOM>  (143) 
atom 6   atom 7   

>  <FINAL_SINGLE_POINT_ENERGY>  (143) 
0

>  <NONCOV_INTER_ENERGY_QM>  (143) 
0

>  <FF_Energy>  (143) 
14.61

>  <QM_Energy>  (143) 
-4.41

>  <source>  (143) 
ACET_MBZ_02

>  <Index>  (143) 
8276

$$$$
ACET-pdb3u0g-D-GLU-261:MBZ-pdb3u0g-D-PHE-290
     RDKit          3D

 22 21  0  0  0  0  0  0  0  0999 V2000
   -2.3846   -4.0559   -2.3484 C   0  0  0  0  0  0  0  0  0  0  0  0
   -2.9162   -3.4273   -2.8937 H   0  0  0  0  0  0  0  0  0  0  0  0
   -2.7225   -4.9806   -2.4288 H   0  0  0  0  0  0  0  0  0  0  0  0
   -1.3582   -4.0366   -2.7146 H   0  0  0  0  0  0  0  0  0  0  0  0
   -2.5153   -3.6427   -0.9087 C   0  0  0  0  0  0  0  0  0  0  0  0
   -1.9193   -4.3133   -0.0375 O   0  0  0  0  0  1  0  0  0  0  0  0
   -3.2369   -2.6482   -0.6769 O   0  0  0  0  0  0  0  0  0  0  0  0
   -0.0218    2.9412   -0.0486 C   0  0  0  0  0  0  0  0  0  0  0  0
    0.9043    3.2500   -0.0780 H   0  0  0  0  0  0  0  0  0  0  0  0
   -0.5119    3.2603    0.7345 H   0  0  0  0  0  0  0  0  0  0  0  0
   -0.5308    3.3082   -0.9398 H   0  0  0  0  0  0  0  0  0  0  0  0
    0.0006    1.4113    0.0096 C   0  0  0  0  0  0  0  0  0  0  0  0
   -1.2086    0.6927   -0.0026 C   0  0  0  0  0  0  0  0  0  0  0  0
   -2.0690    1.1919   -0.0144 H   0  0  0  0  0  0  0  0  0  0  0  0
   -1.2112   -0.6883   -0.0000 C   0  0  0  0  0  0  0  0  0  0  0  0
   -2.0860   -1.1906    0.0045 H   0  0  0  0  0  0  0  0  0  0  0  0
   -0.0033   -1.3971   -0.0021 C   0  0  0  0  0  0  0  0  0  0  0  0
   -0.0157   -2.3939   -0.0053 H   0  0  0  0  0  0  0  0  0  0  0  0
    1.2112   -0.7067    0.0000 C   0  0  0  0  0  0  0  0  0  0  0  0
    2.0847   -1.2093    0.0067 H   0  0  0  0  0  0  0  0  0  0  0  0
    1.2114    0.6882   -0.0049 C   0  0  0  0  0  0  0  0  0  0  0  0
    2.0738    1.1859   -0.0194 H   0  0  0  0  0  0  0  0  0  0  0  0
  1  5  1  0
  5  6  1  0
  5  7  2  0
  1  2  1  0
  1  3  1  0
  1  4  1  0
  8 12  1  0
 12 13  2  0
 13 15  1  0
 15 17  2  0
 17 19  1  0
 19 21  2  0
 21 12  1  0
  8  9  1  0
  8 10  1  0
  8 11  1  0
 13 14  1  0
 15 16  1  0
 17 18  1  0
 19 20  1  0
 21 22  1  0
M  CHG  1   6  -1
M  END
>  <PDB_ID>  (144) 
pdb3u0g

>  <RESIDUE_NAME>  (144) 
GLU   PHE

>  <FRAG_NAME>  (144) 
ACET   MBZ

>  <FRAG_ATOM_NUM>  (144) 
fragi: 7  fragj: 15

>  <atom.prop.CHAIN_ID>  (144) 
A A A A A A A Z Z Z Z Z Z Z Z Z Z Z Z Z Z Z

>  <atom.prop.IS_HEAVY_ATOM>  (144) 
1 0 0 0 1 1 1 1 0 0 0 1 1 0 1 0 1 0 1 0 1 0

>  <DIFUSE_FUNC_ATOM>  (144) 
atom 6   atom 7   

>  <FINAL_SINGLE_POINT_ENERGY>  (144) 
0

>  <NONCOV_INTER_ENERGY_QM>  (144) 
0

>  <FF_Energy>  (144) 
6.17

>  <QM_Energy>  (144) 
-6.59

>  <source>  (144) 
ACET_MBZ_02

>  <Index>  (144) 
8608

$$$$
ACET-pdb3u0o-B-GLU-123:MBZ-pdb3u0o-A-PHE-37
     RDKit          3D

 22 21  0  0  0  0  0  0  0  0999 V2000
    5.9274   -2.8506   -0.8328 C   0  0  0  0  0  0  0  0  0  0  0  0
    6.6280   -3.1913   -0.2358 H   0  0  0  0  0  0  0  0  0  0  0  0
    6.1912   -2.0175   -1.2818 H   0  0  0  0  0  0  0  0  0  0  0  0
    5.7314   -3.6045   -1.5952 H   0  0  0  0  0  0  0  0  0  0  0  0
    4.7028   -2.5323    0.0357 C   0  0  0  0  0  0  0  0  0  0  0  0
    3.7171   -1.9425   -0.4745 O   0  0  0  0  0  1  0  0  0  0  0  0
    4.7299   -2.8717    1.2431 O   0  0  0  0  0  0  0  0  0  0  0  0
   -0.0090    2.8935   -0.0256 C   0  0  0  0  0  0  0  0  0  0  0  0
   -0.8163    3.1877   -0.5480 H   0  0  0  0  0  0  0  0  0  0  0  0
    0.8163    3.2007   -0.5116 H   0  0  0  0  0  0  0  0  0  0  0  0
   -0.0345    3.4079    0.9351 H   0  0  0  0  0  0  0  0  0  0  0  0
    0.0021    1.3988   -0.0073 C   0  0  0  0  0  0  0  0  0  0  0  0
   -1.1984    0.6930   -0.0089 C   0  0  0  0  0  0  0  0  0  0  0  0
   -2.0633    1.1942   -0.0172 H   0  0  0  0  0  0  0  0  0  0  0  0
   -1.2192   -0.6927   -0.0000 C   0  0  0  0  0  0  0  0  0  0  0  0
   -2.0885   -1.1857   -0.0104 H   0  0  0  0  0  0  0  0  0  0  0  0
   -0.0065   -1.3906    0.0255 C   0  0  0  0  0  0  0  0  0  0  0  0
   -0.0116   -2.3901    0.0618 H   0  0  0  0  0  0  0  0  0  0  0  0
    1.2192   -0.7009    0.0000 C   0  0  0  0  0  0  0  0  0  0  0  0
    2.0858   -1.2010   -0.0089 H   0  0  0  0  0  0  0  0  0  0  0  0
    1.2028    0.6923   -0.0092 C   0  0  0  0  0  0  0  0  0  0  0  0
    2.0696    1.1942   -0.0185 H   0  0  0  0  0  0  0  0  0  0  0  0
  1  5  1  0
  5  6  1  0
  5  7  2  0
  1  2  1  0
  1  3  1  0
  1  4  1  0
  8 12  1  0
 12 13  2  0
 13 15  1  0
 15 17  2  0
 17 19  1  0
 19 21  2  0
 21 12  1  0
  8  9  1  0
  8 10  1  0
  8 11  1  0
 13 14  1  0
 15 16  1  0
 17 18  1  0
 19 20  1  0
 21 22  1  0
M  CHG  1   6  -1
M  END
>  <PDB_ID>  (145) 
pdb3u0o

>  <RESIDUE_NAME>  (145) 
GLU   PHE

>  <FRAG_NAME>  (145) 
ACET   MBZ

>  <FRAG_ATOM_NUM>  (145) 
fragi: 7  fragj: 15

>  <atom.prop.CHAIN_ID>  (145) 
A A A A A A A Z Z Z Z Z Z Z Z Z Z Z Z Z Z Z

>  <atom.prop.IS_HEAVY_ATOM>  (145) 
1 0 0 0 1 1 1 1 0 0 0 1 1 0 1 0 1 0 1 0 1 0

>  <DIFUSE_FUNC_ATOM>  (145) 
atom 6   atom 7   

>  <FINAL_SINGLE_POINT_ENERGY>  (145) 
0

>  <NONCOV_INTER_ENERGY_QM>  (145) 
0

>  <FF_Energy>  (145) 
19.46

>  <QM_Energy>  (145) 
-5.39

>  <source>  (145) 
ACET_MBZ_02

>  <Index>  (145) 
8609

$$$$
ACET-pdb4um9-D-GLU-30:MBZ-pdb4um9-D-PHE-457
     RDKit          3D

 22 21  0  0  0  0  0  0  0  0999 V2000
   -3.9875   -3.5639   -0.9481 C   0  0  0  0  0  0  0  0  0  0  0  0
   -4.5845   -3.2268   -0.2188 H   0  0  0  0  0  0  0  0  0  0  0  0
   -3.0849   -3.7709   -0.5669 H   0  0  0  0  0  0  0  0  0  0  0  0
   -4.4125   -4.4988   -1.3130 H   0  0  0  0  0  0  0  0  0  0  0  0
   -3.8199   -2.4644   -1.9483 C   0  0  0  0  0  0  0  0  0  0  0  0
   -4.1329   -2.5662   -3.1282 O   0  0  0  0  0  1  0  0  0  0  0  0
   -3.3166   -1.4389   -1.4506 O   0  0  0  0  0  0  0  0  0  0  0  0
    0.0022    2.8971   -0.0022 C   0  0  0  0  0  0  0  0  0  0  0  0
   -0.7145    3.2028   -0.6110 H   0  0  0  0  0  0  0  0  0  0  0  0
    0.8915    3.2008   -0.3127 H   0  0  0  0  0  0  0  0  0  0  0  0
   -0.1788    3.3429    0.9758 H   0  0  0  0  0  0  0  0  0  0  0  0
   -0.0006    1.3943    0.0018 C   0  0  0  0  0  0  0  0  0  0  0  0
   -1.1911    0.6893    0.0003 C   0  0  0  0  0  0  0  0  0  0  0  0
   -2.0599    1.1805   -0.0019 H   0  0  0  0  0  0  0  0  0  0  0  0
   -1.1944   -0.6927   -0.0000 C   0  0  0  0  0  0  0  0  0  0  0  0
   -2.0736   -1.1887    0.0015 H   0  0  0  0  0  0  0  0  0  0  0  0
    0.0004   -1.3842   -0.0007 C   0  0  0  0  0  0  0  0  0  0  0  0
   -0.0045   -2.3864   -0.0017 H   0  0  0  0  0  0  0  0  0  0  0  0
    1.1944   -0.6939   -0.0000 C   0  0  0  0  0  0  0  0  0  0  0  0
    2.0777   -1.1943    0.0033 H   0  0  0  0  0  0  0  0  0  0  0  0
    1.1913    0.6872   -0.0014 C   0  0  0  0  0  0  0  0  0  0  0  0
    2.0606    1.1857   -0.0059 H   0  0  0  0  0  0  0  0  0  0  0  0
  1  5  1  0
  5  6  1  0
  5  7  2  0
  1  2  1  0
  1  3  1  0
  1  4  1  0
  8 12  1  0
 12 13  2  0
 13 15  1  0
 15 17  2  0
 17 19  1  0
 19 21  2  0
 21 12  1  0
  8  9  1  0
  8 10  1  0
  8 11  1  0
 13 14  1  0
 15 16  1  0
 17 18  1  0
 19 20  1  0
 21 22  1  0
M  CHG  1   6  -1
M  END
>  <PDB_ID>  (146) 
pdb4um9

>  <RESIDUE_NAME>  (146) 
GLU   PHE

>  <FRAG_NAME>  (146) 
ACET   MBZ

>  <FRAG_ATOM_NUM>  (146) 
fragi: 7  fragj: 15

>  <atom.prop.CHAIN_ID>  (146) 
A A A A A A A Z Z Z Z Z Z Z Z Z Z Z Z Z Z Z

>  <atom.prop.IS_HEAVY_ATOM>  (146) 
1 0 0 0 1 1 1 1 0 0 0 1 1 0 1 0 1 0 1 0 1 0

>  <DIFUSE_FUNC_ATOM>  (146) 
atom 6   atom 7   

>  <FINAL_SINGLE_POINT_ENERGY>  (146) 
0

>  <NONCOV_INTER_ENERGY_QM>  (146) 
0

>  <FF_Energy>  (146) 
13.83

>  <QM_Energy>  (146) 
-2.13

>  <source>  (146) 
ACET_MBZ_02

>  <Index>  (146) 
10290

$$$$
ACET-pdb3v7p-A-GLU-102:MBZ-pdb3v7p-A-PHE-411
     RDKit          3D

 22 21  0  0  0  0  0  0  0  0999 V2000
   -0.4752   -4.4055   -1.7982 C   0  0  0  0  0  0  0  0  0  0  0  0
    0.2132   -4.5396   -2.4799 H   0  0  0  0  0  0  0  0  0  0  0  0
   -0.8399   -3.4978   -1.7930 H   0  0  0  0  0  0  0  0  0  0  0  0
   -1.2865   -5.1124   -1.9718 H   0  0  0  0  0  0  0  0  0  0  0  0
    0.1747   -4.6399   -0.4464 C   0  0  0  0  0  0  0  0  0  0  0  0
    1.2367   -4.0374   -0.1753 O   0  0  0  0  0  1  0  0  0  0  0  0
   -0.3865   -5.4355    0.3405 O   0  0  0  0  0  0  0  0  0  0  0  0
    0.0010    2.8997   -0.0289 C   0  0  0  0  0  0  0  0  0  0  0  0
    0.8875    3.2142    0.2659 H   0  0  0  0  0  0  0  0  0  0  0  0
   -0.7174    3.2211    0.5652 H   0  0  0  0  0  0  0  0  0  0  0  0
   -0.1827    3.3120   -1.0210 H   0  0  0  0  0  0  0  0  0  0  0  0
    0.0000    1.4002    0.0003 C   0  0  0  0  0  0  0  0  0  0  0  0
   -1.1960    0.6979   -0.0052 C   0  0  0  0  0  0  0  0  0  0  0  0
   -2.0617    1.1888   -0.0141 H   0  0  0  0  0  0  0  0  0  0  0  0
   -1.2034   -0.6939    0.0000 C   0  0  0  0  0  0  0  0  0  0  0  0
   -2.0807   -1.1863   -0.0003 H   0  0  0  0  0  0  0  0  0  0  0  0
   -0.0012   -1.3966    0.0079 C   0  0  0  0  0  0  0  0  0  0  0  0
   -0.0072   -2.3923    0.0189 H   0  0  0  0  0  0  0  0  0  0  0  0
    1.2034   -0.6978   -0.0000 C   0  0  0  0  0  0  0  0  0  0  0  0
    2.0831   -1.1974   -0.0018 H   0  0  0  0  0  0  0  0  0  0  0  0
    1.1972    0.6902   -0.0030 C   0  0  0  0  0  0  0  0  0  0  0  0
    2.0652    1.1890   -0.0087 H   0  0  0  0  0  0  0  0  0  0  0  0
  1  5  1  0
  5  6  1  0
  5  7  2  0
  1  2  1  0
  1  3  1  0
  1  4  1  0
  8 12  1  0
 12 13  2  0
 13 15  1  0
 15 17  2  0
 17 19  1  0
 19 21  2  0
 21 12  1  0
  8  9  1  0
  8 10  1  0
  8 11  1  0
 13 14  1  0
 15 16  1  0
 17 18  1  0
 19 20  1  0
 21 22  1  0
M  CHG  1   6  -1
M  END
>  <PDB_ID>  (147) 
pdb3v7p

>  <RESIDUE_NAME>  (147) 
GLU   PHE

>  <FRAG_NAME>  (147) 
ACET   MBZ

>  <FRAG_ATOM_NUM>  (147) 
fragi: 7  fragj: 15

>  <atom.prop.CHAIN_ID>  (147) 
A A A A A A A Z Z Z Z Z Z Z Z Z Z Z Z Z Z Z

>  <atom.prop.IS_HEAVY_ATOM>  (147) 
1 0 0 0 1 1 1 1 0 0 0 1 1 0 1 0 1 0 1 0 1 0

>  <DIFUSE_FUNC_ATOM>  (147) 
atom 6   atom 7   

>  <FINAL_SINGLE_POINT_ENERGY>  (147) 
0

>  <NONCOV_INTER_ENERGY_QM>  (147) 
0

>  <FF_Energy>  (147) 
6.21

>  <QM_Energy>  (147) 
-4.0

>  <source>  (147) 
ACET_MBZ_02

>  <Index>  (147) 
11069

$$$$
ACET-pdb3x43-G-GLU-202:MBZ-pdb3x43-G-PHE-176
     RDKit          3D

 22 21  0  0  0  0  0  0  0  0999 V2000
    2.1227   -3.5977    2.1878 C   0  0  0  0  0  0  0  0  0  0  0  0
    2.4090   -2.8111    1.6765 H   0  0  0  0  0  0  0  0  0  0  0  0
    2.8745   -4.0787    2.5947 H   0  0  0  0  0  0  0  0  0  0  0  0
    1.4525   -3.2677    2.9815 H   0  0  0  0  0  0  0  0  0  0  0  0
    1.4446   -4.5554    1.2107 C   0  0  0  0  0  0  0  0  0  0  0  0
    0.4209   -4.1742    0.5966 O   0  0  0  0  0  1  0  0  0  0  0  0
    1.9357   -5.6930    1.0568 O   0  0  0  0  0  0  0  0  0  0  0  0
   -0.0003    2.8988    0.0151 C   0  0  0  0  0  0  0  0  0  0  0  0
   -0.7200    3.2152   -0.5854 H   0  0  0  0  0  0  0  0  0  0  0  0
    0.8862    3.2134   -0.2904 H   0  0  0  0  0  0  0  0  0  0  0  0
   -0.1801    3.3329    0.9987 H   0  0  0  0  0  0  0  0  0  0  0  0
    0.0006    1.4019    0.0007 C   0  0  0  0  0  0  0  0  0  0  0  0
   -1.1974    0.6926   -0.0009 C   0  0  0  0  0  0  0  0  0  0  0  0
   -2.0639    1.1822   -0.0044 H   0  0  0  0  0  0  0  0  0  0  0  0
   -1.2029   -0.7006    0.0000 C   0  0  0  0  0  0  0  0  0  0  0  0
   -2.0790   -1.1925    0.0015 H   0  0  0  0  0  0  0  0  0  0  0  0
   -0.0012   -1.3945    0.0003 C   0  0  0  0  0  0  0  0  0  0  0  0
   -0.0016   -2.3933   -0.0002 H   0  0  0  0  0  0  0  0  0  0  0  0
    1.2029   -0.6955   -0.0000 C   0  0  0  0  0  0  0  0  0  0  0  0
    2.0834   -1.1937    0.0011 H   0  0  0  0  0  0  0  0  0  0  0  0
    1.1980    0.6961   -0.0002 C   0  0  0  0  0  0  0  0  0  0  0  0
    2.0652    1.1925   -0.0018 H   0  0  0  0  0  0  0  0  0  0  0  0
  1  5  1  0
  5  6  1  0
  5  7  2  0
  1  2  1  0
  1  3  1  0
  1  4  1  0
  8 12  1  0
 12 13  2  0
 13 15  1  0
 15 17  2  0
 17 19  1  0
 19 21  2  0
 21 12  1  0
  8  9  1  0
  8 10  1  0
  8 11  1  0
 13 14  1  0
 15 16  1  0
 17 18  1  0
 19 20  1  0
 21 22  1  0
M  CHG  1   6  -1
M  END
>  <PDB_ID>  (148) 
pdb3x43

>  <RESIDUE_NAME>  (148) 
GLU   PHE

>  <FRAG_NAME>  (148) 
ACET   MBZ

>  <FRAG_ATOM_NUM>  (148) 
fragi: 7  fragj: 15

>  <atom.prop.CHAIN_ID>  (148) 
A A A A A A A Z Z Z Z Z Z Z Z Z Z Z Z Z Z Z

>  <atom.prop.IS_HEAVY_ATOM>  (148) 
1 0 0 0 1 1 1 1 0 0 0 1 1 0 1 0 1 0 1 0 1 0

>  <DIFUSE_FUNC_ATOM>  (148) 
atom 6   atom 7   

>  <FINAL_SINGLE_POINT_ENERGY>  (148) 
0

>  <NONCOV_INTER_ENERGY_QM>  (148) 
0

>  <FF_Energy>  (148) 
10.31

>  <QM_Energy>  (148) 
-4.48

>  <source>  (148) 
ACET_MBZ_02

>  <Index>  (148) 
15432

$$$$
ACET-pdb3zh9-B-ASP-4:MBZ-pdb3zh9-B-PHE-139
     RDKit          3D

 22 21  0  0  0  0  0  0  0  0999 V2000
   -1.4955   -5.7328    0.6798 C   0  0  0  0  0  0  0  0  0  0  0  0
   -2.0257   -6.4644    0.2609 H   0  0  0  0  0  0  0  0  0  0  0  0
   -2.1016   -5.0824    1.1255 H   0  0  0  0  0  0  0  0  0  0  0  0
   -0.8441   -6.1703    1.4363 H   0  0  0  0  0  0  0  0  0  0  0  0
   -0.7375   -4.9943   -0.4347 C   0  0  0  0  0  0  0  0  0  0  0  0
    0.2467   -5.5224   -1.0082 O   0  0  0  0  0  1  0  0  0  0  0  0
   -1.1683   -3.8664   -0.7585 O   0  0  0  0  0  0  0  0  0  0  0  0
    0.0290    2.9462    0.0007 C   0  0  0  0  0  0  0  0  0  0  0  0
    0.8499    3.2319   -0.4685 H   0  0  0  0  0  0  0  0  0  0  0  0
    0.0293    3.2428    0.9435 H   0  0  0  0  0  0  0  0  0  0  0  0
   -0.8196    3.4159   -0.4965 H   0  0  0  0  0  0  0  0  0  0  0  0
    0.0013    1.4207   -0.0033 C   0  0  0  0  0  0  0  0  0  0  0  0
   -1.1993    0.7117    0.0022 C   0  0  0  0  0  0  0  0  0  0  0  0
   -2.0655    1.1936    0.0065 H   0  0  0  0  0  0  0  0  0  0  0  0
   -1.2053   -0.6995   -0.0000 C   0  0  0  0  0  0  0  0  0  0  0  0
   -2.0834   -1.1849    0.0014 H   0  0  0  0  0  0  0  0  0  0  0  0
    0.0005   -1.4103   -0.0020 C   0  0  0  0  0  0  0  0  0  0  0  0
   -0.0128   -2.4051   -0.0056 H   0  0  0  0  0  0  0  0  0  0  0  0
    1.2053   -0.7160    0.0000 C   0  0  0  0  0  0  0  0  0  0  0  0
    2.0855   -1.2050    0.0009 H   0  0  0  0  0  0  0  0  0  0  0  0
    1.1975    0.6934    0.0031 C   0  0  0  0  0  0  0  0  0  0  0  0
    2.0709    1.1820    0.0090 H   0  0  0  0  0  0  0  0  0  0  0  0
  1  5  1  0
  5  6  1  0
  5  7  2  0
  1  2  1  0
  1  3  1  0
  1  4  1  0
  8 12  1  0
 12 13  2  0
 13 15  1  0
 15 17  2  0
 17 19  1  0
 19 21  2  0
 21 12  1  0
  8  9  1  0
  8 10  1  0
  8 11  1  0
 13 14  1  0
 15 16  1  0
 17 18  1  0
 19 20  1  0
 21 22  1  0
M  CHG  1   6  -1
M  END
>  <PDB_ID>  (149) 
pdb3zh9

>  <RESIDUE_NAME>  (149) 
ASP   PHE

>  <FRAG_NAME>  (149) 
ACET   MBZ

>  <FRAG_ATOM_NUM>  (149) 
fragi: 7  fragj: 15

>  <atom.prop.CHAIN_ID>  (149) 
A A A A A A A Z Z Z Z Z Z Z Z Z Z Z Z Z Z Z

>  <atom.prop.IS_HEAVY_ATOM>  (149) 
1 0 0 0 1 1 1 1 0 0 0 1 1 0 1 0 1 0 1 0 1 0

>  <DIFUSE_FUNC_ATOM>  (149) 
atom 6   atom 7   

>  <FINAL_SINGLE_POINT_ENERGY>  (149) 
0

>  <NONCOV_INTER_ENERGY_QM>  (149) 
0

>  <FF_Energy>  (149) 
5.93

>  <QM_Energy>  (149) 
-4.6

>  <source>  (149) 
ACET_MBZ_02

>  <Index>  (149) 
15685

$$$$
ACET-pdb5ail-B-GLU-328:MBZ-pdb5ail-B-PHE-349
     RDKit          3D

 22 21  0  0  0  0  0  0  0  0999 V2000
    2.3234   -5.0339    0.4957 C   0  0  0  0  0  0  0  0  0  0  0  0
    3.2521   -5.3052    0.7406 H   0  0  0  0  0  0  0  0  0  0  0  0
    1.7617   -5.8476    0.3564 H   0  0  0  0  0  0  0  0  0  0  0  0
    1.9072   -4.4845    1.3401 H   0  0  0  0  0  0  0  0  0  0  0  0
    2.4144   -4.3124   -0.8808 C   0  0  0  0  0  0  0  0  0  0  0  0
    2.0065   -3.1818   -1.1070 O   0  0  0  0  0  1  0  0  0  0  0  0
    2.9419   -4.8810   -1.8244 O   0  0  0  0  0  0  0  0  0  0  0  0
   -0.0229    2.8873   -0.0654 C   0  0  0  0  0  0  0  0  0  0  0  0
    0.8123    3.2349    0.3155 H   0  0  0  0  0  0  0  0  0  0  0  0
   -0.8180    3.2125    0.4084 H   0  0  0  0  0  0  0  0  0  0  0  0
   -0.0865    3.2449   -1.0931 H   0  0  0  0  0  0  0  0  0  0  0  0
    0.0019    1.3952    0.0110 C   0  0  0  0  0  0  0  0  0  0  0  0
   -1.1948    0.6844   -0.0059 C   0  0  0  0  0  0  0  0  0  0  0  0
   -2.0608    1.1828   -0.0239 H   0  0  0  0  0  0  0  0  0  0  0  0
   -1.2024   -0.6917   -0.0000 C   0  0  0  0  0  0  0  0  0  0  0  0
   -2.0796   -1.1897   -0.0120 H   0  0  0  0  0  0  0  0  0  0  0  0
   -0.0058   -1.3863    0.0238 C   0  0  0  0  0  0  0  0  0  0  0  0
   -0.0100   -2.3873    0.0576 H   0  0  0  0  0  0  0  0  0  0  0  0
    1.2024   -0.6969   -0.0000 C   0  0  0  0  0  0  0  0  0  0  0  0
    2.0784   -1.1972    0.0051 H   0  0  0  0  0  0  0  0  0  0  0  0
    1.1987    0.6952   -0.0290 C   0  0  0  0  0  0  0  0  0  0  0  0
    2.0634    1.1899   -0.0794 H   0  0  0  0  0  0  0  0  0  0  0  0
  1  5  1  0
  5  6  1  0
  5  7  2  0
  1  2  1  0
  1  3  1  0
  1  4  1  0
  8 12  1  0
 12 13  2  0
 13 15  1  0
 15 17  2  0
 17 19  1  0
 19 21  2  0
 21 12  1  0
  8  9  1  0
  8 10  1  0
  8 11  1  0
 13 14  1  0
 15 16  1  0
 17 18  1  0
 19 20  1  0
 21 22  1  0
M  CHG  1   6  -1
M  END
>  <PDB_ID>  (150) 
pdb5ail

>  <RESIDUE_NAME>  (150) 
GLU   PHE

>  <FRAG_NAME>  (150) 
ACET   MBZ

>  <FRAG_ATOM_NUM>  (150) 
fragi: 7  fragj: 15

>  <atom.prop.CHAIN_ID>  (150) 
A A A A A A A Z Z Z Z Z Z Z Z Z Z Z Z Z Z Z

>  <atom.prop.IS_HEAVY_ATOM>  (150) 
1 0 0 0 1 1 1 1 0 0 0 1 1 0 1 0 1 0 1 0 1 0

>  <DIFUSE_FUNC_ATOM>  (150) 
atom 6   atom 7   

>  <FINAL_SINGLE_POINT_ENERGY>  (150) 
0

>  <NONCOV_INTER_ENERGY_QM>  (150) 
0

>  <FF_Energy>  (150) 
13.77

>  <QM_Energy>  (150) 
-4.09

>  <source>  (150) 
ACET_MBZ_02

>  <Index>  (150) 
18218

$$$$
ACET-pdb5ay9-A-GLU-136:MBZ-pdb5ay9-A-PHE-196
     RDKit          3D

 22 21  0  0  0  0  0  0  0  0999 V2000
    4.4139    0.8041   -1.7481 C   0  0  0  0  0  0  0  0  0  0  0  0
    3.7086    0.7123   -2.4193 H   0  0  0  0  0  0  0  0  0  0  0  0
    4.3041    0.1926   -0.9922 H   0  0  0  0  0  0  0  0  0  0  0  0
    5.3701    0.5914   -2.2262 H   0  0  0  0  0  0  0  0  0  0  0  0
    4.3552    2.2213   -1.2070 C   0  0  0  0  0  0  0  0  0  0  0  0
    5.3698    2.9393   -1.3218 O   0  0  0  0  0  1  0  0  0  0  0  0
    3.3039    2.6197   -0.6713 O   0  0  0  0  0  0  0  0  0  0  0  0
    0.0035    2.9075    0.0155 C   0  0  0  0  0  0  0  0  0  0  0  0
    0.8603    3.2035    0.4120 H   0  0  0  0  0  0  0  0  0  0  0  0
   -0.7653    3.2045    0.5635 H   0  0  0  0  0  0  0  0  0  0  0  0
   -0.0877    3.3743   -0.9653 H   0  0  0  0  0  0  0  0  0  0  0  0
    0.0003    1.3965   -0.0076 C   0  0  0  0  0  0  0  0  0  0  0  0
   -1.1926    0.6901    0.0057 C   0  0  0  0  0  0  0  0  0  0  0  0
   -2.0604    1.1815    0.0182 H   0  0  0  0  0  0  0  0  0  0  0  0
   -1.1956   -0.6931   -0.0000 C   0  0  0  0  0  0  0  0  0  0  0  0
   -2.0733   -1.1896   -0.0005 H   0  0  0  0  0  0  0  0  0  0  0  0
    0.0015   -1.3852   -0.0034 C   0  0  0  0  0  0  0  0  0  0  0  0
   -0.0035   -2.3871   -0.0089 H   0  0  0  0  0  0  0  0  0  0  0  0
    1.1956   -0.6940    0.0000 C   0  0  0  0  0  0  0  0  0  0  0  0
    2.0784   -1.1945    0.0006 H   0  0  0  0  0  0  0  0  0  0  0  0
    1.1907    0.6858    0.0053 C   0  0  0  0  0  0  0  0  0  0  0  0
    2.0617    1.1855    0.0178 H   0  0  0  0  0  0  0  0  0  0  0  0
  1  5  1  0
  5  6  1  0
  5  7  2  0
  1  2  1  0
  1  3  1  0
  1  4  1  0
  8 12  1  0
 12 13  2  0
 13 15  1  0
 15 17  2  0
 17 19  1  0
 19 21  2  0
 21 12  1  0
  8  9  1  0
  8 10  1  0
  8 11  1  0
 13 14  1  0
 15 16  1  0
 17 18  1  0
 19 20  1  0
 21 22  1  0
M  CHG  1   6  -1
M  END
>  <PDB_ID>  (151) 
pdb5ay9

>  <RESIDUE_NAME>  (151) 
GLU   PHE

>  <FRAG_NAME>  (151) 
ACET   MBZ

>  <FRAG_ATOM_NUM>  (151) 
fragi: 7  fragj: 15

>  <atom.prop.CHAIN_ID>  (151) 
A A A A A A A Z Z Z Z Z Z Z Z Z Z Z Z Z Z Z

>  <atom.prop.IS_HEAVY_ATOM>  (151) 
1 0 0 0 1 1 1 1 0 0 0 1 1 0 1 0 1 0 1 0 1 0

>  <DIFUSE_FUNC_ATOM>  (151) 
atom 6   atom 7   

>  <FINAL_SINGLE_POINT_ENERGY>  (151) 
0

>  <NONCOV_INTER_ENERGY_QM>  (151) 
0

>  <FF_Energy>  (151) 
4.77

>  <QM_Energy>  (151) 
-6.81

>  <source>  (151) 
ACET_MBZ_02

>  <Index>  (151) 
18767

$$$$
ACET-pdb6ca8-A-GLU-631:MBZ-pdb6ca8-A-PHE-626
     RDKit          3D

 22 21  0  0  0  0  0  0  0  0999 V2000
   -4.4269    2.0266    0.6693 C   0  0  0  0  0  0  0  0  0  0  0  0
   -3.5362    1.6494    0.5091 H   0  0  0  0  0  0  0  0  0  0  0  0
   -5.0927    1.3416    0.8896 H   0  0  0  0  0  0  0  0  0  0  0  0
   -4.3648    2.7375    1.4932 H   0  0  0  0  0  0  0  0  0  0  0  0
   -4.8754    2.6923   -0.6241 C   0  0  0  0  0  0  0  0  0  0  0  0
   -4.9584    3.9472   -0.6413 O   0  0  0  0  0  1  0  0  0  0  0  0
   -5.1194    1.9857   -1.6136 O   0  0  0  0  0  0  0  0  0  0  0  0
    0.0025    2.8951   -0.0071 C   0  0  0  0  0  0  0  0  0  0  0  0
    0.8475    3.2025    0.4015 H   0  0  0  0  0  0  0  0  0  0  0  0
   -0.7820    3.2063    0.5058 H   0  0  0  0  0  0  0  0  0  0  0  0
   -0.0612    3.3229   -1.0076 H   0  0  0  0  0  0  0  0  0  0  0  0
    0.0004    1.3942    0.0036 C   0  0  0  0  0  0  0  0  0  0  0  0
   -1.1920    0.6907   -0.0032 C   0  0  0  0  0  0  0  0  0  0  0  0
   -2.0596    1.1829   -0.0116 H   0  0  0  0  0  0  0  0  0  0  0  0
   -1.1953   -0.6917   -0.0000 C   0  0  0  0  0  0  0  0  0  0  0  0
   -2.0744   -1.1874    0.0029 H   0  0  0  0  0  0  0  0  0  0  0  0
   -0.0005   -1.3849    0.0008 C   0  0  0  0  0  0  0  0  0  0  0  0
   -0.0057   -2.3864    0.0019 H   0  0  0  0  0  0  0  0  0  0  0  0
    1.1953   -0.6944    0.0000 C   0  0  0  0  0  0  0  0  0  0  0  0
    2.0780   -1.1960    0.0017 H   0  0  0  0  0  0  0  0  0  0  0  0
    1.1921    0.6862   -0.0012 C   0  0  0  0  0  0  0  0  0  0  0  0
    2.0620    1.1852   -0.0064 H   0  0  0  0  0  0  0  0  0  0  0  0
  1  5  1  0
  5  6  1  0
  5  7  2  0
  1  2  1  0
  1  3  1  0
  1  4  1  0
  8 12  1  0
 12 13  2  0
 13 15  1  0
 15 17  2  0
 17 19  1  0
 19 21  2  0
 21 12  1  0
  8  9  1  0
  8 10  1  0
  8 11  1  0
 13 14  1  0
 15 16  1  0
 17 18  1  0
 19 20  1  0
 21 22  1  0
M  CHG  1   6  -1
M  END
>  <PDB_ID>  (152) 
pdb6ca8

>  <RESIDUE_NAME>  (152) 
GLU   PHE

>  <FRAG_NAME>  (152) 
ACET   MBZ

>  <FRAG_ATOM_NUM>  (152) 
fragi: 7  fragj: 15

>  <atom.prop.CHAIN_ID>  (152) 
A A A A A A A Z Z Z Z Z Z Z Z Z Z Z Z Z Z Z

>  <atom.prop.IS_HEAVY_ATOM>  (152) 
1 0 0 0 1 1 1 1 0 0 0 1 1 0 1 0 1 0 1 0 1 0

>  <DIFUSE_FUNC_ATOM>  (152) 
atom 6   atom 7   

>  <FINAL_SINGLE_POINT_ENERGY>  (152) 
0

>  <NONCOV_INTER_ENERGY_QM>  (152) 
0

>  <FF_Energy>  (152) 
9.51

>  <QM_Energy>  (152) 
-0.84

>  <source>  (152) 
ACET_MBZ_02

>  <Index>  (152) 
21250

$$$$
ACET-pdb6chj-A-GLU-85:MBZ-pdb6chj-A-PHE-99
     RDKit          3D

 22 21  0  0  0  0  0  0  0  0999 V2000
   -2.1992   -4.9665   -1.5727 C   0  0  0  0  0  0  0  0  0  0  0  0
   -3.0703   -5.3286   -1.2710 H   0  0  0  0  0  0  0  0  0  0  0  0
   -1.7347   -5.6072   -2.1687 H   0  0  0  0  0  0  0  0  0  0  0  0
   -2.4086   -4.0722   -2.1596 H   0  0  0  0  0  0  0  0  0  0  0  0
   -1.3196   -4.7694   -0.3265 C   0  0  0  0  0  0  0  0  0  0  0  0
   -0.1893   -4.2633   -0.4478 O   0  0  0  0  0  1  0  0  0  0  0  0
   -1.7339   -5.1886    0.7767 O   0  0  0  0  0  0  0  0  0  0  0  0
   -0.0157    2.8779    0.0472 C   0  0  0  0  0  0  0  0  0  0  0  0
   -0.8683    3.1927   -0.3379 H   0  0  0  0  0  0  0  0  0  0  0  0
    0.7605    3.2172   -0.4595 H   0  0  0  0  0  0  0  0  0  0  0  0
    0.0544    3.2713    1.0613 H   0  0  0  0  0  0  0  0  0  0  0  0
    0.0028    1.3926    0.0001 C   0  0  0  0  0  0  0  0  0  0  0  0
   -1.1907    0.6808    0.0119 C   0  0  0  0  0  0  0  0  0  0  0  0
   -2.0586    1.1779    0.0277 H   0  0  0  0  0  0  0  0  0  0  0  0
   -1.1975   -0.6950    0.0000 C   0  0  0  0  0  0  0  0  0  0  0  0
   -2.0810   -1.1873   -0.0002 H   0  0  0  0  0  0  0  0  0  0  0  0
   -0.0152   -1.3819   -0.0095 C   0  0  0  0  0  0  0  0  0  0  0  0
   -0.0089   -2.3846   -0.0239 H   0  0  0  0  0  0  0  0  0  0  0  0
    1.1975   -0.6887   -0.0000 C   0  0  0  0  0  0  0  0  0  0  0  0
    2.0713   -1.2001    0.0109 H   0  0  0  0  0  0  0  0  0  0  0  0
    1.2032    0.6923   -0.0025 C   0  0  0  0  0  0  0  0  0  0  0  0
    2.0666    1.1900   -0.0069 H   0  0  0  0  0  0  0  0  0  0  0  0
  1  5  1  0
  5  6  1  0
  5  7  2  0
  1  2  1  0
  1  3  1  0
  1  4  1  0
  8 12  1  0
 12 13  2  0
 13 15  1  0
 15 17  2  0
 17 19  1  0
 19 21  2  0
 21 12  1  0
  8  9  1  0
  8 10  1  0
  8 11  1  0
 13 14  1  0
 15 16  1  0
 17 18  1  0
 19 20  1  0
 21 22  1  0
M  CHG  1   6  -1
M  END
>  <PDB_ID>  (153) 
pdb6chj

>  <RESIDUE_NAME>  (153) 
GLU   PHE

>  <FRAG_NAME>  (153) 
ACET   MBZ

>  <FRAG_ATOM_NUM>  (153) 
fragi: 7  fragj: 15

>  <atom.prop.CHAIN_ID>  (153) 
A A A A A A A Z Z Z Z Z Z Z Z Z Z Z Z Z Z Z

>  <atom.prop.IS_HEAVY_ATOM>  (153) 
1 0 0 0 1 1 1 1 0 0 0 1 1 0 1 0 1 0 1 0 1 0

>  <DIFUSE_FUNC_ATOM>  (153) 
atom 6   atom 7   

>  <FINAL_SINGLE_POINT_ENERGY>  (153) 
0

>  <NONCOV_INTER_ENERGY_QM>  (153) 
0

>  <FF_Energy>  (153) 
9.44

>  <QM_Energy>  (153) 
-5.03

>  <source>  (153) 
ACET_MBZ_02

>  <Index>  (153) 
21537

$$$$
ACET-pdb6d63-K-GLU-51:MBZ-pdb6d63-K-PHE-62
     RDKit          3D

 22 21  0  0  0  0  0  0  0  0999 V2000
    3.0098   -0.3578    3.9827 C   0  0  0  0  0  0  0  0  0  0  0  0
    2.3156   -0.5789    4.6705 H   0  0  0  0  0  0  0  0  0  0  0  0
    2.8977    0.5967    3.6992 H   0  0  0  0  0  0  0  0  0  0  0  0
    3.9891   -0.4574    4.4508 H   0  0  0  0  0  0  0  0  0  0  0  0
    2.7508   -1.2173    2.7860 C   0  0  0  0  0  0  0  0  0  0  0  0
    3.7047   -1.6278    2.0806 O   0  0  0  0  0  1  0  0  0  0  0  0
    1.5257   -1.3380    2.4384 O   0  0  0  0  0  0  0  0  0  0  0  0
   -0.0038    2.8962   -0.0302 C   0  0  0  0  0  0  0  0  0  0  0  0
    0.8082    3.2127    0.4372 H   0  0  0  0  0  0  0  0  0  0  0  0
   -0.8248    3.2054    0.4249 H   0  0  0  0  0  0  0  0  0  0  0  0
    0.0016    3.3265   -1.0316 H   0  0  0  0  0  0  0  0  0  0  0  0
    0.0026    1.3933   -0.0122 C   0  0  0  0  0  0  0  0  0  0  0  0
   -1.1912    0.6915   -0.0279 C   0  0  0  0  0  0  0  0  0  0  0  0
   -2.0578    1.1813   -0.0619 H   0  0  0  0  0  0  0  0  0  0  0  0
   -1.1938   -0.6945   -0.0000 C   0  0  0  0  0  0  0  0  0  0  0  0
   -2.0743   -1.1882    0.0159 H   0  0  0  0  0  0  0  0  0  0  0  0
   -0.0003   -1.3898    0.0087 C   0  0  0  0  0  0  0  0  0  0  0  0
   -0.0027   -2.3883    0.0209 H   0  0  0  0  0  0  0  0  0  0  0  0
    1.1938   -0.6929   -0.0000 C   0  0  0  0  0  0  0  0  0  0  0  0
    2.0786   -1.1900   -0.0267 H   0  0  0  0  0  0  0  0  0  0  0  0
    1.1889    0.6924    0.0315 C   0  0  0  0  0  0  0  0  0  0  0  0
    2.0589    1.1869    0.0850 H   0  0  0  0  0  0  0  0  0  0  0  0
  1  5  1  0
  5  6  1  0
  5  7  2  0
  1  2  1  0
  1  3  1  0
  1  4  1  0
  8 12  1  0
 12 13  2  0
 13 15  1  0
 15 17  2  0
 17 19  1  0
 19 21  2  0
 21 12  1  0
  8  9  1  0
  8 10  1  0
  8 11  1  0
 13 14  1  0
 15 16  1  0
 17 18  1  0
 19 20  1  0
 21 22  1  0
M  CHG  1   6  -1
M  END
>  <PDB_ID>  (154) 
pdb6d63

>  <RESIDUE_NAME>  (154) 
GLU   PHE

>  <FRAG_NAME>  (154) 
ACET   MBZ

>  <FRAG_ATOM_NUM>  (154) 
fragi: 7  fragj: 15

>  <atom.prop.CHAIN_ID>  (154) 
A A A A A A A Z Z Z Z Z Z Z Z Z Z Z Z Z Z Z

>  <atom.prop.IS_HEAVY_ATOM>  (154) 
1 0 0 0 1 1 1 1 0 0 0 1 1 0 1 0 1 0 1 0 1 0

>  <DIFUSE_FUNC_ATOM>  (154) 
atom 6   atom 7   

>  <FINAL_SINGLE_POINT_ENERGY>  (154) 
0

>  <NONCOV_INTER_ENERGY_QM>  (154) 
0

>  <FF_Energy>  (154) 
9.75

>  <QM_Energy>  (154) 
-0.47

>  <source>  (154) 
ACET_MBZ_02

>  <Index>  (154) 
22360

$$$$
ACET-pdb6ech-C-GLU-385:MBZ-pdb6ech-C-PHE-382
     RDKit          3D

 22 21  0  0  0  0  0  0  0  0999 V2000
   -2.5952    3.5557    1.8493 C   0  0  0  0  0  0  0  0  0  0  0  0
   -1.7756    3.9558    1.4146 H   0  0  0  0  0  0  0  0  0  0  0  0
   -2.3482    2.6333    2.1804 H   0  0  0  0  0  0  0  0  0  0  0  0
   -2.8520    4.1684    2.7134 H   0  0  0  0  0  0  0  0  0  0  0  0
   -3.6248    3.3599    0.7421 C   0  0  0  0  0  0  0  0  0  0  0  0
   -3.3701    3.8376   -0.3993 O   0  0  0  0  0  1  0  0  0  0  0  0
   -4.6587    2.7320    1.0154 O   0  0  0  0  0  0  0  0  0  0  0  0
    0.0079    2.8992   -0.0383 C   0  0  0  0  0  0  0  0  0  0  0  0
    0.9433    3.2042    0.1005 H   0  0  0  0  0  0  0  0  0  0  0  0
   -0.5764    3.2204    0.6987 H   0  0  0  0  0  0  0  0  0  0  0  0
   -0.3520    3.3444   -0.9659 H   0  0  0  0  0  0  0  0  0  0  0  0
    0.0013    1.3985   -0.0128 C   0  0  0  0  0  0  0  0  0  0  0  0
   -1.1924    0.6950   -0.0094 C   0  0  0  0  0  0  0  0  0  0  0  0
   -2.0589    1.1804   -0.0153 H   0  0  0  0  0  0  0  0  0  0  0  0
   -1.1877   -0.6951   -0.0000 C   0  0  0  0  0  0  0  0  0  0  0  0
   -2.0716   -1.1890    0.0010 H   0  0  0  0  0  0  0  0  0  0  0  0
    0.0007   -1.3900    0.0097 C   0  0  0  0  0  0  0  0  0  0  0  0
   -0.0062   -2.3912    0.0232 H   0  0  0  0  0  0  0  0  0  0  0  0
    1.1877   -0.6994    0.0000 C   0  0  0  0  0  0  0  0  0  0  0  0
    2.0763   -1.1950   -0.0144 H   0  0  0  0  0  0  0  0  0  0  0  0
    1.1904    0.6910    0.0124 C   0  0  0  0  0  0  0  0  0  0  0  0
    2.0613    1.1811    0.0395 H   0  0  0  0  0  0  0  0  0  0  0  0
  1  5  1  0
  5  6  1  0
  5  7  2  0
  1  2  1  0
  1  3  1  0
  1  4  1  0
  8 12  1  0
 12 13  2  0
 13 15  1  0
 15 17  2  0
 17 19  1  0
 19 21  2  0
 21 12  1  0
  8  9  1  0
  8 10  1  0
  8 11  1  0
 13 14  1  0
 15 16  1  0
 17 18  1  0
 19 20  1  0
 21 22  1  0
M  CHG  1   6  -1
M  END
>  <PDB_ID>  (155) 
pdb6ech

>  <RESIDUE_NAME>  (155) 
GLU   PHE

>  <FRAG_NAME>  (155) 
ACET   MBZ

>  <FRAG_ATOM_NUM>  (155) 
fragi: 7  fragj: 15

>  <atom.prop.CHAIN_ID>  (155) 
A A A A A A A Z Z Z Z Z Z Z Z Z Z Z Z Z Z Z

>  <atom.prop.IS_HEAVY_ATOM>  (155) 
1 0 0 0 1 1 1 1 0 0 0 1 1 0 1 0 1 0 1 0 1 0

>  <DIFUSE_FUNC_ATOM>  (155) 
atom 6   atom 7   

>  <FINAL_SINGLE_POINT_ENERGY>  (155) 
0

>  <NONCOV_INTER_ENERGY_QM>  (155) 
0

>  <FF_Energy>  (155) 
13.92

>  <QM_Energy>  (155) 
-2.49

>  <source>  (155) 
ACET_MBZ_02

>  <Index>  (155) 
24119

$$$$
ACET-pdb5ech-A-ASP-190:MBZ-pdb5ech-A-PHE-194
     RDKit          3D

 22 21  0  0  0  0  0  0  0  0999 V2000
    5.7084    0.5672   -0.6171 C   0  0  0  0  0  0  0  0  0  0  0  0
    6.5457    0.0604   -0.7778 H   0  0  0  0  0  0  0  0  0  0  0  0
    5.8857    1.3728   -0.0659 H   0  0  0  0  0  0  0  0  0  0  0  0
    5.3227    0.8962   -1.5820 H   0  0  0  0  0  0  0  0  0  0  0  0
    4.7311   -0.3262    0.1221 C   0  0  0  0  0  0  0  0  0  0  0  0
    4.0124   -1.0944   -0.5541 O   0  0  0  0  0  1  0  0  0  0  0  0
    4.6825   -0.2584    1.3714 O   0  0  0  0  0  0  0  0  0  0  0  0
   -0.0073    2.8926   -0.0251 C   0  0  0  0  0  0  0  0  0  0  0  0
    0.9280    3.2048    0.0045 H   0  0  0  0  0  0  0  0  0  0  0  0
   -0.5244    3.2107    0.7522 H   0  0  0  0  0  0  0  0  0  0  0  0
   -0.4678    3.3052   -0.9227 H   0  0  0  0  0  0  0  0  0  0  0  0
   -0.0018    1.3932   -0.0027 C   0  0  0  0  0  0  0  0  0  0  0  0
   -1.1868    0.6885   -0.0020 C   0  0  0  0  0  0  0  0  0  0  0  0
   -2.0571    1.1764   -0.0043 H   0  0  0  0  0  0  0  0  0  0  0  0
   -1.1826   -0.6899   -0.0000 C   0  0  0  0  0  0  0  0  0  0  0  0
   -2.0657   -1.1883   -0.0047 H   0  0  0  0  0  0  0  0  0  0  0  0
    0.0041   -1.3792    0.0097 C   0  0  0  0  0  0  0  0  0  0  0  0
   -0.0048   -2.3844    0.0235 H   0  0  0  0  0  0  0  0  0  0  0  0
    1.1826   -0.6964    0.0000 C   0  0  0  0  0  0  0  0  0  0  0  0
    2.0727   -1.1933   -0.0023 H   0  0  0  0  0  0  0  0  0  0  0  0
    1.1845    0.6838   -0.0049 C   0  0  0  0  0  0  0  0  0  0  0  0
    2.0573    1.1791   -0.0113 H   0  0  0  0  0  0  0  0  0  0  0  0
  1  5  1  0
  5  6  1  0
  5  7  2  0
  1  2  1  0
  1  3  1  0
  1  4  1  0
  8 12  1  0
 12 13  2  0
 13 15  1  0
 15 17  2  0
 17 19  1  0
 19 21  2  0
 21 12  1  0
  8  9  1  0
  8 10  1  0
  8 11  1  0
 13 14  1  0
 15 16  1  0
 17 18  1  0
 19 20  1  0
 21 22  1  0
M  CHG  1   6  -1
M  END
>  <PDB_ID>  (156) 
pdb5ech

>  <RESIDUE_NAME>  (156) 
ASP   PHE

>  <FRAG_NAME>  (156) 
ACET   MBZ

>  <FRAG_ATOM_NUM>  (156) 
fragi: 7  fragj: 15

>  <atom.prop.CHAIN_ID>  (156) 
A A A A A A A Z Z Z Z Z Z Z Z Z Z Z Z Z Z Z

>  <atom.prop.IS_HEAVY_ATOM>  (156) 
1 0 0 0 1 1 1 1 0 0 0 1 1 0 1 0 1 0 1 0 1 0

>  <DIFUSE_FUNC_ATOM>  (156) 
atom 6   atom 7   

>  <FINAL_SINGLE_POINT_ENERGY>  (156) 
0

>  <NONCOV_INTER_ENERGY_QM>  (156) 
0

>  <FF_Energy>  (156) 
4.39

>  <QM_Energy>  (156) 
-6.29

>  <source>  (156) 
ACET_MBZ_02

>  <Index>  (156) 
24321

$$$$
ACET-pdb5ech-A-GLU-480:MBZ-pdb5ech-A-PHE-528
     RDKit          3D

 22 21  0  0  0  0  0  0  0  0999 V2000
   -5.0680    2.5361   -1.1060 C   0  0  0  0  0  0  0  0  0  0  0  0
   -5.3433    3.0274   -1.9119 H   0  0  0  0  0  0  0  0  0  0  0  0
   -5.8309    2.3087   -0.5289 H   0  0  0  0  0  0  0  0  0  0  0  0
   -4.5877    1.6093   -1.4199 H   0  0  0  0  0  0  0  0  0  0  0  0
   -4.1439    3.4363   -0.3112 C   0  0  0  0  0  0  0  0  0  0  0  0
   -3.0710    2.9620    0.0880 O   0  0  0  0  0  1  0  0  0  0  0  0
   -4.4877    4.6190   -0.0808 O   0  0  0  0  0  0  0  0  0  0  0  0
   -0.0031    2.8907    0.0095 C   0  0  0  0  0  0  0  0  0  0  0  0
   -0.8100    3.1995   -0.4668 H   0  0  0  0  0  0  0  0  0  0  0  0
    0.8233    3.2018   -0.4310 H   0  0  0  0  0  0  0  0  0  0  0  0
   -0.0254    3.3074    1.0165 H   0  0  0  0  0  0  0  0  0  0  0  0
   -0.0006    1.3894   -0.0065 C   0  0  0  0  0  0  0  0  0  0  0  0
   -1.1881    0.6799    0.0017 C   0  0  0  0  0  0  0  0  0  0  0  0
   -2.0593    1.1740    0.0077 H   0  0  0  0  0  0  0  0  0  0  0  0
   -1.1932   -0.6965   -0.0000 C   0  0  0  0  0  0  0  0  0  0  0  0
   -2.0717   -1.1929   -0.0022 H   0  0  0  0  0  0  0  0  0  0  0  0
   -0.0022   -1.3788    0.0029 C   0  0  0  0  0  0  0  0  0  0  0  0
    0.0012   -2.3829    0.0064 H   0  0  0  0  0  0  0  0  0  0  0  0
    1.1932   -0.6848   -0.0000 C   0  0  0  0  0  0  0  0  0  0  0  0
    2.0757   -1.1892   -0.0022 H   0  0  0  0  0  0  0  0  0  0  0  0
    1.1910    0.6907    0.0019 C   0  0  0  0  0  0  0  0  0  0  0  0
    2.0582    1.1919    0.0088 H   0  0  0  0  0  0  0  0  0  0  0  0
  1  5  1  0
  5  6  1  0
  5  7  2  0
  1  2  1  0
  1  3  1  0
  1  4  1  0
  8 12  1  0
 12 13  2  0
 13 15  1  0
 15 17  2  0
 17 19  1  0
 19 21  2  0
 21 12  1  0
  8  9  1  0
  8 10  1  0
  8 11  1  0
 13 14  1  0
 15 16  1  0
 17 18  1  0
 19 20  1  0
 21 22  1  0
M  CHG  1   6  -1
M  END
>  <PDB_ID>  (157) 
pdb5ech

>  <RESIDUE_NAME>  (157) 
GLU   PHE

>  <FRAG_NAME>  (157) 
ACET   MBZ

>  <FRAG_ATOM_NUM>  (157) 
fragi: 7  fragj: 15

>  <atom.prop.CHAIN_ID>  (157) 
A A A A A A A Z Z Z Z Z Z Z Z Z Z Z Z Z Z Z

>  <atom.prop.IS_HEAVY_ATOM>  (157) 
1 0 0 0 1 1 1 1 0 0 0 1 1 0 1 0 1 0 1 0 1 0

>  <DIFUSE_FUNC_ATOM>  (157) 
atom 6   atom 7   

>  <FINAL_SINGLE_POINT_ENERGY>  (157) 
0

>  <NONCOV_INTER_ENERGY_QM>  (157) 
0

>  <FF_Energy>  (157) 
4.24

>  <QM_Energy>  (157) 
-7.59

>  <source>  (157) 
ACET_MBZ_02

>  <Index>  (157) 
24324

$$$$
ACET-pdb5evi-A-GLU-219:MBZ-pdb5evi-A-PHE-169
     RDKit          3D

 22 21  0  0  0  0  0  0  0  0999 V2000
    0.1541    0.2483   -3.5792 C   0  0  0  0  0  0  0  0  0  0  0  0
   -0.6913    0.5903   -3.9870 H   0  0  0  0  0  0  0  0  0  0  0  0
    0.0207    0.1105   -2.5991 H   0  0  0  0  0  0  0  0  0  0  0  0
    0.3625   -0.7248   -4.0236 H   0  0  0  0  0  0  0  0  0  0  0  0
    1.2111    1.3296   -3.7468 C   0  0  0  0  0  0  0  0  0  0  0  0
    2.1130    1.2599   -4.5974 O   0  0  0  0  0  1  0  0  0  0  0  0
    1.1324    2.3294   -3.0191 O   0  0  0  0  0  0  0  0  0  0  0  0
    0.0124    2.9172   -0.0292 C   0  0  0  0  0  0  0  0  0  0  0  0
   -0.7155    3.2212   -0.6188 H   0  0  0  0  0  0  0  0  0  0  0  0
    0.8950    3.2114   -0.3525 H   0  0  0  0  0  0  0  0  0  0  0  0
   -0.1471    3.3667    0.9509 H   0  0  0  0  0  0  0  0  0  0  0  0
   -0.0000    1.4056   -0.0090 C   0  0  0  0  0  0  0  0  0  0  0  0
   -1.1993    0.7010   -0.0183 C   0  0  0  0  0  0  0  0  0  0  0  0
   -2.0634    1.1819   -0.0393 H   0  0  0  0  0  0  0  0  0  0  0  0
   -1.1911   -0.6991    0.0000 C   0  0  0  0  0  0  0  0  0  0  0  0
   -2.0685   -1.1936    0.0054 H   0  0  0  0  0  0  0  0  0  0  0  0
    0.0105   -1.3917    0.0124 C   0  0  0  0  0  0  0  0  0  0  0  0
    0.0008   -2.3940    0.0300 H   0  0  0  0  0  0  0  0  0  0  0  0
    1.1911   -0.7017   -0.0000 C   0  0  0  0  0  0  0  0  0  0  0  0
    2.0820   -1.1946   -0.0182 H   0  0  0  0  0  0  0  0  0  0  0  0
    1.1888    0.6859    0.0149 C   0  0  0  0  0  0  0  0  0  0  0  0
    2.0618    1.1806    0.0424 H   0  0  0  0  0  0  0  0  0  0  0  0
  1  5  1  0
  5  6  1  0
  5  7  2  0
  1  2  1  0
  1  3  1  0
  1  4  1  0
  8 12  1  0
 12 13  2  0
 13 15  1  0
 15 17  2  0
 17 19  1  0
 19 21  2  0
 21 12  1  0
  8  9  1  0
  8 10  1  0
  8 11  1  0
 13 14  1  0
 15 16  1  0
 17 18  1  0
 19 20  1  0
 21 22  1  0
M  CHG  1   6  -1
M  END
>  <PDB_ID>  (158) 
pdb5evi

>  <RESIDUE_NAME>  (158) 
GLU   PHE

>  <FRAG_NAME>  (158) 
ACET   MBZ

>  <FRAG_ATOM_NUM>  (158) 
fragi: 7  fragj: 15

>  <atom.prop.CHAIN_ID>  (158) 
A A A A A A A Z Z Z Z Z Z Z Z Z Z Z Z Z Z Z

>  <atom.prop.IS_HEAVY_ATOM>  (158) 
1 0 0 0 1 1 1 1 0 0 0 1 1 0 1 0 1 0 1 0 1 0

>  <DIFUSE_FUNC_ATOM>  (158) 
atom 6   atom 7   

>  <FINAL_SINGLE_POINT_ENERGY>  (158) 
0

>  <NONCOV_INTER_ENERGY_QM>  (158) 
0

>  <FF_Energy>  (158) 
6.13

>  <QM_Energy>  (158) 
-4.59

>  <source>  (158) 
ACET_MBZ_02

>  <Index>  (158) 
25254

$$$$
ACET-pdb5f1b-C-GLU-19:MBZ-pdb5f1b-C-PHE-23
     RDKit          3D

 22 21  0  0  0  0  0  0  0  0999 V2000
    4.2855   -1.0773    0.9113 C   0  0  0  0  0  0  0  0  0  0  0  0
    4.6058   -0.6148    1.7087 H   0  0  0  0  0  0  0  0  0  0  0  0
    3.5643   -0.6080    0.4510 H   0  0  0  0  0  0  0  0  0  0  0  0
    5.1215   -1.1813    0.2195 H   0  0  0  0  0  0  0  0  0  0  0  0
    3.7495   -2.4364    1.3481 C   0  0  0  0  0  0  0  0  0  0  0  0
    4.3869   -3.4538    0.9981 O   0  0  0  0  0  1  0  0  0  0  0  0
    2.6833   -2.4953    1.9995 O   0  0  0  0  0  0  0  0  0  0  0  0
    0.0019    2.8890   -0.0463 C   0  0  0  0  0  0  0  0  0  0  0  0
    0.8516    3.2089    0.3313 H   0  0  0  0  0  0  0  0  0  0  0  0
   -0.7774    3.2179    0.4555 H   0  0  0  0  0  0  0  0  0  0  0  0
   -0.0737    3.2745   -1.0630 H   0  0  0  0  0  0  0  0  0  0  0  0
   -0.0022    1.3904    0.0029 C   0  0  0  0  0  0  0  0  0  0  0  0
   -1.1845    0.6810   -0.0061 C   0  0  0  0  0  0  0  0  0  0  0  0
   -2.0576    1.1690   -0.0191 H   0  0  0  0  0  0  0  0  0  0  0  0
   -1.1845   -0.6994   -0.0000 C   0  0  0  0  0  0  0  0  0  0  0  0
   -2.0629   -1.1973    0.0019 H   0  0  0  0  0  0  0  0  0  0  0  0
    0.0078   -1.3804    0.0052 C   0  0  0  0  0  0  0  0  0  0  0  0
    0.0098   -2.3841    0.0122 H   0  0  0  0  0  0  0  0  0  0  0  0
    1.1845   -0.6823    0.0000 C   0  0  0  0  0  0  0  0  0  0  0  0
    2.0779   -1.1792   -0.0015 H   0  0  0  0  0  0  0  0  0  0  0  0
    1.1790    0.6906   -0.0020 C   0  0  0  0  0  0  0  0  0  0  0  0
    2.0525    1.1905   -0.0085 H   0  0  0  0  0  0  0  0  0  0  0  0
  1  5  1  0
  5  6  1  0
  5  7  2  0
  1  2  1  0
  1  3  1  0
  1  4  1  0
  8 12  1  0
 12 13  2  0
 13 15  1  0
 15 17  2  0
 17 19  1  0
 19 21  2  0
 21 12  1  0
  8  9  1  0
  8 10  1  0
  8 11  1  0
 13 14  1  0
 15 16  1  0
 17 18  1  0
 19 20  1  0
 21 22  1  0
M  CHG  1   6  -1
M  END
>  <PDB_ID>  (159) 
pdb5f1b

>  <RESIDUE_NAME>  (159) 
GLU   PHE

>  <FRAG_NAME>  (159) 
ACET   MBZ

>  <FRAG_ATOM_NUM>  (159) 
fragi: 7  fragj: 15

>  <atom.prop.CHAIN_ID>  (159) 
A A A A A A A Z Z Z Z Z Z Z Z Z Z Z Z Z Z Z

>  <atom.prop.IS_HEAVY_ATOM>  (159) 
1 0 0 0 1 1 1 1 0 0 0 1 1 0 1 0 1 0 1 0 1 0

>  <DIFUSE_FUNC_ATOM>  (159) 
atom 6   atom 7   

>  <FINAL_SINGLE_POINT_ENERGY>  (159) 
0

>  <NONCOV_INTER_ENERGY_QM>  (159) 
0

>  <FF_Energy>  (159) 
13.0

>  <QM_Energy>  (159) 
-0.02

>  <source>  (159) 
ACET_MBZ_02

>  <Index>  (159) 
25634

$$$$
ACET-pdb5gsn-D-GLU-80:MBZ-pdb5gsn-D-PHE-86
     RDKit          3D

 22 21  0  0  0  0  0  0  0  0999 V2000
   -4.2394    0.6469   -1.1205 C   0  0  0  0  0  0  0  0  0  0  0  0
   -3.5782    0.7022   -0.3948 H   0  0  0  0  0  0  0  0  0  0  0  0
   -3.9752    0.0059   -1.8170 H   0  0  0  0  0  0  0  0  0  0  0  0
   -5.1867    0.3176   -0.6937 H   0  0  0  0  0  0  0  0  0  0  0  0
   -4.3261    2.0179   -1.7684 C   0  0  0  0  0  0  0  0  0  0  0  0
   -5.4578    2.5183   -1.9526 O   0  0  0  0  0  1  0  0  0  0  0  0
   -3.2653    2.5980   -2.0922 O   0  0  0  0  0  0  0  0  0  0  0  0
   -0.0058    2.9034    0.0142 C   0  0  0  0  0  0  0  0  0  0  0  0
   -0.6426    3.2147   -0.6717 H   0  0  0  0  0  0  0  0  0  0  0  0
    0.9116    3.2156   -0.1706 H   0  0  0  0  0  0  0  0  0  0  0  0
   -0.3144    3.3260    0.9704 H   0  0  0  0  0  0  0  0  0  0  0  0
    0.0003    1.3990   -0.0019 C   0  0  0  0  0  0  0  0  0  0  0  0
   -1.1921    0.6855    0.0015 C   0  0  0  0  0  0  0  0  0  0  0  0
   -2.0614    1.1750    0.0038 H   0  0  0  0  0  0  0  0  0  0  0  0
   -1.1950   -0.7013    0.0000 C   0  0  0  0  0  0  0  0  0  0  0  0
   -2.0736   -1.1944    0.0028 H   0  0  0  0  0  0  0  0  0  0  0  0
   -0.0014   -1.3894   -0.0032 C   0  0  0  0  0  0  0  0  0  0  0  0
    0.0011   -2.3898   -0.0080 H   0  0  0  0  0  0  0  0  0  0  0  0
    1.1950   -0.6906   -0.0000 C   0  0  0  0  0  0  0  0  0  0  0  0
    2.0790   -1.1897    0.0010 H   0  0  0  0  0  0  0  0  0  0  0  0
    1.1932    0.6967    0.0037 C   0  0  0  0  0  0  0  0  0  0  0  0
    2.0617    1.1918    0.0095 H   0  0  0  0  0  0  0  0  0  0  0  0
  1  5  1  0
  5  6  1  0
  5  7  2  0
  1  2  1  0
  1  3  1  0
  1  4  1  0
  8 12  1  0
 12 13  2  0
 13 15  1  0
 15 17  2  0
 17 19  1  0
 19 21  2  0
 21 12  1  0
  8  9  1  0
  8 10  1  0
  8 11  1  0
 13 14  1  0
 15 16  1  0
 17 18  1  0
 19 20  1  0
 21 22  1  0
M  CHG  1   6  -1
M  END
>  <PDB_ID>  (160) 
pdb5gsn

>  <RESIDUE_NAME>  (160) 
GLU   PHE

>  <FRAG_NAME>  (160) 
ACET   MBZ

>  <FRAG_ATOM_NUM>  (160) 
fragi: 7  fragj: 15

>  <atom.prop.CHAIN_ID>  (160) 
A A A A A A A Z Z Z Z Z Z Z Z Z Z Z Z Z Z Z

>  <atom.prop.IS_HEAVY_ATOM>  (160) 
1 0 0 0 1 1 1 1 0 0 0 1 1 0 1 0 1 0 1 0 1 0

>  <DIFUSE_FUNC_ATOM>  (160) 
atom 6   atom 7   

>  <FINAL_SINGLE_POINT_ENERGY>  (160) 
0

>  <NONCOV_INTER_ENERGY_QM>  (160) 
0

>  <FF_Energy>  (160) 
11.25

>  <QM_Energy>  (160) 
-2.18

>  <source>  (160) 
ACET_MBZ_02

>  <Index>  (160) 
28196

$$$$
ACET-pdb6hx3-E-GLU-191:MBZ-pdb6hx3-E-PHE-206
     RDKit          3D

 22 21  0  0  0  0  0  0  0  0999 V2000
   -0.3606   -4.7314    0.6274 C   0  0  0  0  0  0  0  0  0  0  0  0
   -0.0417   -4.6107    1.5466 H   0  0  0  0  0  0  0  0  0  0  0  0
   -0.0620   -4.0175    0.0253 H   0  0  0  0  0  0  0  0  0  0  0  0
    0.0225   -5.6809    0.2534 H   0  0  0  0  0  0  0  0  0  0  0  0
   -1.8774   -4.7005    0.6590 C   0  0  0  0  0  0  0  0  0  0  0  0
   -2.4749   -3.6400    0.3490 O   0  0  0  0  0  1  0  0  0  0  0  0
   -2.4726   -5.7511    0.9884 O   0  0  0  0  0  0  0  0  0  0  0  0
   -0.0005    2.8945   -0.0110 C   0  0  0  0  0  0  0  0  0  0  0  0
   -0.7452    3.1958   -0.5881 H   0  0  0  0  0  0  0  0  0  0  0  0
    0.8724    3.1987   -0.3630 H   0  0  0  0  0  0  0  0  0  0  0  0
   -0.1376    3.3442    0.9725 H   0  0  0  0  0  0  0  0  0  0  0  0
    0.0001    1.3936    0.0020 C   0  0  0  0  0  0  0  0  0  0  0  0
   -1.1899    0.6872   -0.0035 C   0  0  0  0  0  0  0  0  0  0  0  0
   -2.0588    1.1795   -0.0115 H   0  0  0  0  0  0  0  0  0  0  0  0
   -1.1944   -0.6936    0.0000 C   0  0  0  0  0  0  0  0  0  0  0  0
   -2.0723   -1.1901    0.0035 H   0  0  0  0  0  0  0  0  0  0  0  0
    0.0005   -1.3847    0.0007 C   0  0  0  0  0  0  0  0  0  0  0  0
   -0.0025   -2.3858    0.0012 H   0  0  0  0  0  0  0  0  0  0  0  0
    1.1944   -0.6921    0.0000 C   0  0  0  0  0  0  0  0  0  0  0  0
    2.0784   -1.1910    0.0001 H   0  0  0  0  0  0  0  0  0  0  0  0
    1.1892    0.6896    0.0009 C   0  0  0  0  0  0  0  0  0  0  0  0
    2.0597    1.1874   -0.0002 H   0  0  0  0  0  0  0  0  0  0  0  0
  1  5  1  0
  5  6  1  0
  5  7  2  0
  1  2  1  0
  1  3  1  0
  1  4  1  0
  8 12  1  0
 12 13  2  0
 13 15  1  0
 15 17  2  0
 17 19  1  0
 19 21  2  0
 21 12  1  0
  8  9  1  0
  8 10  1  0
  8 11  1  0
 13 14  1  0
 15 16  1  0
 17 18  1  0
 19 20  1  0
 21 22  1  0
M  CHG  1   6  -1
M  END
>  <PDB_ID>  (161) 
pdb6hx3

>  <RESIDUE_NAME>  (161) 
GLU   PHE

>  <FRAG_NAME>  (161) 
ACET   MBZ

>  <FRAG_ATOM_NUM>  (161) 
fragi: 7  fragj: 15

>  <atom.prop.CHAIN_ID>  (161) 
A A A A A A A Z Z Z Z Z Z Z Z Z Z Z Z Z Z Z

>  <atom.prop.IS_HEAVY_ATOM>  (161) 
1 0 0 0 1 1 1 1 0 0 0 1 1 0 1 0 1 0 1 0 1 0

>  <DIFUSE_FUNC_ATOM>  (161) 
atom 6   atom 7   

>  <FINAL_SINGLE_POINT_ENERGY>  (161) 
0

>  <NONCOV_INTER_ENERGY_QM>  (161) 
0

>  <FF_Energy>  (161) 
9.54

>  <QM_Energy>  (161) 
-2.98

>  <source>  (161) 
ACET_MBZ_02

>  <Index>  (161) 
29678

$$$$
ACET-pdb5ifi-A-ASP-331:MBZ-pdb5ifi-A-PHE-190
     RDKit          3D

 22 21  0  0  0  0  0  0  0  0999 V2000
   -4.3922   -1.3380    0.3327 C   0  0  0  0  0  0  0  0  0  0  0  0
   -4.0598   -2.2470    0.1104 H   0  0  0  0  0  0  0  0  0  0  0  0
   -4.2311   -0.7121   -0.4195 H   0  0  0  0  0  0  0  0  0  0  0  0
   -5.4692   -1.4054    0.4868 H   0  0  0  0  0  0  0  0  0  0  0  0
   -3.6444   -0.8304    1.5620 C   0  0  0  0  0  0  0  0  0  0  0  0
   -3.7498    0.3809    1.9004 O   0  0  0  0  0  1  0  0  0  0  0  0
   -2.9247   -1.6452    2.1821 O   0  0  0  0  0  0  0  0  0  0  0  0
    0.0118    2.9081    0.0000 C   0  0  0  0  0  0  0  0  0  0  0  0
   -0.7060    3.2185   -0.6052 H   0  0  0  0  0  0  0  0  0  0  0  0
    0.9007    3.2088   -0.3134 H   0  0  0  0  0  0  0  0  0  0  0  0
   -0.1632    3.3561    0.9782 H   0  0  0  0  0  0  0  0  0  0  0  0
    0.0019    1.4060    0.0057 C   0  0  0  0  0  0  0  0  0  0  0  0
   -1.1941    0.7014    0.0026 C   0  0  0  0  0  0  0  0  0  0  0  0
   -2.0614    1.1829    0.0006 H   0  0  0  0  0  0  0  0  0  0  0  0
   -1.1946   -0.7025   -0.0000 C   0  0  0  0  0  0  0  0  0  0  0  0
   -2.0768   -1.1885    0.0013 H   0  0  0  0  0  0  0  0  0  0  0  0
   -0.0025   -1.3924   -0.0012 C   0  0  0  0  0  0  0  0  0  0  0  0
   -0.0061   -2.3953   -0.0029 H   0  0  0  0  0  0  0  0  0  0  0  0
    1.1946   -0.7028    0.0000 C   0  0  0  0  0  0  0  0  0  0  0  0
    2.0775   -1.1998    0.0076 H   0  0  0  0  0  0  0  0  0  0  0  0
    1.1947    0.6902   -0.0072 C   0  0  0  0  0  0  0  0  0  0  0  0
    2.0657    1.1820   -0.0226 H   0  0  0  0  0  0  0  0  0  0  0  0
  1  5  1  0
  5  6  1  0
  5  7  2  0
  1  2  1  0
  1  3  1  0
  1  4  1  0
  8 12  1  0
 12 13  2  0
 13 15  1  0
 15 17  2  0
 17 19  1  0
 19 21  2  0
 21 12  1  0
  8  9  1  0
  8 10  1  0
  8 11  1  0
 13 14  1  0
 15 16  1  0
 17 18  1  0
 19 20  1  0
 21 22  1  0
M  CHG  1   6  -1
M  END
>  <PDB_ID>  (162) 
pdb5ifi

>  <RESIDUE_NAME>  (162) 
ASP   PHE

>  <FRAG_NAME>  (162) 
ACET   MBZ

>  <FRAG_ATOM_NUM>  (162) 
fragi: 7  fragj: 15

>  <atom.prop.CHAIN_ID>  (162) 
A A A A A A A Z Z Z Z Z Z Z Z Z Z Z Z Z Z Z

>  <atom.prop.IS_HEAVY_ATOM>  (162) 
1 0 0 0 1 1 1 1 0 0 0 1 1 0 1 0 1 0 1 0 1 0

>  <DIFUSE_FUNC_ATOM>  (162) 
atom 6   atom 7   

>  <FINAL_SINGLE_POINT_ENERGY>  (162) 
0

>  <NONCOV_INTER_ENERGY_QM>  (162) 
0

>  <FF_Energy>  (162) 
11.61

>  <QM_Energy>  (162) 
-1.5

>  <source>  (162) 
ACET_MBZ_02

>  <Index>  (162) 
31138

$$$$
ACET-pdb5il0-B-GLU-181:MBZ-pdb5il0-B-PHE-177
     RDKit          3D

 22 21  0  0  0  0  0  0  0  0999 V2000
    1.7525   -2.5388   -3.6160 C   0  0  0  0  0  0  0  0  0  0  0  0
    2.2109   -3.1732   -4.2397 H   0  0  0  0  0  0  0  0  0  0  0  0
    1.3424   -1.7945   -4.1469 H   0  0  0  0  0  0  0  0  0  0  0  0
    0.9432   -3.0826   -3.1288 H   0  0  0  0  0  0  0  0  0  0  0  0
    2.7916   -1.9417   -2.7236 C   0  0  0  0  0  0  0  0  0  0  0  0
    2.7781   -2.0355   -1.5032 O   0  0  0  0  0  1  0  0  0  0  0  0
    3.6714   -1.3275   -3.3600 O   0  0  0  0  0  0  0  0  0  0  0  0
   -0.0178    2.8866    0.0167 C   0  0  0  0  0  0  0  0  0  0  0  0
    0.2404    3.1879    0.9282 H   0  0  0  0  0  0  0  0  0  0  0  0
   -0.9393    3.1899   -0.2021 H   0  0  0  0  0  0  0  0  0  0  0  0
    0.6592    3.3690   -0.6884 H   0  0  0  0  0  0  0  0  0  0  0  0
    0.0011    1.3919   -0.0063 C   0  0  0  0  0  0  0  0  0  0  0  0
   -1.1936    0.6844    0.0031 C   0  0  0  0  0  0  0  0  0  0  0  0
   -2.0594    1.1805    0.0113 H   0  0  0  0  0  0  0  0  0  0  0  0
   -1.1972   -0.6911    0.0000 C   0  0  0  0  0  0  0  0  0  0  0  0
   -2.0751   -1.1908    0.0022 H   0  0  0  0  0  0  0  0  0  0  0  0
   -0.0015   -1.3832   -0.0036 C   0  0  0  0  0  0  0  0  0  0  0  0
   -0.0055   -2.3850   -0.0095 H   0  0  0  0  0  0  0  0  0  0  0  0
    1.1972   -0.6930    0.0000 C   0  0  0  0  0  0  0  0  0  0  0  0
    2.0783   -1.1936   -0.0005 H   0  0  0  0  0  0  0  0  0  0  0  0
    1.1939    0.6911    0.0068 C   0  0  0  0  0  0  0  0  0  0  0  0
    2.0618    1.1885    0.0203 H   0  0  0  0  0  0  0  0  0  0  0  0
  1  5  1  0
  5  6  1  0
  5  7  2  0
  1  2  1  0
  1  3  1  0
  1  4  1  0
  8 12  1  0
 12 13  2  0
 13 15  1  0
 15 17  2  0
 17 19  1  0
 19 21  2  0
 21 12  1  0
  8  9  1  0
  8 10  1  0
  8 11  1  0
 13 14  1  0
 15 16  1  0
 17 18  1  0
 19 20  1  0
 21 22  1  0
M  CHG  1   6  -1
M  END
>  <PDB_ID>  (163) 
pdb5il0

>  <RESIDUE_NAME>  (163) 
GLU   PHE

>  <FRAG_NAME>  (163) 
ACET   MBZ

>  <FRAG_ATOM_NUM>  (163) 
fragi: 7  fragj: 15

>  <atom.prop.CHAIN_ID>  (163) 
A A A A A A A Z Z Z Z Z Z Z Z Z Z Z Z Z Z Z

>  <atom.prop.IS_HEAVY_ATOM>  (163) 
1 0 0 0 1 1 1 1 0 0 0 1 1 0 1 0 1 0 1 0 1 0

>  <DIFUSE_FUNC_ATOM>  (163) 
atom 6   atom 7   

>  <FINAL_SINGLE_POINT_ENERGY>  (163) 
0

>  <NONCOV_INTER_ENERGY_QM>  (163) 
0

>  <FF_Energy>  (163) 
24.37

>  <QM_Energy>  (163) 
-0.12

>  <source>  (163) 
ACET_MBZ_02

>  <Index>  (163) 
31539

$$$$
ACET-pdb6jld-B-GLU-220:MBZ-pdb6jld-B-PHE-92
     RDKit          3D

 22 21  0  0  0  0  0  0  0  0999 V2000
    4.1911   -1.8707   -0.4377 C   0  0  0  0  0  0  0  0  0  0  0  0
    3.9452   -1.1448   -1.0623 H   0  0  0  0  0  0  0  0  0  0  0  0
    3.4047   -2.1870    0.0719 H   0  0  0  0  0  0  0  0  0  0  0  0
    4.5769   -2.7056   -1.0227 H   0  0  0  0  0  0  0  0  0  0  0  0
    5.1800   -1.3039    0.5548 C   0  0  0  0  0  0  0  0  0  0  0  0
    6.1339   -2.0142    0.9383 O   0  0  0  0  0  1  0  0  0  0  0  0
    4.9778   -0.1397    0.9547 O   0  0  0  0  0  0  0  0  0  0  0  0
   -0.0382    2.8361   -0.0229 C   0  0  0  0  0  0  0  0  0  0  0  0
    0.8529    3.1758    0.2540 H   0  0  0  0  0  0  0  0  0  0  0  0
   -0.7393    3.1363    0.6130 H   0  0  0  0  0  0  0  0  0  0  0  0
   -0.2698    3.2497   -1.0045 H   0  0  0  0  0  0  0  0  0  0  0  0
   -0.0017    1.3793   -0.0208 C   0  0  0  0  0  0  0  0  0  0  0  0
   -1.1865    0.6637    0.0122 C   0  0  0  0  0  0  0  0  0  0  0  0
   -2.0581    1.1600    0.0448 H   0  0  0  0  0  0  0  0  0  0  0  0
   -1.1906   -0.7049    0.0000 C   0  0  0  0  0  0  0  0  0  0  0  0
   -2.0703   -1.2031   -0.0278 H   0  0  0  0  0  0  0  0  0  0  0  0
   -0.0072   -1.3772    0.0273 C   0  0  0  0  0  0  0  0  0  0  0  0
    0.0128   -2.3789    0.0660 H   0  0  0  0  0  0  0  0  0  0  0  0
    1.1906   -0.6674    0.0000 C   0  0  0  0  0  0  0  0  0  0  0  0
    2.0751   -1.1765   -0.0050 H   0  0  0  0  0  0  0  0  0  0  0  0
    1.1954    0.7064   -0.0187 C   0  0  0  0  0  0  0  0  0  0  0  0
    2.0548    1.2067   -0.0311 H   0  0  0  0  0  0  0  0  0  0  0  0
  1  5  1  0
  5  6  1  0
  5  7  2  0
  1  2  1  0
  1  3  1  0
  1  4  1  0
  8 12  1  0
 12 13  2  0
 13 15  1  0
 15 17  2  0
 17 19  1  0
 19 21  2  0
 21 12  1  0
  8  9  1  0
  8 10  1  0
  8 11  1  0
 13 14  1  0
 15 16  1  0
 17 18  1  0
 19 20  1  0
 21 22  1  0
M  CHG  1   6  -1
M  END
>  <PDB_ID>  (164) 
pdb6jld

>  <RESIDUE_NAME>  (164) 
GLU   PHE

>  <FRAG_NAME>  (164) 
ACET   MBZ

>  <FRAG_ATOM_NUM>  (164) 
fragi: 7  fragj: 15

>  <atom.prop.CHAIN_ID>  (164) 
A A A A A A A Z Z Z Z Z Z Z Z Z Z Z Z Z Z Z

>  <atom.prop.IS_HEAVY_ATOM>  (164) 
1 0 0 0 1 1 1 1 0 0 0 1 1 0 1 0 1 0 1 0 1 0

>  <DIFUSE_FUNC_ATOM>  (164) 
atom 6   atom 7   

>  <FINAL_SINGLE_POINT_ENERGY>  (164) 
0

>  <NONCOV_INTER_ENERGY_QM>  (164) 
0

>  <FF_Energy>  (164) 
11.09

>  <QM_Energy>  (164) 
-0.61

>  <source>  (164) 
ACET_MBZ_02

>  <Index>  (164) 
32402

$$$$
ACET-pdb6ntr-C-ASP-93:MBZ-pdb6ntr-C-PHE-114
     RDKit          3D

 22 21  0  0  0  0  0  0  0  0999 V2000
    3.5587    4.5810    0.5966 C   0  0  0  0  0  0  0  0  0  0  0  0
    3.7953    5.2901    1.2530 H   0  0  0  0  0  0  0  0  0  0  0  0
    2.5713    4.4882    0.5295 H   0  0  0  0  0  0  0  0  0  0  0  0
    3.9335    4.8904   -0.3791 H   0  0  0  0  0  0  0  0  0  0  0  0
    4.1454    3.2717    1.0570 C   0  0  0  0  0  0  0  0  0  0  0  0
    5.2840    3.2672    1.5632 O   0  0  0  0  0  1  0  0  0  0  0  0
    3.4597    2.2413    0.9426 O   0  0  0  0  0  0  0  0  0  0  0  0
    0.0056    2.8950   -0.0003 C   0  0  0  0  0  0  0  0  0  0  0  0
    0.9230    3.1992    0.2144 H   0  0  0  0  0  0  0  0  0  0  0  0
   -0.6420    3.2025    0.6829 H   0  0  0  0  0  0  0  0  0  0  0  0
   -0.2778    3.3474   -0.9506 H   0  0  0  0  0  0  0  0  0  0  0  0
   -0.0001    1.3932   -0.0068 C   0  0  0  0  0  0  0  0  0  0  0  0
   -1.1873    0.6910    0.0071 C   0  0  0  0  0  0  0  0  0  0  0  0
   -2.0568    1.1812    0.0214 H   0  0  0  0  0  0  0  0  0  0  0  0
   -1.1919   -0.6928    0.0000 C   0  0  0  0  0  0  0  0  0  0  0  0
   -2.0716   -1.1867   -0.0033 H   0  0  0  0  0  0  0  0  0  0  0  0
    0.0011   -1.3831   -0.0008 C   0  0  0  0  0  0  0  0  0  0  0  0
   -0.0027   -2.3854   -0.0030 H   0  0  0  0  0  0  0  0  0  0  0  0
    1.1919   -0.6914    0.0000 C   0  0  0  0  0  0  0  0  0  0  0  0
    2.0764   -1.1925    0.0019 H   0  0  0  0  0  0  0  0  0  0  0  0
    1.1863    0.6831    0.0005 C   0  0  0  0  0  0  0  0  0  0  0  0
    2.0592    1.1844    0.0055 H   0  0  0  0  0  0  0  0  0  0  0  0
  1  5  1  0
  5  6  1  0
  5  7  2  0
  1  2  1  0
  1  3  1  0
  1  4  1  0
  8 12  1  0
 12 13  2  0
 13 15  1  0
 15 17  2  0
 17 19  1  0
 19 21  2  0
 21 12  1  0
  8  9  1  0
  8 10  1  0
  8 11  1  0
 13 14  1  0
 15 16  1  0
 17 18  1  0
 19 20  1  0
 21 22  1  0
M  CHG  1   6  -1
M  END
>  <PDB_ID>  (165) 
pdb6ntr

>  <RESIDUE_NAME>  (165) 
ASP   PHE

>  <FRAG_NAME>  (165) 
ACET   MBZ

>  <FRAG_ATOM_NUM>  (165) 
fragi: 7  fragj: 15

>  <atom.prop.CHAIN_ID>  (165) 
A A A A A A A Z Z Z Z Z Z Z Z Z Z Z Z Z Z Z

>  <atom.prop.IS_HEAVY_ATOM>  (165) 
1 0 0 0 1 1 1 1 0 0 0 1 1 0 1 0 1 0 1 0 1 0

>  <DIFUSE_FUNC_ATOM>  (165) 
atom 6   atom 7   

>  <FINAL_SINGLE_POINT_ENERGY>  (165) 
0

>  <NONCOV_INTER_ENERGY_QM>  (165) 
0

>  <FF_Energy>  (165) 
6.35

>  <QM_Energy>  (165) 
-6.42

>  <source>  (165) 
ACET_MBZ_02

>  <Index>  (165) 
35747

$$$$
ACET-pdb6ok4-A-GLU-94:MBZ-pdb6ok4-A-PHE-99
     RDKit          3D

 22 21  0  0  0  0  0  0  0  0999 V2000
    3.6703    4.0411   -0.8823 C   0  0  0  0  0  0  0  0  0  0  0  0
    3.0249    4.2321   -0.1710 H   0  0  0  0  0  0  0  0  0  0  0  0
    3.4065    4.4208   -1.7468 H   0  0  0  0  0  0  0  0  0  0  0  0
    4.6342    4.4627   -0.5970 H   0  0  0  0  0  0  0  0  0  0  0  0
    3.7305    2.5277   -1.0495 C   0  0  0  0  0  0  0  0  0  0  0  0
    4.0445    1.8210   -0.0668 O   0  0  0  0  0  1  0  0  0  0  0  0
    3.4870    2.0489   -2.1801 O   0  0  0  0  0  0  0  0  0  0  0  0
   -0.0098    2.9009   -0.0205 C   0  0  0  0  0  0  0  0  0  0  0  0
    0.8929    3.2080   -0.2706 H   0  0  0  0  0  0  0  0  0  0  0  0
   -0.2713    3.2201    0.8747 H   0  0  0  0  0  0  0  0  0  0  0  0
   -0.7159    3.3111   -0.7425 H   0  0  0  0  0  0  0  0  0  0  0  0
    0.0008    1.3972    0.0053 C   0  0  0  0  0  0  0  0  0  0  0  0
   -1.1900    0.6849   -0.0018 C   0  0  0  0  0  0  0  0  0  0  0  0
   -2.0601    1.1768   -0.0098 H   0  0  0  0  0  0  0  0  0  0  0  0
   -1.1954   -0.6988   -0.0000 C   0  0  0  0  0  0  0  0  0  0  0  0
   -2.0735   -1.1926    0.0012 H   0  0  0  0  0  0  0  0  0  0  0  0
   -0.0014   -1.3874    0.0023 C   0  0  0  0  0  0  0  0  0  0  0  0
   -0.0005   -2.3882    0.0049 H   0  0  0  0  0  0  0  0  0  0  0  0
    1.1954   -0.6901    0.0000 C   0  0  0  0  0  0  0  0  0  0  0  0
    2.0789   -1.1892    0.0042 H   0  0  0  0  0  0  0  0  0  0  0  0
    1.1905    0.6942   -0.0058 C   0  0  0  0  0  0  0  0  0  0  0  0
    2.0608    1.1918   -0.0194 H   0  0  0  0  0  0  0  0  0  0  0  0
  1  5  1  0
  5  6  1  0
  5  7  2  0
  1  2  1  0
  1  3  1  0
  1  4  1  0
  8 12  1  0
 12 13  2  0
 13 15  1  0
 15 17  2  0
 17 19  1  0
 19 21  2  0
 21 12  1  0
  8  9  1  0
  8 10  1  0
  8 11  1  0
 13 14  1  0
 15 16  1  0
 17 18  1  0
 19 20  1  0
 21 22  1  0
M  CHG  1   6  -1
M  END
>  <PDB_ID>  (166) 
pdb6ok4

>  <RESIDUE_NAME>  (166) 
GLU   PHE

>  <FRAG_NAME>  (166) 
ACET   MBZ

>  <FRAG_ATOM_NUM>  (166) 
fragi: 7  fragj: 15

>  <atom.prop.CHAIN_ID>  (166) 
A A A A A A A Z Z Z Z Z Z Z Z Z Z Z Z Z Z Z

>  <atom.prop.IS_HEAVY_ATOM>  (166) 
1 0 0 0 1 1 1 1 0 0 0 1 1 0 1 0 1 0 1 0 1 0

>  <DIFUSE_FUNC_ATOM>  (166) 
atom 6   atom 7   

>  <FINAL_SINGLE_POINT_ENERGY>  (166) 
0

>  <NONCOV_INTER_ENERGY_QM>  (166) 
0

>  <FF_Energy>  (166) 
4.31

>  <QM_Energy>  (166) 
-6.54

>  <source>  (166) 
ACET_MBZ_02

>  <Index>  (166) 
36566

$$$$
ACET-pdb5lhc-B-GLU-205:MBZ-pdb5lhc-B-PHE-201
     RDKit          3D

 22 21  0  0  0  0  0  0  0  0999 V2000
    2.3156   -2.4091    4.0920 C   0  0  0  0  0  0  0  0  0  0  0  0
    3.0984   -2.7377    4.5729 H   0  0  0  0  0  0  0  0  0  0  0  0
    1.5146   -2.9463    4.2386 H   0  0  0  0  0  0  0  0  0  0  0  0
    2.1139   -1.3869    4.4123 H   0  0  0  0  0  0  0  0  0  0  0  0
    2.6316   -2.4475    2.6179 C   0  0  0  0  0  0  0  0  0  0  0  0
    2.6768   -1.3583    1.9895 O   0  0  0  0  0  1  0  0  0  0  0  0
    2.8102   -3.5611    2.0961 O   0  0  0  0  0  0  0  0  0  0  0  0
    0.0127    2.8832    0.0541 C   0  0  0  0  0  0  0  0  0  0  0  0
   -0.7458    3.2332   -0.4632 H   0  0  0  0  0  0  0  0  0  0  0  0
    0.8774    3.2061   -0.2822 H   0  0  0  0  0  0  0  0  0  0  0  0
   -0.0955    3.2385    1.0789 H   0  0  0  0  0  0  0  0  0  0  0  0
   -0.0032    1.3997   -0.0226 C   0  0  0  0  0  0  0  0  0  0  0  0
   -1.2052    0.7016    0.0068 C   0  0  0  0  0  0  0  0  0  0  0  0
   -2.0655    1.1903    0.0315 H   0  0  0  0  0  0  0  0  0  0  0  0
   -1.2031   -0.6896   -0.0000 C   0  0  0  0  0  0  0  0  0  0  0  0
   -2.0735   -1.1908   -0.0142 H   0  0  0  0  0  0  0  0  0  0  0  0
    0.0119   -1.3908    0.0149 C   0  0  0  0  0  0  0  0  0  0  0  0
   -0.0044   -2.3899    0.0359 H   0  0  0  0  0  0  0  0  0  0  0  0
    1.2031   -0.7022    0.0000 C   0  0  0  0  0  0  0  0  0  0  0  0
    2.0875   -1.1988   -0.0097 H   0  0  0  0  0  0  0  0  0  0  0  0
    1.1965    0.6812    0.0008 C   0  0  0  0  0  0  0  0  0  0  0  0
    2.0636    1.1834    0.0176 H   0  0  0  0  0  0  0  0  0  0  0  0
  1  5  1  0
  5  6  1  0
  5  7  2  0
  1  2  1  0
  1  3  1  0
  1  4  1  0
  8 12  1  0
 12 13  2  0
 13 15  1  0
 15 17  2  0
 17 19  1  0
 19 21  2  0
 21 12  1  0
  8  9  1  0
  8 10  1  0
  8 11  1  0
 13 14  1  0
 15 16  1  0
 17 18  1  0
 19 20  1  0
 21 22  1  0
M  CHG  1   6  -1
M  END
>  <PDB_ID>  (167) 
pdb5lhc

>  <RESIDUE_NAME>  (167) 
GLU   PHE

>  <FRAG_NAME>  (167) 
ACET   MBZ

>  <FRAG_ATOM_NUM>  (167) 
fragi: 7  fragj: 15

>  <atom.prop.CHAIN_ID>  (167) 
A A A A A A A Z Z Z Z Z Z Z Z Z Z Z Z Z Z Z

>  <atom.prop.IS_HEAVY_ATOM>  (167) 
1 0 0 0 1 1 1 1 0 0 0 1 1 0 1 0 1 0 1 0 1 0

>  <DIFUSE_FUNC_ATOM>  (167) 
atom 6   atom 7   

>  <FINAL_SINGLE_POINT_ENERGY>  (167) 
0

>  <NONCOV_INTER_ENERGY_QM>  (167) 
0

>  <FF_Energy>  (167) 
9.05

>  <QM_Energy>  (167) 
-1.52

>  <source>  (167) 
ACET_MBZ_02

>  <Index>  (167) 
36649

$$$$
ACET-pdb6pbz-C-GLU-186:MBZ-pdb6pbz-C-PHE-182
     RDKit          3D

 22 21  0  0  0  0  0  0  0  0999 V2000
    0.5610    6.1340    1.8614 C   0  0  0  0  0  0  0  0  0  0  0  0
   -0.1941    5.6843    2.3180 H   0  0  0  0  0  0  0  0  0  0  0  0
    0.3963    6.2019    0.8868 H   0  0  0  0  0  0  0  0  0  0  0  0
    0.6555    7.1415    2.2666 H   0  0  0  0  0  0  0  0  0  0  0  0
    1.7881    5.2618    2.0512 C   0  0  0  0  0  0  0  0  0  0  0  0
    2.8901    5.8209    2.1734 O   0  0  0  0  0  1  0  0  0  0  0  0
    1.6393    4.0262    2.0654 O   0  0  0  0  0  0  0  0  0  0  0  0
    0.0069    2.9018    0.0169 C   0  0  0  0  0  0  0  0  0  0  0  0
    0.6092    3.2107   -0.7152 H   0  0  0  0  0  0  0  0  0  0  0  0
    0.3648    3.1964    0.8996 H   0  0  0  0  0  0  0  0  0  0  0  0
   -0.9613    3.3818   -0.1255 H   0  0  0  0  0  0  0  0  0  0  0  0
    0.0003    1.3971    0.0032 C   0  0  0  0  0  0  0  0  0  0  0  0
   -1.1889    0.6920   -0.0018 C   0  0  0  0  0  0  0  0  0  0  0  0
   -2.0578    1.1802   -0.0078 H   0  0  0  0  0  0  0  0  0  0  0  0
   -1.1897   -0.6931   -0.0000 C   0  0  0  0  0  0  0  0  0  0  0  0
   -2.0725   -1.1861    0.0064 H   0  0  0  0  0  0  0  0  0  0  0  0
   -0.0013   -1.3851   -0.0055 C   0  0  0  0  0  0  0  0  0  0  0  0
   -0.0072   -2.3882   -0.0141 H   0  0  0  0  0  0  0  0  0  0  0  0
    1.1897   -0.6976    0.0000 C   0  0  0  0  0  0  0  0  0  0  0  0
    2.0747   -1.1963    0.0029 H   0  0  0  0  0  0  0  0  0  0  0  0
    1.1899    0.6867    0.0041 C   0  0  0  0  0  0  0  0  0  0  0  0
    2.0615    1.1817    0.0064 H   0  0  0  0  0  0  0  0  0  0  0  0
  1  5  1  0
  5  6  1  0
  5  7  2  0
  1  2  1  0
  1  3  1  0
  1  4  1  0
  8 12  1  0
 12 13  2  0
 13 15  1  0
 15 17  2  0
 17 19  1  0
 19 21  2  0
 21 12  1  0
  8  9  1  0
  8 10  1  0
  8 11  1  0
 13 14  1  0
 15 16  1  0
 17 18  1  0
 19 20  1  0
 21 22  1  0
M  CHG  1   6  -1
M  END
>  <PDB_ID>  (168) 
pdb6pbz

>  <RESIDUE_NAME>  (168) 
GLU   PHE

>  <FRAG_NAME>  (168) 
ACET   MBZ

>  <FRAG_ATOM_NUM>  (168) 
fragi: 7  fragj: 15

>  <atom.prop.CHAIN_ID>  (168) 
A A A A A A A Z Z Z Z Z Z Z Z Z Z Z Z Z Z Z

>  <atom.prop.IS_HEAVY_ATOM>  (168) 
1 0 0 0 1 1 1 1 0 0 0 1 1 0 1 0 1 0 1 0 1 0

>  <DIFUSE_FUNC_ATOM>  (168) 
atom 6   atom 7   

>  <FINAL_SINGLE_POINT_ENERGY>  (168) 
0

>  <NONCOV_INTER_ENERGY_QM>  (168) 
0

>  <FF_Energy>  (168) 
11.87

>  <QM_Energy>  (168) 
-4.04

>  <source>  (168) 
ACET_MBZ_02

>  <Index>  (168) 
37091

$$$$
ACET-pdb6q55-A-GLU-137:MBZ-pdb6q55-A-PHE-264
     RDKit          3D

 22 21  0  0  0  0  0  0  0  0999 V2000
   -3.6701    0.2400    1.9385 C   0  0  0  0  0  0  0  0  0  0  0  0
   -3.9358    0.6801    2.7834 H   0  0  0  0  0  0  0  0  0  0  0  0
   -2.6862    0.2325    1.8337 H   0  0  0  0  0  0  0  0  0  0  0  0
   -4.0201   -0.7918    1.9658 H   0  0  0  0  0  0  0  0  0  0  0  0
   -4.2404    1.0739    0.7953 C   0  0  0  0  0  0  0  0  0  0  0  0
   -5.0915    0.5504    0.0411 O   0  0  0  0  0  1  0  0  0  0  0  0
   -3.8354    2.2547    0.6510 O   0  0  0  0  0  0  0  0  0  0  0  0
   -0.0178    2.9040    0.0018 C   0  0  0  0  0  0  0  0  0  0  0  0
   -0.6402    3.2067   -0.7028 H   0  0  0  0  0  0  0  0  0  0  0  0
    0.9023    3.2200   -0.1658 H   0  0  0  0  0  0  0  0  0  0  0  0
   -0.3503    3.3324    0.9473 H   0  0  0  0  0  0  0  0  0  0  0  0
   -0.0012    1.3978   -0.0068 C   0  0  0  0  0  0  0  0  0  0  0  0
   -1.1922    0.6840   -0.0205 C   0  0  0  0  0  0  0  0  0  0  0  0
   -2.0616    1.1710   -0.0462 H   0  0  0  0  0  0  0  0  0  0  0  0
   -1.1893   -0.7014    0.0000 C   0  0  0  0  0  0  0  0  0  0  0  0
   -2.0696   -1.1976   -0.0008 H   0  0  0  0  0  0  0  0  0  0  0  0
    0.0018   -1.3865    0.0237 C   0  0  0  0  0  0  0  0  0  0  0  0
    0.0041   -2.3877    0.0571 H   0  0  0  0  0  0  0  0  0  0  0  0
    1.1893   -0.6892    0.0000 C   0  0  0  0  0  0  0  0  0  0  0  0
    2.0774   -1.1882   -0.0193 H   0  0  0  0  0  0  0  0  0  0  0  0
    1.1915    0.6953    0.0036 C   0  0  0  0  0  0  0  0  0  0  0  0
    2.0594    1.1904    0.0133 H   0  0  0  0  0  0  0  0  0  0  0  0
  1  5  1  0
  5  6  1  0
  5  7  2  0
  1  2  1  0
  1  3  1  0
  1  4  1  0
  8 12  1  0
 12 13  2  0
 13 15  1  0
 15 17  2  0
 17 19  1  0
 19 21  2  0
 21 12  1  0
  8  9  1  0
  8 10  1  0
  8 11  1  0
 13 14  1  0
 15 16  1  0
 17 18  1  0
 19 20  1  0
 21 22  1  0
M  CHG  1   6  -1
M  END
>  <PDB_ID>  (169) 
pdb6q55

>  <RESIDUE_NAME>  (169) 
GLU   PHE

>  <FRAG_NAME>  (169) 
ACET   MBZ

>  <FRAG_ATOM_NUM>  (169) 
fragi: 7  fragj: 15

>  <atom.prop.CHAIN_ID>  (169) 
A A A A A A A Z Z Z Z Z Z Z Z Z Z Z Z Z Z Z

>  <atom.prop.IS_HEAVY_ATOM>  (169) 
1 0 0 0 1 1 1 1 0 0 0 1 1 0 1 0 1 0 1 0 1 0

>  <DIFUSE_FUNC_ATOM>  (169) 
atom 6   atom 7   

>  <FINAL_SINGLE_POINT_ENERGY>  (169) 
0

>  <NONCOV_INTER_ENERGY_QM>  (169) 
0

>  <FF_Energy>  (169) 
5.57

>  <QM_Energy>  (169) 
-4.72

>  <source>  (169) 
ACET_MBZ_02

>  <Index>  (169) 
37682

$$$$
ACET-pdb6q93-B-GLU-230:MBZ-pdb6q93-B-PHE-81
     RDKit          3D

 22 21  0  0  0  0  0  0  0  0999 V2000
   -1.8213    1.9752   -3.4308 C   0  0  0  0  0  0  0  0  0  0  0  0
   -1.5175    1.0444   -3.2718 H   0  0  0  0  0  0  0  0  0  0  0  0
   -1.0462    2.5930   -3.4832 H   0  0  0  0  0  0  0  0  0  0  0  0
   -2.3425    2.0021   -4.3877 H   0  0  0  0  0  0  0  0  0  0  0  0
   -2.6549    2.3924   -2.2389 C   0  0  0  0  0  0  0  0  0  0  0  0
   -3.2961    1.5136   -1.6177 O   0  0  0  0  0  1  0  0  0  0  0  0
   -2.6552    3.6017   -1.9172 O   0  0  0  0  0  0  0  0  0  0  0  0
   -0.0091    2.8927   -0.0250 C   0  0  0  0  0  0  0  0  0  0  0  0
   -0.8212    3.1923   -0.5264 H   0  0  0  0  0  0  0  0  0  0  0  0
    0.8117    3.2042   -0.5051 H   0  0  0  0  0  0  0  0  0  0  0  0
   -0.0253    3.3916    0.9439 H   0  0  0  0  0  0  0  0  0  0  0  0
    0.0018    1.3993   -0.0080 C   0  0  0  0  0  0  0  0  0  0  0  0
   -1.1986    0.6927   -0.0086 C   0  0  0  0  0  0  0  0  0  0  0  0
   -2.0636    1.1936   -0.0162 H   0  0  0  0  0  0  0  0  0  0  0  0
   -1.2190   -0.6935   -0.0000 C   0  0  0  0  0  0  0  0  0  0  0  0
   -2.0879   -1.1869   -0.0103 H   0  0  0  0  0  0  0  0  0  0  0  0
   -0.0064   -1.3908    0.0259 C   0  0  0  0  0  0  0  0  0  0  0  0
   -0.0108   -2.3900    0.0621 H   0  0  0  0  0  0  0  0  0  0  0  0
    1.2190   -0.7006    0.0000 C   0  0  0  0  0  0  0  0  0  0  0  0
    2.0857   -1.2008   -0.0090 H   0  0  0  0  0  0  0  0  0  0  0  0
    1.2032    0.6931   -0.0093 C   0  0  0  0  0  0  0  0  0  0  0  0
    2.0698    1.1949   -0.0185 H   0  0  0  0  0  0  0  0  0  0  0  0
  1  5  1  0
  5  6  1  0
  5  7  2  0
  1  2  1  0
  1  3  1  0
  1  4  1  0
  8 12  1  0
 12 13  2  0
 13 15  1  0
 15 17  2  0
 17 19  1  0
 19 21  2  0
 21 12  1  0
  8  9  1  0
  8 10  1  0
  8 11  1  0
 13 14  1  0
 15 16  1  0
 17 18  1  0
 19 20  1  0
 21 22  1  0
M  CHG  1   6  -1
M  END
>  <PDB_ID>  (170) 
pdb6q93

>  <RESIDUE_NAME>  (170) 
GLU   PHE

>  <FRAG_NAME>  (170) 
ACET   MBZ

>  <FRAG_ATOM_NUM>  (170) 
fragi: 7  fragj: 15

>  <atom.prop.CHAIN_ID>  (170) 
A A A A A A A Z Z Z Z Z Z Z Z Z Z Z Z Z Z Z

>  <atom.prop.IS_HEAVY_ATOM>  (170) 
1 0 0 0 1 1 1 1 0 0 0 1 1 0 1 0 1 0 1 0 1 0

>  <DIFUSE_FUNC_ATOM>  (170) 
atom 6   atom 7   

>  <FINAL_SINGLE_POINT_ENERGY>  (170) 
0

>  <NONCOV_INTER_ENERGY_QM>  (170) 
0

>  <FF_Energy>  (170) 
6.52

>  <QM_Energy>  (170) 
-6.23

>  <source>  (170) 
ACET_MBZ_02

>  <Index>  (170) 
37910

$$$$
ACET-pdb5oqd-B-GLU-693:MBZ-pdb5oqd-B-PHE-556
     RDKit          3D

 22 21  0  0  0  0  0  0  0  0999 V2000
    5.3009    0.1111   -0.6717 C   0  0  0  0  0  0  0  0  0  0  0  0
    5.1302    0.1671    0.3140 H   0  0  0  0  0  0  0  0  0  0  0  0
    5.8811    0.8795   -0.9479 H   0  0  0  0  0  0  0  0  0  0  0  0
    5.8574   -0.8075   -0.8574 H   0  0  0  0  0  0  0  0  0  0  0  0
    3.9880    0.2545   -1.3714 C   0  0  0  0  0  0  0  0  0  0  0  0
    3.5226   -0.5914   -2.1252 O   0  0  0  0  0  1  0  0  0  0  0  0
    3.4259    1.3379   -1.1142 O   0  0  0  0  0  0  0  0  0  0  0  0
   -0.0017    2.8797   -0.0203 C   0  0  0  0  0  0  0  0  0  0  0  0
   -0.8046    3.1796   -0.5211 H   0  0  0  0  0  0  0  0  0  0  0  0
    0.8275    3.1813   -0.4747 H   0  0  0  0  0  0  0  0  0  0  0  0
   -0.0300    3.3468    0.9641 H   0  0  0  0  0  0  0  0  0  0  0  0
   -0.0008    1.3874    0.0047 C   0  0  0  0  0  0  0  0  0  0  0  0
   -1.1832    0.6870   -0.0056 C   0  0  0  0  0  0  0  0  0  0  0  0
   -2.0545    1.1787   -0.0184 H   0  0  0  0  0  0  0  0  0  0  0  0
   -1.1885   -0.6896   -0.0000 C   0  0  0  0  0  0  0  0  0  0  0  0
   -2.0702   -1.1845    0.0032 H   0  0  0  0  0  0  0  0  0  0  0  0
   -0.0003   -1.3797    0.0030 C   0  0  0  0  0  0  0  0  0  0  0  0
   -0.0051   -2.3830    0.0065 H   0  0  0  0  0  0  0  0  0  0  0  0
    1.1885   -0.6907    0.0000 C   0  0  0  0  0  0  0  0  0  0  0  0
    2.0734   -1.1910    0.0012 H   0  0  0  0  0  0  0  0  0  0  0  0
    1.1843    0.6857   -0.0021 C   0  0  0  0  0  0  0  0  0  0  0  0
    2.0558    1.1839   -0.0093 H   0  0  0  0  0  0  0  0  0  0  0  0
  1  5  1  0
  5  6  1  0
  5  7  2  0
  1  2  1  0
  1  3  1  0
  1  4  1  0
  8 12  1  0
 12 13  2  0
 13 15  1  0
 15 17  2  0
 17 19  1  0
 19 21  2  0
 21 12  1  0
  8  9  1  0
  8 10  1  0
  8 11  1  0
 13 14  1  0
 15 16  1  0
 17 18  1  0
 19 20  1  0
 21 22  1  0
M  CHG  1   6  -1
M  END
>  <PDB_ID>  (171) 
pdb5oqd

>  <RESIDUE_NAME>  (171) 
GLU   PHE

>  <FRAG_NAME>  (171) 
ACET   MBZ

>  <FRAG_ATOM_NUM>  (171) 
fragi: 7  fragj: 15

>  <atom.prop.CHAIN_ID>  (171) 
A A A A A A A Z Z Z Z Z Z Z Z Z Z Z Z Z Z Z

>  <atom.prop.IS_HEAVY_ATOM>  (171) 
1 0 0 0 1 1 1 1 0 0 0 1 1 0 1 0 1 0 1 0 1 0

>  <DIFUSE_FUNC_ATOM>  (171) 
atom 6   atom 7   

>  <FINAL_SINGLE_POINT_ENERGY>  (171) 
0

>  <NONCOV_INTER_ENERGY_QM>  (171) 
0

>  <FF_Energy>  (171) 
44.23

>  <QM_Energy>  (171) 
-0.22

>  <source>  (171) 
ACET_MBZ_03

>  <Index>  (171) 
1286

$$$$
ACET-pdb5ul3-A-GLU-635:MBZ-pdb5ul3-A-PHE-661
     RDKit          3D

 22 21  0  0  0  0  0  0  0  0999 V2000
   -3.7864   -2.3953   -1.2670 C   0  0  0  0  0  0  0  0  0  0  0  0
   -2.8530   -2.1696   -1.0978 H   0  0  0  0  0  0  0  0  0  0  0  0
   -4.2050   -1.8414   -1.9519 H   0  0  0  0  0  0  0  0  0  0  0  0
   -3.8560   -3.4437   -1.5569 H   0  0  0  0  0  0  0  0  0  0  0  0
   -4.5482   -2.1572    0.0286 C   0  0  0  0  0  0  0  0  0  0  0  0
   -5.7955   -2.1902   -0.0095 O   0  0  0  0  0  1  0  0  0  0  0  0
   -3.9068   -1.9936    1.0879 O   0  0  0  0  0  0  0  0  0  0  0  0
    0.0075    2.8911   -0.0042 C   0  0  0  0  0  0  0  0  0  0  0  0
   -0.7332    3.2031   -0.5827 H   0  0  0  0  0  0  0  0  0  0  0  0
    0.8838    3.1956   -0.3529 H   0  0  0  0  0  0  0  0  0  0  0  0
   -0.1304    3.3408    0.9791 H   0  0  0  0  0  0  0  0  0  0  0  0
   -0.0001    1.3952   -0.0001 C   0  0  0  0  0  0  0  0  0  0  0  0
   -1.1924    0.6921   -0.0041 C   0  0  0  0  0  0  0  0  0  0  0  0
   -2.0591    1.1841   -0.0113 H   0  0  0  0  0  0  0  0  0  0  0  0
   -1.1960   -0.6905   -0.0000 C   0  0  0  0  0  0  0  0  0  0  0  0
   -2.0747   -1.1871    0.0029 H   0  0  0  0  0  0  0  0  0  0  0  0
    0.0006   -1.3871    0.0024 C   0  0  0  0  0  0  0  0  0  0  0  0
   -0.0057   -2.3865    0.0051 H   0  0  0  0  0  0  0  0  0  0  0  0
    1.1960   -0.6949    0.0000 C   0  0  0  0  0  0  0  0  0  0  0  0
    2.0785   -1.1957   -0.0013 H   0  0  0  0  0  0  0  0  0  0  0  0
    1.1919    0.6851    0.0018 C   0  0  0  0  0  0  0  0  0  0  0  0
    2.0619    1.1853    0.0042 H   0  0  0  0  0  0  0  0  0  0  0  0
  1  5  1  0
  5  6  1  0
  5  7  2  0
  1  2  1  0
  1  3  1  0
  1  4  1  0
  8 12  1  0
 12 13  2  0
 13 15  1  0
 15 17  2  0
 17 19  1  0
 19 21  2  0
 21 12  1  0
  8  9  1  0
  8 10  1  0
  8 11  1  0
 13 14  1  0
 15 16  1  0
 17 18  1  0
 19 20  1  0
 21 22  1  0
M  CHG  1   6  -1
M  END
>  <PDB_ID>  (172) 
pdb5ul3

>  <RESIDUE_NAME>  (172) 
GLU   PHE

>  <FRAG_NAME>  (172) 
ACET   MBZ

>  <FRAG_ATOM_NUM>  (172) 
fragi: 7  fragj: 15

>  <atom.prop.CHAIN_ID>  (172) 
A A A A A A A Z Z Z Z Z Z Z Z Z Z Z Z Z Z Z

>  <atom.prop.IS_HEAVY_ATOM>  (172) 
1 0 0 0 1 1 1 1 0 0 0 1 1 0 1 0 1 0 1 0 1 0

>  <DIFUSE_FUNC_ATOM>  (172) 
atom 6   atom 7   

>  <FINAL_SINGLE_POINT_ENERGY>  (172) 
0

>  <NONCOV_INTER_ENERGY_QM>  (172) 
0

>  <FF_Energy>  (172) 
9.55

>  <QM_Energy>  (172) 
-2.0

>  <source>  (172) 
ACET_MBZ_03

>  <Index>  (172) 
3312

$$$$
ACET-pdb5uzh-A-GLU-76:MBZ-pdb5uzh-A-PHE-70
     RDKit          3D

 22 21  0  0  0  0  0  0  0  0999 V2000
    0.7630   -4.8668    0.9286 C   0  0  0  0  0  0  0  0  0  0  0  0
    0.7224   -4.3379    1.7778 H   0  0  0  0  0  0  0  0  0  0  0  0
    1.3761   -5.6487    1.0566 H   0  0  0  0  0  0  0  0  0  0  0  0
   -0.2360   -5.2578    0.7356 H   0  0  0  0  0  0  0  0  0  0  0  0
    1.3548   -3.9897   -0.1285 C   0  0  0  0  0  0  0  0  0  0  0  0
    0.7839   -3.6997   -1.1710 O   0  0  0  0  0  1  0  0  0  0  0  0
    2.5020   -3.5974    0.1654 O   0  0  0  0  0  0  0  0  0  0  0  0
    0.0171    2.9010   -0.0272 C   0  0  0  0  0  0  0  0  0  0  0  0
   -0.5718    3.1970   -0.7695 H   0  0  0  0  0  0  0  0  0  0  0  0
    0.9527    3.1935   -0.1853 H   0  0  0  0  0  0  0  0  0  0  0  0
   -0.3311    3.3874    0.8840 H   0  0  0  0  0  0  0  0  0  0  0  0
    0.0015    1.3955    0.0067 C   0  0  0  0  0  0  0  0  0  0  0  0
   -1.1918    0.6928   -0.0081 C   0  0  0  0  0  0  0  0  0  0  0  0
   -2.0587    1.1813   -0.0258 H   0  0  0  0  0  0  0  0  0  0  0  0
   -1.1928   -0.6956   -0.0000 C   0  0  0  0  0  0  0  0  0  0  0  0
   -2.0713   -1.1895    0.0042 H   0  0  0  0  0  0  0  0  0  0  0  0
    0.0009   -1.3825    0.0035 C   0  0  0  0  0  0  0  0  0  0  0  0
   -0.0024   -2.3874    0.0077 H   0  0  0  0  0  0  0  0  0  0  0  0
    1.1928   -0.6940    0.0000 C   0  0  0  0  0  0  0  0  0  0  0  0
    2.0765   -1.1948    0.0013 H   0  0  0  0  0  0  0  0  0  0  0  0
    1.1895    0.6838   -0.0021 C   0  0  0  0  0  0  0  0  0  0  0  0
    2.0609    1.1829   -0.0110 H   0  0  0  0  0  0  0  0  0  0  0  0
  1  5  1  0
  5  6  1  0
  5  7  2  0
  1  2  1  0
  1  3  1  0
  1  4  1  0
  8 12  1  0
 12 13  2  0
 13 15  1  0
 15 17  2  0
 17 19  1  0
 19 21  2  0
 21 12  1  0
  8  9  1  0
  8 10  1  0
  8 11  1  0
 13 14  1  0
 15 16  1  0
 17 18  1  0
 19 20  1  0
 21 22  1  0
M  CHG  1   6  -1
M  END
>  <PDB_ID>  (173) 
pdb5uzh

>  <RESIDUE_NAME>  (173) 
GLU   PHE

>  <FRAG_NAME>  (173) 
ACET   MBZ

>  <FRAG_ATOM_NUM>  (173) 
fragi: 7  fragj: 15

>  <atom.prop.CHAIN_ID>  (173) 
A A A A A A A Z Z Z Z Z Z Z Z Z Z Z Z Z Z Z

>  <atom.prop.IS_HEAVY_ATOM>  (173) 
1 0 0 0 1 1 1 1 0 0 0 1 1 0 1 0 1 0 1 0 1 0

>  <DIFUSE_FUNC_ATOM>  (173) 
atom 6   atom 7   

>  <FINAL_SINGLE_POINT_ENERGY>  (173) 
0

>  <NONCOV_INTER_ENERGY_QM>  (173) 
0

>  <FF_Energy>  (173) 
25.61

>  <QM_Energy>  (173) 
-0.77

>  <source>  (173) 
ACET_MBZ_03

>  <Index>  (173) 
3652

$$$$
ACET-pdb5wtr-C-GLU-151:MBZ-pdb5wtr-B-PHE-32
     RDKit          3D

 22 21  0  0  0  0  0  0  0  0999 V2000
   -4.2432    3.9264   -1.3656 C   0  0  0  0  0  0  0  0  0  0  0  0
   -4.4882    4.8300   -1.6494 H   0  0  0  0  0  0  0  0  0  0  0  0
   -5.0125    3.3867   -1.0951 H   0  0  0  0  0  0  0  0  0  0  0  0
   -3.7412    3.4271   -2.1944 H   0  0  0  0  0  0  0  0  0  0  0  0
   -3.3307    4.0598   -0.1520 C   0  0  0  0  0  0  0  0  0  0  0  0
   -3.0608    3.0264    0.4995 O   0  0  0  0  0  1  0  0  0  0  0  0
   -2.8741    5.1911    0.1423 O   0  0  0  0  0  0  0  0  0  0  0  0
    0.0085    2.9078    0.0750 C   0  0  0  0  0  0  0  0  0  0  0  0
   -0.8691    3.2362   -0.2313 H   0  0  0  0  0  0  0  0  0  0  0  0
    0.7429    3.2407   -0.4937 H   0  0  0  0  0  0  0  0  0  0  0  0
    0.1717    3.2834    1.0851 H   0  0  0  0  0  0  0  0  0  0  0  0
   -0.0002    1.4120    0.0003 C   0  0  0  0  0  0  0  0  0  0  0  0
   -1.2031    0.6964   -0.0014 C   0  0  0  0  0  0  0  0  0  0  0  0
   -2.0691    1.1864   -0.0048 H   0  0  0  0  0  0  0  0  0  0  0  0
   -1.2128   -0.7039   -0.0000 C   0  0  0  0  0  0  0  0  0  0  0  0
   -2.0839   -1.1957    0.0007 H   0  0  0  0  0  0  0  0  0  0  0  0
    0.0021   -1.4065    0.0029 C   0  0  0  0  0  0  0  0  0  0  0  0
   -0.0009   -2.3999    0.0063 H   0  0  0  0  0  0  0  0  0  0  0  0
    1.2128   -0.6999    0.0000 C   0  0  0  0  0  0  0  0  0  0  0  0
    2.0914   -1.1924    0.0007 H   0  0  0  0  0  0  0  0  0  0  0  0
    1.2012    0.7018   -0.0017 C   0  0  0  0  0  0  0  0  0  0  0  0
    2.0688    1.1973   -0.0053 H   0  0  0  0  0  0  0  0  0  0  0  0
  1  5  1  0
  5  6  1  0
  5  7  2  0
  1  2  1  0
  1  3  1  0
  1  4  1  0
  8 12  1  0
 12 13  2  0
 13 15  1  0
 15 17  2  0
 17 19  1  0
 19 21  2  0
 21 12  1  0
  8  9  1  0
  8 10  1  0
  8 11  1  0
 13 14  1  0
 15 16  1  0
 17 18  1  0
 19 20  1  0
 21 22  1  0
M  CHG  1   6  -1
M  END
>  <PDB_ID>  (174) 
pdb5wtr

>  <RESIDUE_NAME>  (174) 
GLU   PHE

>  <FRAG_NAME>  (174) 
ACET   MBZ

>  <FRAG_ATOM_NUM>  (174) 
fragi: 7  fragj: 15

>  <atom.prop.CHAIN_ID>  (174) 
A A A A A A A Z Z Z Z Z Z Z Z Z Z Z Z Z Z Z

>  <atom.prop.IS_HEAVY_ATOM>  (174) 
1 0 0 0 1 1 1 1 0 0 0 1 1 0 1 0 1 0 1 0 1 0

>  <DIFUSE_FUNC_ATOM>  (174) 
atom 6   atom 7   

>  <FINAL_SINGLE_POINT_ENERGY>  (174) 
0

>  <NONCOV_INTER_ENERGY_QM>  (174) 
0

>  <FF_Energy>  (174) 
1.97

>  <QM_Energy>  (174) 
-8.19

>  <source>  (174) 
ACET_MBZ_03

>  <Index>  (174) 
5373

$$$$
ACET-pdb5y26-B-ASP-75:MBZ-pdb5y26-B-PHE-78
     RDKit          3D

 22 21  0  0  0  0  0  0  0  0999 V2000
    4.5579    1.4792   -0.1719 C   0  0  0  0  0  0  0  0  0  0  0  0
    5.0980    1.1297    0.5871 H   0  0  0  0  0  0  0  0  0  0  0  0
    3.6330    1.6836    0.1265 H   0  0  0  0  0  0  0  0  0  0  0  0
    5.0160    2.4084   -0.5109 H   0  0  0  0  0  0  0  0  0  0  0  0
    4.4947    0.4110   -1.2565 C   0  0  0  0  0  0  0  0  0  0  0  0
    4.5698    0.7411   -2.4600 O   0  0  0  0  0  1  0  0  0  0  0  0
    4.3617   -0.7788   -0.8947 O   0  0  0  0  0  0  0  0  0  0  0  0
   -0.0094    2.8990   -0.0238 C   0  0  0  0  0  0  0  0  0  0  0  0
    0.8912    3.2145    0.2218 H   0  0  0  0  0  0  0  0  0  0  0  0
   -0.6945    3.2139    0.6102 H   0  0  0  0  0  0  0  0  0  0  0  0
   -0.2496    3.3095   -1.0046 H   0  0  0  0  0  0  0  0  0  0  0  0
   -0.0026    1.3946    0.0031 C   0  0  0  0  0  0  0  0  0  0  0  0
   -1.1924    0.6863   -0.0029 C   0  0  0  0  0  0  0  0  0  0  0  0
   -2.0624    1.1763   -0.0106 H   0  0  0  0  0  0  0  0  0  0  0  0
   -1.1978   -0.6996    0.0000 C   0  0  0  0  0  0  0  0  0  0  0  0
   -2.0725   -1.1950    0.0010 H   0  0  0  0  0  0  0  0  0  0  0  0
    0.0025   -1.3848    0.0033 C   0  0  0  0  0  0  0  0  0  0  0  0
    0.0029   -2.3876    0.0076 H   0  0  0  0  0  0  0  0  0  0  0  0
    1.1978   -0.6889   -0.0000 C   0  0  0  0  0  0  0  0  0  0  0  0
    2.0807   -1.1887    0.0018 H   0  0  0  0  0  0  0  0  0  0  0  0
    1.1925    0.6923   -0.0035 C   0  0  0  0  0  0  0  0  0  0  0  0
    2.0594    1.1932   -0.0113 H   0  0  0  0  0  0  0  0  0  0  0  0
  1  5  1  0
  5  6  1  0
  5  7  2  0
  1  2  1  0
  1  3  1  0
  1  4  1  0
  8 12  1  0
 12 13  2  0
 13 15  1  0
 15 17  2  0
 17 19  1  0
 19 21  2  0
 21 12  1  0
  8  9  1  0
  8 10  1  0
  8 11  1  0
 13 14  1  0
 15 16  1  0
 17 18  1  0
 19 20  1  0
 21 22  1  0
M  CHG  1   6  -1
M  END
>  <PDB_ID>  (175) 
pdb5y26

>  <RESIDUE_NAME>  (175) 
ASP   PHE

>  <FRAG_NAME>  (175) 
ACET   MBZ

>  <FRAG_ATOM_NUM>  (175) 
fragi: 7  fragj: 15

>  <atom.prop.CHAIN_ID>  (175) 
A A A A A A A Z Z Z Z Z Z Z Z Z Z Z Z Z Z Z

>  <atom.prop.IS_HEAVY_ATOM>  (175) 
1 0 0 0 1 1 1 1 0 0 0 1 1 0 1 0 1 0 1 0 1 0

>  <DIFUSE_FUNC_ATOM>  (175) 
atom 6   atom 7   

>  <FINAL_SINGLE_POINT_ENERGY>  (175) 
0

>  <NONCOV_INTER_ENERGY_QM>  (175) 
0

>  <FF_Energy>  (175) 
7.94

>  <QM_Energy>  (175) 
-3.09

>  <source>  (175) 
ACET_MBZ_03

>  <Index>  (175) 
6695

$$$$
ACEH-pdb13pk-A-GLH-132:MBZ-pdb13pk-A-PHE-109
     RDKit          3D

 22 21  0  0  0  0  0  0  0  0999 V2000
    0.2572   -4.6066    2.5899 C   0  0  0  0  0  0  0  0  0  0  0  0
    1.1378   -4.8000    2.9868 H   0  0  0  0  0  0  0  0  0  0  0  0
   -0.3243   -5.4023    2.5782 H   0  0  0  0  0  0  0  0  0  0  0  0
   -0.2274   -3.8271    3.1778 H   0  0  0  0  0  0  0  0  0  0  0  0
    0.4855   -4.1919    1.1611 C   0  0  0  0  0  0  0  0  0  0  0  0
   -0.4650   -4.1945    0.3662 O   0  0  0  0  0  0  0  0  0  0  0  0
    1.6276   -3.8523    0.8227 O   0  0  0  0  0  0  0  0  0  0  0  0
    0.0049    2.9199    0.0455 C   0  0  0  0  0  0  0  0  0  0  0  0
   -0.5373    3.2441   -0.7129 H   0  0  0  0  0  0  0  0  0  0  0  0
    0.9428    3.2202   -0.0252 H   0  0  0  0  0  0  0  0  0  0  0  0
   -0.4138    3.3389    0.9606 H   0  0  0  0  0  0  0  0  0  0  0  0
    0.0019    1.4008    0.0005 C   0  0  0  0  0  0  0  0  0  0  0  0
   -1.1971    0.6895   -0.0010 C   0  0  0  0  0  0  0  0  0  0  0  0
   -2.0633    1.1783   -0.0041 H   0  0  0  0  0  0  0  0  0  0  0  0
   -1.2006   -0.7054    0.0000 C   0  0  0  0  0  0  0  0  0  0  0  0
   -2.0765   -1.1971   -0.0004 H   0  0  0  0  0  0  0  0  0  0  0  0
    0.0001   -1.3916    0.0031 C   0  0  0  0  0  0  0  0  0  0  0  0
    0.0062   -2.3911    0.0070 H   0  0  0  0  0  0  0  0  0  0  0  0
    1.2006   -0.6866    0.0000 C   0  0  0  0  0  0  0  0  0  0  0  0
    2.0823   -1.1894    0.0010 H   0  0  0  0  0  0  0  0  0  0  0  0
    1.1951    0.6934   -0.0026 C   0  0  0  0  0  0  0  0  0  0  0  0
    2.0642    1.1940   -0.0072 H   0  0  0  0  0  0  0  0  0  0  0  0
  1  5  1  0
  5  6  2  0
  5  7  1  0
  1  2  1  0
  1  3  1  0
  1  4  1  0
  8 12  1  0
 12 13  2  0
 13 15  1  0
 15 17  2  0
 17 19  1  0
 19 21  2  0
 21 12  1  0
  8  9  1  0
  8 10  1  0
  8 11  1  0
 13 14  1  0
 15 16  1  0
 17 18  1  0
 19 20  1  0
 21 22  1  0
M  CHG  1   7  -1
V    7 [O&-]
M  END
>  <PDB_ID>  (176) 
pdb13pk

>  <RESIDUE_NAME>  (176) 
GLU   PHE

>  <FRAG_NAME>  (176) 
ACET   MBZ

>  <FRAG_ATOM_NUM>  (176) 
fragi: 7 fragj: 15

>  <atom.prop.CHAIN_ID>  (176) 
A A A A A A A Z Z Z Z Z Z Z Z Z Z Z Z Z Z Z

>  <atom.prop.IS_HEAVY_ATOM>  (176) 
1 0 0 0 1 1 1 1 0 0 0 1 1 0 1 0 1 0 1 0 1 0

>  <DIFUSE_FUNC_ATOM>  (176) 
n/a

>  <FINAL_SINGLE_POINT_ENERGY>  (176) 
0

>  <NONCOV_INTER_ENERGY_QM>  (176) 
0

>  <FF_Energy>  (176) 
20.94

>  <QM_Energy>  (176) 
-5.34

>  <source>  (176) 
ACET_MBZ_03

>  <Index>  (176) 
8665

$$$$
ACEH-pdb2a8y-F-GLH-201:MBZ-pdb2a8y-F-PHE-123
     RDKit          3D

 22 21  0  0  0  0  0  0  0  0999 V2000
    5.0270    0.0930    0.9770 C   0  0  0  0  0  0  0  0  0  0  0  0
    4.5208   -0.1605    1.7762 H   0  0  0  0  0  0  0  0  0  0  0  0
    5.9491    0.3570    1.1786 H   0  0  0  0  0  0  0  0  0  0  0  0
    5.0633   -0.7729    0.3161 H   0  0  0  0  0  0  0  0  0  0  0  0
    4.3348    1.2671    0.3351 C   0  0  0  0  0  0  0  0  0  0  0  0
    4.0729    2.2341    1.0860 O   0  0  0  0  0  0  0  0  0  0  0  0
    4.0453    1.1972   -0.8780 O   0  0  0  0  0  0  0  0  0  0  0  0
   -0.0262    2.9191    0.0383 C   0  0  0  0  0  0  0  0  0  0  0  0
    0.8094    3.2194    0.4579 H   0  0  0  0  0  0  0  0  0  0  0  0
   -0.8218    3.1997    0.5416 H   0  0  0  0  0  0  0  0  0  0  0  0
   -0.0823    3.3622   -0.9559 H   0  0  0  0  0  0  0  0  0  0  0  0
   -0.0097    1.4008    0.0038 C   0  0  0  0  0  0  0  0  0  0  0  0
   -1.1869    0.6810   -0.0004 C   0  0  0  0  0  0  0  0  0  0  0  0
   -2.0659    1.1663   -0.0047 H   0  0  0  0  0  0  0  0  0  0  0  0
   -1.1919   -0.7054    0.0000 C   0  0  0  0  0  0  0  0  0  0  0  0
   -2.0712   -1.1961    0.0005 H   0  0  0  0  0  0  0  0  0  0  0  0
   -0.0026   -1.3823    0.0017 C   0  0  0  0  0  0  0  0  0  0  0  0
   -0.0042   -2.3932    0.0032 H   0  0  0  0  0  0  0  0  0  0  0  0
    1.1919   -0.7028   -0.0000 C   0  0  0  0  0  0  0  0  0  0  0  0
    2.0760   -1.1937    0.0037 H   0  0  0  0  0  0  0  0  0  0  0  0
    1.1993    0.7087   -0.0051 C   0  0  0  0  0  0  0  0  0  0  0  0
    2.0588    1.1937   -0.0151 H   0  0  0  0  0  0  0  0  0  0  0  0
  1  5  1  0
  5  6  2  0
  5  7  1  0
  1  2  1  0
  1  3  1  0
  1  4  1  0
  8 12  1  0
 12 13  2  0
 13 15  1  0
 15 17  2  0
 17 19  1  0
 19 21  2  0
 21 12  1  0
  8  9  1  0
  8 10  1  0
  8 11  1  0
 13 14  1  0
 15 16  1  0
 17 18  1  0
 19 20  1  0
 21 22  1  0
M  CHG  1   7  -1
V    7 [O&-]
M  END
>  <PDB_ID>  (177) 
pdb2a8y

>  <RESIDUE_NAME>  (177) 
GLU   PHE

>  <FRAG_NAME>  (177) 
ACET   MBZ

>  <FRAG_ATOM_NUM>  (177) 
fragi: 7 fragj: 15

>  <atom.prop.CHAIN_ID>  (177) 
A A A A A A A Z Z Z Z Z Z Z Z Z Z Z Z Z Z Z

>  <atom.prop.IS_HEAVY_ATOM>  (177) 
1 0 0 0 1 1 1 1 0 0 0 1 1 0 1 0 1 0 1 0 1 0

>  <DIFUSE_FUNC_ATOM>  (177) 
n/a

>  <FINAL_SINGLE_POINT_ENERGY>  (177) 
0

>  <NONCOV_INTER_ENERGY_QM>  (177) 
0

>  <FF_Energy>  (177) 
3.76

>  <QM_Energy>  (177) 
-6.94

>  <source>  (177) 
ACET_MBZ_03

>  <Index>  (177) 
8731

$$$$
ACEH-pdb2a8y-K-GLH-201:MBZ-pdb2a8y-K-PHE-123
     RDKit          3D

 22 21  0  0  0  0  0  0  0  0999 V2000
    4.8447    0.0061    0.9727 C   0  0  0  0  0  0  0  0  0  0  0  0
    4.2955   -0.3029    1.7230 H   0  0  0  0  0  0  0  0  0  0  0  0
    5.7236    0.3357    1.2545 H   0  0  0  0  0  0  0  0  0  0  0  0
    5.0060   -0.8433    0.3089 H   0  0  0  0  0  0  0  0  0  0  0  0
    4.1196    1.1220    0.2855 C   0  0  0  0  0  0  0  0  0  0  0  0
    4.0185    1.0753   -0.9509 O   0  0  0  0  0  0  0  0  0  0  0  0
    3.6415    2.0414    1.0050 O   0  0  0  0  0  0  0  0  0  0  0  0
   -0.0285    2.9106   -0.0533 C   0  0  0  0  0  0  0  0  0  0  0  0
    0.8014    3.2480    0.3602 H   0  0  0  0  0  0  0  0  0  0  0  0
   -0.8307    3.2238    0.4283 H   0  0  0  0  0  0  0  0  0  0  0  0
   -0.0768    3.3100   -1.0663 H   0  0  0  0  0  0  0  0  0  0  0  0
   -0.0045    1.4097   -0.0009 C   0  0  0  0  0  0  0  0  0  0  0  0
   -1.1957    0.6918   -0.0001 C   0  0  0  0  0  0  0  0  0  0  0  0
   -2.0676    1.1705   -0.0008 H   0  0  0  0  0  0  0  0  0  0  0  0
   -1.1932   -0.7126   -0.0000 C   0  0  0  0  0  0  0  0  0  0  0  0
   -2.0690   -1.2023    0.0028 H   0  0  0  0  0  0  0  0  0  0  0  0
    0.0073   -1.3911   -0.0016 C   0  0  0  0  0  0  0  0  0  0  0  0
    0.0034   -2.4001   -0.0049 H   0  0  0  0  0  0  0  0  0  0  0  0
    1.1932   -0.7064   -0.0000 C   0  0  0  0  0  0  0  0  0  0  0  0
    2.0831   -1.1886    0.0009 H   0  0  0  0  0  0  0  0  0  0  0  0
    1.1930    0.7086    0.0026 C   0  0  0  0  0  0  0  0  0  0  0  0
    2.0612    1.1913    0.0065 H   0  0  0  0  0  0  0  0  0  0  0  0
  1  5  1  0
  5  6  2  0
  5  7  1  0
  1  2  1  0
  1  3  1  0
  1  4  1  0
  8 12  1  0
 12 13  2  0
 13 15  1  0
 15 17  2  0
 17 19  1  0
 19 21  2  0
 21 12  1  0
  8  9  1  0
  8 10  1  0
  8 11  1  0
 13 14  1  0
 15 16  1  0
 17 18  1  0
 19 20  1  0
 21 22  1  0
M  CHG  1   7  -1
V    7 [O&-]
M  END
>  <PDB_ID>  (178) 
pdb2a8y

>  <RESIDUE_NAME>  (178) 
GLU   PHE

>  <FRAG_NAME>  (178) 
ACET   MBZ

>  <FRAG_ATOM_NUM>  (178) 
fragi: 7 fragj: 15

>  <atom.prop.CHAIN_ID>  (178) 
A A A A A A A Z Z Z Z Z Z Z Z Z Z Z Z Z Z Z

>  <atom.prop.IS_HEAVY_ATOM>  (178) 
1 0 0 0 1 1 1 1 0 0 0 1 1 0 1 0 1 0 1 0 1 0

>  <DIFUSE_FUNC_ATOM>  (178) 
n/a

>  <FINAL_SINGLE_POINT_ENERGY>  (178) 
0

>  <NONCOV_INTER_ENERGY_QM>  (178) 
0

>  <FF_Energy>  (178) 
20.06

>  <QM_Energy>  (178) 
-4.96

>  <source>  (178) 
ACET_MBZ_03

>  <Index>  (178) 
8749

$$$$
ACEH-pdb5b4s-B-ASH-37:MBZ-pdb5b4s-B-PHE-203
     RDKit          3D

 22 21  0  0  0  0  0  0  0  0999 V2000
    6.3905    0.4908   -0.1087 C   0  0  0  0  0  0  0  0  0  0  0  0
    6.2927   -0.1688   -0.8498 H   0  0  0  0  0  0  0  0  0  0  0  0
    6.3844    0.0206    0.7690 H   0  0  0  0  0  0  0  0  0  0  0  0
    7.3557    0.9845   -0.2213 H   0  0  0  0  0  0  0  0  0  0  0  0
    5.2290    1.4510   -0.1555 C   0  0  0  0  0  0  0  0  0  0  0  0
    5.4324    2.6757   -0.3376 O   0  0  0  0  0  0  0  0  0  0  0  0
    4.0943    0.9534   -0.0119 O   0  0  0  0  0  0  0  0  0  0  0  0
    0.0121    2.8900   -0.0071 C   0  0  0  0  0  0  0  0  0  0  0  0
   -0.7121    3.2004   -0.6062 H   0  0  0  0  0  0  0  0  0  0  0  0
    0.8970    3.1935   -0.3310 H   0  0  0  0  0  0  0  0  0  0  0  0
   -0.1529    3.3406    0.9715 H   0  0  0  0  0  0  0  0  0  0  0  0
    0.0046    1.3936    0.0008 C   0  0  0  0  0  0  0  0  0  0  0  0
   -1.1979    0.6913   -0.0012 C   0  0  0  0  0  0  0  0  0  0  0  0
   -2.0598    1.1837   -0.0053 H   0  0  0  0  0  0  0  0  0  0  0  0
   -1.2010   -0.6977   -0.0000 C   0  0  0  0  0  0  0  0  0  0  0  0
   -2.0766   -1.1921   -0.0012 H   0  0  0  0  0  0  0  0  0  0  0  0
   -0.0021   -1.3830    0.0041 C   0  0  0  0  0  0  0  0  0  0  0  0
   -0.0037   -2.3877    0.0097 H   0  0  0  0  0  0  0  0  0  0  0  0
    1.2010   -0.6950   -0.0000 C   0  0  0  0  0  0  0  0  0  0  0  0
    2.0790   -1.1948    0.0009 H   0  0  0  0  0  0  0  0  0  0  0  0
    1.1954    0.6908   -0.0038 C   0  0  0  0  0  0  0  0  0  0  0  0
    2.0654    1.1875   -0.0106 H   0  0  0  0  0  0  0  0  0  0  0  0
  1  5  1  0
  5  6  2  0
  5  7  1  0
  1  2  1  0
  1  3  1  0
  1  4  1  0
  8 12  1  0
 12 13  2  0
 13 15  1  0
 15 17  2  0
 17 19  1  0
 19 21  2  0
 21 12  1  0
  8  9  1  0
  8 10  1  0
  8 11  1  0
 13 14  1  0
 15 16  1  0
 17 18  1  0
 19 20  1  0
 21 22  1  0
M  CHG  1   7  -1
V    7 [O&-]
M  END
>  <PDB_ID>  (179) 
pdb5b4s

>  <RESIDUE_NAME>  (179) 
ASP   PHE

>  <FRAG_NAME>  (179) 
ACET   MBZ

>  <FRAG_ATOM_NUM>  (179) 
fragi: 7 fragj: 15

>  <atom.prop.CHAIN_ID>  (179) 
A A A A A A A Z Z Z Z Z Z Z Z Z Z Z Z Z Z Z

>  <atom.prop.IS_HEAVY_ATOM>  (179) 
1 0 0 0 1 1 1 1 0 0 0 1 1 0 1 0 1 0 1 0 1 0

>  <DIFUSE_FUNC_ATOM>  (179) 
n/a

>  <FINAL_SINGLE_POINT_ENERGY>  (179) 
0

>  <NONCOV_INTER_ENERGY_QM>  (179) 
0

>  <FF_Energy>  (179) 
3.51

>  <QM_Energy>  (179) 
-7.1

>  <source>  (179) 
ACET_MBZ_03

>  <Index>  (179) 
9344

$$$$
ACEH-pdb1ckm-B-GLH-131:MBZ-pdb1ckm-B-PHE-146
     RDKit          3D

 22 21  0  0  0  0  0  0  0  0999 V2000
   -1.4415   -4.3812   -0.7421 C   0  0  0  0  0  0  0  0  0  0  0  0
   -1.0056   -3.5143   -0.4881 H   0  0  0  0  0  0  0  0  0  0  0  0
   -2.2466   -4.5241   -0.1619 H   0  0  0  0  0  0  0  0  0  0  0  0
   -1.7760   -4.3027   -1.7766 H   0  0  0  0  0  0  0  0  0  0  0  0
   -0.4641   -5.4813   -0.4276 C   0  0  0  0  0  0  0  0  0  0  0  0
   -0.8892   -6.5422   -0.0222 O   0  0  0  0  0  0  0  0  0  0  0  0
    0.7269   -5.2651   -0.5519 O   0  0  0  0  0  0  0  0  0  0  0  0
    0.0803    2.9223   -0.0146 C   0  0  0  0  0  0  0  0  0  0  0  0
    1.0204    3.1609   -0.3494 H   0  0  0  0  0  0  0  0  0  0  0  0
    0.0559    3.2221    0.9667 H   0  0  0  0  0  0  0  0  0  0  0  0
   -0.6215    3.5550   -0.5578 H   0  0  0  0  0  0  0  0  0  0  0  0
   -0.0034    1.3940   -0.0054 C   0  0  0  0  0  0  0  0  0  0  0  0
   -1.2198    0.6902    0.0023 C   0  0  0  0  0  0  0  0  0  0  0  0
   -2.0752    1.1783    0.0082 H   0  0  0  0  0  0  0  0  0  0  0  0
   -1.2130   -0.7092   -0.0000 C   0  0  0  0  0  0  0  0  0  0  0  0
   -2.0782   -1.2109    0.0025 H   0  0  0  0  0  0  0  0  0  0  0  0
    0.0091   -1.3929   -0.0042 C   0  0  0  0  0  0  0  0  0  0  0  0
    0.0146   -2.3908   -0.0105 H   0  0  0  0  0  0  0  0  0  0  0  0
    1.2130   -0.6838    0.0000 C   0  0  0  0  0  0  0  0  0  0  0  0
    2.0949   -1.1883   -0.0010 H   0  0  0  0  0  0  0  0  0  0  0  0
    1.2142    0.7017    0.0073 C   0  0  0  0  0  0  0  0  0  0  0  0
    2.0668    1.2053    0.0214 H   0  0  0  0  0  0  0  0  0  0  0  0
  1  5  1  0
  5  6  2  0
  5  7  1  0
  1  2  1  0
  1  3  1  0
  1  4  1  0
  8 12  1  0
 12 13  2  0
 13 15  1  0
 15 17  2  0
 17 19  1  0
 19 21  2  0
 21 12  1  0
  8  9  1  0
  8 10  1  0
  8 11  1  0
 13 14  1  0
 15 16  1  0
 17 18  1  0
 19 20  1  0
 21 22  1  0
M  CHG  1   7  -1
V    7 [O&-]
M  END
>  <PDB_ID>  (180) 
pdb1ckm

>  <RESIDUE_NAME>  (180) 
GLU   PHE

>  <FRAG_NAME>  (180) 
ACET   MBZ

>  <FRAG_ATOM_NUM>  (180) 
fragi: 7 fragj: 15

>  <atom.prop.CHAIN_ID>  (180) 
A A A A A A A Z Z Z Z Z Z Z Z Z Z Z Z Z Z Z

>  <atom.prop.IS_HEAVY_ATOM>  (180) 
1 0 0 0 1 1 1 1 0 0 0 1 1 0 1 0 1 0 1 0 1 0

>  <DIFUSE_FUNC_ATOM>  (180) 
n/a

>  <FINAL_SINGLE_POINT_ENERGY>  (180) 
0

>  <NONCOV_INTER_ENERGY_QM>  (180) 
0

>  <FF_Energy>  (180) 
14.2

>  <QM_Energy>  (180) 
-0.25

>  <source>  (180) 
ACET_MBZ_03

>  <Index>  (180) 
10281

$$$$
ACEH-pdb5e8n-A-GLH-9:MBZ-pdb5e8n-A-PHE-74
     RDKit          3D

 22 21  0  0  0  0  0  0  0  0999 V2000
   -2.1606   -3.2860   -3.4259 C   0  0  0  0  0  0  0  0  0  0  0  0
   -2.1029   -2.4450   -3.9373 H   0  0  0  0  0  0  0  0  0  0  0  0
   -2.4764   -4.0335   -3.9851 H   0  0  0  0  0  0  0  0  0  0  0  0
   -1.1579   -3.5306   -3.0756 H   0  0  0  0  0  0  0  0  0  0  0  0
   -3.1745   -3.0813   -2.3109 C   0  0  0  0  0  0  0  0  0  0  0  0
   -2.8492   -2.5407   -1.2175 O   0  0  0  0  0  0  0  0  0  0  0  0
   -4.3178   -3.4947   -2.5394 O   0  0  0  0  0  0  0  0  0  0  0  0
   -0.0048    2.8819    0.0069 C   0  0  0  0  0  0  0  0  0  0  0  0
   -0.7783    3.1922   -0.5223 H   0  0  0  0  0  0  0  0  0  0  0  0
    0.8480    3.1962   -0.3795 H   0  0  0  0  0  0  0  0  0  0  0  0
   -0.0937    3.2975    1.0106 H   0  0  0  0  0  0  0  0  0  0  0  0
   -0.0011    1.3942   -0.0029 C   0  0  0  0  0  0  0  0  0  0  0  0
   -1.1904    0.6857    0.0039 C   0  0  0  0  0  0  0  0  0  0  0  0
   -2.0589    1.1847    0.0109 H   0  0  0  0  0  0  0  0  0  0  0  0
   -1.1982   -0.6844   -0.0000 C   0  0  0  0  0  0  0  0  0  0  0  0
   -2.0759   -1.1858    0.0014 H   0  0  0  0  0  0  0  0  0  0  0  0
    0.0002   -1.3889   -0.0047 C   0  0  0  0  0  0  0  0  0  0  0  0
   -0.0131   -2.3882   -0.0123 H   0  0  0  0  0  0  0  0  0  0  0  0
    1.1982   -0.7011   -0.0000 C   0  0  0  0  0  0  0  0  0  0  0  0
    2.0795   -1.1935    0.0024 H   0  0  0  0  0  0  0  0  0  0  0  0
    1.1913    0.6945    0.0037 C   0  0  0  0  0  0  0  0  0  0  0  0
    2.0609    1.1876    0.0105 H   0  0  0  0  0  0  0  0  0  0  0  0
  1  5  1  0
  5  6  2  0
  5  7  1  0
  1  2  1  0
  1  3  1  0
  1  4  1  0
  8 12  1  0
 12 13  2  0
 13 15  1  0
 15 17  2  0
 17 19  1  0
 19 21  2  0
 21 12  1  0
  8  9  1  0
  8 10  1  0
  8 11  1  0
 13 14  1  0
 15 16  1  0
 17 18  1  0
 19 20  1  0
 21 22  1  0
M  CHG  1   7  -1
V    7 [O&-]
M  END
>  <PDB_ID>  (181) 
pdb5e8n

>  <RESIDUE_NAME>  (181) 
GLU   PHE

>  <FRAG_NAME>  (181) 
ACET   MBZ

>  <FRAG_ATOM_NUM>  (181) 
fragi: 7 fragj: 15

>  <atom.prop.CHAIN_ID>  (181) 
A A A A A A A Z Z Z Z Z Z Z Z Z Z Z Z Z Z Z

>  <atom.prop.IS_HEAVY_ATOM>  (181) 
1 0 0 0 1 1 1 1 0 0 0 1 1 0 1 0 1 0 1 0 1 0

>  <DIFUSE_FUNC_ATOM>  (181) 
n/a

>  <FINAL_SINGLE_POINT_ENERGY>  (181) 
0

>  <NONCOV_INTER_ENERGY_QM>  (181) 
0

>  <FF_Energy>  (181) 
7.93

>  <QM_Energy>  (181) 
-3.95

>  <source>  (181) 
ACET_MBZ_03

>  <Index>  (181) 
10630

$$$$
ACEH-pdb5ech-E-ASH-154:MBZ-pdb5ech-E-PHE-145
     RDKit          3D

 22 21  0  0  0  0  0  0  0  0999 V2000
   -4.1032    3.9038   -1.4724 C   0  0  0  0  0  0  0  0  0  0  0  0
   -3.9921    4.8436   -1.7749 H   0  0  0  0  0  0  0  0  0  0  0  0
   -5.0459    3.7295   -1.2168 H   0  0  0  0  0  0  0  0  0  0  0  0
   -3.8525    3.2484   -2.3065 H   0  0  0  0  0  0  0  0  0  0  0  0
   -3.2197    3.6669   -0.2771 C   0  0  0  0  0  0  0  0  0  0  0  0
   -2.4120    4.5549    0.0641 O   0  0  0  0  0  0  0  0  0  0  0  0
   -3.3279    2.5752    0.3088 O   0  0  0  0  0  0  0  0  0  0  0  0
   -0.0025    2.9082   -0.0172 C   0  0  0  0  0  0  0  0  0  0  0  0
   -0.8910    3.1988   -0.3621 H   0  0  0  0  0  0  0  0  0  0  0  0
    0.7191    3.1961   -0.6408 H   0  0  0  0  0  0  0  0  0  0  0  0
    0.1652    3.3948    0.9436 H   0  0  0  0  0  0  0  0  0  0  0  0
   -0.0002    1.3958    0.0109 C   0  0  0  0  0  0  0  0  0  0  0  0
   -1.1908    0.6853   -0.0080 C   0  0  0  0  0  0  0  0  0  0  0  0
   -2.0597    1.1787   -0.0288 H   0  0  0  0  0  0  0  0  0  0  0  0
   -1.1958   -0.6937   -0.0000 C   0  0  0  0  0  0  0  0  0  0  0  0
   -2.0746   -1.1903    0.0069 H   0  0  0  0  0  0  0  0  0  0  0  0
   -0.0025   -1.3845    0.0002 C   0  0  0  0  0  0  0  0  0  0  0  0
   -0.0050   -2.3869   -0.0006 H   0  0  0  0  0  0  0  0  0  0  0  0
    1.1958   -0.6934    0.0000 C   0  0  0  0  0  0  0  0  0  0  0  0
    2.0767   -1.1945    0.0039 H   0  0  0  0  0  0  0  0  0  0  0  0
    1.1936    0.6905   -0.0031 C   0  0  0  0  0  0  0  0  0  0  0  0
    2.0619    1.1888   -0.0165 H   0  0  0  0  0  0  0  0  0  0  0  0
  1  5  1  0
  5  6  2  0
  5  7  1  0
  1  2  1  0
  1  3  1  0
  1  4  1  0
  8 12  1  0
 12 13  2  0
 13 15  1  0
 15 17  2  0
 17 19  1  0
 19 21  2  0
 21 12  1  0
  8  9  1  0
  8 10  1  0
  8 11  1  0
 13 14  1  0
 15 16  1  0
 17 18  1  0
 19 20  1  0
 21 22  1  0
M  CHG  1   7  -1
V    7 [O&-]
M  END
>  <PDB_ID>  (182) 
pdb5ech

>  <RESIDUE_NAME>  (182) 
ASP   PHE

>  <FRAG_NAME>  (182) 
ACET   MBZ

>  <FRAG_ATOM_NUM>  (182) 
fragi: 7 fragj: 15

>  <atom.prop.CHAIN_ID>  (182) 
A A A A A A A Z Z Z Z Z Z Z Z Z Z Z Z Z Z Z

>  <atom.prop.IS_HEAVY_ATOM>  (182) 
1 0 0 0 1 1 1 1 0 0 0 1 1 0 1 0 1 0 1 0 1 0

>  <DIFUSE_FUNC_ATOM>  (182) 
n/a

>  <FINAL_SINGLE_POINT_ENERGY>  (182) 
0

>  <NONCOV_INTER_ENERGY_QM>  (182) 
0

>  <FF_Energy>  (182) 
18.56

>  <QM_Energy>  (182) 
-5.28

>  <source>  (182) 
ACET_MBZ_03

>  <Index>  (182) 
10683

$$$$
ACEH-pdb4e2q-O-GLH-123:MBZ-pdb4e2q-O-PHE-218
     RDKit          3D

 22 21  0  0  0  0  0  0  0  0999 V2000
    4.3545   -1.8451   -1.1747 C   0  0  0  0  0  0  0  0  0  0  0  0
    4.8251   -1.5438   -1.9796 H   0  0  0  0  0  0  0  0  0  0  0  0
    3.4257   -2.1034   -1.3527 H   0  0  0  0  0  0  0  0  0  0  0  0
    4.8816   -2.7104   -0.7726 H   0  0  0  0  0  0  0  0  0  0  0  0
    4.3165   -0.6559   -0.1972 C   0  0  0  0  0  0  0  0  0  0  0  0
    4.6612    0.4708   -0.6249 O   0  0  0  0  0  0  0  0  0  0  0  0
    3.9352   -0.8303    0.9919 O   0  0  0  0  0  0  0  0  0  0  0  0
   -0.0015    2.9114    0.0168 C   0  0  0  0  0  0  0  0  0  0  0  0
   -0.7733    3.2242   -0.5180 H   0  0  0  0  0  0  0  0  0  0  0  0
    0.8530    3.2249   -0.3719 H   0  0  0  0  0  0  0  0  0  0  0  0
   -0.0903    3.3492    1.0110 H   0  0  0  0  0  0  0  0  0  0  0  0
   -0.0000    1.4075    0.0006 C   0  0  0  0  0  0  0  0  0  0  0  0
   -1.1986    0.6982   -0.0007 C   0  0  0  0  0  0  0  0  0  0  0  0
   -2.0657    1.1868   -0.0031 H   0  0  0  0  0  0  0  0  0  0  0  0
   -1.2065   -0.7003    0.0000 C   0  0  0  0  0  0  0  0  0  0  0  0
   -2.0843   -1.1892    0.0013 H   0  0  0  0  0  0  0  0  0  0  0  0
   -0.0048   -1.4013    0.0013 C   0  0  0  0  0  0  0  0  0  0  0  0
   -0.0063   -2.3962    0.0025 H   0  0  0  0  0  0  0  0  0  0  0  0
    1.2065   -0.7000   -0.0000 C   0  0  0  0  0  0  0  0  0  0  0  0
    2.0834   -1.1996    0.0015 H   0  0  0  0  0  0  0  0  0  0  0  0
    1.2035    0.6959   -0.0012 C   0  0  0  0  0  0  0  0  0  0  0  0
    2.0689    1.1914   -0.0043 H   0  0  0  0  0  0  0  0  0  0  0  0
  1  5  1  0
  5  6  2  0
  5  7  1  0
  1  2  1  0
  1  3  1  0
  1  4  1  0
  8 12  1  0
 12 13  2  0
 13 15  1  0
 15 17  2  0
 17 19  1  0
 19 21  2  0
 21 12  1  0
  8  9  1  0
  8 10  1  0
  8 11  1  0
 13 14  1  0
 15 16  1  0
 17 18  1  0
 19 20  1  0
 21 22  1  0
M  CHG  1   7  -1
V    7 [O&-]
M  END
>  <PDB_ID>  (183) 
pdb4e2q

>  <RESIDUE_NAME>  (183) 
GLU   PHE

>  <FRAG_NAME>  (183) 
ACET   MBZ

>  <FRAG_ATOM_NUM>  (183) 
fragi: 7 fragj: 15

>  <atom.prop.CHAIN_ID>  (183) 
A A A A A A A Z Z Z Z Z Z Z Z Z Z Z Z Z Z Z

>  <atom.prop.IS_HEAVY_ATOM>  (183) 
1 0 0 0 1 1 1 1 0 0 0 1 1 0 1 0 1 0 1 0 1 0

>  <DIFUSE_FUNC_ATOM>  (183) 
n/a

>  <FINAL_SINGLE_POINT_ENERGY>  (183) 
0

>  <NONCOV_INTER_ENERGY_QM>  (183) 
0

>  <FF_Energy>  (183) 
6.11

>  <QM_Energy>  (183) 
-4.79

>  <source>  (183) 
ACET_MBZ_03

>  <Index>  (183) 
11070

$$$$
ACEH-pdb2fhx-A-ASH-57:MBZ-pdb2fhx-A-PHE-61
     RDKit          3D

 22 21  0  0  0  0  0  0  0  0999 V2000
   -4.2222    3.3822   -0.2879 C   0  0  0  0  0  0  0  0  0  0  0  0
   -4.7836    3.0945   -1.0537 H   0  0  0  0  0  0  0  0  0  0  0  0
   -3.3502    3.7327   -0.6013 H   0  0  0  0  0  0  0  0  0  0  0  0
   -4.7439    4.1881    0.2283 H   0  0  0  0  0  0  0  0  0  0  0  0
   -3.9773    2.1931    0.6133 C   0  0  0  0  0  0  0  0  0  0  0  0
   -4.2359    1.0563    0.1849 O   0  0  0  0  0  0  0  0  0  0  0  0
   -3.5286    2.3843    1.7588 O   0  0  0  0  0  0  0  0  0  0  0  0
   -0.0123    2.9174   -0.0188 C   0  0  0  0  0  0  0  0  0  0  0  0
   -0.9356    3.2138   -0.2165 H   0  0  0  0  0  0  0  0  0  0  0  0
    0.6185    3.2167   -0.7207 H   0  0  0  0  0  0  0  0  0  0  0  0
    0.2906    3.3863    0.9175 H   0  0  0  0  0  0  0  0  0  0  0  0
   -0.0012    1.4082    0.0065 C   0  0  0  0  0  0  0  0  0  0  0  0
   -1.1950    0.6923   -0.0029 C   0  0  0  0  0  0  0  0  0  0  0  0
   -2.0656    1.1813   -0.0136 H   0  0  0  0  0  0  0  0  0  0  0  0
   -1.2028   -0.7024    0.0000 C   0  0  0  0  0  0  0  0  0  0  0  0
   -2.0806   -1.1921    0.0006 H   0  0  0  0  0  0  0  0  0  0  0  0
   -0.0029   -1.3996    0.0041 C   0  0  0  0  0  0  0  0  0  0  0  0
   -0.0045   -2.3975    0.0093 H   0  0  0  0  0  0  0  0  0  0  0  0
    1.2028   -0.7007   -0.0000 C   0  0  0  0  0  0  0  0  0  0  0  0
    2.0828   -1.1950    0.0039 H   0  0  0  0  0  0  0  0  0  0  0  0
    1.1991    0.7023   -0.0076 C   0  0  0  0  0  0  0  0  0  0  0  0
    2.0652    1.1935   -0.0239 H   0  0  0  0  0  0  0  0  0  0  0  0
  1  5  1  0
  5  6  2  0
  5  7  1  0
  1  2  1  0
  1  3  1  0
  1  4  1  0
  8 12  1  0
 12 13  2  0
 13 15  1  0
 15 17  2  0
 17 19  1  0
 19 21  2  0
 21 12  1  0
  8  9  1  0
  8 10  1  0
  8 11  1  0
 13 14  1  0
 15 16  1  0
 17 18  1  0
 19 20  1  0
 21 22  1  0
M  CHG  1   7  -1
V    7 [O&-]
M  END
>  <PDB_ID>  (184) 
pdb2fhx

>  <RESIDUE_NAME>  (184) 
ASP   PHE

>  <FRAG_NAME>  (184) 
ACET   MBZ

>  <FRAG_ATOM_NUM>  (184) 
fragi: 7 fragj: 15

>  <atom.prop.CHAIN_ID>  (184) 
A A A A A A A Z Z Z Z Z Z Z Z Z Z Z Z Z Z Z

>  <atom.prop.IS_HEAVY_ATOM>  (184) 
1 0 0 0 1 1 1 1 0 0 0 1 1 0 1 0 1 0 1 0 1 0

>  <DIFUSE_FUNC_ATOM>  (184) 
n/a

>  <FINAL_SINGLE_POINT_ENERGY>  (184) 
0

>  <NONCOV_INTER_ENERGY_QM>  (184) 
0

>  <FF_Energy>  (184) 
4.68

>  <QM_Energy>  (184) 
-6.07

>  <source>  (184) 
ACET_MBZ_03

>  <Index>  (184) 
11767

$$$$
ACEH-pdb5gs7-A-GLH-152:MBZ-pdb5gs7-A-PHE-174
     RDKit          3D

 22 21  0  0  0  0  0  0  0  0999 V2000
    0.0902    5.9857   -3.7608 C   0  0  0  0  0  0  0  0  0  0  0  0
   -0.8232    5.8810   -4.1856 H   0  0  0  0  0  0  0  0  0  0  0  0
    0.7030    5.3019   -4.1873 H   0  0  0  0  0  0  0  0  0  0  0  0
    0.4640    6.9748   -4.0258 H   0  0  0  0  0  0  0  0  0  0  0  0
   -0.0463    5.6190   -2.3121 C   0  0  0  0  0  0  0  0  0  0  0  0
   -0.6759    4.4904   -2.0790 O   0  0  0  0  0  0  0  0  0  0  0  0
    0.3460    6.3511   -1.3499 O   0  0  0  0  0  0  0  0  0  0  0  0
    0.0650    2.8857   -0.0585 C   0  0  0  0  0  0  0  0  0  0  0  0
   -0.4788    3.2019   -0.8238 H   0  0  0  0  0  0  0  0  0  0  0  0
    1.0053    3.1854   -0.1414 H   0  0  0  0  0  0  0  0  0  0  0  0
   -0.3468    3.3295    0.8480 H   0  0  0  0  0  0  0  0  0  0  0  0
    0.0451    1.4031   -0.0500 C   0  0  0  0  0  0  0  0  0  0  0  0
   -1.2054    0.6818   -0.0406 C   0  0  0  0  0  0  0  0  0  0  0  0
   -2.0384    1.2206   -0.0669 H   0  0  0  0  0  0  0  0  0  0  0  0
   -1.2057   -0.6454   -0.0000 C   0  0  0  0  0  0  0  0  0  0  0  0
   -2.1105   -1.1578    0.0052 H   0  0  0  0  0  0  0  0  0  0  0  0
   -0.0449   -1.4029    0.0382 C   0  0  0  0  0  0  0  0  0  0  0  0
   -0.0625   -2.3791    0.0891 H   0  0  0  0  0  0  0  0  0  0  0  0
    1.2057   -0.7094    0.0000 C   0  0  0  0  0  0  0  0  0  0  0  0
    2.0569   -1.2288   -0.0621 H   0  0  0  0  0  0  0  0  0  0  0  0
    1.2051    0.6729    0.0524 C   0  0  0  0  0  0  0  0  0  0  0  0
    2.0856    1.1567    0.1689 H   0  0  0  0  0  0  0  0  0  0  0  0
  1  5  1  0
  5  6  2  0
  5  7  1  0
  1  2  1  0
  1  3  1  0
  1  4  1  0
  8 12  1  0
 12 13  2  0
 13 15  1  0
 15 17  2  0
 17 19  1  0
 19 21  2  0
 21 12  1  0
  8  9  1  0
  8 10  1  0
  8 11  1  0
 13 14  1  0
 15 16  1  0
 17 18  1  0
 19 20  1  0
 21 22  1  0
M  CHG  1   7  -1
V    7 [O&-]
M  END
>  <PDB_ID>  (185) 
pdb5gs7

>  <RESIDUE_NAME>  (185) 
GLU   PHE

>  <FRAG_NAME>  (185) 
ACET   MBZ

>  <FRAG_ATOM_NUM>  (185) 
fragi: 7 fragj: 15

>  <atom.prop.CHAIN_ID>  (185) 
A A A A A A A Z Z Z Z Z Z Z Z Z Z Z Z Z Z Z

>  <atom.prop.IS_HEAVY_ATOM>  (185) 
1 0 0 0 1 1 1 1 0 0 0 1 1 0 1 0 1 0 1 0 1 0

>  <DIFUSE_FUNC_ATOM>  (185) 
n/a

>  <FINAL_SINGLE_POINT_ENERGY>  (185) 
0

>  <NONCOV_INTER_ENERGY_QM>  (185) 
0

>  <FF_Energy>  (185) 
26.64

>  <QM_Energy>  (185) 
-2.21

>  <source>  (185) 
ACET_MBZ_03

>  <Index>  (185) 
11799

$$$$
ACEH-pdb3ghz-B-GLH-149:MBZ-pdb3ghz-B-PHE-7
     RDKit          3D

 22 21  0  0  0  0  0  0  0  0999 V2000
   -4.6327    1.2198   -0.1061 C   0  0  0  0  0  0  0  0  0  0  0  0
   -3.6624    1.4015    0.0369 H   0  0  0  0  0  0  0  0  0  0  0  0
   -4.8788    0.3479    0.3115 H   0  0  0  0  0  0  0  0  0  0  0  0
   -5.2181    2.0170    0.3520 H   0  0  0  0  0  0  0  0  0  0  0  0
   -4.8352    1.0666   -1.5855 C   0  0  0  0  0  0  0  0  0  0  0  0
   -4.5603    1.9915   -2.3612 O   0  0  0  0  0  0  0  0  0  0  0  0
   -5.2510   -0.0229   -1.9675 O   0  0  0  0  0  0  0  0  0  0  0  0
   -0.0307    2.9033    0.0249 C   0  0  0  0  0  0  0  0  0  0  0  0
   -0.6871    3.2124   -0.6440 H   0  0  0  0  0  0  0  0  0  0  0  0
    0.8782    3.2279   -0.1805 H   0  0  0  0  0  0  0  0  0  0  0  0
   -0.3212    3.3066    0.9949 H   0  0  0  0  0  0  0  0  0  0  0  0
   -0.0057    1.4012   -0.0097 C   0  0  0  0  0  0  0  0  0  0  0  0
   -1.1847    0.6982    0.0144 C   0  0  0  0  0  0  0  0  0  0  0  0
   -2.0617    1.1786    0.0416 H   0  0  0  0  0  0  0  0  0  0  0  0
   -1.2006   -0.7094   -0.0000 C   0  0  0  0  0  0  0  0  0  0  0  0
   -2.0812   -1.1858   -0.0033 H   0  0  0  0  0  0  0  0  0  0  0  0
   -0.0087   -1.3964   -0.0071 C   0  0  0  0  0  0  0  0  0  0  0  0
    0.0042   -2.3929   -0.0183 H   0  0  0  0  0  0  0  0  0  0  0  0
    1.2006   -0.6861    0.0000 C   0  0  0  0  0  0  0  0  0  0  0  0
    2.0795   -1.1944    0.0052 H   0  0  0  0  0  0  0  0  0  0  0  0
    1.1991    0.6925    0.0024 C   0  0  0  0  0  0  0  0  0  0  0  0
    2.0612    1.1963    0.0119 H   0  0  0  0  0  0  0  0  0  0  0  0
  1  5  1  0
  5  6  2  0
  5  7  1  0
  1  2  1  0
  1  3  1  0
  1  4  1  0
  8 12  1  0
 12 13  2  0
 13 15  1  0
 15 17  2  0
 17 19  1  0
 19 21  2  0
 21 12  1  0
  8  9  1  0
  8 10  1  0
  8 11  1  0
 13 14  1  0
 15 16  1  0
 17 18  1  0
 19 20  1  0
 21 22  1  0
M  CHG  1   7  -1
V    7 [O&-]
M  END
>  <PDB_ID>  (186) 
pdb3ghz

>  <RESIDUE_NAME>  (186) 
GLU   PHE

>  <FRAG_NAME>  (186) 
ACET   MBZ

>  <FRAG_ATOM_NUM>  (186) 
fragi: 7 fragj: 15

>  <atom.prop.CHAIN_ID>  (186) 
A A A A A A A Z Z Z Z Z Z Z Z Z Z Z Z Z Z Z

>  <atom.prop.IS_HEAVY_ATOM>  (186) 
1 0 0 0 1 1 1 1 0 0 0 1 1 0 1 0 1 0 1 0 1 0

>  <DIFUSE_FUNC_ATOM>  (186) 
n/a

>  <FINAL_SINGLE_POINT_ENERGY>  (186) 
0

>  <NONCOV_INTER_ENERGY_QM>  (186) 
0

>  <FF_Energy>  (186) 
11.36

>  <QM_Energy>  (186) 
-0.65

>  <source>  (186) 
ACET_MBZ_03

>  <Index>  (186) 
13321

$$$$
ACEH-pdb1hxs-3-GLH-45:MBZ-pdb1hxs-4-PHE-53
     RDKit          3D

 22 21  0  0  0  0  0  0  0  0999 V2000
    4.6071   -0.3966    2.6778 C   0  0  0  0  0  0  0  0  0  0  0  0
    5.2163   -0.8958    3.2570 H   0  0  0  0  0  0  0  0  0  0  0  0
    3.9280    0.1030    3.1706 H   0  0  0  0  0  0  0  0  0  0  0  0
    5.1907    0.3024    2.0787 H   0  0  0  0  0  0  0  0  0  0  0  0
    3.8889   -1.3983    1.7977 C   0  0  0  0  0  0  0  0  0  0  0  0
    2.6753   -1.5060    1.9027 O   0  0  0  0  0  0  0  0  0  0  0  0
    4.5418   -2.0603    0.9935 O   0  0  0  0  0  0  0  0  0  0  0  0
    0.0198    2.9024   -0.0342 C   0  0  0  0  0  0  0  0  0  0  0  0
    0.9615    3.1906   -0.0020 H   0  0  0  0  0  0  0  0  0  0  0  0
   -0.4912    3.2254    0.7434 H   0  0  0  0  0  0  0  0  0  0  0  0
   -0.4333    3.3151   -0.9356 H   0  0  0  0  0  0  0  0  0  0  0  0
    0.0013    1.3887   -0.0009 C   0  0  0  0  0  0  0  0  0  0  0  0
   -1.2118    0.6972    0.0033 C   0  0  0  0  0  0  0  0  0  0  0  0
   -2.0657    1.1865    0.0073 H   0  0  0  0  0  0  0  0  0  0  0  0
   -1.2063   -0.6965   -0.0000 C   0  0  0  0  0  0  0  0  0  0  0  0
   -2.0816   -1.1946    0.0014 H   0  0  0  0  0  0  0  0  0  0  0  0
   -0.0007   -1.3949   -0.0029 C   0  0  0  0  0  0  0  0  0  0  0  0
   -0.0030   -2.3919   -0.0075 H   0  0  0  0  0  0  0  0  0  0  0  0
    1.2063   -0.6940    0.0000 C   0  0  0  0  0  0  0  0  0  0  0  0
    2.0857   -1.1967    0.0028 H   0  0  0  0  0  0  0  0  0  0  0  0
    1.2112    0.6996    0.0005 C   0  0  0  0  0  0  0  0  0  0  0  0
    2.0678    1.1946    0.0012 H   0  0  0  0  0  0  0  0  0  0  0  0
  1  5  1  0
  5  6  2  0
  5  7  1  0
  1  2  1  0
  1  3  1  0
  1  4  1  0
  8 12  1  0
 12 13  2  0
 13 15  1  0
 15 17  2  0
 17 19  1  0
 19 21  2  0
 21 12  1  0
  8  9  1  0
  8 10  1  0
  8 11  1  0
 13 14  1  0
 15 16  1  0
 17 18  1  0
 19 20  1  0
 21 22  1  0
M  CHG  1   7  -1
V    7 [O&-]
M  END
>  <PDB_ID>  (187) 
pdb1hxs

>  <RESIDUE_NAME>  (187) 
GLU   PHE

>  <FRAG_NAME>  (187) 
ACET   MBZ

>  <FRAG_ATOM_NUM>  (187) 
fragi: 7 fragj: 15

>  <atom.prop.CHAIN_ID>  (187) 
A A A A A A A Z Z Z Z Z Z Z Z Z Z Z Z Z Z Z

>  <atom.prop.IS_HEAVY_ATOM>  (187) 
1 0 0 0 1 1 1 1 0 0 0 1 1 0 1 0 1 0 1 0 1 0

>  <DIFUSE_FUNC_ATOM>  (187) 
n/a

>  <FINAL_SINGLE_POINT_ENERGY>  (187) 
0

>  <NONCOV_INTER_ENERGY_QM>  (187) 
0

>  <FF_Energy>  (187) 
13.32

>  <QM_Energy>  (187) 
-0.89

>  <source>  (187) 
ACET_MBZ_03

>  <Index>  (187) 
13403

$$$$
ACEH-pdb3gr9-D-GLH-194:MBZ-pdb3gr9-D-PHE-185
     RDKit          3D

 22 21  0  0  0  0  0  0  0  0999 V2000
   -5.3410    1.5812   -0.6993 C   0  0  0  0  0  0  0  0  0  0  0  0
   -4.9693    1.2595    0.1472 H   0  0  0  0  0  0  0  0  0  0  0  0
   -6.2074    1.1797   -0.9145 H   0  0  0  0  0  0  0  0  0  0  0  0
   -5.4708    2.6610   -0.6274 H   0  0  0  0  0  0  0  0  0  0  0  0
   -4.3823    1.2295   -1.7917 C   0  0  0  0  0  0  0  0  0  0  0  0
   -3.2019    1.6036   -1.6590 O   0  0  0  0  0  0  0  0  0  0  0  0
   -4.8163    0.6580   -2.8054 O   0  0  0  0  0  0  0  0  0  0  0  0
    0.0271    2.8956    0.0408 C   0  0  0  0  0  0  0  0  0  0  0  0
   -0.5615    3.2369   -0.6761 H   0  0  0  0  0  0  0  0  0  0  0  0
    0.9594    3.2002   -0.0843 H   0  0  0  0  0  0  0  0  0  0  0  0
   -0.3270    3.3250    0.9781 H   0  0  0  0  0  0  0  0  0  0  0  0
    0.0064    1.3967    0.0007 C   0  0  0  0  0  0  0  0  0  0  0  0
   -1.1958    0.7043   -0.0241 C   0  0  0  0  0  0  0  0  0  0  0  0
   -2.0556    1.1985   -0.0606 H   0  0  0  0  0  0  0  0  0  0  0  0
   -1.2046   -0.6839    0.0000 C   0  0  0  0  0  0  0  0  0  0  0  0
   -2.0837   -1.1755    0.0158 H   0  0  0  0  0  0  0  0  0  0  0  0
   -0.0065   -1.3910    0.0045 C   0  0  0  0  0  0  0  0  0  0  0  0
   -0.0200   -2.3902    0.0110 H   0  0  0  0  0  0  0  0  0  0  0  0
    1.2046   -0.7075   -0.0000 C   0  0  0  0  0  0  0  0  0  0  0  0
    2.0771   -1.2076   -0.0153 H   0  0  0  0  0  0  0  0  0  0  0  0
    1.1959    0.6813    0.0188 C   0  0  0  0  0  0  0  0  0  0  0  0
    2.0683    1.1779    0.0453 H   0  0  0  0  0  0  0  0  0  0  0  0
  1  5  1  0
  5  6  2  0
  5  7  1  0
  1  2  1  0
  1  3  1  0
  1  4  1  0
  8 12  1  0
 12 13  2  0
 13 15  1  0
 15 17  2  0
 17 19  1  0
 19 21  2  0
 21 12  1  0
  8  9  1  0
  8 10  1  0
  8 11  1  0
 13 14  1  0
 15 16  1  0
 17 18  1  0
 19 20  1  0
 21 22  1  0
M  CHG  1   7  -1
V    7 [O&-]
M  END
>  <PDB_ID>  (188) 
pdb3gr9

>  <RESIDUE_NAME>  (188) 
GLU   PHE

>  <FRAG_NAME>  (188) 
ACET   MBZ

>  <FRAG_ATOM_NUM>  (188) 
fragi: 7 fragj: 15

>  <atom.prop.CHAIN_ID>  (188) 
A A A A A A A Z Z Z Z Z Z Z Z Z Z Z Z Z Z Z

>  <atom.prop.IS_HEAVY_ATOM>  (188) 
1 0 0 0 1 1 1 1 0 0 0 1 1 0 1 0 1 0 1 0 1 0

>  <DIFUSE_FUNC_ATOM>  (188) 
n/a

>  <FINAL_SINGLE_POINT_ENERGY>  (188) 
0

>  <NONCOV_INTER_ENERGY_QM>  (188) 
0

>  <FF_Energy>  (188) 
8.13

>  <QM_Energy>  (188) 
-3.76

>  <source>  (188) 
ACET_MBZ_03

>  <Index>  (188) 
13444

$$$$
ACEH-pdb3hm2-C-ASH-28:MBZ-pdb3hm2-C-PHE-96
     RDKit          3D

 22 21  0  0  0  0  0  0  0  0999 V2000
    4.3050    4.4043   -0.8959 C   0  0  0  0  0  0  0  0  0  0  0  0
    3.7541    4.6124   -1.6973 H   0  0  0  0  0  0  0  0  0  0  0  0
    5.2180    4.7852   -0.9967 H   0  0  0  0  0  0  0  0  0  0  0  0
    3.8361    4.8778   -0.0333 H   0  0  0  0  0  0  0  0  0  0  0  0
    4.4285    2.8729   -0.7788 C   0  0  0  0  0  0  0  0  0  0  0  0
    5.1956    2.2774   -1.5749 O   0  0  0  0  0  0  0  0  0  0  0  0
    3.7728    2.2555    0.0863 O   0  0  0  0  0  0  0  0  0  0  0  0
   -0.0147    2.9295    0.0178 C   0  0  0  0  0  0  0  0  0  0  0  0
   -0.6140    3.2338   -0.7013 H   0  0  0  0  0  0  0  0  0  0  0  0
    0.9084    3.2459   -0.1114 H   0  0  0  0  0  0  0  0  0  0  0  0
   -0.3799    3.3534    0.9532 H   0  0  0  0  0  0  0  0  0  0  0  0
    0.0008    1.4163    0.0063 C   0  0  0  0  0  0  0  0  0  0  0  0
   -1.1970    0.6847   -0.0004 C   0  0  0  0  0  0  0  0  0  0  0  0
   -2.0689    1.1714   -0.0070 H   0  0  0  0  0  0  0  0  0  0  0  0
   -1.2071   -0.7210   -0.0000 C   0  0  0  0  0  0  0  0  0  0  0  0
   -2.0804   -1.2065    0.0079 H   0  0  0  0  0  0  0  0  0  0  0  0
   -0.0014   -1.4064   -0.0079 C   0  0  0  0  0  0  0  0  0  0  0  0
    0.0130   -2.4012   -0.0202 H   0  0  0  0  0  0  0  0  0  0  0  0
    1.2071   -0.6888    0.0000 C   0  0  0  0  0  0  0  0  0  0  0  0
    2.0895   -1.1808    0.0061 H   0  0  0  0  0  0  0  0  0  0  0  0
    1.1977    0.7152    0.0021 C   0  0  0  0  0  0  0  0  0  0  0  0
    2.0654    1.2074   -0.0005 H   0  0  0  0  0  0  0  0  0  0  0  0
  1  5  1  0
  5  6  2  0
  5  7  1  0
  1  2  1  0
  1  3  1  0
  1  4  1  0
  8 12  1  0
 12 13  2  0
 13 15  1  0
 15 17  2  0
 17 19  1  0
 19 21  2  0
 21 12  1  0
  8  9  1  0
  8 10  1  0
  8 11  1  0
 13 14  1  0
 15 16  1  0
 17 18  1  0
 19 20  1  0
 21 22  1  0
M  CHG  1   7  -1
V    7 [O&-]
M  END
>  <PDB_ID>  (189) 
pdb3hm2

>  <RESIDUE_NAME>  (189) 
ASP   PHE

>  <FRAG_NAME>  (189) 
ACET   MBZ

>  <FRAG_ATOM_NUM>  (189) 
fragi: 7 fragj: 15

>  <atom.prop.CHAIN_ID>  (189) 
A A A A A A A Z Z Z Z Z Z Z Z Z Z Z Z Z Z Z

>  <atom.prop.IS_HEAVY_ATOM>  (189) 
1 0 0 0 1 1 1 1 0 0 0 1 1 0 1 0 1 0 1 0 1 0

>  <DIFUSE_FUNC_ATOM>  (189) 
n/a

>  <FINAL_SINGLE_POINT_ENERGY>  (189) 
0

>  <NONCOV_INTER_ENERGY_QM>  (189) 
0

>  <FF_Energy>  (189) 
4.57

>  <QM_Energy>  (189) 
-7.5

>  <source>  (189) 
ACET_MBZ_03

>  <Index>  (189) 
14168

$$$$
ACEH-pdb3i16-A-GLH-58:MBZ-pdb3i16-A-PHE-61
     RDKit          3D

 22 21  0  0  0  0  0  0  0  0999 V2000
    4.9179   -0.1213   -3.0078 C   0  0  0  0  0  0  0  0  0  0  0  0
    5.4648   -0.5960   -3.6751 H   0  0  0  0  0  0  0  0  0  0  0  0
    5.4699    0.2826   -2.2986 H   0  0  0  0  0  0  0  0  0  0  0  0
    4.3372    0.6567   -3.5035 H   0  0  0  0  0  0  0  0  0  0  0  0
    4.0444   -1.2053   -2.3111 C   0  0  0  0  0  0  0  0  0  0  0  0
    4.1922   -2.3870   -2.4570 O   0  0  0  0  0  0  0  0  0  0  0  0
    3.1713   -0.6680   -1.5976 O   0  0  0  0  0  0  0  0  0  0  0  0
    0.0049    2.9104    0.0223 C   0  0  0  0  0  0  0  0  0  0  0  0
    0.8401    3.2168   -0.4016 H   0  0  0  0  0  0  0  0  0  0  0  0
   -0.0494    3.1866    0.9678 H   0  0  0  0  0  0  0  0  0  0  0  0
   -0.8353    3.3522   -0.5134 H   0  0  0  0  0  0  0  0  0  0  0  0
    0.0048    1.3945   -0.0115 C   0  0  0  0  0  0  0  0  0  0  0  0
   -1.1955    0.6692    0.0169 C   0  0  0  0  0  0  0  0  0  0  0  0
   -2.0598    1.1619    0.0486 H   0  0  0  0  0  0  0  0  0  0  0  0
   -1.1872   -0.7067    0.0000 C   0  0  0  0  0  0  0  0  0  0  0  0
   -2.0658   -1.2084   -0.0091 H   0  0  0  0  0  0  0  0  0  0  0  0
    0.0005   -1.3752   -0.0025 C   0  0  0  0  0  0  0  0  0  0  0  0
    0.0116   -2.3832   -0.0064 H   0  0  0  0  0  0  0  0  0  0  0  0
    1.1872   -0.6784    0.0000 C   0  0  0  0  0  0  0  0  0  0  0  0
    2.0752   -1.1819    0.0053 H   0  0  0  0  0  0  0  0  0  0  0  0
    1.1902    0.6967   -0.0029 C   0  0  0  0  0  0  0  0  0  0  0  0
    2.0601    1.1928    0.0006 H   0  0  0  0  0  0  0  0  0  0  0  0
  1  5  1  0
  5  6  2  0
  5  7  1  0
  1  2  1  0
  1  3  1  0
  1  4  1  0
  8 12  1  0
 12 13  2  0
 13 15  1  0
 15 17  2  0
 17 19  1  0
 19 21  2  0
 21 12  1  0
  8  9  1  0
  8 10  1  0
  8 11  1  0
 13 14  1  0
 15 16  1  0
 17 18  1  0
 19 20  1  0
 21 22  1  0
M  CHG  1   7  -1
V    7 [O&-]
M  END
>  <PDB_ID>  (190) 
pdb3i16

>  <RESIDUE_NAME>  (190) 
GLU   PHE

>  <FRAG_NAME>  (190) 
ACET   MBZ

>  <FRAG_ATOM_NUM>  (190) 
fragi: 7 fragj: 15

>  <atom.prop.CHAIN_ID>  (190) 
A A A A A A A Z Z Z Z Z Z Z Z Z Z Z Z Z Z Z

>  <atom.prop.IS_HEAVY_ATOM>  (190) 
1 0 0 0 1 1 1 1 0 0 0 1 1 0 1 0 1 0 1 0 1 0

>  <DIFUSE_FUNC_ATOM>  (190) 
n/a

>  <FINAL_SINGLE_POINT_ENERGY>  (190) 
0

>  <NONCOV_INTER_ENERGY_QM>  (190) 
0

>  <FF_Energy>  (190) 
13.22

>  <QM_Energy>  (190) 
-0.99

>  <source>  (190) 
ACET_MBZ_03

>  <Index>  (190) 
14541

$$$$
ACEH-pdb1k9x-C-GLH-370:MBZ-pdb1k9x-C-PHE-420
     RDKit          3D

 22 21  0  0  0  0  0  0  0  0999 V2000
   -5.9120    2.5120   -0.3518 C   0  0  0  0  0  0  0  0  0  0  0  0
   -6.6043    2.0342    0.1597 H   0  0  0  0  0  0  0  0  0  0  0  0
   -5.6094    1.9965   -1.1336 H   0  0  0  0  0  0  0  0  0  0  0  0
   -6.3285    3.4576   -0.6990 H   0  0  0  0  0  0  0  0  0  0  0  0
   -4.7219    2.7003    0.5572 C   0  0  0  0  0  0  0  0  0  0  0  0
   -4.6704    3.7154    1.2783 O   0  0  0  0  0  0  0  0  0  0  0  0
   -3.8399    1.8234    0.5588 O   0  0  0  0  0  0  0  0  0  0  0  0
    0.0091    2.9108   -0.0127 C   0  0  0  0  0  0  0  0  0  0  0  0
   -0.9146    3.2224    0.1489 H   0  0  0  0  0  0  0  0  0  0  0  0
    0.3437    3.2093   -0.8931 H   0  0  0  0  0  0  0  0  0  0  0  0
    0.6461    3.3570    0.7510 H   0  0  0  0  0  0  0  0  0  0  0  0
    0.0047    1.4052    0.0003 C   0  0  0  0  0  0  0  0  0  0  0  0
   -1.2008    0.6959   -0.0012 C   0  0  0  0  0  0  0  0  0  0  0  0
   -2.0634    1.1899   -0.0044 H   0  0  0  0  0  0  0  0  0  0  0  0
   -1.2103   -0.6972   -0.0000 C   0  0  0  0  0  0  0  0  0  0  0  0
   -2.0870   -1.1880    0.0017 H   0  0  0  0  0  0  0  0  0  0  0  0
   -0.0072   -1.3982    0.0004 C   0  0  0  0  0  0  0  0  0  0  0  0
   -0.0090   -2.3945    0.0004 H   0  0  0  0  0  0  0  0  0  0  0  0
    1.2103   -0.7001    0.0000 C   0  0  0  0  0  0  0  0  0  0  0  0
    2.0827   -1.2007    0.0004 H   0  0  0  0  0  0  0  0  0  0  0  0
    1.2033    0.6944    0.0004 C   0  0  0  0  0  0  0  0  0  0  0  0
    2.0716    1.1905    0.0000 H   0  0  0  0  0  0  0  0  0  0  0  0
  1  5  1  0
  5  6  2  0
  5  7  1  0
  1  2  1  0
  1  3  1  0
  1  4  1  0
  8 12  1  0
 12 13  2  0
 13 15  1  0
 15 17  2  0
 17 19  1  0
 19 21  2  0
 21 12  1  0
  8  9  1  0
  8 10  1  0
  8 11  1  0
 13 14  1  0
 15 16  1  0
 17 18  1  0
 19 20  1  0
 21 22  1  0
M  CHG  1   7  -1
V    7 [O&-]
M  END
>  <PDB_ID>  (191) 
pdb1k9x

>  <RESIDUE_NAME>  (191) 
GLU   PHE

>  <FRAG_NAME>  (191) 
ACET   MBZ

>  <FRAG_ATOM_NUM>  (191) 
fragi: 7 fragj: 15

>  <atom.prop.CHAIN_ID>  (191) 
A A A A A A A Z Z Z Z Z Z Z Z Z Z Z Z Z Z Z

>  <atom.prop.IS_HEAVY_ATOM>  (191) 
1 0 0 0 1 1 1 1 0 0 0 1 1 0 1 0 1 0 1 0 1 0

>  <DIFUSE_FUNC_ATOM>  (191) 
n/a

>  <FINAL_SINGLE_POINT_ENERGY>  (191) 
0

>  <NONCOV_INTER_ENERGY_QM>  (191) 
0

>  <FF_Energy>  (191) 
7.28

>  <QM_Energy>  (191) 
-6.96

>  <source>  (191) 
ACET_MBZ_03

>  <Index>  (191) 
14733

$$$$
ACEH-pdb1mt3-A-GLH-85:MBZ-pdb1mt3-A-PHE-64
     RDKit          3D

 22 21  0  0  0  0  0  0  0  0999 V2000
   -4.5959    4.0054    1.5711 C   0  0  0  0  0  0  0  0  0  0  0  0
   -5.1991    4.6075    1.0744 H   0  0  0  0  0  0  0  0  0  0  0  0
   -4.3601    4.3740    2.4559 H   0  0  0  0  0  0  0  0  0  0  0  0
   -5.1052    3.0530    1.7181 H   0  0  0  0  0  0  0  0  0  0  0  0
   -3.3295    3.8708    0.7803 C   0  0  0  0  0  0  0  0  0  0  0  0
   -3.4176    3.6191   -0.4347 O   0  0  0  0  0  0  0  0  0  0  0  0
   -2.2457    4.0214    1.3767 O   0  0  0  0  0  0  0  0  0  0  0  0
   -0.0127    2.8979    0.1108 C   0  0  0  0  0  0  0  0  0  0  0  0
    0.7857    3.1731    0.6306 H   0  0  0  0  0  0  0  0  0  0  0  0
   -0.8458    3.1693    0.5760 H   0  0  0  0  0  0  0  0  0  0  0  0
    0.0181    3.4175   -0.8468 H   0  0  0  0  0  0  0  0  0  0  0  0
   -0.0058    1.4064    0.0024 C   0  0  0  0  0  0  0  0  0  0  0  0
   -1.2035    0.6970   -0.0026 C   0  0  0  0  0  0  0  0  0  0  0  0
   -2.0706    1.1859   -0.0094 H   0  0  0  0  0  0  0  0  0  0  0  0
   -1.2101   -0.6986    0.0000 C   0  0  0  0  0  0  0  0  0  0  0  0
   -2.0782   -1.1959    0.0013 H   0  0  0  0  0  0  0  0  0  0  0  0
    0.0089   -1.3994    0.0027 C   0  0  0  0  0  0  0  0  0  0  0  0
   -0.0010   -2.3959    0.0058 H   0  0  0  0  0  0  0  0  0  0  0  0
    1.2101   -0.7024    0.0000 C   0  0  0  0  0  0  0  0  0  0  0  0
    2.0919   -1.1931    0.0012 H   0  0  0  0  0  0  0  0  0  0  0  0
    1.2005    0.6970   -0.0025 C   0  0  0  0  0  0  0  0  0  0  0  0
    2.0646    1.1956   -0.0089 H   0  0  0  0  0  0  0  0  0  0  0  0
  1  5  1  0
  5  6  2  0
  5  7  1  0
  1  2  1  0
  1  3  1  0
  1  4  1  0
  8 12  1  0
 12 13  2  0
 13 15  1  0
 15 17  2  0
 17 19  1  0
 19 21  2  0
 21 12  1  0
  8  9  1  0
  8 10  1  0
  8 11  1  0
 13 14  1  0
 15 16  1  0
 17 18  1  0
 19 20  1  0
 21 22  1  0
M  CHG  1   7  -1
V    7 [O&-]
M  END
>  <PDB_ID>  (192) 
pdb1mt3

>  <RESIDUE_NAME>  (192) 
GLU   PHE

>  <FRAG_NAME>  (192) 
ACET   MBZ

>  <FRAG_ATOM_NUM>  (192) 
fragi: 7 fragj: 15

>  <atom.prop.CHAIN_ID>  (192) 
A A A A A A A Z Z Z Z Z Z Z Z Z Z Z Z Z Z Z

>  <atom.prop.IS_HEAVY_ATOM>  (192) 
1 0 0 0 1 1 1 1 0 0 0 1 1 0 1 0 1 0 1 0 1 0

>  <DIFUSE_FUNC_ATOM>  (192) 
n/a

>  <FINAL_SINGLE_POINT_ENERGY>  (192) 
0

>  <NONCOV_INTER_ENERGY_QM>  (192) 
0

>  <FF_Energy>  (192) 
21.61

>  <QM_Energy>  (192) 
-5.53

>  <source>  (192) 
ACET_MBZ_03

>  <Index>  (192) 
15712

$$$$
ACEH-pdb5vmt-E-GLH-22:MBZ-pdb5vmt-E-PHE-45
     RDKit          3D

 22 21  0  0  0  0  0  0  0  0999 V2000
   -0.1241   -6.4075   -0.6779 C   0  0  0  0  0  0  0  0  0  0  0  0
   -0.2327   -6.2229   -1.6566 H   0  0  0  0  0  0  0  0  0  0  0  0
   -1.0239   -6.3793   -0.2371 H   0  0  0  0  0  0  0  0  0  0  0  0
    0.2635   -7.4210   -0.5743 H   0  0  0  0  0  0  0  0  0  0  0  0
    0.7036   -5.3081   -0.0956 C   0  0  0  0  0  0  0  0  0  0  0  0
    1.7701   -5.4900    0.4771 O   0  0  0  0  0  0  0  0  0  0  0  0
    0.1814   -4.1855   -0.2469 O   0  0  0  0  0  0  0  0  0  0  0  0
    0.0041    2.9112    0.0117 C   0  0  0  0  0  0  0  0  0  0  0  0
   -0.6881    3.2257   -0.6194 H   0  0  0  0  0  0  0  0  0  0  0  0
    0.9046    3.2155   -0.2576 H   0  0  0  0  0  0  0  0  0  0  0  0
   -0.2162    3.3321    0.9927 H   0  0  0  0  0  0  0  0  0  0  0  0
   -0.0001    1.4023   -0.0131 C   0  0  0  0  0  0  0  0  0  0  0  0
   -1.1926    0.6964    0.0114 C   0  0  0  0  0  0  0  0  0  0  0  0
   -2.0605    1.1826    0.0362 H   0  0  0  0  0  0  0  0  0  0  0  0
   -1.1942   -0.6960    0.0000 C   0  0  0  0  0  0  0  0  0  0  0  0
   -2.0744   -1.1879   -0.0050 H   0  0  0  0  0  0  0  0  0  0  0  0
    0.0009   -1.3896   -0.0021 C   0  0  0  0  0  0  0  0  0  0  0  0
   -0.0064   -2.3916   -0.0059 H   0  0  0  0  0  0  0  0  0  0  0  0
    1.1942   -0.7007   -0.0000 C   0  0  0  0  0  0  0  0  0  0  0  0
    2.0779   -1.1974    0.0002 H   0  0  0  0  0  0  0  0  0  0  0  0
    1.1917    0.6876    0.0038 C   0  0  0  0  0  0  0  0  0  0  0  0
    2.0626    1.1829    0.0183 H   0  0  0  0  0  0  0  0  0  0  0  0
  1  5  1  0
  5  6  2  0
  5  7  1  0
  1  2  1  0
  1  3  1  0
  1  4  1  0
  8 12  1  0
 12 13  2  0
 13 15  1  0
 15 17  2  0
 17 19  1  0
 19 21  2  0
 21 12  1  0
  8  9  1  0
  8 10  1  0
  8 11  1  0
 13 14  1  0
 15 16  1  0
 17 18  1  0
 19 20  1  0
 21 22  1  0
M  CHG  1   7  -1
V    7 [O&-]
M  END
>  <PDB_ID>  (193) 
pdb5vmt

>  <RESIDUE_NAME>  (193) 
GLU   PHE

>  <FRAG_NAME>  (193) 
ACET   MBZ

>  <FRAG_ATOM_NUM>  (193) 
fragi: 7 fragj: 15

>  <atom.prop.CHAIN_ID>  (193) 
A A A A A A A Z Z Z Z Z Z Z Z Z Z Z Z Z Z Z

>  <atom.prop.IS_HEAVY_ATOM>  (193) 
1 0 0 0 1 1 1 1 0 0 0 1 1 0 1 0 1 0 1 0 1 0

>  <DIFUSE_FUNC_ATOM>  (193) 
n/a

>  <FINAL_SINGLE_POINT_ENERGY>  (193) 
0

>  <NONCOV_INTER_ENERGY_QM>  (193) 
0

>  <FF_Energy>  (193) 
24.51

>  <QM_Energy>  (193) 
-4.81

>  <source>  (193) 
ACET_MBZ_03

>  <Index>  (193) 
15946

$$$$
ACEH-pdb3n1x-A-GLH-103:MBZ-pdb3n1x-A-PHE-176
     RDKit          3D

 22 21  0  0  0  0  0  0  0  0999 V2000
    2.5669    0.5825    2.8305 C   0  0  0  0  0  0  0  0  0  0  0  0
    3.2572    0.5350    3.5200 H   0  0  0  0  0  0  0  0  0  0  0  0
    2.7668    0.0371    2.0449 H   0  0  0  0  0  0  0  0  0  0  0  0
    1.6579    0.1740    3.2718 H   0  0  0  0  0  0  0  0  0  0  0  0
    2.4036    2.0166    2.4003 C   0  0  0  0  0  0  0  0  0  0  0  0
    3.1333    2.4784    1.4855 O   0  0  0  0  0  0  0  0  0  0  0  0
    1.5062    2.7185    2.9299 O   0  0  0  0  0  0  0  0  0  0  0  0
   -0.0486    2.8552   -0.0263 C   0  0  0  0  0  0  0  0  0  0  0  0
    0.8601    3.2236    0.0735 H   0  0  0  0  0  0  0  0  0  0  0  0
   -0.6633    3.2029    0.6610 H   0  0  0  0  0  0  0  0  0  0  0  0
   -0.4238    3.2088   -0.9867 H   0  0  0  0  0  0  0  0  0  0  0  0
   -0.0045    1.4098    0.0368 C   0  0  0  0  0  0  0  0  0  0  0  0
   -1.2231    0.6759   -0.0216 C   0  0  0  0  0  0  0  0  0  0  0  0
   -2.0823    1.1819   -0.0818 H   0  0  0  0  0  0  0  0  0  0  0  0
   -1.2536   -0.7228    0.0000 C   0  0  0  0  0  0  0  0  0  0  0  0
   -2.0993   -1.2225    0.0038 H   0  0  0  0  0  0  0  0  0  0  0  0
    0.0056   -1.4282    0.0194 C   0  0  0  0  0  0  0  0  0  0  0  0
    0.0301   -2.3998    0.0441 H   0  0  0  0  0  0  0  0  0  0  0  0
    1.2536   -0.6632    0.0000 C   0  0  0  0  0  0  0  0  0  0  0  0
    2.1197   -1.1663    0.0133 H   0  0  0  0  0  0  0  0  0  0  0  0
    1.2220    0.7285   -0.0345 C   0  0  0  0  0  0  0  0  0  0  0  0
    2.0667    1.2457   -0.1107 H   0  0  0  0  0  0  0  0  0  0  0  0
  1  5  1  0
  5  6  2  0
  5  7  1  0
  1  2  1  0
  1  3  1  0
  1  4  1  0
  8 12  1  0
 12 13  2  0
 13 15  1  0
 15 17  2  0
 17 19  1  0
 19 21  2  0
 21 12  1  0
  8  9  1  0
  8 10  1  0
  8 11  1  0
 13 14  1  0
 15 16  1  0
 17 18  1  0
 19 20  1  0
 21 22  1  0
M  CHG  1   7  -1
V    7 [O&-]
M  END
>  <PDB_ID>  (194) 
pdb3n1x

>  <RESIDUE_NAME>  (194) 
GLU   PHE

>  <FRAG_NAME>  (194) 
ACET   MBZ

>  <FRAG_ATOM_NUM>  (194) 
fragi: 7 fragj: 15

>  <atom.prop.CHAIN_ID>  (194) 
A A A A A A A Z Z Z Z Z Z Z Z Z Z Z Z Z Z Z

>  <atom.prop.IS_HEAVY_ATOM>  (194) 
1 0 0 0 1 1 1 1 0 0 0 1 1 0 1 0 1 0 1 0 1 0

>  <DIFUSE_FUNC_ATOM>  (194) 
n/a

>  <FINAL_SINGLE_POINT_ENERGY>  (194) 
0

>  <NONCOV_INTER_ENERGY_QM>  (194) 
0

>  <FF_Energy>  (194) 
3.86

>  <QM_Energy>  (194) 
-6.7

>  <source>  (194) 
ACET_MBZ_03

>  <Index>  (194) 
16063

$$$$
ACEH-pdb1oyx-B-GLH-245:MBZ-pdb1oyx-B-PHE-296
     RDKit          3D

 22 21  0  0  0  0  0  0  0  0999 V2000
   -5.1394    2.6794    1.1789 C   0  0  0  0  0  0  0  0  0  0  0  0
   -4.8807    2.0438    1.8962 H   0  0  0  0  0  0  0  0  0  0  0  0
   -6.0074    2.4168    0.7755 H   0  0  0  0  0  0  0  0  0  0  0  0
   -5.2298    3.6789    1.6043 H   0  0  0  0  0  0  0  0  0  0  0  0
   -4.0953    2.5631    0.0887 C   0  0  0  0  0  0  0  0  0  0  0  0
   -4.0073    1.4576   -0.5092 O   0  0  0  0  0  0  0  0  0  0  0  0
   -3.3454    3.5427   -0.2019 O   0  0  0  0  0  0  0  0  0  0  0  0
    0.0067    2.8815    0.0112 C   0  0  0  0  0  0  0  0  0  0  0  0
    0.7615    3.1924    0.5782 H   0  0  0  0  0  0  0  0  0  0  0  0
   -0.8600    3.1931    0.3848 H   0  0  0  0  0  0  0  0  0  0  0  0
    0.1231    3.3482   -0.9669 H   0  0  0  0  0  0  0  0  0  0  0  0
    0.0074    1.3919    0.0006 C   0  0  0  0  0  0  0  0  0  0  0  0
   -1.1758    0.6915    0.0025 C   0  0  0  0  0  0  0  0  0  0  0  0
   -2.0486    1.1770    0.0047 H   0  0  0  0  0  0  0  0  0  0  0  0
   -1.1814   -0.6985    0.0000 C   0  0  0  0  0  0  0  0  0  0  0  0
   -2.0690   -1.1829    0.0094 H   0  0  0  0  0  0  0  0  0  0  0  0
   -0.0043   -1.3870   -0.0135 C   0  0  0  0  0  0  0  0  0  0  0  0
   -0.0023   -2.3888   -0.0334 H   0  0  0  0  0  0  0  0  0  0  0  0
    1.1814   -0.6919    0.0000 C   0  0  0  0  0  0  0  0  0  0  0  0
    2.0699   -1.1844    0.0043 H   0  0  0  0  0  0  0  0  0  0  0  0
    1.1727    0.6941    0.0105 C   0  0  0  0  0  0  0  0  0  0  0  0
    2.0560    1.1831    0.0245 H   0  0  0  0  0  0  0  0  0  0  0  0
  1  5  1  0
  5  6  2  0
  5  7  1  0
  1  2  1  0
  1  3  1  0
  1  4  1  0
  8 12  1  0
 12 13  2  0
 13 15  1  0
 15 17  2  0
 17 19  1  0
 19 21  2  0
 21 12  1  0
  8  9  1  0
  8 10  1  0
  8 11  1  0
 13 14  1  0
 15 16  1  0
 17 18  1  0
 19 20  1  0
 21 22  1  0
M  CHG  1   7  -1
V    7 [O&-]
M  END
>  <PDB_ID>  (195) 
pdb1oyx

>  <RESIDUE_NAME>  (195) 
GLU   PHE

>  <FRAG_NAME>  (195) 
ACET   MBZ

>  <FRAG_ATOM_NUM>  (195) 
fragi: 7 fragj: 15

>  <atom.prop.CHAIN_ID>  (195) 
A A A A A A A Z Z Z Z Z Z Z Z Z Z Z Z Z Z Z

>  <atom.prop.IS_HEAVY_ATOM>  (195) 
1 0 0 0 1 1 1 1 0 0 0 1 1 0 1 0 1 0 1 0 1 0

>  <DIFUSE_FUNC_ATOM>  (195) 
n/a

>  <FINAL_SINGLE_POINT_ENERGY>  (195) 
0

>  <NONCOV_INTER_ENERGY_QM>  (195) 
0

>  <FF_Energy>  (195) 
4.12

>  <QM_Energy>  (195) 
-8.27

>  <source>  (195) 
ACET_MBZ_03

>  <Index>  (195) 
16689

$$$$
ACEH-pdb4r1d-A-GLH-325:MBZ-pdb4r1d-A-PHE-414
     RDKit          3D

 22 21  0  0  0  0  0  0  0  0999 V2000
    5.2734   -0.9467   -1.6258 C   0  0  0  0  0  0  0  0  0  0  0  0
    5.7919   -1.4872   -2.2646 H   0  0  0  0  0  0  0  0  0  0  0  0
    5.6779   -0.9438   -0.7285 H   0  0  0  0  0  0  0  0  0  0  0  0
    5.2509    0.0798   -1.9917 H   0  0  0  0  0  0  0  0  0  0  0  0
    3.8959   -1.5709   -1.5073 C   0  0  0  0  0  0  0  0  0  0  0  0
    3.8036   -2.6847   -0.9450 O   0  0  0  0  0  0  0  0  0  0  0  0
    2.9181   -0.9478   -1.9715 O   0  0  0  0  0  0  0  0  0  0  0  0
    0.0012    2.9128   -0.0170 C   0  0  0  0  0  0  0  0  0  0  0  0
   -0.5395    3.2059   -0.7917 H   0  0  0  0  0  0  0  0  0  0  0  0
    0.9397    3.2145   -0.1003 H   0  0  0  0  0  0  0  0  0  0  0  0
   -0.4196    3.3719    0.8776 H   0  0  0  0  0  0  0  0  0  0  0  0
    0.0011    1.4014    0.0031 C   0  0  0  0  0  0  0  0  0  0  0  0
   -1.1907    0.6951    0.0043 C   0  0  0  0  0  0  0  0  0  0  0  0
   -2.0603    1.1844    0.0073 H   0  0  0  0  0  0  0  0  0  0  0  0
   -1.2005   -0.6988   -0.0000 C   0  0  0  0  0  0  0  0  0  0  0  0
   -2.0810   -1.1863   -0.0013 H   0  0  0  0  0  0  0  0  0  0  0  0
   -0.0058   -1.3955   -0.0009 C   0  0  0  0  0  0  0  0  0  0  0  0
   -0.0063   -2.3932   -0.0031 H   0  0  0  0  0  0  0  0  0  0  0  0
    1.2005   -0.6981    0.0000 C   0  0  0  0  0  0  0  0  0  0  0  0
    2.0794   -1.1956    0.0068 H   0  0  0  0  0  0  0  0  0  0  0  0
    1.1953    0.6960   -0.0065 C   0  0  0  0  0  0  0  0  0  0  0  0
    2.0643    1.1897   -0.0190 H   0  0  0  0  0  0  0  0  0  0  0  0
  1  5  1  0
  5  6  2  0
  5  7  1  0
  1  2  1  0
  1  3  1  0
  1  4  1  0
  8 12  1  0
 12 13  2  0
 13 15  1  0
 15 17  2  0
 17 19  1  0
 19 21  2  0
 21 12  1  0
  8  9  1  0
  8 10  1  0
  8 11  1  0
 13 14  1  0
 15 16  1  0
 17 18  1  0
 19 20  1  0
 21 22  1  0
M  CHG  1   7  -1
V    7 [O&-]
M  END
>  <PDB_ID>  (196) 
pdb4r1d

>  <RESIDUE_NAME>  (196) 
GLU   PHE

>  <FRAG_NAME>  (196) 
ACET   MBZ

>  <FRAG_ATOM_NUM>  (196) 
fragi: 7 fragj: 15

>  <atom.prop.CHAIN_ID>  (196) 
A A A A A A A Z Z Z Z Z Z Z Z Z Z Z Z Z Z Z

>  <atom.prop.IS_HEAVY_ATOM>  (196) 
1 0 0 0 1 1 1 1 0 0 0 1 1 0 1 0 1 0 1 0 1 0

>  <DIFUSE_FUNC_ATOM>  (196) 
n/a

>  <FINAL_SINGLE_POINT_ENERGY>  (196) 
0

>  <NONCOV_INTER_ENERGY_QM>  (196) 
0

>  <FF_Energy>  (196) 
8.33

>  <QM_Energy>  (196) 
-2.38

>  <source>  (196) 
ACET_MBZ_03

>  <Index>  (196) 
17200

$$$$
ACEH-pdb3p7x-C-ASH-106:MBZ-pdb3p7x-C-PHE-112
     RDKit          3D

 22 21  0  0  0  0  0  0  0  0999 V2000
    3.4212    5.1693   -1.8929 C   0  0  0  0  0  0  0  0  0  0  0  0
    3.5281    4.4177   -2.5438 H   0  0  0  0  0  0  0  0  0  0  0  0
    4.2687    5.2824   -1.3742 H   0  0  0  0  0  0  0  0  0  0  0  0
    3.2760    6.0796   -2.4746 H   0  0  0  0  0  0  0  0  0  0  0  0
    2.3002    4.8605   -0.9566 C   0  0  0  0  0  0  0  0  0  0  0  0
    2.6219    4.1471    0.0236 O   0  0  0  0  0  0  0  0  0  0  0  0
    1.1279    5.2485   -1.2247 O   0  0  0  0  0  0  0  0  0  0  0  0
   -0.0047    2.9097    0.0630 C   0  0  0  0  0  0  0  0  0  0  0  0
   -0.7691    3.2417   -0.4539 H   0  0  0  0  0  0  0  0  0  0  0  0
    0.8547    3.2354   -0.2802 H   0  0  0  0  0  0  0  0  0  0  0  0
   -0.1127    3.2677    1.0869 H   0  0  0  0  0  0  0  0  0  0  0  0
   -0.0034    1.4119   -0.0069 C   0  0  0  0  0  0  0  0  0  0  0  0
   -1.2251    0.7027    0.0128 C   0  0  0  0  0  0  0  0  0  0  0  0
   -2.0790    1.1927    0.0341 H   0  0  0  0  0  0  0  0  0  0  0  0
   -1.2257   -0.7032    0.0000 C   0  0  0  0  0  0  0  0  0  0  0  0
   -2.0772   -1.2119    0.0074 H   0  0  0  0  0  0  0  0  0  0  0  0
    0.0317   -1.4171   -0.0226 C   0  0  0  0  0  0  0  0  0  0  0  0
    0.0205   -2.3988   -0.0545 H   0  0  0  0  0  0  0  0  0  0  0  0
    1.2257   -0.6897    0.0000 C   0  0  0  0  0  0  0  0  0  0  0  0
    2.1141   -1.1771    0.0056 H   0  0  0  0  0  0  0  0  0  0  0  0
    1.1967    0.6954    0.0167 C   0  0  0  0  0  0  0  0  0  0  0  0
    2.0652    1.2070    0.0456 H   0  0  0  0  0  0  0  0  0  0  0  0
  1  5  1  0
  5  6  2  0
  5  7  1  0
  1  2  1  0
  1  3  1  0
  1  4  1  0
  8 12  1  0
 12 13  2  0
 13 15  1  0
 15 17  2  0
 17 19  1  0
 19 21  2  0
 21 12  1  0
  8  9  1  0
  8 10  1  0
  8 11  1  0
 13 14  1  0
 15 16  1  0
 17 18  1  0
 19 20  1  0
 21 22  1  0
M  CHG  1   7  -1
V    7 [O&-]
M  END
>  <PDB_ID>  (197) 
pdb3p7x

>  <RESIDUE_NAME>  (197) 
ASP   PHE

>  <FRAG_NAME>  (197) 
ACET   MBZ

>  <FRAG_ATOM_NUM>  (197) 
fragi: 7 fragj: 15

>  <atom.prop.CHAIN_ID>  (197) 
A A A A A A A Z Z Z Z Z Z Z Z Z Z Z Z Z Z Z

>  <atom.prop.IS_HEAVY_ATOM>  (197) 
1 0 0 0 1 1 1 1 0 0 0 1 1 0 1 0 1 0 1 0 1 0

>  <DIFUSE_FUNC_ATOM>  (197) 
n/a

>  <FINAL_SINGLE_POINT_ENERGY>  (197) 
0

>  <NONCOV_INTER_ENERGY_QM>  (197) 
0

>  <FF_Energy>  (197) 
11.25

>  <QM_Energy>  (197) 
-4.3

>  <source>  (197) 
ACET_MBZ_03

>  <Index>  (197) 
17313

$$$$
ACEH-pdb3rjl-H-GLH-287:MBZ-pdb3rjl-H-PHE-485
     RDKit          3D

 22 21  0  0  0  0  0  0  0  0999 V2000
    5.2534    0.4067    2.3211 C   0  0  0  0  0  0  0  0  0  0  0  0
    5.0107    0.1606    3.2582 H   0  0  0  0  0  0  0  0  0  0  0  0
    5.5935    1.3463    2.2985 H   0  0  0  0  0  0  0  0  0  0  0  0
    6.0655   -0.2485    2.0061 H   0  0  0  0  0  0  0  0  0  0  0  0
    4.0028    0.3549    1.4962 C   0  0  0  0  0  0  0  0  0  0  0  0
    3.8570   -0.3651    0.5205 O   0  0  0  0  0  0  0  0  0  0  0  0
    3.1280    1.1429    1.9142 O   0  0  0  0  0  0  0  0  0  0  0  0
   -0.0057    2.9038    0.0018 C   0  0  0  0  0  0  0  0  0  0  0  0
   -0.7413    3.2120   -0.5823 H   0  0  0  0  0  0  0  0  0  0  0  0
    0.8719    3.2140   -0.3306 H   0  0  0  0  0  0  0  0  0  0  0  0
   -0.1595    3.3448    0.9867 H   0  0  0  0  0  0  0  0  0  0  0  0
   -0.0040    1.4037    0.0007 C   0  0  0  0  0  0  0  0  0  0  0  0
   -1.2045    0.6931    0.0044 C   0  0  0  0  0  0  0  0  0  0  0  0
   -2.0692    1.1841    0.0093 H   0  0  0  0  0  0  0  0  0  0  0  0
   -1.2077   -0.6963   -0.0000 C   0  0  0  0  0  0  0  0  0  0  0  0
   -2.0772   -1.1964   -0.0025 H   0  0  0  0  0  0  0  0  0  0  0  0
    0.0083   -1.3988    0.0011 C   0  0  0  0  0  0  0  0  0  0  0  0
   -0.0003   -2.3935    0.0025 H   0  0  0  0  0  0  0  0  0  0  0  0
    1.2077   -0.6979    0.0000 C   0  0  0  0  0  0  0  0  0  0  0  0
    2.0902   -1.1918    0.0047 H   0  0  0  0  0  0  0  0  0  0  0  0
    1.2003    0.6962   -0.0062 C   0  0  0  0  0  0  0  0  0  0  0  0
    2.0643    1.1948   -0.0162 H   0  0  0  0  0  0  0  0  0  0  0  0
  1  5  1  0
  5  6  2  0
  5  7  1  0
  1  2  1  0
  1  3  1  0
  1  4  1  0
  8 12  1  0
 12 13  2  0
 13 15  1  0
 15 17  2  0
 17 19  1  0
 19 21  2  0
 21 12  1  0
  8  9  1  0
  8 10  1  0
  8 11  1  0
 13 14  1  0
 15 16  1  0
 17 18  1  0
 19 20  1  0
 21 22  1  0
M  CHG  1   7  -1
V    7 [O&-]
M  END
>  <PDB_ID>  (198) 
pdb3rjl

>  <RESIDUE_NAME>  (198) 
GLU   PHE

>  <FRAG_NAME>  (198) 
ACET   MBZ

>  <FRAG_ATOM_NUM>  (198) 
fragi: 7 fragj: 15

>  <atom.prop.CHAIN_ID>  (198) 
A A A A A A A Z Z Z Z Z Z Z Z Z Z Z Z Z Z Z

>  <atom.prop.IS_HEAVY_ATOM>  (198) 
1 0 0 0 1 1 1 1 0 0 0 1 1 0 1 0 1 0 1 0 1 0

>  <DIFUSE_FUNC_ATOM>  (198) 
n/a

>  <FINAL_SINGLE_POINT_ENERGY>  (198) 
0

>  <NONCOV_INTER_ENERGY_QM>  (198) 
0

>  <FF_Energy>  (198) 
13.77

>  <QM_Energy>  (198) 
-2.56

>  <source>  (198) 
ACET_MBZ_03

>  <Index>  (198) 
18218

$$$$
ACEH-pdb3si2-A-GLH-276:MBZ-pdb3si2-A-PHE-295
     RDKit          3D

 22 21  0  0  0  0  0  0  0  0999 V2000
    4.4855    2.9098    1.1268 C   0  0  0  0  0  0  0  0  0  0  0  0
    4.0782    2.5154    1.9282 H   0  0  0  0  0  0  0  0  0  0  0  0
    5.1368    3.6126    1.3436 H   0  0  0  0  0  0  0  0  0  0  0  0
    5.0398    2.1108    0.6343 H   0  0  0  0  0  0  0  0  0  0  0  0
    3.4172    3.4831    0.2675 C   0  0  0  0  0  0  0  0  0  0  0  0
    3.1249    2.8915   -0.7738 O   0  0  0  0  0  0  0  0  0  0  0  0
    2.9055    4.5418    0.6353 O   0  0  0  0  0  0  0  0  0  0  0  0
   -0.0180    2.8509   -0.1063 C   0  0  0  0  0  0  0  0  0  0  0  0
    0.8649    3.1942    0.1481 H   0  0  0  0  0  0  0  0  0  0  0  0
   -0.7364    3.1955    0.4664 H   0  0  0  0  0  0  0  0  0  0  0  0
   -0.2218    3.1590   -1.1318 H   0  0  0  0  0  0  0  0  0  0  0  0
    0.0016    1.3805   -0.0002 C   0  0  0  0  0  0  0  0  0  0  0  0
   -1.1830    0.6973   -0.0027 C   0  0  0  0  0  0  0  0  0  0  0  0
   -2.0519    1.1936   -0.0075 H   0  0  0  0  0  0  0  0  0  0  0  0
   -1.2031   -0.6861   -0.0000 C   0  0  0  0  0  0  0  0  0  0  0  0
   -2.0857   -1.1685   -0.0199 H   0  0  0  0  0  0  0  0  0  0  0  0
   -0.0231   -1.3643    0.0313 C   0  0  0  0  0  0  0  0  0  0  0  0
   -0.0316   -2.3830    0.0787 H   0  0  0  0  0  0  0  0  0  0  0  0
    1.2031   -0.7142    0.0000 C   0  0  0  0  0  0  0  0  0  0  0  0
    2.0638   -1.2183   -0.0008 H   0  0  0  0  0  0  0  0  0  0  0  0
    1.2045    0.6867   -0.0285 C   0  0  0  0  0  0  0  0  0  0  0  0
    2.0657    1.1767   -0.0690 H   0  0  0  0  0  0  0  0  0  0  0  0
  1  5  1  0
  5  6  2  0
  5  7  1  0
  1  2  1  0
  1  3  1  0
  1  4  1  0
  8 12  1  0
 12 13  2  0
 13 15  1  0
 15 17  2  0
 17 19  1  0
 19 21  2  0
 21 12  1  0
  8  9  1  0
  8 10  1  0
  8 11  1  0
 13 14  1  0
 15 16  1  0
 17 18  1  0
 19 20  1  0
 21 22  1  0
M  CHG  1   7  -1
V    7 [O&-]
M  END
>  <PDB_ID>  (199) 
pdb3si2

>  <RESIDUE_NAME>  (199) 
GLU   PHE

>  <FRAG_NAME>  (199) 
ACET   MBZ

>  <FRAG_ATOM_NUM>  (199) 
fragi: 7 fragj: 15

>  <atom.prop.CHAIN_ID>  (199) 
A A A A A A A Z Z Z Z Z Z Z Z Z Z Z Z Z Z Z

>  <atom.prop.IS_HEAVY_ATOM>  (199) 
1 0 0 0 1 1 1 1 0 0 0 1 1 0 1 0 1 0 1 0 1 0

>  <DIFUSE_FUNC_ATOM>  (199) 
n/a

>  <FINAL_SINGLE_POINT_ENERGY>  (199) 
0

>  <NONCOV_INTER_ENERGY_QM>  (199) 
0

>  <FF_Energy>  (199) 
2.24

>  <QM_Energy>  (199) 
-8.1

>  <source>  (199) 
ACET_MBZ_03

>  <Index>  (199) 
18415

$$$$
ACEH-pdb1z54-A-GLH-48:MBZ-pdb1z54-A-PHE-53
     RDKit          3D

 22 21  0  0  0  0  0  0  0  0999 V2000
   -4.0153    0.7870   -2.0955 C   0  0  0  0  0  0  0  0  0  0  0  0
   -3.1696    1.2743   -2.1725 H   0  0  0  0  0  0  0  0  0  0  0  0
   -4.7470    1.2135   -2.5881 H   0  0  0  0  0  0  0  0  0  0  0  0
   -3.8702   -0.2170   -2.4944 H   0  0  0  0  0  0  0  0  0  0  0  0
   -4.4042    0.7728   -0.6213 C   0  0  0  0  0  0  0  0  0  0  0  0
   -3.9880    1.6967    0.1162 O   0  0  0  0  0  0  0  0  0  0  0  0
   -5.1308   -0.1584   -0.2037 O   0  0  0  0  0  0  0  0  0  0  0  0
    0.0044    2.9060   -0.0412 C   0  0  0  0  0  0  0  0  0  0  0  0
    0.8557    3.2208    0.3484 H   0  0  0  0  0  0  0  0  0  0  0  0
   -0.7725    3.2296    0.4762 H   0  0  0  0  0  0  0  0  0  0  0  0
   -0.0726    3.3176   -1.0476 H   0  0  0  0  0  0  0  0  0  0  0  0
   -0.0006    1.4043   -0.0004 C   0  0  0  0  0  0  0  0  0  0  0  0
   -1.1955    0.6962   -0.0010 C   0  0  0  0  0  0  0  0  0  0  0  0
   -2.0641    1.1833   -0.0035 H   0  0  0  0  0  0  0  0  0  0  0  0
   -1.2044   -0.7026   -0.0000 C   0  0  0  0  0  0  0  0  0  0  0  0
   -2.0813   -1.1907    0.0021 H   0  0  0  0  0  0  0  0  0  0  0  0
   -0.0021   -1.4003    0.0005 C   0  0  0  0  0  0  0  0  0  0  0  0
   -0.0014   -2.3964    0.0003 H   0  0  0  0  0  0  0  0  0  0  0  0
    1.2044   -0.6957   -0.0000 C   0  0  0  0  0  0  0  0  0  0  0  0
    2.0842   -1.1929    0.0007 H   0  0  0  0  0  0  0  0  0  0  0  0
    1.1982    0.6982    0.0009 C   0  0  0  0  0  0  0  0  0  0  0  0
    2.0653    1.1949    0.0022 H   0  0  0  0  0  0  0  0  0  0  0  0
  1  5  1  0
  5  6  2  0
  5  7  1  0
  1  2  1  0
  1  3  1  0
  1  4  1  0
  8 12  1  0
 12 13  2  0
 13 15  1  0
 15 17  2  0
 17 19  1  0
 19 21  2  0
 21 12  1  0
  8  9  1  0
  8 10  1  0
  8 11  1  0
 13 14  1  0
 15 16  1  0
 17 18  1  0
 19 20  1  0
 21 22  1  0
M  CHG  1   7  -1
V    7 [O&-]
M  END
>  <PDB_ID>  (200) 
pdb1z54

>  <RESIDUE_NAME>  (200) 
GLU   PHE

>  <FRAG_NAME>  (200) 
ACET   MBZ

>  <FRAG_ATOM_NUM>  (200) 
fragi: 7 fragj: 15

>  <atom.prop.CHAIN_ID>  (200) 
A A A A A A A Z Z Z Z Z Z Z Z Z Z Z Z Z Z Z

>  <atom.prop.IS_HEAVY_ATOM>  (200) 
1 0 0 0 1 1 1 1 0 0 0 1 1 0 1 0 1 0 1 0 1 0

>  <DIFUSE_FUNC_ATOM>  (200) 
n/a

>  <FINAL_SINGLE_POINT_ENERGY>  (200) 
0

>  <NONCOV_INTER_ENERGY_QM>  (200) 
0

>  <FF_Energy>  (200) 
6.56

>  <QM_Energy>  (200) 
-6.49

>  <source>  (200) 
ACET_MBZ_03

>  <Index>  (200) 
18971

$$$$
