@<TRIPOS>MOLECULE
ACE
    9     8     1     0     0
SMALL
No Charge or Current Charge


@<TRIPOS>ATOM
      1 C            1.3630    -0.3410    -0.0000 CT         1 ACE       -0.524795
      2 H            1.4690    -1.4010    -0.2390 HC         1 ACE        0.143459
      3 H1           1.7900    -0.1580     0.9890 HC         1 ACE        0.143459
      4 H2           1.9310     0.2510    -0.7190 HC         1 ACE        0.143459
      5 C1          -0.0780     0.1490    -0.0060 C          1 ACE        0.833977
      6 N           -1.0300    -0.8320    -0.0090 N          1 ACE       -0.956615
      7 H3          -0.8030    -1.8100     0.0260 H          1 ACE        0.416079
      8 H4          -1.9980    -0.5540     0.0360 H          1 ACE        0.411920
      9 O           -0.3610     1.3310     0.0020 O          1 ACE       -0.610944
@<TRIPOS>BOND
     1     1     2 1   
     2     1     3 1   
     3     1     4 1   
     4     1     5 1   
     5     5     6 1   
     6     5     9 2   
     7     6     7 1   
     8     6     8 1   
@<TRIPOS>SUBSTRUCTURE
     1 ACE         1 TEMP              0 ****  ****    0 ROOT
