@<TRIPOS>MOLECULE
ACE
    7     6     1     0     0
SMALL
No Charge or Current Charge


@<TRIPOS>ATOM
      1 C           -1.3550     0.0510    -0.0010 CT         1 ACE       -0.313082
      2 H           -1.7450    -0.5330    -0.8440 HC         1 ACE        0.031406
      3 H1          -1.7300     1.0780    -0.0590 HC         1 ACE        0.031406
      4 H2          -1.7340    -0.4230     0.9140 HC         1 ACE        0.031406
      5 C1           0.2210    -0.0020    -0.0020 C          1 ACE        0.921193
      6 O            0.6990    -1.1590     0.0000 O2         1 ACE       -0.851165
      7 O1           0.8020     1.1070     0.0000 O2         1 ACE       -0.851165
@<TRIPOS>BOND
     1     1     2 1   
     2     1     3 1   
     3     1     4 1   
     4     1     5 1   
     5     5     6 1   
     6     5     7 1   
@<TRIPOS>SUBSTRUCTURE
     1 ACE         1 TEMP              0 ****  ****    0 ROOT
