@<TRIPOS>MOLECULE
ETA
   11    10     1     0     0
SMALL
No Charge or Current Charge


@<TRIPOS>ATOM
      1 C            1.2980    -0.2700     0.0000 CT         1 ETA       -0.344729
      2 H            1.3520    -0.9010    -0.8910 HC         1 ETA        0.127628
      3 H1           2.1800     0.3720    -0.0010 HC         1 ETA        0.127628
      4 H2           1.3530    -0.8990     0.8920 HC         1 ETA        0.127628
      5 C1           0.0610     0.6090    -0.0000 CT         1 ETA        0.186854
      6 H3          -0.0060     1.2390     0.8870 HP         1 ETA        0.082128
      7 H4          -0.0060     1.2390    -0.8870 HP         1 ETA        0.082128
      8 N           -1.2110    -0.2450     0.0000 N3         1 ETA       -0.463383
      9 H5          -2.0570     0.3320     0.0020 H          1 ETA        0.354741
     10 H6          -1.2480    -0.8500    -0.8260 H          1 ETA        0.359788
     11 H7          -1.2460    -0.8530     0.8250 H          1 ETA        0.359586
@<TRIPOS>BOND
     1     1     2 1   
     2     1     3 1   
     3     1     4 1   
     4     1     5 1   
     5     5     6 1   
     6     5     7 1   
     7     5     8 1   
     8     8     9 1   
     9     8    10 1   
    10     8    11 1   
@<TRIPOS>SUBSTRUCTURE
     1 ETA         1 TEMP              0 ****  ****    0 ROOT
