@<TRIPOS>MOLECULE
ETO
    9     8     1     0     0
SMALL
No Charge or Current Charge


@<TRIPOS>ATOM
      1 C            1.2140    -0.2400     0.0210 CT         1 ETO       -0.275897
      2 H            1.2810    -0.9520    -0.8090 HC         1 ETO        0.064689
      3 H1           1.2650    -0.8040     0.9560 HC         1 ETO        0.064689
      4 H2           2.0860     0.4190    -0.0360 HC         1 ETO        0.064689
      5 C1          -0.0830     0.5580    -0.0470 CT         1 ETO        0.378033
      6 H3          -0.1270     1.2790     0.7730 H1         1 ETO       -0.016145
      7 H4          -0.1290     1.1280    -0.9850 H1         1 ETO       -0.016145
      8 O           -1.2400    -0.2600     0.1080 OH         1 ETO       -0.671000
      9 H5          -1.2490    -0.8940    -0.6160 HO         1 ETO        0.407085
@<TRIPOS>BOND
     1     1     2 1   
     2     1     3 1   
     3     1     4 1   
     4     1     5 1   
     5     5     6 1   
     6     5     7 1   
     7     5     8 1   
     8     8     9 1   
@<TRIPOS>SUBSTRUCTURE
     1 ETO         1 TEMP              0 ****  ****    0 ROOT
