@<TRIPOS>MOLECULE
ETS
    9     8     1     0     0
SMALL
No Charge or Current Charge


@<TRIPOS>ATOM
      1 C           -1.6430    -0.3350    -0.0000 CT         1 ETS       -0.095752
      2 H           -2.6020     0.1890     0.0020 HC         1 ETS        0.050102
      3 H1          -1.6070    -0.9750     0.8850 HC         1 ETS        0.050102
      4 H2          -1.6090    -0.9750    -0.8860 HC         1 ETS        0.050102
      5 C1          -0.4980     0.6730    -0.0000 CT         1 ETS        0.046927
      6 H3          -0.5450     1.3070    -0.8860 H1         1 ETS        0.043267
      7 H4          -0.5440     1.3050     0.8870 H1         1 ETS        0.043267
      8 S            1.1150    -0.2330     0.0000 SH         1 ETS       -0.393041
      9 H5           1.9150     0.8530    -0.0010 HS         1 ETS        0.205022
@<TRIPOS>BOND
     1     1     2 1   
     2     1     3 1   
     3     1     4 1   
     4     1     5 1   
     5     5     6 1   
     6     5     7 1   
     7     5     8 1   
     8     8     9 1   
@<TRIPOS>SUBSTRUCTURE
     1 ETS         1 TEMP              0 ****  ****    0 ROOT
