@<TRIPOS>MOLECULE
HOH
    3     2     1     0     0
SMALL
No Charge or Current Charge


@<TRIPOS>ATOM
      1 O            0.0000     0.1190    -0.0000 OW         1 HOH       -0.834000
      2 H            0.7570    -0.4750     0.0000 HW         1 HOH        0.417000
      3 H1          -0.7570    -0.4750    -0.0000 HW         1 HOH        0.417000
@<TRIPOS>BOND
     1     1     2 1   
     2     1     3 1   
@<TRIPOS>SUBSTRUCTURE
     1 HOH         1 TEMP              0 ****  ****    0 ROOT
