@<TRIPOS>MOLECULE
MBZ
   15    15     1     0     0
SMALL
No Charge or Current Charge


@<TRIPOS>ATOM
      1 C            2.4220     0.0000     0.0090 CT         1 MBZ       -0.410354
      2 H            2.8280     0.8900    -0.4790 HC         1 MBZ        0.114947
      3 H1           2.8280    -0.8790    -0.4980 HC         1 MBZ        0.114947
      4 H2           2.8020    -0.0110     1.0370 HC         1 MBZ        0.114947
      5 C1           0.9120     0.0000    -0.0110 CA         1 MBZ        0.286574
      6 C2           0.1940    -1.2000    -0.0090 CA         1 MBZ       -0.270280
      7 H3           0.7320    -2.1430    -0.0170 HA         1 MBZ        0.150276
      8 C3          -1.1990    -1.2030     0.0020 CA         1 MBZ       -0.094784
      9 H4          -1.7350    -2.1460     0.0020 HA         1 MBZ        0.123214
     10 C4          -1.9020    -0.0000     0.0080 CA         1 MBZ       -0.165360
     11 H5          -2.9860    -0.0000     0.0130 HA         1 MBZ        0.127447
     12 C5          -1.1990     1.2030     0.0020 CA         1 MBZ       -0.094784
     13 H6          -1.7360     2.1450     0.0020 HA         1 MBZ        0.123214
     14 C6           0.1940     1.2000    -0.0090 CA         1 MBZ       -0.270280
     15 H7           0.7320     2.1430    -0.0170 HA         1 MBZ        0.150276
@<TRIPOS>BOND
     1     1     2 1   
     2     1     3 1   
     3     1     4 1   
     4     1     5 1   
     5     5     6 1   
     6     5    14 2   
     7     6     7 1   
     8     6     8 2   
     9     8     9 1   
    10     8    10 1   
    11    10    11 1   
    12    10    12 2   
    13    12    13 1   
    14    12    14 1   
    15    14    15 1   
@<TRIPOS>SUBSTRUCTURE
     1 MBZ         1 TEMP              0 ****  ****    0 ROOT
