@<TRIPOS>MOLECULE
MGD
   13    12     1     0     0
SMALL
No Charge or Current Charge


@<TRIPOS>ATOM
      1 C           -1.9670    -0.0470    -0.0490 CT         1 MGD       -0.037138
      2 H           -2.6950    -0.8340    -0.2310 H1         1 MGD        0.098123
      3 H1          -1.9970     0.6430    -0.8940 H1         1 MGD        0.098123
      4 H2          -2.2430     0.4710     0.8740 H1         1 MGD        0.098123
      5 N           -0.6420    -0.6670     0.0560 N2         1 MGD       -0.443342
      6 H3          -0.6040    -1.6560     0.2500 H          1 MGD        0.340928
      7 C1           0.5140    -0.0060     0.0170 CA         1 MGD        0.758400
      8 N1           0.5310     1.3300     0.0110 N2         1 MGD       -0.834835
      9 H4          -0.2960     1.8670     0.2150 H          1 MGD        0.439112
     10 H5           1.3760     1.8410    -0.1920 H          1 MGD        0.439112
     11 N2           1.6710    -0.6810    -0.0300 N2         1 MGD       -0.834835
     12 H6           1.6950    -1.6710    -0.2190 H          1 MGD        0.439112
     13 H7           2.5530    -0.2210     0.1310 H          1 MGD        0.439112
@<TRIPOS>BOND
     1     1     2 1   
     2     1     3 1   
     3     1     4 1   
     4     1     5 1   
     5     5     6 1   
     6     5     7 2   
     7     7     8 1   
     8     7    11 1   
     9     8     9 1   
    10     8    10 1   
    11    11    12 1   
    12    11    13 1   
@<TRIPOS>SUBSTRUCTURE
     1 MGD         1 TEMP              0 ****  ****    0 ROOT
