@<TRIPOS>MOLECULE
MIM
   12    12     1     0     0
SMALL
No Charge or Current Charge


@<TRIPOS>ATOM
      1 C           -2.1360    -0.0210    -0.0000 CT         1 MIM       -0.266509
      2 H           -2.5150    -0.5430    -0.8850 HC         1 MIM        0.096623
      3 H1          -2.5640     0.9820    -0.0020 HC         1 MIM        0.096623
      4 H2          -2.5180    -0.5430     0.8840 HC         1 MIM        0.096623
      5 C1          -0.6460     0.0680     0.0010 CC         1 MIM        0.049615
      6 C2           0.2190     1.1330     0.0000 CV         1 MIM       -0.028094
      7 H3          -0.0340     2.1830     0.0010 H4         1 MIM        0.142107
      8 N            1.5320     0.7120    -0.0000 NB         1 MIM       -0.475927
      9 C3           1.4730    -0.5960    -0.0000 CR         1 MIM        0.119966
     10 H4           2.3160    -1.2700    -0.0000 H5         1 MIM        0.138959
     11 N1           0.1790    -1.0420     0.0010 NA         1 MIM       -0.295399
     12 H5          -0.1230    -2.0040    -0.0000 H          1 MIM        0.325412
@<TRIPOS>BOND
     1     1     2 1   
     2     1     3 1   
     3     1     4 1   
     4     1     5 1   
     5     5     6 2   
     6     5    11 1   
     7     6     7 1   
     8     6     8 1   
     9     8     9 2   
    10     9    10 1   
    11     9    11 1   
    12    11    12 1   
@<TRIPOS>SUBSTRUCTURE
     1 MIM         1 TEMP              0 ****  ****    0 ROOT
