@<TRIPOS>MOLECULE
MIM
   12    12     1     0     0
SMALL
No Charge or Current Charge


@<TRIPOS>ATOM
      1 C            2.1520    -0.0100     0.0000 CT         1 MIM       -0.470354
      2 H            2.5680     0.9990    -0.0000 HC         1 MIM        0.132629
      3 H1           2.5300    -0.5380    -0.8800 HC         1 MIM        0.132629
      4 H2           2.5300    -0.5370     0.8810 HC         1 MIM        0.132629
      5 C1           0.6570     0.0200    -0.0000 CC         1 MIM        0.385471
      6 C2          -0.1800     1.1070     0.0000 CW         1 MIM       -0.317784
      7 H3           0.0110     2.1670    -0.0010 H4         1 MIM        0.204290
      8 N           -1.4610     0.5900     0.0000 NA         1 MIM       -0.264526
      9 H4          -2.3180     1.1200     0.0010 H          1 MIM        0.320604
     10 C3          -1.3430    -0.7680    -0.0000 CR         1 MIM        0.121508
     11 H5          -2.2000    -1.4240     0.0000 H5         1 MIM        0.144180
     12 N1          -0.0860    -1.1440    -0.0000 NB         1 MIM       -0.521276
@<TRIPOS>BOND
     1     1     2 1   
     2     1     3 1   
     3     1     4 1   
     4     1     5 1   
     5     5     6 2   
     6     5    12 1   
     7     6     7 1   
     8     6     8 1   
     9     8     9 1   
    10     8    10 1   
    11    10    11 1   
    12    10    12 2   
@<TRIPOS>SUBSTRUCTURE
     1 MIM         1 TEMP              0 ****  ****    0 ROOT
