@<TRIPOS>MOLECULE
MIM
   13    13     1     0     0
SMALL
No Charge or Current Charge


@<TRIPOS>ATOM
      1 C           -2.1760     0.0130    -0.0000 CT         1 MIM       -0.254666
      2 H           -2.5490    -0.5060    -0.8870 HC         1 MIM        0.129700
      3 H1          -2.5910     1.0210     0.0000 HC         1 MIM        0.129700
      4 H2          -2.5490    -0.5070     0.8860 HC         1 MIM        0.129700
      5 C1          -0.6890     0.0770     0.0000 CC         1 MIM        0.118441
      6 C2           0.1730     1.1350     0.0000 CW         1 MIM       -0.207428
      7 H3          -0.0180     2.1940    -0.0000 H4         1 MIM        0.254878
      8 N            1.4580     0.6190     0.0000 NA         1 MIM       -0.129899
      9 H4           2.3110     1.1630    -0.0000 H          1 MIM        0.362274
     10 C3           1.4100    -0.7110    -0.0000 CR         1 MIM       -0.007071
     11 H5           2.2530    -1.3830     0.0000 H5         1 MIM        0.254341
     12 N1           0.1200    -1.0550    -0.0000 NA         1 MIM       -0.141624
     13 H6          -0.2140    -2.0110     0.0000 H          1 MIM        0.361652
@<TRIPOS>BOND
     1     1     2 1   
     2     1     3 1   
     3     1     4 1   
     4     1     5 1   
     5     5     6 2   
     6     5    12 1   
     7     6     7 1   
     8     6     8 1   
     9     8     9 1   
    10     8    10 2   
    11    10    11 1   
    12    10    12 1   
    13    12    13 1   
@<TRIPOS>SUBSTRUCTURE
     1 MIM         1 TEMP              0 ****  ****    0 ROOT
