@<TRIPOS>MOLECULE
MIN
   19    20     1     0     0
SMALL
No Charge or Current Charge


@<TRIPOS>ATOM
      1 C           -2.6330    -1.3150    -0.0010 CT         1 MIN       -0.173272
      2 H           -2.5380    -1.9590     0.8800 HC         1 MIN        0.062296
      3 H1          -2.5350    -1.9600    -0.8820 HC         1 MIN        0.062296
      4 H2          -3.6450    -0.9040    -0.0030 HC         1 MIN        0.062296
      5 C1          -1.6060    -0.2260    -0.0000 C*         1 MIN       -0.046401
      6 C2          -1.8350     1.1240     0.0000 CW         1 MIN       -0.200068
      7 H3          -2.7720     1.6600     0.0010 H4         1 MIN        0.208727
      8 N           -0.6330     1.8120     0.0030 NA         1 MIN       -0.415613
      9 H4          -0.5370     2.8130    -0.0070 H          1 MIN        0.369371
     10 C3           0.4050     0.9070     0.0000 CN         1 MIN        0.121857
     11 C4           1.7870     1.1060    -0.0010 CA         1 MIN       -0.187835
     12 H5           2.2150     2.1030    -0.0020 HA         1 MIN        0.133426
     13 C5           2.5980    -0.0200    -0.0010 CA         1 MIN       -0.153468
     14 H6           3.6760     0.1000    -0.0020 HA         1 MIN        0.137992
     15 C6           2.0480    -1.3160     0.0010 CA         1 MIN       -0.186838
     16 H7           2.7120    -2.1730     0.0020 HA         1 MIN        0.138403
     17 C7           0.6750    -1.5100     0.0010 CA         1 MIN       -0.217877
     18 H8           0.2620    -2.5130     0.0020 HA         1 MIN        0.160462
     19 C8          -0.1740    -0.3910    -0.0000 CB         1 MIN        0.124247
@<TRIPOS>BOND
     1     1     2 1   
     2     1     3 1   
     3     1     4 1   
     4     1     5 1   
     5     5     6 2   
     6     5    19 1   
     7     6     7 1   
     8     6     8 1   
     9     8     9 1   
    10     8    10 1   
    11    10    11 1   
    12    10    19 2   
    13    11    12 1   
    14    11    13 2   
    15    13    14 1   
    16    13    15 1   
    17    15    16 1   
    18    15    17 2   
    19    17    18 1   
    20    17    19 1   
@<TRIPOS>SUBSTRUCTURE
     1 MIN         1 TEMP              0 ****  ****    0 ROOT
