@<TRIPOS>MOLECULE
MPH
   16    16     1     0     0
SMALL
No Charge or Current Charge


@<TRIPOS>ATOM
      1 C           -2.8890     0.0160     0.0130 CT         1 MPH       -0.356457
      2 H           -3.3010    -0.7980    -0.5890 HC         1 MPH        0.100974
      3 H1          -3.2890     0.9550    -0.3770 HC         1 MPH        0.100974
      4 H2          -3.2740    -0.1070     1.0310 HC         1 MPH        0.100974
      5 C1          -1.3790     0.0090    -0.0100 CA         1 MPH        0.216434
      6 C2          -0.6460     1.1970    -0.0090 CA         1 MPH       -0.236048
      7 H3          -1.1680     2.1480    -0.0160 HA         1 MPH        0.160788
      8 C3           0.7480     1.1920    -0.0020 CA         1 MPH       -0.281502
      9 H4           1.2940     2.1320    -0.0040 HA         1 MPH        0.172226
     10 C4           1.4410    -0.0180     0.0030 CA         1 MPH        0.343723
     11 O            2.8070    -0.0930     0.0090 OH         1 MPH       -0.506792
     12 H5           3.1710     0.7970     0.0020 HO         1 MPH        0.369239
     13 C5           0.7270    -1.2170    -0.0020 CA         1 MPH       -0.281502
     14 H6           1.2750    -2.1520    -0.0040 HA         1 MPH        0.172226
     15 C6          -0.6620    -1.1940    -0.0090 CA         1 MPH       -0.236048
     16 H7          -1.2020    -2.1360    -0.0160 HA         1 MPH        0.160788
@<TRIPOS>BOND
     1     1     2 1   
     2     1     3 1   
     3     1     4 1   
     4     1     5 1   
     5     5     6 1   
     6     5    15 2   
     7     6     7 1   
     8     6     8 2   
     9     8     9 1   
    10     8    10 1   
    11    10    11 1   
    12    10    13 2   
    13    11    12 1   
    14    13    14 1   
    15    13    15 1   
    16    15    16 1   
@<TRIPOS>SUBSTRUCTURE
     1 MPH         1 TEMP              0 ****  ****    0 ROOT
