@<TRIPOS>MOLECULE
MSM
    9     8     1     0     0
SMALL
No Charge or Current Charge


@<TRIPOS>ATOM
      1 C           -1.3950     0.5150    -0.0000 CT         1 MSM       -0.278033
      2 H           -1.3810     1.1420     0.8940 H1         1 MSM        0.126479
      3 H1          -2.3090    -0.0790     0.0000 H1         1 MSM        0.126479
      4 H2          -1.3810     1.1410    -0.8940 H1         1 MSM        0.126479
      5 S            0.0000    -0.6620    -0.0000 S          1 MSM       -0.202809
      6 C1           1.3940     0.5150     0.0000 CT         1 MSM       -0.278033
      7 H3           1.3810     1.1410     0.8940 H1         1 MSM        0.126479
      8 H4           2.3090    -0.0780    -0.0010 H1         1 MSM        0.126479
      9 H5           1.3810     1.1420    -0.8930 H1         1 MSM        0.126479
@<TRIPOS>BOND
     1     1     2 1   
     2     1     3 1   
     3     1     4 1   
     4     1     5 1   
     5     5     6 1   
     6     6     7 1   
     7     6     8 1   
     8     6     9 1   
@<TRIPOS>SUBSTRUCTURE
     1 MSM         1 TEMP              0 ****  ****    0 ROOT
