@<TRIPOS>MOLECULE
N1P
   19    19     1     0     0
SMALL
No Charge or Current Charge


@<TRIPOS>ATOM
      1 C            2.2940    -1.0530     0.0800 CT         1 N1P       -0.108606
      2 H            2.1780    -1.6660    -0.8190 HC         1 N1P        0.045298
      3 H1           3.3360    -0.7570     0.1750 HC         1 N1P        0.045298
      4 H2           2.0100    -1.6680     0.9380 HC         1 N1P        0.045298
      5 C1           1.4550     0.2130    -0.0130 C          1 N1P        0.471894
      6 O            1.9620     1.3240    -0.0750 O          1 N1P       -0.564609
      7 N            0.1010     0.0450    -0.0290 N          1 N1P       -0.146087
      8 C2          -0.7950     1.2100    -0.0780 CT         1 N1P       -0.035463
      9 H3          -0.7900     1.6510    -1.0820 H1         1 N1P        0.061218
     10 H4          -0.4480     1.9790     0.6140 H1         1 N1P        0.061218
     11 C3          -2.1650     0.6220     0.2800 CT         1 N1P       -0.042798
     12 H5          -2.2980     0.6140     1.3660 HC         1 N1P        0.038724
     13 H6          -2.9900     1.1900    -0.1530 HC         1 N1P        0.038724
     14 C4          -2.0810    -0.8190    -0.2510 CT         1 N1P       -0.040610
     15 H7          -2.8080    -1.4930     0.2040 HC         1 N1P        0.038905
     16 H8          -2.2440    -0.8290    -1.3330 HC         1 N1P        0.038905
     17 C5          -0.6330    -1.2240     0.0600 CT         1 N1P       -0.062482
     18 H9          -0.5550    -1.6550     1.0680 H1         1 N1P        0.057586
     19 H10         -0.2480    -1.9620    -0.6480 H1         1 N1P        0.057586
@<TRIPOS>BOND
     1     1     2 1   
     2     1     3 1   
     3     1     4 1   
     4     1     5 1   
     5     5     6 2   
     6     5     7 1   
     7     7     8 1   
     8     7    17 1   
     9     8     9 1   
    10     8    10 1   
    11     8    11 1   
    12    11    12 1   
    13    11    13 1   
    14    11    14 1   
    15    14    15 1   
    16    14    16 1   
    17    14    17 1   
    18    17    18 1   
    19    17    19 1   
@<TRIPOS>SUBSTRUCTURE
     1 N1P         1 TEMP              0 ****  ****    0 ROOT
