@<TRIPOS>MOLECULE
NMA
   12    11     1     0     0
SMALL
No Charge or Current Charge


@<TRIPOS>ATOM
      1 C           -1.9750    -0.1020    -0.0000 CT         1 NMA       -0.198459
      2 H           -1.8940     0.9840     0.0010 H1         1 NMA        0.110920
      3 H1          -2.5270    -0.4190     0.8900 H1         1 NMA        0.110920
      4 H2          -2.5270    -0.4180    -0.8910 H1         1 NMA        0.110920
      5 N           -0.6240    -0.6350     0.0000 N          1 NMA       -0.495399
      6 H3          -0.4960    -1.6330    -0.0000 H          1 NMA        0.323703
      7 C1           0.4830     0.1680    -0.0000 C          1 NMA        0.607373
      8 O            0.4220     1.3850    -0.0000 O          1 NMA       -0.548950
      9 C2           1.8160    -0.5640    -0.0000 CT         1 NMA       -0.234782
     10 H4           1.7260    -1.6530    -0.0020 HC         1 NMA        0.071251
     11 H5           2.3830    -0.2520    -0.8790 HC         1 NMA        0.071251
     12 H6           2.3810    -0.2550     0.8810 HC         1 NMA        0.071251
@<TRIPOS>BOND
     1     1     2 1   
     2     1     3 1   
     3     1     4 1   
     4     1     5 1   
     5     5     6 1   
     6     5     7 1   
     7     7     8 2   
     8     7     9 1   
     9     9    10 1   
    10     9    11 1   
    11     9    12 1   
@<TRIPOS>SUBSTRUCTURE
     1 NMA         1 TEMP              0 ****  ****    0 ROOT
