@<TRIPOS>MOLECULE
PRP
   11    10     1     0     0
SMALL
No Charge or Current Charge


@<TRIPOS>ATOM
      1 C           -1.2770    -0.2600     0.0000 CT         1 PRP       -0.071148
      2 H           -1.3230    -0.9050     0.8830 HC         1 PRP        0.014727
      3 H1          -1.3230    -0.9060    -0.8830 HC         1 PRP        0.014727
      4 H2          -2.1740     0.3670    -0.0000 HC         1 PRP        0.014727
      5 C1          -0.0000     0.5850    -0.0000 CT         1 PRP        0.078031
      6 H3          -0.0000     1.2450    -0.8750 HC         1 PRP       -0.011684
      7 H4          -0.0000     1.2450     0.8750 HC         1 PRP       -0.011684
      8 C2           1.2770    -0.2590    -0.0000 CT         1 PRP       -0.071758
      9 H5           1.3240    -0.9040     0.8840 HC         1 PRP        0.014688
     10 H6           1.3210    -0.9070    -0.8810 HC         1 PRP        0.014688
     11 H7           2.1740     0.3670    -0.0020 HC         1 PRP        0.014688
@<TRIPOS>BOND
     1     1     2 1   
     2     1     3 1   
     3     1     4 1   
     4     1     5 1   
     5     5     6 1   
     6     5     7 1   
     7     5     8 1   
     8     8     9 1   
     9     8    10 1   
    10     8    11 1   
@<TRIPOS>SUBSTRUCTURE
     1 PRP         1 TEMP              0 ****  ****    0 ROOT
