@<TRIPOS>MOLECULE

   9    8
SMALL
USER_CHARGES
@<TRIPOS>ATOM
   1 C1           2.5200     1.0000     1.0000 C.3          1    LIG   0.0000
   2 C2           1.0000     1.0000     1.0000 C.2          1    LIG   0.0000
   3 N3           0.3150     2.1865     1.0000 N.am         1    LIG   0.0000
   4 O4           0.4000    -0.0392     1.0000 O.2          1    LIG   0.0000
   5 H            2.8533     1.9428     1.0000 H            1    LIG   0.0000
   6 H            2.8533     0.5286     1.8165 H            1    LIG   0.0000
   7 H            2.8533     0.5286     0.1835 H            1    LIG   0.0000
   8 H            0.8150     3.0525     1.0000 H            1    LIG   0.0000
   9 H           -0.6850     2.1865     1.0000 H            1    LIG   0.0000
@<TRIPOS>BOND
   1        1        2 1
   2        2        3 am
   3        2        4 2
   4        1        5 1
   5        1        6 1
   6        1        7 1
   7        3        8 1
   8        3        9 1

