@<TRIPOS>MOLECULE
9 
9 8 0 0 0
SMALL
USER_CHARGES
#CGenFF output mol2 file
@<TRIPOS>ATOM
1	C1     4.1502    -2.5949    -1.5777	C.3	1	LIG     0.0000
2	H2     3.7955    -2.3414    -0.6695	H	1	LIG     0.0000
3	H3     4.7446    -1.8497    -1.9046	H	1	LIG     0.0000
4	H4     4.7807    -3.4739    -1.4434	H	1	LIG     0.0000
5	C5     3.0026    -2.7646    -2.5267	C.2	1	LIG     0.0000
6	N6     1.8449    -2.1627    -2.2661	N.am	1	LIG     0.0000
7	H7     1.7931    -1.6022    -1.4248	H	1	LIG     0.0000
8	H8     1.0727    -2.2577    -2.8652	H	1	LIG     0.0000
9	O9     3.1678    -3.4739    -3.5885	O.2	1	LIG     0.0000
@<TRIPOS>BOND
1	1	5	1
2	5	6	1
3	5	9	2
4	1	2	1
5	1	3	1
6	1	4	1
7	6	7	1
8	6	8	1
