@<TRIPOS>MOLECULE

   7    6
SMALL
USER_CHARGES
@<TRIPOS>ATOM
   1 C1           2.5200     1.0000     1.0000 C.3          1    LIG   0.0000
   2 C2           1.0000     1.0000     1.0000 C.2          1    LIG   0.0000
   3 O3           0.3950     2.0479     1.0000 O.co2        1    LIG  -1.0000
   4 O4           0.3750    -0.0825     1.0000 O.co2        1    LIG   0.0000
   5 H            2.8533     0.0572     1.0000 H            1    LIG   0.0000
   6 H            2.8533     1.4714     0.1835 H            1    LIG   0.0000
   7 H            2.8533     1.4714     1.8165 H            1    LIG   0.0000
@<TRIPOS>BOND
   1        1        2 1
   2        2        3 ar
   3        2        4 ar
   4        1        5 1
   5        1        6 1
   6        1        7 1

