@<TRIPOS>MOLECULE
7 
7 6 0 0 0
SMALL
USER_CHARGES
#CGenFF output mol2 file
@<TRIPOS>ATOM
1	C1     3.4273     0.6323     2.5687	C.3	1	LIG     0.0000
2	H2     3.1740     0.6851     1.6102	H	1	LIG     0.0000
3	H3     2.8282     1.1990     3.1199	H	1	LIG     0.0000
4	H4     3.3045    -0.4012     2.8923	H	1	LIG     0.0000
5	C5     4.8520     1.1287     2.7257	C.2	1	LIG     0.0000
6	O6     5.7286     0.7379     1.9162	O.co2	1	LIG    -1.0000
7	O7     5.0922     1.9132     3.6663	O.co2	1	LIG     0.0000
@<TRIPOS>BOND
1	1	5	1
2	5	6	2
3	5	7	1
4	1	2	1
5	1	3	1
6	1	4	1
