@<TRIPOS>MOLECULE
9 
9 8 0 0 0
SMALL
USER_CHARGES
#CGenFF output mol2 file
@<TRIPOS>ATOM
1	C1    -2.5510     3.7041     1.5335	C.3	1	LIG     0.0000
2	H2    -2.3443     3.0517     0.7766	H	1	LIG     0.0000
3	H3    -2.6077     4.7144     1.1282	H	1	LIG     0.0000
4	H4    -3.4711     3.3656     2.0097	H	1	LIG     0.0000
5	C5    -1.4668     3.8528     2.7224	C.3	1	LIG     0.0000
6	H6    -1.5951     4.7336     3.1246	H	1	LIG     0.0000
7	H7    -1.4935     3.1843     3.5830	H	1	LIG     0.0000
8	O8    -0.2272     3.8563     1.9509	O.3	1	LIG     0.0000
9	H9    -0.2202     3.0779     1.3217	H	1	LIG     0.0000
@<TRIPOS>BOND
1	1	5	1
2	5	8	1
3	1	2	1
4	1	3	1
5	1	4	1
6	5	6	1
7	5	7	1
8	8	9	1
