@<TRIPOS>MOLECULE

   9    8
SMALL
USER_CHARGES
@<TRIPOS>ATOM
   1 C1           1.8776     1.8776     1.8776 C.3          1    LIG   0.0000
   2 C2           1.0000     1.0000     1.0000 C.3          1    LIG   0.0000
   3 S3           2.0450    -0.0450    -0.0450 S.3          1    LIG   0.0000
   4 H            1.4677    -0.6224    -0.6224 H            1    LIG   0.0000
   5 H            1.3002     2.4549     2.4549 H            1    LIG   0.0000
   6 H            2.4549     1.3002     2.4549 H            1    LIG   0.0000
   7 H            2.4549     2.4549     1.3002 H            1    LIG   0.0000
   8 H            0.4226     0.4226     1.5774 H            1    LIG   0.0000
   9 H            0.4226     1.5774     0.4226 H            1    LIG   0.0000
@<TRIPOS>BOND
   1        1        2 1
   2        2        3 1
   3        3        4 1
   4        1        5 1
   5        1        6 1
   6        1        7 1
   7        2        8 1
   8        2        9 1

