@<TRIPOS>MOLECULE
9 
9 8 0 0 0
SMALL
USER_CHARGES
#CGenFF output mol2 file
@<TRIPOS>ATOM
1	C1    -4.0216    -0.9139    -3.7823	C.3	1	LIG     0.0000
2	H2    -4.8543    -1.3433    -3.5107	H	1	LIG     0.0000
3	H3    -3.3011    -1.6783    -4.0732	H	1	LIG     0.0000
4	H4    -4.2087    -0.3902    -4.7197	H	1	LIG     0.0000
5	C5    -3.4262     0.0062    -2.7215	C.3	1	LIG     0.0000
6	H6    -4.1799     0.5143    -2.2952	H	1	LIG     0.0000
7	H7    -2.9909    -0.5708    -2.0235	H	1	LIG     0.0000
8	S8    -2.2130     1.1848    -3.3242	S.3	1	LIG     0.0000
9	H9    -2.2303     2.0100    -2.7563	H	1	LIG     0.0000
@<TRIPOS>BOND
1	1	5	1
2	5	8	1
3	1	2	1
4	1	3	1
5	1	4	1
6	5	6	1
7	5	7	1
8	8	9	1
