@<TRIPOS>MOLECULE

   3    2
SMALL
USER_CHARGES
@<TRIPOS>ATOM
   1 H1           1.5774     1.5774     1.5774 H            1    LIG   0.0000
   2 O2           1.0000     1.0000     1.0000 O.3          1    LIG   0.0000
   3 H3           1.5774     0.4226     0.4226 H            1    LIG   0.0000
@<TRIPOS>BOND
   1        1        2 1
   2        2        3 1

