@<TRIPOS>MOLECULE
15 
15 15 0 0 0
SMALL
USER_CHARGES
#CGenFF output mol2 file
@<TRIPOS>ATOM
1	C1     1.3570    -1.6123     3.4515	C.3	1	LIG     0.0000
2	H2     1.3383    -0.8762     2.8109	H	1	LIG     0.0000
3	H3     1.7483    -2.4314     3.0928	H	1	LIG     0.0000
4	H4     1.9559    -1.2991     4.3066	H	1	LIG     0.0000
5	C5    -0.0647    -1.9127     3.8655	C.ar	1	LIG     0.0000
6	C6    -0.3631    -3.0878     4.5642	C.ar	1	LIG     0.0000
7	H7     0.3785    -3.7439     4.7367	H	1	LIG     0.0000
8	C8    -1.6229    -3.3565     5.0111	C.ar	1	LIG     0.0000
9	H9    -1.8049    -4.2193     5.5123	H	1	LIG     0.0000
10	C10    -2.6318    -2.4650     4.7801	C.ar	1	LIG     0.0000
11	H11    -3.5592    -2.6498     5.1103	H	1	LIG     0.0000
12	C12    -2.3685    -1.2949     4.0828	C.ar	1	LIG     0.0000
13	H13    -3.1137    -0.6319     3.8969	H	1	LIG     0.0000
14	C14    -1.0827    -1.0239     3.6323	C.ar	1	LIG     0.0000
15	H15    -0.9069    -0.1733     3.1365	H	1	LIG     0.0000
@<TRIPOS>BOND
1	1	5	1
2	5	6	2
3	6	8	1
4	8	10	2
5	10	12	1
6	12	14	2
7	14	5	1
8	1	2	1
9	1	3	1
10	1	4	1
11	6	7	1
12	8	9	1
13	10	11	1
14	12	13	1
15	14	15	1
