@<TRIPOS>MOLECULE

  15   15
SMALL
USER_CHARGES
@<TRIPOS>ATOM
   1 C1           1.0000     1.0000     1.0000 C.3          1    LIG   0.0000
   2 C2           1.8777     1.8777     1.8777 C.ar         1    LIG   0.0000
   3 C3           1.7309     3.2603     1.8339 C.ar         1    LIG   0.0000
   4 C4           2.5386     4.0558     2.6397 C.ar         1    LIG   0.0000
   5 C5           3.4806     3.4675     3.4782 C.ar         1    LIG   0.0000
   6 C6           3.6204     2.0840     3.5158 C.ar         1    LIG   0.0000
   7 C7           2.8169     1.2810     2.7125 C.ar         1    LIG   0.0000
   8 H            1.2319     0.0391     1.1516 H            1    LIG   0.0000
   9 H            0.0391     1.1516     1.2319 H            1    LIG   0.0000
  10 H            1.1516     1.2319     0.0391 H            1    LIG   0.0000
  11 H            1.0522     3.6776     1.2296 H            1    LIG   0.0000
  12 H            2.4423     5.0509     2.6166 H            1    LIG   0.0000
  13 H            4.0598     4.0420     4.0565 H            1    LIG   0.0000
  14 H            4.2986     1.6664     4.1205 H            1    LIG   0.0000
  15 H            2.9136     0.2859     2.7349 H            1    LIG   0.0000
@<TRIPOS>BOND
   1        1        2 1
   2        2        3 ar
   3        3        4 ar
   4        4        5 ar
   5        5        6 ar
   6        6        7 ar
   7        7        2 ar
   8        1        8 1
   9        1        9 1
  10        1       10 1
  11        3       11 1
  12        4       12 1
  13        5       13 1
  14        6       14 1
  15        7       15 1

