@<TRIPOS>MOLECULE
13 
13 12 0 0 0
SMALL
USER_CHARGES
#CGenFF output mol2 file
@<TRIPOS>ATOM
1	C1     2.5335    -5.5158     2.7503	C.3	1	LIG     0.0000
2	H2     3.1727    -4.8792     3.1585	H	1	LIG     0.0000
3	H3     3.0341    -6.3302     2.4915	H	1	LIG     0.0000
4	H4     1.7633    -5.7753     3.4766	H	1	LIG     0.0000
5	N5     1.9400    -4.9176     1.5743	N.pl3	1	LIG     0.0000
6	H6     1.9909    -4.0414     1.5078	H	1	LIG     0.0000
7	C7     1.3408    -5.5409     0.6070	C.cat	1	LIG     0.0000
8	N8     1.2522    -6.8648     0.6406	N.pl3	1	LIG     0.0000
9	H9     1.5974    -7.3123     1.3144	H	1	LIG     0.0000
10	H10     0.8470    -7.2960    -0.0119	H	1	LIG     0.0000
11	N11     0.8082    -4.9639    -0.4253	N.pl3	1	LIG     1.0000
12	H12     0.8388    -4.0878    -0.5047	H	1	LIG     0.0000
13	H13     0.4160    -5.4487    -1.0469	H	1	LIG     0.0000
@<TRIPOS>BOND
1	1	5	1
2	5	7	1
3	7	8	2
4	7	11	1
5	1	2	1
6	1	3	1
7	1	4	1
8	5	6	1
9	8	9	1
10	8	10	1
11	11	12	1
12	11	13	1
