@<TRIPOS>MOLECULE

  13   12
SMALL
USER_CHARGES
@<TRIPOS>ATOM
   1 C1           0.2650     2.2731     1.0000 C.3          1    LIG   0.0000
   2 N2           1.0000     1.0000     1.0000 N.pl3        1    LIG   0.0000
   3 C3           2.3000     1.0000     1.0000 C.cat        1    LIG   0.0000
   4 N4           2.9500    -0.1258     1.0000 N.pl3        1    LIG   0.0000
   5 N5           2.9750     2.1691     1.0000 N.pl3        1    LIG   1.0000
   6 H            3.9750     2.1691     1.0000 H            1    LIG   0.0000
   7 H            2.4750     3.0352     1.0000 H            1    LIG   0.0000
   8 H           -0.7182     2.0903     1.0000 H            1    LIG   0.0000
   9 H            0.5066     2.7974     1.8165 H            1    LIG   0.0000
  10 H            0.5066     2.7974     0.1835 H            1    LIG   0.0000
  11 H            0.5000     0.1340     1.0000 H            1    LIG   0.0000
  12 H            2.4500    -0.9919     1.0000 H            1    LIG   0.0000
  13 H            3.9500    -0.1258     1.0000 H            1    LIG   0.0000
@<TRIPOS>BOND
   1        1        2 1
   2        2        3 ar
   3        3        4 ar
   4        3        5 ar
   5        5        6 1
   6        5        7 1
   7        1        8 1
   8        1        9 1
   9        1       10 1
  10        2       11 1
  11        4       12 1
  12        4       13 1

