@<TRIPOS>MOLECULE

  12   12
SMALL
USER_CHARGES
@<TRIPOS>ATOM
   1 H1           0.7355     3.6542     2.1047 H            1    LIG   0.0000
   2 C2           1.5651     3.1338     2.3067 C.2          1    LIG   0.0000
   3 N3           2.6205     3.5296     3.0676 N.2          1    LIG   0.0000
   4 C4           3.5421     2.5878     3.1164 C.2          1    LIG   0.0000
   5 H5           4.4118     2.6393     3.6072 H            1    LIG   0.0000
   6 N6           3.0967     1.5294     2.3770 N.pl3        1    LIG   0.0000
   7 H7           3.5748     0.6635     2.2301 H            1    LIG   0.0000
   8 C8           1.8769     1.8769     1.8769 C.2          1    LIG   0.0000
   9 C9           1.0000     1.0000     1.0000 C.3          1    LIG   0.0000
  10 H10          0.1597     1.4916     0.7713 H            1    LIG   0.0000
  11 H11          1.4916     0.7713     0.1597 H            1    LIG   0.0000
  12 H12          0.7713     0.1597     1.4916 H            1    LIG   0.0000
@<TRIPOS>BOND
   1        1        2 1
   2        2        3 1
   3        3        4 2
   4        4        5 1
   5        4        6 1
   6        6        7 1
   7        6        8 1
   8        8        2 2
   9        8        9 1
  10        9       10 1
  11        9       11 1
  12        9       12 1

