@<TRIPOS>MOLECULE
12 
12 12 0 0 0
SMALL
USER_CHARGES
#CGenFF output mol2 file
@<TRIPOS>ATOM
1	C1     3.1246    -2.0145    -5.4379	C.3	1	LIG     0.0000
2	H2     2.9059    -2.6091    -6.2001	H	1	LIG     0.0000
3	H3     4.1040    -1.9633    -5.2986	H	1	LIG     0.0000
4	H4     2.7557    -1.0139    -5.6636	H	1	LIG     0.0000
5	C5     2.4820    -2.5524    -4.1965	C.2	1	LIG     0.0000
6	C6     2.7770    -2.4386    -2.8813	C.2	1	LIG     0.0000
7	H7     3.5666    -1.9572    -2.4906	H	1	LIG     0.0000
8	N8     1.8015    -3.1012    -2.1375	N.2	1	LIG     0.0000
9	C9     0.9490    -3.6165    -2.9901	C.2	1	LIG     0.0000
10	H10     0.1391    -4.1636    -2.7524	H	1	LIG     0.0000
11	N11     1.3046    -3.3098    -4.2503	N.pl3	1	LIG     0.0000
12	H12     0.8254    -3.5704    -5.0672	H	1	LIG     0.0000
@<TRIPOS>BOND
1	1	5	1
2	5	6	2
3	6	8	1
4	8	9	2
5	9	11	1
6	11	5	1
7	1	2	1
8	1	3	1
9	1	4	1
10	6	7	1
11	9	10	1
12	11	12	1
