@<TRIPOS>MOLECULE

  12   12
SMALL
USER_CHARGES
@<TRIPOS>ATOM
   1 H1           4.2295     3.8683     2.4653 H            1    LIG   0.0000
   2 C2           3.4441     3.2496     2.4846 C.2          1    LIG   0.0000
   3 N3           2.9329     2.6234     1.4466 N.2          1    LIG   0.0000
   4 C4           1.8772     1.8772     1.8772 C.2          1    LIG   0.0000
   5 C5           1.0000     1.0000     1.0000 C.3          1    LIG   0.0000
   6 H6           0.2987     0.5617     1.5622 H            1    LIG   0.0000
   7 H7           0.5617     1.5622     0.2987 H            1    LIG   0.0000
   8 H8           1.5622     0.2987     0.5617 H            1    LIG   0.0000
   9 C9           1.7339     2.0508     3.2208 C.2          1    LIG   0.0000
  10 H10          1.0452     1.6320     3.8127 H            1    LIG   0.0000
  11 N11          2.7215     2.9120     3.5921 N.pl3        1    LIG   0.0000
  12 H12          2.8892     3.2419     4.5211 H            1    LIG   0.0000
@<TRIPOS>BOND
   1        1        2 1
   2        2        3 2
   3        3        4 1
   4        4        5 1
   5        5        6 1
   6        5        7 1
   7        5        8 1
   8        4        9 2
   9        9       10 1
  10        9       11 1
  11       11        2 1
  12       11       12 1

