@<TRIPOS>MOLECULE
13 
13 13 0 0 0
SMALL
USER_CHARGES
#CGenFF output mol2 file
@<TRIPOS>ATOM
1	C1     5.5523    -1.0789    -4.5747	C.3	1	LIG     0.0000
2	H2     5.7285    -1.7883    -5.2679	H	1	LIG     0.0000
3	H3     6.3953    -0.9456    -4.0393	H	1	LIG     0.0000
4	H4     5.3074    -0.1454    -5.0815	H	1	LIG     0.0000
5	C5     4.4836    -1.5733    -3.6544	C.2	1	LIG     0.0000
6	C6     4.3498    -1.4301    -2.3159	C.2	1	LIG     0.0000
7	H7     4.9880    -0.9638    -1.7035	H	1	LIG     0.0000
8	N8     3.1764    -2.0402    -1.9480	N.2	1	LIG     1.0000
9	H9     2.8149    -2.0984    -1.0176	H	1	LIG     0.0000
10	C10     2.6051    -2.5392    -3.0291	C.2	1	LIG     0.0000
11	H11     1.7372    -3.0291    -3.0562	H	1	LIG     0.0000
12	N12     3.3772    -2.2800    -4.0766	N.pl3	1	LIG     0.0000
13	H13     3.1887    -2.5529    -5.0162	H	1	LIG     0.0000
@<TRIPOS>BOND
1	1	5	1
2	5	6	2
3	6	8	1
4	8	10	2
5	10	12	1
6	12	5	1
7	1	2	1
8	1	3	1
9	1	4	1
10	6	7	1
11	8	9	1
12	10	11	1
13	12	13	1
