@<TRIPOS>MOLECULE

  13   13
SMALL
USER_CHARGES
@<TRIPOS>ATOM
   1 N1           3.0967     1.5294     2.3770 N.pl3        1    LIG   0.0000
   2 C2           1.8769     1.8769     1.8769 C.2          1    LIG   0.0000
   3 C3           1.0000     1.0000     1.0000 C.3          1    LIG   0.0000
   4 C4           1.5651     3.1338     2.3067 C.2          1    LIG   0.0000
   5 N5           2.6205     3.5296     3.0676 N.2          1    LIG   1.0000
   6 C6           3.5421     2.5878     3.1164 C.2          1    LIG   0.0000
   7 H            2.6884     4.4148     3.5277 H            1    LIG   0.0000
   8 H            3.5748     0.6635     2.2301 H            1    LIG   0.0000
   9 H            0.1597     1.4916     0.7713 H            1    LIG   0.0000
  10 H            1.4916     0.7713     0.1597 H            1    LIG   0.0000
  11 H            0.7713     0.1597     1.4916 H            1    LIG   0.0000
  12 H            0.7355     3.6542     2.1047 H            1    LIG   0.0000
  13 H            4.4118     2.6393     3.6072 H            1    LIG   0.0000
@<TRIPOS>BOND
   1        1        2 1
   2        2        3 1
   3        2        4 2
   4        4        5 1
   5        5        6 2
   6        6        1 1
   7        5        7 1
   8        1        8 1
   9        3        9 1
  10        3       10 1
  11        3       11 1
  12        4       12 1
  13        6       13 1

