@<TRIPOS>MOLECULE

  19   20
SMALL
USER_CHARGES
@<TRIPOS>ATOM
   1 C1           1.0000     1.0000     1.0000 C.3          1    LIG   0.0000
   2 C2           1.8770     1.8770     1.8770 C.2          1    LIG   0.0000
   3 C3           1.4244     2.8905     2.6670 C.2          1    LIG   0.0000
   4 N4           2.5187     3.4231     3.2794 N.pl3        1    LIG   0.0000
   5 C5           3.6458     2.7627     2.8850 C.ar         1    LIG   0.0000
   6 C6           4.9858     2.9271     3.2192 C.ar         1    LIG   0.0000
   7 C7           5.9712     2.1111     2.6735 C.ar         1    LIG   0.0000
   8 C8           5.6039     1.1127     1.7774 C.ar         1    LIG   0.0000
   9 C9           4.2607     0.9540     1.4516 C.ar         1    LIG   0.0000
  10 C10          3.2819     1.7744     2.0033 C.ar         1    LIG   0.0000
  11 H            2.4988     4.1871     3.9244 H            1    LIG   0.0000
  12 H            0.0454     1.2825     1.0947 H            1    LIG   0.0000
  13 H            1.2825     1.0947     0.0454 H            1    LIG   0.0000
  14 H            1.0947     0.0454     1.2825 H            1    LIG   0.0000
  15 H            0.4751     3.1856     2.7759 H            1    LIG   0.0000
  16 H            5.2458     3.6457     3.8641 H            1    LIG   0.0000
  17 H            6.9311     2.2405     2.9222 H            1    LIG   0.0000
  18 H            6.2969     0.5162     1.3723 H            1    LIG   0.0000
  19 H            3.9937     0.2364     0.8084 H            1    LIG   0.0000
@<TRIPOS>BOND
   1        1        2 1
   2        2        3 2
   3        3        4 1
   4        4        5 1
   5        5        6 ar
   6        6        7 ar
   7        7        8 ar
   8        8        9 ar
   9        9       10 ar
  10       10        2 1
  11       10        5 ar
  12        4       11 1
  13        1       12 1
  14        1       13 1
  15        1       14 1
  16        3       15 1
  17        6       16 1
  18        7       17 1
  19        8       18 1
  20        9       19 1

