@<TRIPOS>MOLECULE
19 
19 20 0 0 0
SMALL
USER_CHARGES
#CGenFF output mol2 file
@<TRIPOS>ATOM
1	C1     2.0736     3.0585     3.5387	C.3	1	LIG     0.0000
2	H2     1.2197     3.4864     3.7082	H	1	LIG     0.0000
3	H3     2.0120     2.5952     2.6889	H	1	LIG     0.0000
4	H4     2.8493     3.8216     3.4755	H	1	LIG     0.0000
5	C5     2.3484     2.0688     4.6174	C.2	1	LIG     0.0000
6	C6     2.9440     2.2399     5.8178	C.2	1	LIG     0.0000
7	H7     3.2728     3.0530     6.1252	H	1	LIG     0.0000
8	N8     3.0064     1.0679     6.5282	N.pl3	1	LIG     0.0000
9	H9     3.3514     0.9652     7.3087	H	1	LIG     0.0000
10	C10     2.4164     0.0861     5.7642	C.ar	1	LIG     0.0000
11	C11     2.2305    -1.2765     6.0305	C.ar	1	LIG     0.0000
12	H12     2.5141    -1.6525     6.8329	H	1	LIG     0.0000
13	C13     1.6147    -2.0349     5.0701	C.ar	1	LIG     0.0000
14	H14     1.4814    -2.9427     5.2200	H	1	LIG     0.0000
15	C15     1.1865    -1.4702     3.8758	C.ar	1	LIG     0.0000
16	H16     0.7734    -2.0114     3.2423	H	1	LIG     0.0000
17	C17     1.3584    -0.1267     3.6010	C.ar	1	LIG     0.0000
18	H18     1.0657     0.2411     2.7990	H	1	LIG     0.0000
19	C19     1.9865     0.6610     4.5723	C.ar	1	LIG     0.0000
@<TRIPOS>BOND
1	1	5	1
2	5	6	2
3	6	8	1
4	8	10	1
5	10	11	2
6	11	13	1
7	13	15	2
8	15	17	1
9	17	19	2
10	19	5	1
11	19	10	1
12	1	2	1
13	1	3	1
14	1	4	1
15	6	7	1
16	8	9	1
17	11	12	1
18	13	14	1
19	15	16	1
20	17	18	1
