@<TRIPOS>MOLECULE

  16   16
SMALL
USER_CHARGES
@<TRIPOS>ATOM
   1 C1           3.7226    -0.7135    -0.0371 C.3          1    LIG   0.0000
   2 C2           2.3966     0.0297    -0.0212 C.ar         1    LIG   0.0000
   3 C3           2.3916     1.4205    -0.0123 C.ar         1    LIG   0.0000
   4 C4           1.1749     2.0947     0.0031 C.ar         1    LIG   0.0000
   5 C5          -0.0170     1.3779     0.0084 C.ar         1    LIG   0.0000
   6 O6          -1.1948     2.0371     0.0243 O.3          1    LIG   0.0000
   7 C7          -0.0123    -0.0130    -0.0010 C.ar         1    LIG   0.0000
   8 C8           1.2044    -0.6870    -0.0161 C.ar         1    LIG   0.0000
   9 H            3.5524    -1.6989    -0.0419 H            1    LIG   0.0000
  10 H            4.2369    -0.4601    -0.8565 H            1    LIG   0.0000
  11 H            4.2508    -0.4704     0.7764 H            1    LIG   0.0000
  12 H            3.2523     1.9297    -0.0170 H            1    LIG   0.0000
  13 H            1.1572     3.0945     0.0104 H            1    LIG   0.0000
  14 H           -2.0541     1.5255     0.0282 H            1    LIG   0.0000
  15 H           -0.8730    -0.5221     0.0031 H            1    LIG   0.0000
  16 H            1.2220    -1.6868    -0.0233 H            1    LIG   0.0000
@<TRIPOS>BOND
   1        1        2 1
   2        2        3 ar
   3        3        4 ar
   4        4        5 ar
   5        5        6 1
   6        5        7 ar
   7        7        8 ar
   8        8        2 ar
   9        1        9 1
  10        1       10 1
  11        1       11 1
  12        3       12 1
  13        4       13 1
  14        6       14 1
  15        7       15 1
  16        8       16 1

