@<TRIPOS>MOLECULE

   9    8
SMALL
USER_CHARGES
@<TRIPOS>ATOM
   1 C1           2.8100     1.0000     1.0000 C.3          1    LIG   0.0000
   2 S2           1.0000     1.0000     1.0000 S.3          1    LIG   0.0000
   3 C3           0.6052    -0.7664     1.0000 C.3          1    LIG   0.0000
   4 H            3.1433     1.9428     1.0000 H            1    LIG   0.0000
   5 H            3.1433     0.5286     1.8165 H            1    LIG   0.0000
   6 H            3.1433     0.5286     0.1835 H            1    LIG   0.0000
   7 H           -0.3877    -0.8860     1.0000 H            1    LIG   0.0000
   8 H            0.9925    -1.1945     0.1835 H            1    LIG   0.0000
   9 H            0.9925    -1.1945     1.8165 H            1    LIG   0.0000
@<TRIPOS>BOND
   1        1        2 1
   2        2        3 1
   3        1        4 1
   4        1        5 1
   5        1        6 1
   6        3        7 1
   7        3        8 1
   8        3        9 1

