@<TRIPOS>MOLECULE
19 
19 19 0 0 0
SMALL
USER_CHARGES
#CGenFF output mol2 file
@<TRIPOS>ATOM
1	C1    -1.1303     6.5635    -0.6069	C.3	1	LIG     0.0000
2	H2    -1.2905     6.6759     0.3767	H	1	LIG     0.0000
3	H3    -0.0648     6.4399    -0.8013	H	1	LIG     0.0000
4	H4    -1.5371     7.4006    -1.1743	H	1	LIG     0.0000
5	C5    -1.8607     5.3039    -1.0624	C.2	1	LIG     0.0000
6	O6    -1.4175     4.5770    -1.9549	O.2	1	LIG     0.0000
7	N7    -3.0031     5.0084    -0.4589	N.am	1	LIG     0.0000
8	C8    -3.8690     3.9127    -0.9798	C.3	1	LIG     0.0000
9	H9    -3.3893     3.0244    -0.8900	H	1	LIG     0.0000
10	H10    -4.1962     4.0799    -2.0061	H	1	LIG     0.0000
11	C11    -5.0241     3.9020     0.0182	C.3	1	LIG     0.0000
12	H12    -5.8263     4.3921    -0.3542	H	1	LIG     0.0000
13	H13    -5.3105     2.9563     0.2281	H	1	LIG     0.0000
14	C14    -4.5276     4.5886     1.2701	C.3	1	LIG     0.0000
15	H15    -5.2846     5.0146     1.7567	H	1	LIG     0.0000
16	H16    -4.0609     3.9383     1.8614	H	1	LIG     0.0000
17	C17    -3.5577     5.6399     0.7523	C.3	1	LIG     0.0000
18	H18    -4.0334     6.4848     0.5251	H	1	LIG     0.0000
19	H19    -2.8376     5.8230     1.4178	H	1	LIG     0.0000
@<TRIPOS>BOND
1	1	5	1
2	5	6	2
3	5	7	1
4	7	8	1
5	8	11	1
6	11	14	1
7	14	17	1
8	17	7	1
9	1	2	1
10	1	3	1
11	1	4	1
12	8	9	1
13	8	10	1
14	11	12	1
15	11	13	1
16	14	15	1
17	14	16	1
18	17	18	1
19	17	19	1
