@<TRIPOS>MOLECULE
n1pa
  19   19
SMALL
USER_CHARGES
@<TRIPOS>ATOM
   1 C1           0.2400    -0.2642     0.6330 C.3          1    LIG   0.0000
   2 C2           1.0000     1.0000     1.0000 C.2          1    LIG   0.0000
   3 O3           0.4000     1.9980     1.2898 O.2          1    LIG   0.0000
   4 N4           2.4014     1.0000     1.0000 N.am         1    LIG   0.0000
   5 C5           3.2622     2.1402     1.3311 C.3          1    LIG   0.0000
   6 C6           4.5628     1.5406     1.8304 C.3          1    LIG   0.0000
   7 C7           4.5036     0.0595     1.5073 C.3          1    LIG   0.0000
   8 C8           3.2609    -0.1397     0.6648 C.3          1    LIG   0.0000
   9 H            0.8898    -0.9941     0.4210 H            1    LIG   0.0000
  10 H           -0.3349    -0.5427     1.4023 H            1    LIG   0.0000
  11 H           -0.3349    -0.0874    -0.1659 H            1    LIG   0.0000
  12 H            2.8401     2.7005     2.0438 H            1    LIG   0.0000
  13 H            3.4256     2.7010     0.5194 H            1    LIG   0.0000
  14 H            4.6496     1.6761     2.8174 H            1    LIG   0.0000
  15 H            5.3401     1.9651     1.3660 H            1    LIG   0.0000
  16 H            5.3172    -0.2166     0.9957 H            1    LIG   0.0000
  17 H            4.4413    -0.4768     2.3491 H            1    LIG   0.0000
  18 H            3.4898    -0.1352    -0.3087 H            1    LIG   0.0000
  19 H            2.8109    -1.0019     0.8974 H            1    LIG   0.0000
@<TRIPOS>BOND
   1        1        2 1
   2        2        3 2
   3        2        4 am
   4        4        5 1
   5        5        6 1
   6        6        7 1
   7        7        8 1
   8        8        4 1
   9        1        9 1
  10        1       10 1
  11        1       11 1
  12        5       12 1
  13        5       13 1
  14        6       14 1
  15        6       15 1
  16        7       16 1
  17        7       17 1
  18        8       18 1
  19        8       19 1

