@<TRIPOS>MOLECULE
12 
12 11 0 0 0
SMALL
USER_CHARGES
#CGenFF output mol2 file
@<TRIPOS>ATOM
1	C1    -4.0470     3.5078     1.0060	C.3	1	LIG     0.0000
2	H2    -3.1451     3.0838     0.9567	H	1	LIG     0.0000
3	H3    -4.2101     3.8495     2.0281	H	1	LIG     0.0000
4	H4    -4.0880     4.3434     0.3073	H	1	LIG     0.0000
5	N5    -5.0629     2.4917     0.6495	N.am	1	LIG     0.0000
6	H6    -6.0669     2.6884     0.5912	H	1	LIG     0.0000
7	C7    -4.6978     1.2377     0.3815	C.2	1	LIG     0.0000
8	O8    -3.5097     0.8381     0.3711	O.2	1	LIG     0.0000
9	C9    -5.7928     0.2745     0.1323	C.3	1	LIG     0.0000
10	H10    -6.6443     0.7589    -0.0863	H	1	LIG     0.0000
11	H11    -5.5108    -0.3629    -0.7057	H	1	LIG     0.0000
12	H12    -5.9308    -0.3588     1.0086	H	1	LIG     0.0000
@<TRIPOS>BOND
1	1	5	1
2	5	7	1
3	7	8	2
4	7	9	1
5	1	2	1
6	1	3	1
7	1	4	1
8	5	6	1
9	9	10	1
10	9	11	1
11	9	12	1
