@<TRIPOS>MOLECULE

  12   11
SMALL
USER_CHARGES
@<TRIPOS>ATOM
   1 C1           3.1050    -0.2731     1.0000 C.3          1    LIG   0.0000
   2 N2           2.3700     1.0000     1.0000 N.am         1    LIG   0.0000
   3 C3           1.0000     1.0000     1.0000 C.2          1    LIG   0.0000
   4 O4           0.4000    -0.0392     1.0000 O.2          1    LIG   0.0000
   5 C5           0.2400     2.3164     1.0000 C.3          1    LIG   0.0000
   6 H            4.0882    -0.0903     1.0000 H            1    LIG   0.0000
   7 H            2.8634    -0.7974     1.8165 H            1    LIG   0.0000
   8 H            2.8634    -0.7974     0.1835 H            1    LIG   0.0000
   9 H            2.8700     1.8660     1.0000 H            1    LIG   0.0000
  10 H            0.8898     3.0764     1.0000 H            1    LIG   0.0000
  11 H           -0.3349     2.3693     0.1835 H            1    LIG   0.0000
  12 H           -0.3349     2.3693     1.8165 H            1    LIG   0.0000
@<TRIPOS>BOND
   1        1        2 1
   2        2        3 am
   3        3        4 2
   4        3        5 1
   5        1        6 1
   6        1        7 1
   7        1        8 1
   8        2        9 1
   9        5       10 1
  10        5       11 1
  11        5       12 1

