@<TRIPOS>MOLECULE

  11   10
SMALL
USER_CHARGES
@<TRIPOS>ATOM
   1 C1           1.8776     1.8776     1.8776 C.3          1    LIG   0.0000
   2 C2           1.0000     1.0000     1.0000 C.3          1    LIG   0.0000
   3 C3           1.8776     0.1224     0.1224 C.3          1    LIG   0.0000
   4 H            1.3002     2.4549     2.4549 H            1    LIG   0.0000
   5 H            2.4549     1.3002     2.4549 H            1    LIG   0.0000
   6 H            2.4549     2.4549     1.3002 H            1    LIG   0.0000
   7 H            0.4226     1.5774     0.4226 H            1    LIG   0.0000
   8 H            0.4226     0.4226     1.5774 H            1    LIG   0.0000
   9 H            1.3002    -0.4549    -0.4549 H            1    LIG   0.0000
  10 H            2.4549     0.6998    -0.4549 H            1    LIG   0.0000
  11 H            2.4549    -0.4549     0.6998 H            1    LIG   0.0000
@<TRIPOS>BOND
   1        1        2 1
   2        2        3 1
   3        1        4 1
   4        1        5 1
   5        1        6 1
   6        2        7 1
   7        2        8 1
   8        3        9 1
   9        3       10 1
  10        3       11 1

