@<TRIPOS>MOLECULE
11 
11 10 0 0 0
SMALL
USER_CHARGES
#CGenFF output mol2 file
@<TRIPOS>ATOM
1	C1    -5.2124     1.4190     2.4346	C.3	1	LIG     0.0000
2	H2    -5.7077     2.1737     2.8467	H	1	LIG     0.0000
3	H3    -5.6263     0.5518     2.6846	H	1	LIG     0.0000
4	H4    -5.2598     1.5247     1.3508	H	1	LIG     0.0000
5	C5    -3.7806     1.4378     2.9731	C.3	1	LIG     0.0000
6	H6    -3.2144     0.8226     2.4170	H	1	LIG     0.0000
7	H7    -3.4158     2.3693     2.9000	H	1	LIG     0.0000
8	C8    -3.6862     0.9911     4.4416	C.3	1	LIG     0.0000
9	H9    -4.1813     1.6473     5.0007	H	1	LIG     0.0000
10	H10    -4.0945     0.0886     4.5224	H	1	LIG     0.0000
11	H11    -2.6521     0.9440     4.7830	H	1	LIG     0.0000
@<TRIPOS>BOND
1	1	5	1
2	5	8	1
3	1	2	1
4	1	3	1
5	1	4	1
6	5	6	1
7	5	7	1
8	8	9	1
9	8	10	1
10	8	11	1
