
     RDKit          3D

  9  8  0  0  0  0  0  0  0  0999 V2000
    4.1502   -2.5949   -1.5777 C   0  0  0  0  0  0  0  0  0  0  0  0
    3.7955   -2.3414   -0.6695 H   0  0  0  0  0  0  0  0  0  0  0  0
    4.7446   -1.8497   -1.9046 H   0  0  0  0  0  0  0  0  0  0  0  0
    4.7807   -3.4739   -1.4434 H   0  0  0  0  0  0  0  0  0  0  0  0
    3.0026   -2.7646   -2.5267 C   0  0  0  0  0  0  0  0  0  0  0  0
    1.8449   -2.1627   -2.2661 N   0  0  0  0  0  0  0  0  0  0  0  0
    1.7931   -1.6022   -1.4248 H   0  0  0  0  0  0  0  0  0  0  0  0
    1.0727   -2.2577   -2.8652 H   0  0  0  0  0  0  0  0  0  0  0  0
    3.1678   -3.4739   -3.5885 O   0  0  0  0  0  0  0  0  0  0  0  0
  1  5  1  0
  5  6  1  0
  5  9  2  0
  1  2  1  0
  1  3  1  0
  1  4  1  0
  6  7  1  0
  6  8  1  0
M  END
$$$$
