
     RDKit          3D

  7  6  0  0  0  0  0  0  0  0999 V2000
    3.4273    0.6323    2.5687 C   0  0  0  0  0  0  0  0  0  0  0  0
    3.1740    0.6851    1.6102 H   0  0  0  0  0  0  0  0  0  0  0  0
    2.8282    1.1990    3.1199 H   0  0  0  0  0  0  0  0  0  0  0  0
    3.3045   -0.4012    2.8923 H   0  0  0  0  0  0  0  0  0  0  0  0
    4.8520    1.1287    2.7257 C   0  0  0  0  0  0  0  0  0  0  0  0
    5.7286    0.7379    1.9162 O   0  0  0  0  0  1  0  0  0  0  0  0
    5.0922    1.9132    3.6663 O   0  0  0  0  0  0  0  0  0  0  0  0
  1  5  1  0
  5  6  1  0
  5  7  2  0
  1  2  1  0
  1  3  1  0
  1  4  1  0
M  CHG  1   6  -1
M  END
$$$$
