@<TRIPOS>MOLECULE

  11   10
SMALL
USER_CHARGES
@<TRIPOS>ATOM
   1 C1          -0.7295    -0.9111     3.0521 C.3          1    LIG   0.0000
   2 H2          -0.9823     0.0606     3.0126 H            1    LIG   0.0000
   3 H3           0.2596    -0.9916     2.8929 H            1    LIG   0.0000
   4 H4          -1.2133    -1.3978     2.3186 H            1    LIG   0.0000
   5 C5          -1.0891    -1.4860     4.3808 C.3          1    LIG   0.0000
   6 H6          -0.3413    -2.0254     4.7342 H            1    LIG   0.0000
   7 H7          -1.3466    -0.7259     5.1184 H            1    LIG   0.0000
   8 N8          -2.2706    -2.3377     4.2338 N.4          1    LIG   1.0000
   9 H9          -2.8393    -2.2750     5.0556 H            1    LIG   0.0000
  10 H10         -2.8069    -2.0417     3.4417 H            1    LIG   0.0000
  11 H11         -1.9898    -3.2897     4.1022 H            1    LIG   0.0000
@<TRIPOS>BOND
   1        1        5 1
   2        5        8 1
   3        1        2 1
   4        1        3 1
   5        1        4 1
   6        5        6 1
   7        5        7 1
   8        8        9 1
   9        8       10 1
  10        8       11 1

