
     RDKit          3D

 11 10  0  0  0  0  0  0  0  0999 V2000
   -0.7295   -0.9111    3.0521 C   0  0  0  0  0  0  0  0  0  0  0  0
   -0.9823    0.0606    3.0126 H   0  0  0  0  0  0  0  0  0  0  0  0
    0.2596   -0.9916    2.8929 H   0  0  0  0  0  0  0  0  0  0  0  0
   -1.2133   -1.3978    2.3186 H   0  0  0  0  0  0  0  0  0  0  0  0
   -1.0891   -1.4860    4.3808 C   0  0  0  0  0  0  0  0  0  0  0  0
   -0.3413   -2.0254    4.7342 H   0  0  0  0  0  0  0  0  0  0  0  0
   -1.3466   -0.7259    5.1184 H   0  0  0  0  0  0  0  0  0  0  0  0
   -2.2706   -2.3377    4.2338 N   0  0  0  0  0  4  0  0  0  0  0  0
   -2.8393   -2.2750    5.0556 H   0  0  0  0  0  0  0  0  0  0  0  0
   -2.8069   -2.0417    3.4417 H   0  0  0  0  0  0  0  0  0  0  0  0
   -1.9898   -3.2897    4.1022 H   0  0  0  0  0  0  0  0  0  0  0  0
  1  5  1  0
  5  8  1  0
  1  2  1  0
  1  3  1  0
  1  4  1  0
  5  6  1  0
  5  7  1  0
  8  9  1  0
  8 10  1  0
  8 11  1  0
M  CHG  1   8   1
M  END
$$$$
