
     RDKit          3D

  9  8  0  0  0  0  0  0  0  0999 V2000
   -2.5510    3.7041    1.5335 C   0  0  0  0  0  0  0  0  0  0  0  0
   -2.3443    3.0517    0.7766 H   0  0  0  0  0  0  0  0  0  0  0  0
   -2.6077    4.7144    1.1282 H   0  0  0  0  0  0  0  0  0  0  0  0
   -3.4711    3.3656    2.0097 H   0  0  0  0  0  0  0  0  0  0  0  0
   -1.4668    3.8528    2.7224 C   0  0  0  0  0  0  0  0  0  0  0  0
   -1.5951    4.7336    3.1246 H   0  0  0  0  0  0  0  0  0  0  0  0
   -1.4935    3.1843    3.5830 H   0  0  0  0  0  0  0  0  0  0  0  0
   -0.2272    3.8563    1.9509 O   0  0  0  0  0  0  0  0  0  0  0  0
   -0.2202    3.0779    1.3217 H   0  0  0  0  0  0  0  0  0  0  0  0
  1  5  1  0
  5  8  1  0
  1  2  1  0
  1  3  1  0
  1  4  1  0
  5  6  1  0
  5  7  1  0
  8  9  1  0
M  END
$$$$
