
     RDKit          3D

  9  8  0  0  0  0  0  0  0  0999 V2000
   -4.0216   -0.9139   -3.7823 C   0  0  0  0  0  0  0  0  0  0  0  0
   -4.8543   -1.3433   -3.5107 H   0  0  0  0  0  0  0  0  0  0  0  0
   -3.3011   -1.6783   -4.0732 H   0  0  0  0  0  0  0  0  0  0  0  0
   -4.2087   -0.3902   -4.7197 H   0  0  0  0  0  0  0  0  0  0  0  0
   -3.4262    0.0062   -2.7215 C   0  0  0  0  0  0  0  0  0  0  0  0
   -4.1799    0.5143   -2.2952 H   0  0  0  0  0  0  0  0  0  0  0  0
   -2.9909   -0.5708   -2.0235 H   0  0  0  0  0  0  0  0  0  0  0  0
   -2.2130    1.1848   -3.3242 S   0  0  0  0  0  0  0  0  0  0  0  0
   -2.2303    2.0100   -2.7563 H   0  0  0  0  0  0  0  0  0  0  0  0
  1  5  1  0
  5  8  1  0
  1  2  1  0
  1  3  1  0
  1  4  1  0
  5  6  1  0
  5  7  1  0
  8  9  1  0
M  END
$$$$
