@<TRIPOS>MOLECULE
MOL
    9     8     1     0     0
SMALL
bcc


@<TRIPOS>ATOM
      1 C1          -4.0220    -0.9140    -3.7820 c3         1 MOL      -0.088100
      2 H1          -4.8540    -1.3430    -3.5110 hc         1 MOL       0.048033
      3 H2          -3.3010    -1.6780    -4.0730 hc         1 MOL       0.048033
      4 H3          -4.2090    -0.3900    -4.7200 hc         1 MOL       0.048033
      5 C2          -3.4260     0.0060    -2.7210 c3         1 MOL       0.012700
      6 H4          -4.1800     0.5140    -2.2950 h1         1 MOL       0.057700
      7 H5          -2.9910    -0.5710    -2.0230 h1         1 MOL       0.057700
      8 S1          -2.2130     1.1850    -3.3240 sh         1 MOL      -0.383900
      9 H6          -2.2300     2.0100    -2.7560 hs         1 MOL       0.198800
@<TRIPOS>BOND
     1     1     5 1   
     2     5     8 1   
     3     1     2 1   
     4     1     3 1   
     5     1     4 1   
     6     5     6 1   
     7     5     7 1   
     8     8     9 1   
@<TRIPOS>SUBSTRUCTURE
     1 MOL         1 TEMP              0 ****  ****    0 ROOT
