@<TRIPOS>MOLECULE

   3    2
SMALL
USER_CHARGES
@<TRIPOS>ATOM
   1 O1           0.6345     0.6950     2.7064 O.3          1    LIG   0.0000
   2 H2           0.3566    -0.1851     3.0916 H            1    LIG   0.0000
   3 H3          -0.1089     1.1370     2.2056 H            1    LIG   0.0000
@<TRIPOS>BOND
   1        1        2 1
   2        1        3 1

