
     RDKit          3D

  3  2  0  0  0  0  0  0  0  0999 V2000
    0.6345    0.6950    2.7064 O   0  0  0  0  0  0  0  0  0  0  0  0
    0.3566   -0.1851    3.0916 H   0  0  0  0  0  0  0  0  0  0  0  0
   -0.1089    1.1370    2.2056 H   0  0  0  0  0  0  0  0  0  0  0  0
  1  2  1  0
  1  3  1  0
M  END
$$$$
