
     RDKit          3D

 15 15  0  0  0  0  0  0  0  0999 V2000
    1.3570   -1.6123    3.4515 C   0  0  0  0  0  0  0  0  0  0  0  0
    1.3383   -0.8762    2.8109 H   0  0  0  0  0  0  0  0  0  0  0  0
    1.7483   -2.4314    3.0928 H   0  0  0  0  0  0  0  0  0  0  0  0
    1.9559   -1.2991    4.3066 H   0  0  0  0  0  0  0  0  0  0  0  0
   -0.0647   -1.9127    3.8655 C   0  0  0  0  0  0  0  0  0  0  0  0
   -0.3631   -3.0878    4.5642 C   0  0  0  0  0  0  0  0  0  0  0  0
    0.3785   -3.7439    4.7367 H   0  0  0  0  0  0  0  0  0  0  0  0
   -1.6229   -3.3565    5.0111 C   0  0  0  0  0  0  0  0  0  0  0  0
   -1.8049   -4.2193    5.5123 H   0  0  0  0  0  0  0  0  0  0  0  0
   -2.6318   -2.4650    4.7801 C   0  0  0  0  0  0  0  0  0  0  0  0
   -3.5592   -2.6498    5.1103 H   0  0  0  0  0  0  0  0  0  0  0  0
   -2.3685   -1.2949    4.0828 C   0  0  0  0  0  0  0  0  0  0  0  0
   -3.1137   -0.6319    3.8969 H   0  0  0  0  0  0  0  0  0  0  0  0
   -1.0827   -1.0239    3.6323 C   0  0  0  0  0  0  0  0  0  0  0  0
   -0.9069   -0.1733    3.1365 H   0  0  0  0  0  0  0  0  0  0  0  0
  1  5  1  0
  5  6  2  0
  6  8  1  0
  8 10  2  0
 10 12  1  0
 12 14  2  0
 14  5  1  0
  1  2  1  0
  1  3  1  0
  1  4  1  0
  6  7  1  0
  8  9  1  0
 10 11  1  0
 12 13  1  0
 14 15  1  0
M  END
$$$$
