
     RDKit          3D

 13 12  0  0  0  0  0  0  0  0999 V2000
    2.5335   -5.5158    2.7503 C   0  0  0  0  0  0  0  0  0  0  0  0
    3.1727   -4.8792    3.1585 H   0  0  0  0  0  0  0  0  0  0  0  0
    3.0341   -6.3302    2.4915 H   0  0  0  0  0  0  0  0  0  0  0  0
    1.7633   -5.7753    3.4766 H   0  0  0  0  0  0  0  0  0  0  0  0
    1.9400   -4.9176    1.5743 N   0  0  0  0  0  0  0  0  0  0  0  0
    1.9909   -4.0414    1.5078 H   0  0  0  0  0  0  0  0  0  0  0  0
    1.3408   -5.5409    0.6070 C   0  0  0  0  0  0  0  0  0  0  0  0
    1.2522   -6.8648    0.6406 N   0  0  0  0  0  0  0  0  0  0  0  0
    1.5974   -7.3123    1.3144 H   0  0  0  0  0  0  0  0  0  0  0  0
    0.8470   -7.2960   -0.0119 H   0  0  0  0  0  0  0  0  0  0  0  0
    0.8082   -4.9639   -0.4253 N   0  0  0  0  0  4  0  0  0  0  0  0
    0.8388   -4.0878   -0.5047 H   0  0  0  0  0  0  0  0  0  0  0  0
    0.4160   -5.4487   -1.0469 H   0  0  0  0  0  0  0  0  0  0  0  0
  1  5  1  0
  5  7  1  0
  7  8  1  0
  7 11  2  3
  1  2  1  0
  1  3  1  0
  1  4  1  0
  5  6  1  0
  8  9  1  0
  8 10  1  0
 11 12  1  0
 11 13  1  0
M  CHG  1  11   1
M  END
$$$$
