
     RDKit          3D

 12 12  0  0  0  0  0  0  0  0999 V2000
    3.1246   -2.0145   -5.4379 C   0  0  0  0  0  0  0  0  0  0  0  0
    2.9059   -2.6091   -6.2001 H   0  0  0  0  0  0  0  0  0  0  0  0
    4.1040   -1.9633   -5.2986 H   0  0  0  0  0  0  0  0  0  0  0  0
    2.7557   -1.0139   -5.6636 H   0  0  0  0  0  0  0  0  0  0  0  0
    2.4820   -2.5524   -4.1965 C   0  0  0  0  0  0  0  0  0  0  0  0
    2.7770   -2.4386   -2.8813 C   0  0  0  0  0  0  0  0  0  0  0  0
    3.5666   -1.9572   -2.4906 H   0  0  0  0  0  0  0  0  0  0  0  0
    1.8015   -3.1012   -2.1375 N   0  0  0  0  0  0  0  0  0  0  0  0
    0.9490   -3.6165   -2.9901 C   0  0  0  0  0  0  0  0  0  0  0  0
    0.1391   -4.1636   -2.7524 H   0  0  0  0  0  0  0  0  0  0  0  0
    1.3046   -3.3098   -4.2503 N   0  0  0  0  0  0  0  0  0  0  0  0
    0.8254   -3.5704   -5.0672 H   0  0  0  0  0  0  0  0  0  0  0  0
  1  5  1  0
  5  6  2  0
  6  8  1  0
  8  9  2  0
  9 11  1  0
 11  5  1  0
  1  2  1  0
  1  3  1  0
  1  4  1  0
  6  7  1  0
  9 10  1  0
 11 12  1  0
M  END
$$$$
