@<TRIPOS>MOLECULE

  12   12
SMALL
USER_CHARGES
@<TRIPOS>ATOM
   1 C1          -4.1883    -0.8640    -1.5093 C.3          1    LIG   0.0000
   2 H2          -4.8776    -1.4945    -1.8328 H            1    LIG   0.0000
   3 H3          -3.3753    -1.3437    -1.2128 H            1    LIG   0.0000
   4 H4          -3.9245    -0.1766    -2.3130 H            1    LIG   0.0000
   5 C5          -4.7543    -0.1071    -0.3218 C.2          1    LIG   0.0000
   6 C6          -6.0346     0.1008     0.0486 C.2          1    LIG   0.0000
   7 H7          -6.8475    -0.2623    -0.3928 H            1    LIG   0.0000
   8 N8          -5.9900     0.9053     1.1474 N.pl3        1    LIG   0.0000
   9 H9          -6.7822     1.2229     1.6793 H            1    LIG   0.0000
  10 C10         -4.7210     1.2196     1.4232 C.2          1    LIG   0.0000
  11 H11         -4.4148     1.7867     2.1722 H            1    LIG   0.0000
  12 N12         -3.9495     0.6323     0.5144 N.2          1    LIG   0.0000
@<TRIPOS>BOND
   1        1        5 1
   2        5        6 2
   3        6        8 1
   4        8       10 1
   5       10       12 2
   6       12        5 1
   7        1        2 1
   8        1        3 1
   9        1        4 1
  10        6        7 1
  11        8        9 1
  12       10       11 1

