
     RDKit          3D

 12 12  0  0  0  0  0  0  0  0999 V2000
   -4.1883   -0.8640   -1.5093 C   0  0  0  0  0  0  0  0  0  0  0  0
   -4.8776   -1.4945   -1.8328 H   0  0  0  0  0  0  0  0  0  0  0  0
   -3.3753   -1.3437   -1.2128 H   0  0  0  0  0  0  0  0  0  0  0  0
   -3.9245   -0.1766   -2.3130 H   0  0  0  0  0  0  0  0  0  0  0  0
   -4.7543   -0.1071   -0.3218 C   0  0  0  0  0  0  0  0  0  0  0  0
   -6.0346    0.1008    0.0486 C   0  0  0  0  0  0  0  0  0  0  0  0
   -6.8475   -0.2623   -0.3928 H   0  0  0  0  0  0  0  0  0  0  0  0
   -5.9900    0.9053    1.1474 N   0  0  0  0  0  0  0  0  0  0  0  0
   -6.7822    1.2229    1.6793 H   0  0  0  0  0  0  0  0  0  0  0  0
   -4.7210    1.2196    1.4232 C   0  0  0  0  0  0  0  0  0  0  0  0
   -4.4148    1.7867    2.1722 H   0  0  0  0  0  0  0  0  0  0  0  0
   -3.9495    0.6323    0.5144 N   0  0  0  0  0  0  0  0  0  0  0  0
  1  5  1  0
  5  6  2  0
  6  8  1  0
  8 10  1  0
 10 12  2  0
 12  5  1  0
  1  2  1  0
  1  3  1  0
  1  4  1  0
  6  7  1  0
  8  9  1  0
 10 11  1  0
M  END
$$$$
