
     RDKit          3D

 13 13  0  0  0  0  0  0  0  0999 V2000
    5.5523   -1.0789   -4.5747 C   0  0  0  0  0  0  0  0  0  0  0  0
    5.7285   -1.7883   -5.2679 H   0  0  0  0  0  0  0  0  0  0  0  0
    6.3953   -0.9456   -4.0393 H   0  0  0  0  0  0  0  0  0  0  0  0
    5.3074   -0.1454   -5.0815 H   0  0  0  0  0  0  0  0  0  0  0  0
    4.4836   -1.5733   -3.6544 C   0  0  0  0  0  0  0  0  0  0  0  0
    4.3498   -1.4301   -2.3159 C   0  0  0  0  0  0  0  0  0  0  0  0
    4.9880   -0.9638   -1.7035 H   0  0  0  0  0  0  0  0  0  0  0  0
    3.1764   -2.0402   -1.9480 N   0  0  0  0  0  4  0  0  0  0  0  0
    2.8149   -2.0984   -1.0176 H   0  0  0  0  0  0  0  0  0  0  0  0
    2.6051   -2.5392   -3.0291 C   0  0  0  0  0  0  0  0  0  0  0  0
    1.7372   -3.0291   -3.0562 H   0  0  0  0  0  0  0  0  0  0  0  0
    3.3772   -2.2800   -4.0766 N   0  0  0  0  0  0  0  0  0  0  0  0
    3.1887   -2.5529   -5.0162 H   0  0  0  0  0  0  0  0  0  0  0  0
  1  5  1  0
  5  6  2  0
  6  8  1  0
  8 10  2  0
 10 12  1  0
 12  5  1  0
  1  2  1  0
  1  3  1  0
  1  4  1  0
  6  7  1  0
  8  9  1  0
 10 11  1  0
 12 13  1  0
M  CHG  1   8   1
M  END
$$$$
