
     RDKit          3D

 19 20  0  0  0  0  0  0  0  0999 V2000
    2.0736    3.0585    3.5387 C   0  0  0  0  0  0  0  0  0  0  0  0
    1.2197    3.4864    3.7082 H   0  0  0  0  0  0  0  0  0  0  0  0
    2.0120    2.5952    2.6889 H   0  0  0  0  0  0  0  0  0  0  0  0
    2.8493    3.8216    3.4755 H   0  0  0  0  0  0  0  0  0  0  0  0
    2.3484    2.0688    4.6174 C   0  0  0  0  0  0  0  0  0  0  0  0
    2.9440    2.2399    5.8178 C   0  0  0  0  0  0  0  0  0  0  0  0
    3.2728    3.0530    6.1252 H   0  0  0  0  0  0  0  0  0  0  0  0
    3.0064    1.0679    6.5282 N   0  0  0  0  0  0  0  0  0  0  0  0
    3.3514    0.9652    7.3087 H   0  0  0  0  0  0  0  0  0  0  0  0
    2.4164    0.0861    5.7642 C   0  0  0  0  0  0  0  0  0  0  0  0
    2.2305   -1.2765    6.0305 C   0  0  0  0  0  0  0  0  0  0  0  0
    2.5141   -1.6525    6.8329 H   0  0  0  0  0  0  0  0  0  0  0  0
    1.6147   -2.0349    5.0701 C   0  0  0  0  0  0  0  0  0  0  0  0
    1.4814   -2.9427    5.2200 H   0  0  0  0  0  0  0  0  0  0  0  0
    1.1865   -1.4702    3.8758 C   0  0  0  0  0  0  0  0  0  0  0  0
    0.7734   -2.0114    3.2423 H   0  0  0  0  0  0  0  0  0  0  0  0
    1.3584   -0.1267    3.6010 C   0  0  0  0  0  0  0  0  0  0  0  0
    1.0657    0.2411    2.7990 H   0  0  0  0  0  0  0  0  0  0  0  0
    1.9865    0.6610    4.5723 C   0  0  0  0  0  0  0  0  0  0  0  0
  1  5  1  0
  5  6  2  0
  6  8  1  0
  8 10  1  0
 10 11  2  0
 11 13  1  0
 13 15  2  0
 15 17  1  0
 17 19  2  0
 19  5  1  0
 19 10  1  0
  1  2  1  0
  1  3  1  0
  1  4  1  0
  6  7  1  0
  8  9  1  0
 11 12  1  0
 13 14  1  0
 15 16  1  0
 17 18  1  0
M  END
$$$$
