@<TRIPOS>MOLECULE

  16   16
SMALL
USER_CHARGES
@<TRIPOS>ATOM
   1 C1          -0.4751     0.7437    -4.9190 C.3          1    LIG   0.0000
   2 H2          -0.5297     0.3448    -4.0373 H            1    LIG   0.0000
   3 H3           0.3082     0.3846    -5.3646 H            1    LIG   0.0000
   4 H4          -1.3671     0.4867    -5.4903 H            1    LIG   0.0000
   5 C5          -0.3385     2.2320    -4.7888 C.ar         1    LIG   0.0000
   6 C6           0.0042     3.0673    -5.8010 C.ar         1    LIG   0.0000
   7 H7           0.1949     2.7223    -6.6436 H            1    LIG   0.0000
   8 C8           0.0726     4.4567    -5.5784 C.ar         1    LIG   0.0000
   9 H9           0.3304     5.0268    -6.2666 H            1    LIG   0.0000
  10 C10         -0.2436     4.9678    -4.3424 C.ar         1    LIG   0.0000
  11 O11         -0.2911     6.3365    -4.1431 O.3          1    LIG   0.0000
  12 H12         -0.6958     6.7666    -4.9466 H            1    LIG   0.0000
  13 C13         -0.6685     4.1579    -3.3242 C.ar         1    LIG   0.0000
  14 H14         -0.9273     4.5079    -2.5022 H            1    LIG   0.0000
  15 C15         -0.6953     2.8122    -3.5671 C.ar         1    LIG   0.0000
  16 H16         -0.9665     2.2493    -2.8781 H            1    LIG   0.0000
@<TRIPOS>BOND
   1        1        5 1
   2        5        6 ar
   3        6        8 ar
   4        8       10 ar
   5       10       11 1
   6       10       13 ar
   7       13       15 ar
   8       15        5 ar
   9        1        2 1
  10        1        3 1
  11        1        4 1
  12        6        7 1
  13        8        9 1
  14       11       12 1
  15       13       14 1
  16       15       16 1

