
     RDKit          3D

 16 16  0  0  0  0  0  0  0  0999 V2000
   -0.4751    0.7437   -4.9190 C   0  0  0  0  0  0  0  0  0  0  0  0
   -0.5297    0.3448   -4.0373 H   0  0  0  0  0  0  0  0  0  0  0  0
    0.3082    0.3846   -5.3646 H   0  0  0  0  0  0  0  0  0  0  0  0
   -1.3671    0.4867   -5.4903 H   0  0  0  0  0  0  0  0  0  0  0  0
   -0.3385    2.2320   -4.7888 C   0  0  0  0  0  0  0  0  0  0  0  0
    0.0042    3.0673   -5.8010 C   0  0  0  0  0  0  0  0  0  0  0  0
    0.1949    2.7223   -6.6436 H   0  0  0  0  0  0  0  0  0  0  0  0
    0.0726    4.4567   -5.5784 C   0  0  0  0  0  0  0  0  0  0  0  0
    0.3304    5.0268   -6.2666 H   0  0  0  0  0  0  0  0  0  0  0  0
   -0.2436    4.9678   -4.3424 C   0  0  0  0  0  0  0  0  0  0  0  0
   -0.2911    6.3365   -4.1431 O   0  0  0  0  0  0  0  0  0  0  0  0
   -0.6958    6.7666   -4.9466 H   0  0  0  0  0  0  0  0  0  0  0  0
   -0.6685    4.1579   -3.3242 C   0  0  0  0  0  0  0  0  0  0  0  0
   -0.9273    4.5079   -2.5022 H   0  0  0  0  0  0  0  0  0  0  0  0
   -0.6953    2.8122   -3.5671 C   0  0  0  0  0  0  0  0  0  0  0  0
   -0.9665    2.2493   -2.8781 H   0  0  0  0  0  0  0  0  0  0  0  0
  1  5  1  0
  5  6  2  0
  6  8  1  0
  8 10  2  0
 10 11  1  0
 10 13  1  0
 13 15  2  0
 15  5  1  0
  1  2  1  0
  1  3  1  0
  1  4  1  0
  6  7  1  0
  8  9  1  0
 11 12  1  0
 13 14  1  0
 15 16  1  0
M  END
$$$$
