@<TRIPOS>MOLECULE

   9    8
SMALL
USER_CHARGES
@<TRIPOS>ATOM
   1 C1           4.6991    -3.5712     1.9788 C.3          1    LIG   0.0000
   2 H2           5.1796    -2.7707     1.4734 H            1    LIG   0.0000
   3 H3           5.4813    -4.2891     1.9902 H            1    LIG   0.0000
   4 H4           4.5580    -3.2474     3.0100 H            1    LIG   0.0000
   5 S5           3.3087    -4.1565     1.0728 S.3          1    LIG   0.0000
   6 C6           2.4608    -2.6352     0.7783 C.3          1    LIG   0.0000
   7 H7           2.8906    -2.1382     0.0171 H            1    LIG   0.0000
   8 H8           1.4987    -2.8124     0.5446 H            1    LIG   0.0000
   9 H9           2.4909    -2.0556     1.5988 H            1    LIG   0.0000
@<TRIPOS>BOND
   1        1        5 1
   2        5        6 1
   3        1        2 1
   4        1        3 1
   5        1        4 1
   6        6        7 1
   7        6        8 1
   8        6        9 1

