
     RDKit          3D

  9  8  0  0  0  0  0  0  0  0999 V2000
    4.6991   -3.5712    1.9788 C   0  0  0  0  0  0  0  0  0  0  0  0
    5.1796   -2.7707    1.4734 H   0  0  0  0  0  0  0  0  0  0  0  0
    5.4813   -4.2891    1.9902 H   0  0  0  0  0  0  0  0  0  0  0  0
    4.5580   -3.2474    3.0100 H   0  0  0  0  0  0  0  0  0  0  0  0
    3.3087   -4.1565    1.0728 S   0  0  0  0  0  0  0  0  0  0  0  0
    2.4608   -2.6352    0.7783 C   0  0  0  0  0  0  0  0  0  0  0  0
    2.8906   -2.1382    0.0171 H   0  0  0  0  0  0  0  0  0  0  0  0
    1.4987   -2.8124    0.5446 H   0  0  0  0  0  0  0  0  0  0  0  0
    2.4909   -2.0556    1.5988 H   0  0  0  0  0  0  0  0  0  0  0  0
  1  5  1  0
  5  6  1  0
  1  2  1  0
  1  3  1  0
  1  4  1  0
  6  7  1  0
  6  8  1  0
  6  9  1  0
M  END
$$$$
