
     RDKit          3D

 19 19  0  0  0  0  0  0  0  0999 V2000
   -1.1303    6.5635   -0.6069 C   0  0  0  0  0  0  0  0  0  0  0  0
   -1.2905    6.6759    0.3767 H   0  0  0  0  0  0  0  0  0  0  0  0
   -0.0648    6.4399   -0.8013 H   0  0  0  0  0  0  0  0  0  0  0  0
   -1.5371    7.4006   -1.1743 H   0  0  0  0  0  0  0  0  0  0  0  0
   -1.8607    5.3039   -1.0624 C   0  0  0  0  0  0  0  0  0  0  0  0
   -1.4175    4.5770   -1.9549 O   0  0  0  0  0  0  0  0  0  0  0  0
   -3.0031    5.0084   -0.4589 N   0  0  0  0  0  0  0  0  0  0  0  0
   -3.8690    3.9127   -0.9798 C   0  0  0  0  0  0  0  0  0  0  0  0
   -3.3893    3.0244   -0.8900 H   0  0  0  0  0  0  0  0  0  0  0  0
   -4.1962    4.0799   -2.0061 H   0  0  0  0  0  0  0  0  0  0  0  0
   -5.0241    3.9020    0.0182 C   0  0  0  0  0  0  0  0  0  0  0  0
   -5.8263    4.3921   -0.3542 H   0  0  0  0  0  0  0  0  0  0  0  0
   -5.3105    2.9563    0.2281 H   0  0  0  0  0  0  0  0  0  0  0  0
   -4.5276    4.5886    1.2701 C   0  0  0  0  0  0  0  0  0  0  0  0
   -5.2846    5.0146    1.7567 H   0  0  0  0  0  0  0  0  0  0  0  0
   -4.0609    3.9383    1.8614 H   0  0  0  0  0  0  0  0  0  0  0  0
   -3.5577    5.6399    0.7523 C   0  0  0  0  0  0  0  0  0  0  0  0
   -4.0334    6.4848    0.5251 H   0  0  0  0  0  0  0  0  0  0  0  0
   -2.8376    5.8230    1.4178 H   0  0  0  0  0  0  0  0  0  0  0  0
  1  5  1  0
  5  6  2  0
  5  7  1  0
  7  8  1  0
  8 11  1  0
 11 14  1  0
 14 17  1  0
 17  7  1  0
  1  2  1  0
  1  3  1  0
  1  4  1  0
  8  9  1  0
  8 10  1  0
 11 12  1  0
 11 13  1  0
 14 15  1  0
 14 16  1  0
 17 18  1  0
 17 19  1  0
M  END
$$$$
