
     RDKit          3D

 12 11  0  0  0  0  0  0  0  0999 V2000
   -4.0470    3.5078    1.0060 C   0  0  0  0  0  0  0  0  0  0  0  0
   -3.1451    3.0838    0.9567 H   0  0  0  0  0  0  0  0  0  0  0  0
   -4.2101    3.8495    2.0281 H   0  0  0  0  0  0  0  0  0  0  0  0
   -4.0880    4.3434    0.3073 H   0  0  0  0  0  0  0  0  0  0  0  0
   -5.0629    2.4917    0.6495 N   0  0  0  0  0  0  0  0  0  0  0  0
   -6.0669    2.6884    0.5912 H   0  0  0  0  0  0  0  0  0  0  0  0
   -4.6978    1.2377    0.3815 C   0  0  0  0  0  0  0  0  0  0  0  0
   -3.5097    0.8381    0.3711 O   0  0  0  0  0  0  0  0  0  0  0  0
   -5.7928    0.2745    0.1323 C   0  0  0  0  0  0  0  0  0  0  0  0
   -6.6443    0.7589   -0.0863 H   0  0  0  0  0  0  0  0  0  0  0  0
   -5.5108   -0.3629   -0.7057 H   0  0  0  0  0  0  0  0  0  0  0  0
   -5.9308   -0.3588    1.0086 H   0  0  0  0  0  0  0  0  0  0  0  0
  1  5  1  0
  5  7  1  0
  7  8  2  0
  7  9  1  0
  1  2  1  0
  1  3  1  0
  1  4  1  0
  5  6  1  0
  9 10  1  0
  9 11  1  0
  9 12  1  0
M  END
$$$$
