
     RDKit          3D

 11 10  0  0  0  0  0  0  0  0999 V2000
   -5.2124    1.4190    2.4346 C   0  0  0  0  0  0  0  0  0  0  0  0
   -5.7077    2.1737    2.8467 H   0  0  0  0  0  0  0  0  0  0  0  0
   -5.6263    0.5518    2.6846 H   0  0  0  0  0  0  0  0  0  0  0  0
   -5.2598    1.5247    1.3508 H   0  0  0  0  0  0  0  0  0  0  0  0
   -3.7806    1.4378    2.9731 C   0  0  0  0  0  0  0  0  0  0  0  0
   -3.2144    0.8226    2.4170 H   0  0  0  0  0  0  0  0  0  0  0  0
   -3.4158    2.3693    2.9000 H   0  0  0  0  0  0  0  0  0  0  0  0
   -3.6862    0.9911    4.4416 C   0  0  0  0  0  0  0  0  0  0  0  0
   -4.1813    1.6473    5.0007 H   0  0  0  0  0  0  0  0  0  0  0  0
   -4.0945    0.0886    4.5224 H   0  0  0  0  0  0  0  0  0  0  0  0
   -2.6521    0.9440    4.7830 H   0  0  0  0  0  0  0  0  0  0  0  0
  1  5  1  0
  5  8  1  0
  1  2  1  0
  1  3  1  0
  1  4  1  0
  5  6  1  0
  5  7  1  0
  8  9  1  0
  8 10  1  0
  8 11  1  0
M  END
$$$$
