ETAM-pdb1nb2-A-LYS-37:MBZ-pdb1nb2-A-PHE-132
     RDKit          3D

 26 25  0  0  0  0  0  0  0  0999 V2000
    3.0315   -1.2700    3.4692 C   0  0  0  0  0  0  0  0  0  0  0  0
    3.9921   -1.1682    3.7090 H   0  0  0  0  0  0  0  0  0  0  0  0
    2.9262   -1.9536    2.7543 H   0  0  0  0  0  0  0  0  0  0  0  0
    2.4857   -1.6014    4.3525 H   0  0  0  0  0  0  0  0  0  0  0  0
    2.5072    0.0457    2.9719 C   0  0  0  0  0  0  0  0  0  0  0  0
    2.7594    0.7690    3.6187 H   0  0  0  0  0  0  0  0  0  0  0  0
    2.9163    0.2500    2.0791 H   0  0  0  0  0  0  0  0  0  0  0  0
    1.0361    0.0084    2.8342 N   0  0  0  0  0  4  0  0  0  0  0  0
    0.6100    0.3071    3.6901 H   0  0  0  0  0  0  0  0  0  0  0  0
    0.7522    0.6181    2.0921 H   0  0  0  0  0  0  0  0  0  0  0  0
    0.7413   -0.9259    2.6261 H   0  0  0  0  0  0  0  0  0  0  0  0
    0.0071    2.8965    0.0491 C   0  0  0  0  0  0  0  0  0  0  0  0
   -0.6146    3.2306   -0.6428 H   0  0  0  0  0  0  0  0  0  0  0  0
    0.9314    3.2054   -0.1175 H   0  0  0  0  0  0  0  0  0  0  0  0
   -0.3117    3.3079    1.0069 H   0  0  0  0  0  0  0  0  0  0  0  0
   -0.0009    1.3985    0.0010 C   0  0  0  0  0  0  0  0  0  0  0  0
   -1.1956    0.6930   -0.0021 C   0  0  0  0  0  0  0  0  0  0  0  0
   -2.0616    1.1841   -0.0072 H   0  0  0  0  0  0  0  0  0  0  0  0
   -1.1980   -0.6915   -0.0000 C   0  0  0  0  0  0  0  0  0  0  0  0
   -2.0747   -1.1887    0.0015 H   0  0  0  0  0  0  0  0  0  0  0  0
    0.0031   -1.3887    0.0024 C   0  0  0  0  0  0  0  0  0  0  0  0
   -0.0071   -2.3900    0.0062 H   0  0  0  0  0  0  0  0  0  0  0  0
    1.1980   -0.7003    0.0000 C   0  0  0  0  0  0  0  0  0  0  0  0
    2.0813   -1.1968    0.0001 H   0  0  0  0  0  0  0  0  0  0  0  0
    1.1935    0.6890   -0.0013 C   0  0  0  0  0  0  0  0  0  0  0  0
    2.0627    1.1856   -0.0052 H   0  0  0  0  0  0  0  0  0  0  0  0
  1  5  1  0
  5  8  1  0
  1  2  1  0
  1  3  1  0
  1  4  1  0
  5  6  1  0
  5  7  1  0
  8  9  1  0
  8 10  1  0
  8 11  1  0
 12 16  1  0
 16 17  2  0
 17 19  1  0
 19 21  2  0
 21 23  1  0
 23 25  2  0
 25 16  1  0
 12 13  1  0
 12 14  1  0
 12 15  1  0
 17 18  1  0
 19 20  1  0
 21 22  1  0
 23 24  1  0
 25 26  1  0
M  CHG  1   8   1
M  END
>  <PDB_ID>  (11) 
pdb1nb2

>  <RESIDUE_NAME>  (11) 
LYS   PHE

>  <FRAG_NAME>  (11) 
ETAM   MBZ

>  <FRAG_ATOM_NUM>  (11) 
fragi: 11  fragj: 15

>  <atom.prop.CHAIN_ID>  (11) 
A A A A A A A A A A A Z Z Z Z Z Z Z Z Z Z Z Z Z Z Z

>  <atom.prop.IS_HEAVY_ATOM>  (11) 
1 0 0 0 1 0 0 1 0 0 0 1 0 0 0 1 1 0 1 0 1 0 1 0 1 0

>  <DIFUSE_FUNC_ATOM>  (11) 
n/a

>  <FINAL_SINGLE_POINT_ENERGY>  (11) 
0

>  <NONCOV_INTER_ENERGY_QM>  (11) 
0

>  <FF_Energy>  (11) 
-5.68

>  <QM_Energy>  (11) 
-15.88

>  <source>  (11) 
ETAM_MBZ

>  <Index>  (11) 
8903