ETAM-pdb1a49-F-LYS-3740:MBZ-pdb1a49-F-PHE-3791
     RDKit          3D

 26 25  0  0  0  0  0  0  0  0999 V2000
    1.6447    1.7724    3.9693 C   0  0  0  0  0  0  0  0  0  0  0  0
    2.1913    1.1093    4.4845 H   0  0  0  0  0  0  0  0  0  0  0  0
    1.0768    2.2980    4.6049 H   0  0  0  0  0  0  0  0  0  0  0  0
    2.3204    2.4573    3.4567 H   0  0  0  0  0  0  0  0  0  0  0  0
    0.7194    1.0012    3.0232 C   0  0  0  0  0  0  0  0  0  0  0  0
    0.8742    1.3378    2.0819 H   0  0  0  0  0  0  0  0  0  0  0  0
    0.9827    0.0248    3.0466 H   0  0  0  0  0  0  0  0  0  0  0  0
   -0.7186    1.1296    3.3588 N   0  0  0  0  0  4  0  0  0  0  0  0
   -1.2374    0.4168    2.8853 H   0  0  0  0  0  0  0  0  0  0  0  0
   -0.8424    1.0295    4.3465 H   0  0  0  0  0  0  0  0  0  0  0  0
   -1.0496    2.0291    3.0718 H   0  0  0  0  0  0  0  0  0  0  0  0
    0.0312    2.8988   -0.0500 C   0  0  0  0  0  0  0  0  0  0  0  0
    0.8676    3.2054    0.3308 H   0  0  0  0  0  0  0  0  0  0  0  0
   -0.7646    3.2389    0.3854 H   0  0  0  0  0  0  0  0  0  0  0  0
    0.0022    3.1968   -1.0980 H   0  0  0  0  0  0  0  0  0  0  0  0
    0.0028    1.4055    0.0144 C   0  0  0  0  0  0  0  0  0  0  0  0
   -1.1976    0.7013   -0.0188 C   0  0  0  0  0  0  0  0  0  0  0  0
   -2.0610    1.1938   -0.0580 H   0  0  0  0  0  0  0  0  0  0  0  0
   -1.2077   -0.6928    0.0000 C   0  0  0  0  0  0  0  0  0  0  0  0
   -2.0819   -1.1841    0.0079 H   0  0  0  0  0  0  0  0  0  0  0  0
   -0.0002   -1.3947    0.0090 C   0  0  0  0  0  0  0  0  0  0  0  0
   -0.0111   -2.3941    0.0220 H   0  0  0  0  0  0  0  0  0  0  0  0
    1.2077   -0.7063    0.0000 C   0  0  0  0  0  0  0  0  0  0  0  0
    2.0831   -1.2014   -0.0022 H   0  0  0  0  0  0  0  0  0  0  0  0
    1.1951    0.6870   -0.0046 C   0  0  0  0  0  0  0  0  0  0  0  0
    2.0681    1.1841   -0.0235 H   0  0  0  0  0  0  0  0  0  0  0  0
  1  5  1  0
  5  8  1  0
  1  2  1  0
  1  3  1  0
  1  4  1  0
  5  6  1  0
  5  7  1  0
  8  9  1  0
  8 10  1  0
  8 11  1  0
 12 16  1  0
 16 17  2  0
 17 19  1  0
 19 21  2  0
 21 23  1  0
 23 25  2  0
 25 16  1  0
 12 13  1  0
 12 14  1  0
 12 15  1  0
 17 18  1  0
 19 20  1  0
 21 22  1  0
 23 24  1  0
 25 26  1  0
M  CHG  1   8   1
M  END
>  <PDB_ID>  (1) 
pdb1a49

>  <RESIDUE_NAME>  (1) 
LYS   PHE

>  <FRAG_NAME>  (1) 
ETAM   MBZ

>  <FRAG_ATOM_NUM>  (1) 
fragi: 11  fragj: 15

>  <atom.prop.CHAIN_ID>  (1) 
A A A A A A A A A A A Z Z Z Z Z Z Z Z Z Z Z Z Z Z Z

>  <atom.prop.IS_HEAVY_ATOM>  (1) 
1 0 0 0 1 0 0 1 0 0 0 1 0 0 0 1 1 0 1 0 1 0 1 0 1 0

>  <DIFUSE_FUNC_ATOM>  (1) 
n/a

>  <FINAL_SINGLE_POINT_ENERGY>  (1) 
0

>  <NONCOV_INTER_ENERGY_QM>  (1) 
0

>  <FF_Energy>  (1) 
3.42

>  <QM_Energy>  (1) 
-8.93

>  <source>  (1) 
ETAM_MBZ

>  <Index>  (1) 
174

$$$$
ETAM-pdb2a9v-D-LYS-195:MBZ-pdb2a9v-D-PHE-198
     RDKit          3D

 26 25  0  0  0  0  0  0  0  0999 V2000
    3.2246   -4.0728   -0.2680 C   0  0  0  0  0  0  0  0  0  0  0  0
    3.7720   -4.6164   -0.8840 H   0  0  0  0  0  0  0  0  0  0  0  0
    3.1742   -4.4800    0.6303 H   0  0  0  0  0  0  0  0  0  0  0  0
    3.6692   -3.0812   -0.1824 H   0  0  0  0  0  0  0  0  0  0  0  0
    1.7823   -3.9932   -0.8446 C   0  0  0  0  0  0  0  0  0  0  0  0
    1.4648   -3.0382   -0.7758 H   0  0  0  0  0  0  0  0  0  0  0  0
    1.8162   -4.2410   -1.8219 H   0  0  0  0  0  0  0  0  0  0  0  0
    0.7654   -4.8929   -0.1521 N   0  0  0  0  0  4  0  0  0  0  0  0
   -0.1027   -4.8108   -0.6293 H   0  0  0  0  0  0  0  0  0  0  0  0
    1.0973   -5.8292   -0.1902 H   0  0  0  0  0  0  0  0  0  0  0  0
    0.6740   -4.5942    0.7916 H   0  0  0  0  0  0  0  0  0  0  0  0
   -0.0087    2.8935   -0.0244 C   0  0  0  0  0  0  0  0  0  0  0  0
   -0.8217    3.1925   -0.5225 H   0  0  0  0  0  0  0  0  0  0  0  0
    0.8107    3.2047   -0.5053 H   0  0  0  0  0  0  0  0  0  0  0  0
   -0.0224    3.3884    0.9467 H   0  0  0  0  0  0  0  0  0  0  0  0
    0.0017    1.3995   -0.0066 C   0  0  0  0  0  0  0  0  0  0  0  0
   -1.1988    0.6919   -0.0083 C   0  0  0  0  0  0  0  0  0  0  0  0
   -2.0642    1.1932   -0.0168 H   0  0  0  0  0  0  0  0  0  0  0  0
   -1.2189   -0.6930    0.0000 C   0  0  0  0  0  0  0  0  0  0  0  0
   -2.0879   -1.1864   -0.0109 H   0  0  0  0  0  0  0  0  0  0  0  0
   -0.0061   -1.3905    0.0246 C   0  0  0  0  0  0  0  0  0  0  0  0
   -0.0117   -2.3896    0.0612 H   0  0  0  0  0  0  0  0  0  0  0  0
    1.2189   -0.7007   -0.0000 C   0  0  0  0  0  0  0  0  0  0  0  0
    2.0855   -1.2003   -0.0093 H   0  0  0  0  0  0  0  0  0  0  0  0
    1.2032    0.6927   -0.0097 C   0  0  0  0  0  0  0  0  0  0  0  0
    2.0692    1.1947   -0.0188 H   0  0  0  0  0  0  0  0  0  0  0  0
  1  5  1  0
  5  8  1  0
  1  2  1  0
  1  3  1  0
  1  4  1  0
  5  6  1  0
  5  7  1  0
  8  9  1  0
  8 10  1  0
  8 11  1  0
 12 16  1  0
 16 17  2  0
 17 19  1  0
 19 21  2  0
 21 23  1  0
 23 25  2  0
 25 16  1  0
 12 13  1  0
 12 14  1  0
 12 15  1  0
 17 18  1  0
 19 20  1  0
 21 22  1  0
 23 24  1  0
 25 26  1  0
M  CHG  1   8   1
M  END
>  <PDB_ID>  (2) 
pdb2a9v

>  <RESIDUE_NAME>  (2) 
LYS   PHE

>  <FRAG_NAME>  (2) 
ETAM   MBZ

>  <FRAG_ATOM_NUM>  (2) 
fragi: 11  fragj: 15

>  <atom.prop.CHAIN_ID>  (2) 
A A A A A A A A A A A Z Z Z Z Z Z Z Z Z Z Z Z Z Z Z

>  <atom.prop.IS_HEAVY_ATOM>  (2) 
1 0 0 0 1 0 0 1 0 0 0 1 0 0 0 1 1 0 1 0 1 0 1 0 1 0

>  <DIFUSE_FUNC_ATOM>  (2) 
n/a

>  <FINAL_SINGLE_POINT_ENERGY>  (2) 
0

>  <NONCOV_INTER_ENERGY_QM>  (2) 
0

>  <FF_Energy>  (2) 
9.2

>  <QM_Energy>  (2) 
-1.77

>  <source>  (2) 
ETAM_MBZ

>  <Index>  (2) 
234

$$$$
ETAM-pdb2b0c-A-LYS-7:MBZ-pdb2b0c-A-PHE-163
     RDKit          3D

 26 25  0  0  0  0  0  0  0  0999 V2000
   -1.1399   -4.7894   -2.1588 C   0  0  0  0  0  0  0  0  0  0  0  0
   -1.3143   -5.7188   -2.4639 H   0  0  0  0  0  0  0  0  0  0  0  0
   -0.6637   -4.2756   -2.8637 H   0  0  0  0  0  0  0  0  0  0  0  0
   -2.0962   -4.3049   -1.9619 H   0  0  0  0  0  0  0  0  0  0  0  0
   -0.2404   -4.8484   -0.9080 C   0  0  0  0  0  0  0  0  0  0  0  0
   -0.1030   -3.9121   -0.5697 H   0  0  0  0  0  0  0  0  0  0  0  0
   -0.7138   -5.3803   -0.1986 H   0  0  0  0  0  0  0  0  0  0  0  0
    1.0995   -5.4741   -1.1776 N   0  0  0  0  0  4  0  0  0  0  0  0
    1.7393   -5.1877   -0.4688 H   0  0  0  0  0  0  0  0  0  0  0  0
    1.0015   -6.4669   -1.1676 H   0  0  0  0  0  0  0  0  0  0  0  0
    1.4238   -5.1728   -2.0714 H   0  0  0  0  0  0  0  0  0  0  0  0
   -0.0043    2.9110    0.0054 C   0  0  0  0  0  0  0  0  0  0  0  0
    0.6923    3.2157    0.6388 H   0  0  0  0  0  0  0  0  0  0  0  0
   -0.9034    3.2151    0.2894 H   0  0  0  0  0  0  0  0  0  0  0  0
    0.2072    3.3653   -0.9626 H   0  0  0  0  0  0  0  0  0  0  0  0
   -0.0012    1.4075   -0.0034 C   0  0  0  0  0  0  0  0  0  0  0  0
   -1.1975    0.7028    0.0014 C   0  0  0  0  0  0  0  0  0  0  0  0
   -2.0644    1.1897    0.0045 H   0  0  0  0  0  0  0  0  0  0  0  0
   -1.2069   -0.6987   -0.0000 C   0  0  0  0  0  0  0  0  0  0  0  0
   -2.0824   -1.1872    0.0025 H   0  0  0  0  0  0  0  0  0  0  0  0
    0.0004   -1.4027   -0.0024 C   0  0  0  0  0  0  0  0  0  0  0  0
   -0.0074   -2.3984   -0.0062 H   0  0  0  0  0  0  0  0  0  0  0  0
    1.2069   -0.7049   -0.0000 C   0  0  0  0  0  0  0  0  0  0  0  0
    2.0858   -1.1980    0.0004 H   0  0  0  0  0  0  0  0  0  0  0  0
    1.1983    0.6960    0.0044 C   0  0  0  0  0  0  0  0  0  0  0  0
    2.0669    1.1905    0.0122 H   0  0  0  0  0  0  0  0  0  0  0  0
  1  5  1  0
  5  8  1  0
  1  2  1  0
  1  3  1  0
  1  4  1  0
  5  6  1  0
  5  7  1  0
  8  9  1  0
  8 10  1  0
  8 11  1  0
 12 16  1  0
 16 17  2  0
 17 19  1  0
 19 21  2  0
 21 23  1  0
 23 25  2  0
 25 16  1  0
 12 13  1  0
 12 14  1  0
 12 15  1  0
 17 18  1  0
 19 20  1  0
 21 22  1  0
 23 24  1  0
 25 26  1  0
M  CHG  1   8   1
M  END
>  <PDB_ID>  (3) 
pdb2b0c

>  <RESIDUE_NAME>  (3) 
LYS   PHE

>  <FRAG_NAME>  (3) 
ETAM   MBZ

>  <FRAG_ATOM_NUM>  (3) 
fragi: 11  fragj: 15

>  <atom.prop.CHAIN_ID>  (3) 
A A A A A A A A A A A Z Z Z Z Z Z Z Z Z Z Z Z Z Z Z

>  <atom.prop.IS_HEAVY_ATOM>  (3) 
1 0 0 0 1 0 0 1 0 0 0 1 0 0 0 1 1 0 1 0 1 0 1 0 1 0

>  <DIFUSE_FUNC_ATOM>  (3) 
n/a

>  <FINAL_SINGLE_POINT_ENERGY>  (3) 
0

>  <NONCOV_INTER_ENERGY_QM>  (3) 
0

>  <FF_Energy>  (3) 
14.8

>  <QM_Energy>  (3) 
-0.22

>  <source>  (3) 
ETAM_MBZ

>  <Index>  (3) 
624

$$$$
ETAM-pdb1aqd-D-GLU-3:MBZ-pdb1aqd-E-PHE-18
     RDKit          3D

 26 25  0  0  0  0  0  0  0  0999 V2000
    2.3623   -1.3733    2.7471 C   0  0  0  0  0  0  0  0  0  0  0  0
    1.7238   -1.4945    1.9813 H   0  0  0  0  0  0  0  0  0  0  0  0
    3.1791   -1.9318    2.5808 H   0  0  0  0  0  0  0  0  0  0  0  0
    1.8781   -1.7499    3.6481 H   0  0  0  0  0  0  0  0  0  0  0  0
    2.7899    0.0627    2.7554 C   0  0  0  0  0  0  0  0  0  0  0  0
    2.0660    0.5968    2.3025 H   0  0  0  0  0  0  0  0  0  0  0  0
    2.9276    0.3977    3.7835 H   0  0  0  0  0  0  0  0  0  0  0  0
    4.0395    0.2194    1.9967 N   0  0  0  0  0  4  0  0  0  0  0  0
    3.8427    0.6247    1.1035 H   0  0  0  0  0  0  0  0  0  0  0  0
    4.6663    0.8156    2.4992 H   0  0  0  0  0  0  0  0  0  0  0  0
    4.4688   -0.6749    1.8660 H   0  0  0  0  0  0  0  0  0  0  0  0
    0.0127    2.8425    0.1429 C   0  0  0  0  0  0  0  0  0  0  0  0
   -0.7484    3.2148   -0.3695 H   0  0  0  0  0  0  0  0  0  0  0  0
    0.8757    3.1879   -0.1979 H   0  0  0  0  0  0  0  0  0  0  0  0
   -0.0909    3.1761    1.1754 H   0  0  0  0  0  0  0  0  0  0  0  0
    0.0041    1.3732    0.0016 C   0  0  0  0  0  0  0  0  0  0  0  0
   -1.1845    0.6722   -0.0029 C   0  0  0  0  0  0  0  0  0  0  0  0
   -2.0521    1.1690   -0.0099 H   0  0  0  0  0  0  0  0  0  0  0  0
   -1.1889   -0.6983   -0.0000 C   0  0  0  0  0  0  0  0  0  0  0  0
   -2.0679   -1.1948   -0.0011 H   0  0  0  0  0  0  0  0  0  0  0  0
   -0.0068   -1.3589    0.0057 C   0  0  0  0  0  0  0  0  0  0  0  0
    0.0105   -2.3703    0.0133 H   0  0  0  0  0  0  0  0  0  0  0  0
    1.1889   -0.6648    0.0000 C   0  0  0  0  0  0  0  0  0  0  0  0
    2.0686   -1.1860    0.0011 H   0  0  0  0  0  0  0  0  0  0  0  0
    1.1873    0.6766   -0.0044 C   0  0  0  0  0  0  0  0  0  0  0  0
    2.0558    1.1907   -0.0130 H   0  0  0  0  0  0  0  0  0  0  0  0
  1  5  1  0
  5  8  1  0
  1  2  1  0
  1  3  1  0
  1  4  1  0
  5  6  1  0
  5  7  1  0
  8  9  1  0
  8 10  1  0
  8 11  1  0
 12 16  1  0
 16 17  2  0
 17 19  1  0
 19 21  2  0
 21 23  1  0
 23 25  2  0
 25 16  1  0
 12 13  1  0
 12 14  1  0
 12 15  1  0
 17 18  1  0
 19 20  1  0
 21 22  1  0
 23 24  1  0
 25 26  1  0
M  CHG  1   8   1
M  END
>  <PDB_ID>  (4) 
pdb1aqd

>  <RESIDUE_NAME>  (4) 
GLU   PHE

>  <FRAG_NAME>  (4) 
ETAM   MBZ

>  <FRAG_ATOM_NUM>  (4) 
fragi: 11  fragj: 15

>  <atom.prop.CHAIN_ID>  (4) 
A A A A A A A A A A A Z Z Z Z Z Z Z Z Z Z Z Z Z Z Z

>  <atom.prop.IS_HEAVY_ATOM>  (4) 
1 0 0 0 1 0 0 1 0 0 0 1 0 0 0 1 1 0 1 0 1 0 1 0 1 0

>  <DIFUSE_FUNC_ATOM>  (4) 
n/a

>  <FINAL_SINGLE_POINT_ENERGY>  (4) 
0

>  <NONCOV_INTER_ENERGY_QM>  (4) 
0

>  <FF_Energy>  (4) 
6.99

>  <QM_Energy>  (4) 
-3.97

>  <source>  (4) 
ETAM_MBZ

>  <Index>  (4) 
715

$$$$
ETAM-pdb1avs-B-LYS-23:MBZ-pdb1avs-B-PHE-75
     RDKit          3D

 26 25  0  0  0  0  0  0  0  0999 V2000
   -0.6178   -0.7823   -3.7931 C   0  0  0  0  0  0  0  0  0  0  0  0
   -0.7757   -0.2007   -4.6053 H   0  0  0  0  0  0  0  0  0  0  0  0
   -1.5198   -1.0273   -3.4080 H   0  0  0  0  0  0  0  0  0  0  0  0
   -0.1101   -1.6940   -4.1080 H   0  0  0  0  0  0  0  0  0  0  0  0
    0.1292    0.0413   -2.7589 C   0  0  0  0  0  0  0  0  0  0  0  0
   -0.4222    0.0875   -1.9198 H   0  0  0  0  0  0  0  0  0  0  0  0
    0.9989   -0.4151   -2.5455 H   0  0  0  0  0  0  0  0  0  0  0  0
    0.4063    1.4198   -3.2371 N   0  0  0  0  0  4  0  0  0  0  0  0
   -0.4203    1.8015   -3.6514 H   0  0  0  0  0  0  0  0  0  0  0  0
    0.6861    1.9898   -2.4652 H   0  0  0  0  0  0  0  0  0  0  0  0
    1.1394    1.3953   -3.9173 H   0  0  0  0  0  0  0  0  0  0  0  0
   -0.0239    2.9062   -0.0520 C   0  0  0  0  0  0  0  0  0  0  0  0
   -0.3018    3.1808   -0.9459 H   0  0  0  0  0  0  0  0  0  0  0  0
    0.8658    3.2208    0.1954 H   0  0  0  0  0  0  0  0  0  0  0  0
   -0.7370    3.3162    0.6632 H   0  0  0  0  0  0  0  0  0  0  0  0
   -0.0182    1.3946   -0.0045 C   0  0  0  0  0  0  0  0  0  0  0  0
   -1.2067    0.6587   -0.0136 C   0  0  0  0  0  0  0  0  0  0  0  0
   -2.0828    1.1491   -0.0313 H   0  0  0  0  0  0  0  0  0  0  0  0
   -1.2188   -0.7333   -0.0000 C   0  0  0  0  0  0  0  0  0  0  0  0
   -2.0666   -1.2359   -0.0013 H   0  0  0  0  0  0  0  0  0  0  0  0
    0.0181   -1.3827    0.0171 C   0  0  0  0  0  0  0  0  0  0  0  0
    0.0423   -2.3894    0.0421 H   0  0  0  0  0  0  0  0  0  0  0  0
    1.2188   -0.6653    0.0000 C   0  0  0  0  0  0  0  0  0  0  0  0
    2.1035   -1.1585   -0.0118 H   0  0  0  0  0  0  0  0  0  0  0  0
    1.2068    0.7281    0.0009 C   0  0  0  0  0  0  0  0  0  0  0  0
    2.0530    1.2357    0.0044 H   0  0  0  0  0  0  0  0  0  0  0  0
  1  5  1  0
  5  8  1  0
  1  2  1  0
  1  3  1  0
  1  4  1  0
  5  6  1  0
  5  7  1  0
  8  9  1  0
  8 10  1  0
  8 11  1  0
 12 16  1  0
 16 17  2  0
 17 19  1  0
 19 21  2  0
 21 23  1  0
 23 25  2  0
 25 16  1  0
 12 13  1  0
 12 14  1  0
 12 15  1  0
 17 18  1  0
 19 20  1  0
 21 22  1  0
 23 24  1  0
 25 26  1  0
M  CHG  1   8   1
M  END
>  <PDB_ID>  (5) 
pdb1avs

>  <RESIDUE_NAME>  (5) 
LYS   PHE

>  <FRAG_NAME>  (5) 
ETAM   MBZ

>  <FRAG_ATOM_NUM>  (5) 
fragi: 11  fragj: 15

>  <atom.prop.CHAIN_ID>  (5) 
A A A A A A A A A A A Z Z Z Z Z Z Z Z Z Z Z Z Z Z Z

>  <atom.prop.IS_HEAVY_ATOM>  (5) 
1 0 0 0 1 0 0 1 0 0 0 1 0 0 0 1 1 0 1 0 1 0 1 0 1 0

>  <DIFUSE_FUNC_ATOM>  (5) 
n/a

>  <FINAL_SINGLE_POINT_ENERGY>  (5) 
0

>  <NONCOV_INTER_ENERGY_QM>  (5) 
0

>  <FF_Energy>  (5) 
14.6

>  <QM_Energy>  (5) 
-7.19

>  <source>  (5) 
ETAM_MBZ

>  <Index>  (5) 
871

$$$$
ETAM-pdb1azi-A-LYS-98:MBZ-pdb1azi-A-PHE-151
     RDKit          3D

 26 25  0  0  0  0  0  0  0  0999 V2000
   -3.2440   -2.5939   -3.0384 C   0  0  0  0  0  0  0  0  0  0  0  0
   -2.3832   -2.2480   -3.5347 H   0  0  0  0  0  0  0  0  0  0  0  0
   -3.9524   -2.6037   -3.8161 H   0  0  0  0  0  0  0  0  0  0  0  0
   -3.0619   -3.6269   -2.7421 H   0  0  0  0  0  0  0  0  0  0  0  0
   -3.6558   -1.5422   -2.0733 C   0  0  0  0  0  0  0  0  0  0  0  0
   -4.5933   -1.7509   -1.7202 H   0  0  0  0  0  0  0  0  0  0  0  0
   -3.0384   -1.5651   -1.2578 H   0  0  0  0  0  0  0  0  0  0  0  0
   -3.6642   -0.1426   -2.6051 N   0  0  0  0  0  4  0  0  0  0  0  0
   -2.7677    0.2701   -2.4543 H   0  0  0  0  0  0  0  0  0  0  0  0
   -3.8654   -0.1648   -3.5824 H   0  0  0  0  0  0  0  0  0  0  0  0
   -4.3640    0.3842   -2.1275 H   0  0  0  0  0  0  0  0  0  0  0  0
    0.0425    2.9108   -0.0117 C   0  0  0  0  0  0  0  0  0  0  0  0
   -0.4306    3.2164   -0.8475 H   0  0  0  0  0  0  0  0  0  0  0  0
    1.0114    3.1773   -0.0819 H   0  0  0  0  0  0  0  0  0  0  0  0
   -0.3932    3.4383    0.8369 H   0  0  0  0  0  0  0  0  0  0  0  0
   -0.0049    1.4078    0.0007 C   0  0  0  0  0  0  0  0  0  0  0  0
   -1.1940    0.7037   -0.0062 C   0  0  0  0  0  0  0  0  0  0  0  0
   -2.0658    1.1912   -0.0166 H   0  0  0  0  0  0  0  0  0  0  0  0
   -1.2100   -0.6980   -0.0000 C   0  0  0  0  0  0  0  0  0  0  0  0
   -2.0843   -1.1844    0.0108 H   0  0  0  0  0  0  0  0  0  0  0  0
    0.0007   -1.4108   -0.0074 C   0  0  0  0  0  0  0  0  0  0  0  0
   -0.0015   -2.3972   -0.0180 H   0  0  0  0  0  0  0  0  0  0  0  0
    1.2100   -0.6949    0.0000 C   0  0  0  0  0  0  0  0  0  0  0  0
    2.0891   -1.1943   -0.0029 H   0  0  0  0  0  0  0  0  0  0  0  0
    1.1982    0.6922    0.0129 C   0  0  0  0  0  0  0  0  0  0  0  0
    2.0636    1.1963    0.0307 H   0  0  0  0  0  0  0  0  0  0  0  0
  1  5  1  0
  5  8  1  0
  1  2  1  0
  1  3  1  0
  1  4  1  0
  5  6  1  0
  5  7  1  0
  8  9  1  0
  8 10  1  0
  8 11  1  0
 12 16  1  0
 16 17  2  0
 17 19  1  0
 19 21  2  0
 21 23  1  0
 23 25  2  0
 25 16  1  0
 12 13  1  0
 12 14  1  0
 12 15  1  0
 17 18  1  0
 19 20  1  0
 21 22  1  0
 23 24  1  0
 25 26  1  0
M  CHG  1   8   1
M  END
>  <PDB_ID>  (6) 
pdb1azi

>  <RESIDUE_NAME>  (6) 
LYS   PHE

>  <FRAG_NAME>  (6) 
ETAM   MBZ

>  <FRAG_ATOM_NUM>  (6) 
fragi: 11  fragj: 15

>  <atom.prop.CHAIN_ID>  (6) 
A A A A A A A A A A A Z Z Z Z Z Z Z Z Z Z Z Z Z Z Z

>  <atom.prop.IS_HEAVY_ATOM>  (6) 
1 0 0 0 1 0 0 1 0 0 0 1 0 0 0 1 1 0 1 0 1 0 1 0 1 0

>  <DIFUSE_FUNC_ATOM>  (6) 
n/a

>  <FINAL_SINGLE_POINT_ENERGY>  (6) 
0

>  <NONCOV_INTER_ENERGY_QM>  (6) 
0

>  <FF_Energy>  (6) 
12.52

>  <QM_Energy>  (6) 
-4.07

>  <source>  (6) 
ETAM_MBZ

>  <Index>  (6) 
905

$$$$
ETAM-pdb2bgc-A-LYS-103:MBZ-pdb2bgc-B-PHE-114
     RDKit          3D

 26 25  0  0  0  0  0  0  0  0999 V2000
   -0.2323   -0.9457    4.3150 C   0  0  0  0  0  0  0  0  0  0  0  0
   -1.1036   -0.4680    4.1355 H   0  0  0  0  0  0  0  0  0  0  0  0
   -0.2135   -1.2036    5.2908 H   0  0  0  0  0  0  0  0  0  0  0  0
   -0.2260   -1.8625    3.7255 H   0  0  0  0  0  0  0  0  0  0  0  0
    0.9186    0.0305    4.0507 C   0  0  0  0  0  0  0  0  0  0  0  0
    0.7804    0.8410    4.6142 H   0  0  0  0  0  0  0  0  0  0  0  0
    1.7746   -0.4154    4.2999 H   0  0  0  0  0  0  0  0  0  0  0  0
    0.9423    0.4054    2.6286 N   0  0  0  0  0  4  0  0  0  0  0  0
    1.6216   -0.1481    2.1421 H   0  0  0  0  0  0  0  0  0  0  0  0
    0.0395    0.2505    2.2210 H   0  0  0  0  0  0  0  0  0  0  0  0
    1.1818    1.3749    2.5366 H   0  0  0  0  0  0  0  0  0  0  0  0
   -0.0061    2.9144    0.0065 C   0  0  0  0  0  0  0  0  0  0  0  0
    0.9218    3.2246    0.1134 H   0  0  0  0  0  0  0  0  0  0  0  0
   -0.5854    3.2160    0.7429 H   0  0  0  0  0  0  0  0  0  0  0  0
   -0.3939    3.3480   -0.9153 H   0  0  0  0  0  0  0  0  0  0  0  0
    0.0038    1.3951    0.0090 C   0  0  0  0  0  0  0  0  0  0  0  0
   -1.1877    0.6843    0.0011 C   0  0  0  0  0  0  0  0  0  0  0  0
   -2.0573    1.1829   -0.0057 H   0  0  0  0  0  0  0  0  0  0  0  0
   -1.2035   -0.6959    0.0000 C   0  0  0  0  0  0  0  0  0  0  0  0
   -2.0793   -1.1888    0.0099 H   0  0  0  0  0  0  0  0  0  0  0  0
   -0.0041   -1.3924   -0.0123 C   0  0  0  0  0  0  0  0  0  0  0  0
   -0.0021   -2.3885   -0.0306 H   0  0  0  0  0  0  0  0  0  0  0  0
    1.2035   -0.6889   -0.0000 C   0  0  0  0  0  0  0  0  0  0  0  0
    2.0814   -1.1868    0.0089 H   0  0  0  0  0  0  0  0  0  0  0  0
    1.1881    0.6978    0.0022 C   0  0  0  0  0  0  0  0  0  0  0  0
    2.0606    1.1964   -0.0023 H   0  0  0  0  0  0  0  0  0  0  0  0
  1  5  1  0
  5  8  1  0
  1  2  1  0
  1  3  1  0
  1  4  1  0
  5  6  1  0
  5  7  1  0
  8  9  1  0
  8 10  1  0
  8 11  1  0
 12 16  1  0
 16 17  2  0
 17 19  1  0
 19 21  2  0
 21 23  1  0
 23 25  2  0
 25 16  1  0
 12 13  1  0
 12 14  1  0
 12 15  1  0
 17 18  1  0
 19 20  1  0
 21 22  1  0
 23 24  1  0
 25 26  1  0
M  CHG  1   8   1
M  END
>  <PDB_ID>  (7) 
pdb2bgc

>  <RESIDUE_NAME>  (7) 
LYS   PHE

>  <FRAG_NAME>  (7) 
ETAM   MBZ

>  <FRAG_ATOM_NUM>  (7) 
fragi: 11  fragj: 15

>  <atom.prop.CHAIN_ID>  (7) 
A A A A A A A A A A A Z Z Z Z Z Z Z Z Z Z Z Z Z Z Z

>  <atom.prop.IS_HEAVY_ATOM>  (7) 
1 0 0 0 1 0 0 1 0 0 0 1 0 0 0 1 1 0 1 0 1 0 1 0 1 0

>  <DIFUSE_FUNC_ATOM>  (7) 
n/a

>  <FINAL_SINGLE_POINT_ENERGY>  (7) 
0

>  <NONCOV_INTER_ENERGY_QM>  (7) 
0

>  <FF_Energy>  (7) 
0.66

>  <QM_Energy>  (7) 
-11.49

>  <source>  (7) 
ETAM_MBZ

>  <Index>  (7) 
951

$$$$
ETAM-pdb2bh9-A-LYS-408:MBZ-pdb2bh9-A-PHE-412
     RDKit          3D

 26 25  0  0  0  0  0  0  0  0999 V2000
   -0.3895    1.2280   -3.2839 C   0  0  0  0  0  0  0  0  0  0  0  0
    0.4442    1.2735   -3.8215 H   0  0  0  0  0  0  0  0  0  0  0  0
   -0.2310    1.5611   -2.3619 H   0  0  0  0  0  0  0  0  0  0  0  0
   -1.1531    1.8438   -3.7590 H   0  0  0  0  0  0  0  0  0  0  0  0
   -0.8303   -0.2340   -3.1996 C   0  0  0  0  0  0  0  0  0  0  0  0
   -0.8333   -0.5159   -2.2366 H   0  0  0  0  0  0  0  0  0  0  0  0
   -1.7630   -0.3119   -3.5631 H   0  0  0  0  0  0  0  0  0  0  0  0
    0.0724   -1.1439   -3.9718 N   0  0  0  0  0  4  0  0  0  0  0  0
    0.3788   -1.8840   -3.3767 H   0  0  0  0  0  0  0  0  0  0  0  0
   -0.4291   -1.5200   -4.7485 H   0  0  0  0  0  0  0  0  0  0  0  0
    0.8597   -0.6248   -4.2975 H   0  0  0  0  0  0  0  0  0  0  0  0
    0.0004    2.8697   -0.0318 C   0  0  0  0  0  0  0  0  0  0  0  0
   -0.8174    3.1652   -0.5085 H   0  0  0  0  0  0  0  0  0  0  0  0
    0.8151    3.1654   -0.5133 H   0  0  0  0  0  0  0  0  0  0  0  0
    0.0039    3.3447    0.9493 H   0  0  0  0  0  0  0  0  0  0  0  0
    0.0009    1.3821    0.0161 C   0  0  0  0  0  0  0  0  0  0  0  0
   -1.1864    0.6807    0.0014 C   0  0  0  0  0  0  0  0  0  0  0  0
   -2.0548    1.1794   -0.0094 H   0  0  0  0  0  0  0  0  0  0  0  0
   -1.1911   -0.6864    0.0000 C   0  0  0  0  0  0  0  0  0  0  0  0
   -2.0698   -1.1876   -0.0021 H   0  0  0  0  0  0  0  0  0  0  0  0
   -0.0007   -1.3714    0.0034 C   0  0  0  0  0  0  0  0  0  0  0  0
   -0.0034   -2.3775    0.0077 H   0  0  0  0  0  0  0  0  0  0  0  0
    1.1911   -0.6849   -0.0000 C   0  0  0  0  0  0  0  0  0  0  0  0
    2.0732   -1.1918    0.0142 H   0  0  0  0  0  0  0  0  0  0  0  0
    1.1862    0.6799   -0.0209 C   0  0  0  0  0  0  0  0  0  0  0  0
    2.0556    1.1851   -0.0648 H   0  0  0  0  0  0  0  0  0  0  0  0
  1  5  1  0
  5  8  1  0
  1  2  1  0
  1  3  1  0
  1  4  1  0
  5  6  1  0
  5  7  1  0
  8  9  1  0
  8 10  1  0
  8 11  1  0
 12 16  1  0
 16 17  2  0
 17 19  1  0
 19 21  2  0
 21 23  1  0
 23 25  2  0
 25 16  1  0
 12 13  1  0
 12 14  1  0
 12 15  1  0
 17 18  1  0
 19 20  1  0
 21 22  1  0
 23 24  1  0
 25 26  1  0
M  CHG  1   8   1
M  END
>  <PDB_ID>  (8) 
pdb2bh9

>  <RESIDUE_NAME>  (8) 
LYS   PHE

>  <FRAG_NAME>  (8) 
ETAM   MBZ

>  <FRAG_ATOM_NUM>  (8) 
fragi: 11  fragj: 15

>  <atom.prop.CHAIN_ID>  (8) 
A A A A A A A A A A A Z Z Z Z Z Z Z Z Z Z Z Z Z Z Z

>  <atom.prop.IS_HEAVY_ATOM>  (8) 
1 0 0 0 1 0 0 1 0 0 0 1 0 0 0 1 1 0 1 0 1 0 1 0 1 0

>  <DIFUSE_FUNC_ATOM>  (8) 
n/a

>  <FINAL_SINGLE_POINT_ENERGY>  (8) 
0

>  <NONCOV_INTER_ENERGY_QM>  (8) 
0

>  <FF_Energy>  (8) 
1.63

>  <QM_Energy>  (8) 
-9.11

>  <source>  (8) 
ETAM_MBZ

>  <Index>  (8) 
977

$$$$
ETAM-pdb2bwj-C-LYS-12:MBZ-pdb2bwj-C-PHE-197
     RDKit          3D

 26 25  0  0  0  0  0  0  0  0999 V2000
    3.1407    1.1887   -2.2710 C   0  0  0  0  0  0  0  0  0  0  0  0
    3.3927    1.3255   -3.2284 H   0  0  0  0  0  0  0  0  0  0  0  0
    2.1458    1.1109   -2.1956 H   0  0  0  0  0  0  0  0  0  0  0  0
    3.5911    0.2603   -1.9201 H   0  0  0  0  0  0  0  0  0  0  0  0
    3.5949    2.3911   -1.4729 C   0  0  0  0  0  0  0  0  0  0  0  0
    3.3415    2.2622   -0.5143 H   0  0  0  0  0  0  0  0  0  0  0  0
    4.5884    2.4768   -1.5471 H   0  0  0  0  0  0  0  0  0  0  0  0
    2.9568    3.6296   -1.9863 N   0  0  0  0  0  4  0  0  0  0  0  0
    3.2031    3.7583   -2.9466 H   0  0  0  0  0  0  0  0  0  0  0  0
    1.9627    3.5518   -1.9038 H   0  0  0  0  0  0  0  0  0  0  0  0
    3.2749    4.4133   -1.4525 H   0  0  0  0  0  0  0  0  0  0  0  0
   -0.0050    2.9274   -0.0042 C   0  0  0  0  0  0  0  0  0  0  0  0
   -0.7609    3.2225   -0.5680 H   0  0  0  0  0  0  0  0  0  0  0  0
    0.8609    3.2285   -0.3737 H   0  0  0  0  0  0  0  0  0  0  0  0
   -0.1245    3.3760    0.9820 H   0  0  0  0  0  0  0  0  0  0  0  0
   -0.0002    1.4095    0.0013 C   0  0  0  0  0  0  0  0  0  0  0  0
   -1.1990    0.6911   -0.0032 C   0  0  0  0  0  0  0  0  0  0  0  0
   -2.0665    1.1827   -0.0100 H   0  0  0  0  0  0  0  0  0  0  0  0
   -1.2083   -0.7036   -0.0000 C   0  0  0  0  0  0  0  0  0  0  0  0
   -2.0825   -1.1946   -0.0008 H   0  0  0  0  0  0  0  0  0  0  0  0
   -0.0032   -1.3990    0.0056 C   0  0  0  0  0  0  0  0  0  0  0  0
   -0.0022   -2.3962    0.0136 H   0  0  0  0  0  0  0  0  0  0  0  0
    1.2083   -0.6976   -0.0000 C   0  0  0  0  0  0  0  0  0  0  0  0
    2.0854   -1.1958   -0.0001 H   0  0  0  0  0  0  0  0  0  0  0  0
    1.2023    0.6997   -0.0037 C   0  0  0  0  0  0  0  0  0  0  0  0
    2.0681    1.1957   -0.0103 H   0  0  0  0  0  0  0  0  0  0  0  0
  1  5  1  0
  5  8  1  0
  1  2  1  0
  1  3  1  0
  1  4  1  0
  5  6  1  0
  5  7  1  0
  8  9  1  0
  8 10  1  0
  8 11  1  0
 12 16  1  0
 16 17  2  0
 17 19  1  0
 19 21  2  0
 21 23  1  0
 23 25  2  0
 25 16  1  0
 12 13  1  0
 12 14  1  0
 12 15  1  0
 17 18  1  0
 19 20  1  0
 21 22  1  0
 23 24  1  0
 25 26  1  0
M  CHG  1   8   1
M  END
>  <PDB_ID>  (9) 
pdb2bwj

>  <RESIDUE_NAME>  (9) 
LYS   PHE

>  <FRAG_NAME>  (9) 
ETAM   MBZ

>  <FRAG_ATOM_NUM>  (9) 
fragi: 11  fragj: 15

>  <atom.prop.CHAIN_ID>  (9) 
A A A A A A A A A A A Z Z Z Z Z Z Z Z Z Z Z Z Z Z Z

>  <atom.prop.IS_HEAVY_ATOM>  (9) 
1 0 0 0 1 0 0 1 0 0 0 1 0 0 0 1 1 0 1 0 1 0 1 0 1 0

>  <DIFUSE_FUNC_ATOM>  (9) 
n/a

>  <FINAL_SINGLE_POINT_ENERGY>  (9) 
0

>  <NONCOV_INTER_ENERGY_QM>  (9) 
0

>  <FF_Energy>  (9) 
10.56

>  <QM_Energy>  (9) 
-0.37

>  <source>  (9) 
ETAM_MBZ

>  <Index>  (9) 
1193

$$$$
ETAM-pdb2c6c-A-LYS-499:MBZ-pdb2c6c-A-PHE-488
     RDKit          3D

 26 25  0  0  0  0  0  0  0  0999 V2000
   -3.1307   -3.5002   -0.1698 C   0  0  0  0  0  0  0  0  0  0  0  0
   -2.5230   -2.7453    0.0724 H   0  0  0  0  0  0  0  0  0  0  0  0
   -2.6687   -4.1096   -0.8136 H   0  0  0  0  0  0  0  0  0  0  0  0
   -3.3690   -4.0616    0.7336 H   0  0  0  0  0  0  0  0  0  0  0  0
   -4.3656   -2.9344   -0.8385 C   0  0  0  0  0  0  0  0  0  0  0  0
   -4.9764   -3.6841   -1.0875 H   0  0  0  0  0  0  0  0  0  0  0  0
   -4.8308   -2.3210   -0.2010 H   0  0  0  0  0  0  0  0  0  0  0  0
   -3.9944   -2.1791   -2.0619 N   0  0  0  0  0  4  0  0  0  0  0  0
   -3.0034   -2.0483   -2.0850 H   0  0  0  0  0  0  0  0  0  0  0  0
   -4.2824   -2.6922   -2.8714 H   0  0  0  0  0  0  0  0  0  0  0  0
   -4.4485   -1.2878   -2.0540 H   0  0  0  0  0  0  0  0  0  0  0  0
    0.0009    2.8477    0.0044 C   0  0  0  0  0  0  0  0  0  0  0  0
    0.8299    3.1590    0.4536 H   0  0  0  0  0  0  0  0  0  0  0  0
   -0.8025    3.1600    0.4970 H   0  0  0  0  0  0  0  0  0  0  0  0
   -0.0251    3.2965   -0.9885 H   0  0  0  0  0  0  0  0  0  0  0  0
   -0.0002    1.3734   -0.0086 C   0  0  0  0  0  0  0  0  0  0  0  0
   -1.1665    0.6833   -0.0007 C   0  0  0  0  0  0  0  0  0  0  0  0
   -2.0451    1.1658    0.0034 H   0  0  0  0  0  0  0  0  0  0  0  0
   -1.1685   -0.6962   -0.0000 C   0  0  0  0  0  0  0  0  0  0  0  0
   -2.0603   -1.1810   -0.0077 H   0  0  0  0  0  0  0  0  0  0  0  0
   -0.0072   -1.3614    0.0127 C   0  0  0  0  0  0  0  0  0  0  0  0
    0.0047   -2.3725    0.0313 H   0  0  0  0  0  0  0  0  0  0  0  0
    1.1685   -0.6738   -0.0000 C   0  0  0  0  0  0  0  0  0  0  0  0
    2.0588   -1.1877   -0.0051 H   0  0  0  0  0  0  0  0  0  0  0  0
    1.1739    0.6747   -0.0035 C   0  0  0  0  0  0  0  0  0  0  0  0
    2.0482    1.1788   -0.0030 H   0  0  0  0  0  0  0  0  0  0  0  0
  1  5  1  0
  5  8  1  0
  1  2  1  0
  1  3  1  0
  1  4  1  0
  5  6  1  0
  5  7  1  0
  8  9  1  0
  8 10  1  0
  8 11  1  0
 12 16  1  0
 16 17  2  0
 17 19  1  0
 19 21  2  0
 21 23  1  0
 23 25  2  0
 25 16  1  0
 12 13  1  0
 12 14  1  0
 12 15  1  0
 17 18  1  0
 19 20  1  0
 21 22  1  0
 23 24  1  0
 25 26  1  0
M  CHG  1   8   1
M  END
>  <PDB_ID>  (10) 
pdb2c6c

>  <RESIDUE_NAME>  (10) 
LYS   PHE

>  <FRAG_NAME>  (10) 
ETAM   MBZ

>  <FRAG_ATOM_NUM>  (10) 
fragi: 11  fragj: 15

>  <atom.prop.CHAIN_ID>  (10) 
A A A A A A A A A A A Z Z Z Z Z Z Z Z Z Z Z Z Z Z Z

>  <atom.prop.IS_HEAVY_ATOM>  (10) 
1 0 0 0 1 0 0 1 0 0 0 1 0 0 0 1 1 0 1 0 1 0 1 0 1 0

>  <DIFUSE_FUNC_ATOM>  (10) 
n/a

>  <FINAL_SINGLE_POINT_ENERGY>  (10) 
0

>  <NONCOV_INTER_ENERGY_QM>  (10) 
0

>  <FF_Energy>  (10) 
11.78

>  <QM_Energy>  (10) 
-1.75

>  <source>  (10) 
ETAM_MBZ

>  <Index>  (10) 
1322

$$$$
ETAM-pdb1buc-A-LYS-237:MBZ-pdb1buc-A-PHE-104
     RDKit          3D

 26 25  0  0  0  0  0  0  0  0999 V2000
   -3.0689   -3.1795    2.3428 C   0  0  0  0  0  0  0  0  0  0  0  0
   -3.7850   -2.6818    2.8268 H   0  0  0  0  0  0  0  0  0  0  0  0
   -2.1887   -2.7348    2.4894 H   0  0  0  0  0  0  0  0  0  0  0  0
   -3.0186   -4.1915    2.7446 H   0  0  0  0  0  0  0  0  0  0  0  0
   -3.3841   -3.1479    0.8426 C   0  0  0  0  0  0  0  0  0  0  0  0
   -3.2582   -2.2006    0.5089 H   0  0  0  0  0  0  0  0  0  0  0  0
   -2.7121   -3.7318    0.3621 H   0  0  0  0  0  0  0  0  0  0  0  0
   -4.7614   -3.6064    0.4983 N   0  0  0  0  0  4  0  0  0  0  0  0
   -4.9883   -3.3025   -0.4260 H   0  0  0  0  0  0  0  0  0  0  0  0
   -4.7974   -4.6035    0.5432 H   0  0  0  0  0  0  0  0  0  0  0  0
   -5.4108   -3.2162    1.1490 H   0  0  0  0  0  0  0  0  0  0  0  0
    0.0003    2.9083    0.0470 C   0  0  0  0  0  0  0  0  0  0  0  0
    0.8935    3.2055    0.3540 H   0  0  0  0  0  0  0  0  0  0  0  0
   -0.7070    3.1957    0.6771 H   0  0  0  0  0  0  0  0  0  0  0  0
   -0.1964    3.3885   -0.9116 H   0  0  0  0  0  0  0  0  0  0  0  0
   -0.0000    1.4044    0.0004 C   0  0  0  0  0  0  0  0  0  0  0  0
   -1.1976    0.6949   -0.0008 C   0  0  0  0  0  0  0  0  0  0  0  0
   -2.0647    1.1841   -0.0037 H   0  0  0  0  0  0  0  0  0  0  0  0
   -1.2034   -0.7000   -0.0000 C   0  0  0  0  0  0  0  0  0  0  0  0
   -2.0789   -1.1923   -0.0002 H   0  0  0  0  0  0  0  0  0  0  0  0
    0.0008   -1.3977    0.0021 C   0  0  0  0  0  0  0  0  0  0  0  0
   -0.0014   -2.3947    0.0045 H   0  0  0  0  0  0  0  0  0  0  0  0
    1.2034   -0.6972   -0.0000 C   0  0  0  0  0  0  0  0  0  0  0  0
    2.0843   -1.1935    0.0009 H   0  0  0  0  0  0  0  0  0  0  0  0
    1.1968    0.6956   -0.0017 C   0  0  0  0  0  0  0  0  0  0  0  0
    2.0649    1.1924   -0.0053 H   0  0  0  0  0  0  0  0  0  0  0  0
  1  5  1  0
  5  8  1  0
  1  2  1  0
  1  3  1  0
  1  4  1  0
  5  6  1  0
  5  7  1  0
  8  9  1  0
  8 10  1  0
  8 11  1  0
 12 16  1  0
 16 17  2  0
 17 19  1  0
 19 21  2  0
 21 23  1  0
 23 25  2  0
 25 16  1  0
 12 13  1  0
 12 14  1  0
 12 15  1  0
 17 18  1  0
 19 20  1  0
 21 22  1  0
 23 24  1  0
 25 26  1  0
M  CHG  1   8   1
M  END
>  <PDB_ID>  (11) 
pdb1buc

>  <RESIDUE_NAME>  (11) 
LYS   PHE

>  <FRAG_NAME>  (11) 
ETAM   MBZ

>  <FRAG_ATOM_NUM>  (11) 
fragi: 11  fragj: 15

>  <atom.prop.CHAIN_ID>  (11) 
A A A A A A A A A A A Z Z Z Z Z Z Z Z Z Z Z Z Z Z Z

>  <atom.prop.IS_HEAVY_ATOM>  (11) 
1 0 0 0 1 0 0 1 0 0 0 1 0 0 0 1 1 0 1 0 1 0 1 0 1 0

>  <DIFUSE_FUNC_ATOM>  (11) 
n/a

>  <FINAL_SINGLE_POINT_ENERGY>  (11) 
0

>  <NONCOV_INTER_ENERGY_QM>  (11) 
0

>  <FF_Energy>  (11) 
13.72

>  <QM_Energy>  (11) 
-0.13

>  <source>  (11) 
ETAM_MBZ

>  <Index>  (11) 
1525

$$$$
ETAM-pdb2cnd-A-LYS-20:MBZ-pdb2cnd-A-PHE-30
     RDKit          3D

 26 25  0  0  0  0  0  0  0  0999 V2000
   -4.4497   -1.1439   -1.2072 C   0  0  0  0  0  0  0  0  0  0  0  0
   -5.3702   -1.4098   -1.4497 H   0  0  0  0  0  0  0  0  0  0  0  0
   -3.8098   -1.8827   -1.3539 H   0  0  0  0  0  0  0  0  0  0  0  0
   -4.1536   -0.2870   -1.8124 H   0  0  0  0  0  0  0  0  0  0  0  0
   -4.4320   -0.7821    0.2896 C   0  0  0  0  0  0  0  0  0  0  0  0
   -3.5613   -0.3011    0.4866 H   0  0  0  0  0  0  0  0  0  0  0  0
   -5.1845   -0.1240    0.4636 H   0  0  0  0  0  0  0  0  0  0  0  0
   -4.5716   -1.9392    1.2102 N   0  0  0  0  0  4  0  0  0  0  0  0
   -5.1152   -1.6688    2.0045 H   0  0  0  0  0  0  0  0  0  0  0  0
   -5.0274   -2.6911    0.7337 H   0  0  0  0  0  0  0  0  0  0  0  0
   -3.6652   -2.2358    1.5117 H   0  0  0  0  0  0  0  0  0  0  0  0
    0.0019    2.8992    0.0115 C   0  0  0  0  0  0  0  0  0  0  0  0
    0.9150    3.2047    0.2580 H   0  0  0  0  0  0  0  0  0  0  0  0
   -0.6604    3.2047    0.6869 H   0  0  0  0  0  0  0  0  0  0  0  0
   -0.2559    3.3708   -0.9367 H   0  0  0  0  0  0  0  0  0  0  0  0
   -0.0018    1.4007   -0.0009 C   0  0  0  0  0  0  0  0  0  0  0  0
   -1.1976    0.6974    0.0015 C   0  0  0  0  0  0  0  0  0  0  0  0
   -2.0630    1.1908    0.0031 H   0  0  0  0  0  0  0  0  0  0  0  0
   -1.2010   -0.6843    0.0000 C   0  0  0  0  0  0  0  0  0  0  0  0
   -2.0814   -1.1822    0.0023 H   0  0  0  0  0  0  0  0  0  0  0  0
   -0.0024   -1.3945   -0.0027 C   0  0  0  0  0  0  0  0  0  0  0  0
   -0.0184   -2.3920   -0.0067 H   0  0  0  0  0  0  0  0  0  0  0  0
    1.2010   -0.7091    0.0000 C   0  0  0  0  0  0  0  0  0  0  0  0
    2.0802   -1.2059    0.0018 H   0  0  0  0  0  0  0  0  0  0  0  0
    1.2018    0.6898    0.0021 C   0  0  0  0  0  0  0  0  0  0  0  0
    2.0675    1.1825    0.0048 H   0  0  0  0  0  0  0  0  0  0  0  0
  1  5  1  0
  5  8  1  0
  1  2  1  0
  1  3  1  0
  1  4  1  0
  5  6  1  0
  5  7  1  0
  8  9  1  0
  8 10  1  0
  8 11  1  0
 12 16  1  0
 16 17  2  0
 17 19  1  0
 19 21  2  0
 21 23  1  0
 23 25  2  0
 25 16  1  0
 12 13  1  0
 12 14  1  0
 12 15  1  0
 17 18  1  0
 19 20  1  0
 21 22  1  0
 23 24  1  0
 25 26  1  0
M  CHG  1   8   1
M  END
>  <PDB_ID>  (12) 
pdb2cnd

>  <RESIDUE_NAME>  (12) 
LYS   PHE

>  <FRAG_NAME>  (12) 
ETAM   MBZ

>  <FRAG_ATOM_NUM>  (12) 
fragi: 11  fragj: 15

>  <atom.prop.CHAIN_ID>  (12) 
A A A A A A A A A A A Z Z Z Z Z Z Z Z Z Z Z Z Z Z Z

>  <atom.prop.IS_HEAVY_ATOM>  (12) 
1 0 0 0 1 0 0 1 0 0 0 1 0 0 0 1 1 0 1 0 1 0 1 0 1 0

>  <DIFUSE_FUNC_ATOM>  (12) 
n/a

>  <FINAL_SINGLE_POINT_ENERGY>  (12) 
0

>  <NONCOV_INTER_ENERGY_QM>  (12) 
0

>  <FF_Energy>  (12) 
8.77

>  <QM_Energy>  (12) 
-1.77

>  <source>  (12) 
ETAM_MBZ

>  <Index>  (12) 
1620

$$$$
ETAM-pdb2d3w-A-LYS-212:MBZ-pdb2d3w-A-PHE-230
     RDKit          3D

 26 25  0  0  0  0  0  0  0  0999 V2000
   -2.7739    1.6362   -3.6885 C   0  0  0  0  0  0  0  0  0  0  0  0
   -3.0771    2.5623   -3.5066 H   0  0  0  0  0  0  0  0  0  0  0  0
   -3.1866    1.2843   -4.5178 H   0  0  0  0  0  0  0  0  0  0  0  0
   -1.6899    1.6346   -3.8025 H   0  0  0  0  0  0  0  0  0  0  0  0
   -3.2030    0.7472   -2.5190 C   0  0  0  0  0  0  0  0  0  0  0  0
   -2.8011    1.1147   -1.6702 H   0  0  0  0  0  0  0  0  0  0  0  0
   -4.2067    0.7894   -2.4335 H   0  0  0  0  0  0  0  0  0  0  0  0
   -2.7880   -0.6806   -2.6749 N   0  0  0  0  0  4  0  0  0  0  0  0
   -1.9027   -0.8150   -2.2341 H   0  0  0  0  0  0  0  0  0  0  0  0
   -3.4712   -1.2695   -2.2463 H   0  0  0  0  0  0  0  0  0  0  0  0
   -2.7176   -0.8973   -3.6469 H   0  0  0  0  0  0  0  0  0  0  0  0
   -0.0039    2.9073   -0.0063 C   0  0  0  0  0  0  0  0  0  0  0  0
   -0.9170    3.2137   -0.2304 H   0  0  0  0  0  0  0  0  0  0  0  0
    0.6526    3.2133   -0.6792 H   0  0  0  0  0  0  0  0  0  0  0  0
    0.2692    3.3572    0.9483 H   0  0  0  0  0  0  0  0  0  0  0  0
   -0.0029    1.4037   -0.0006 C   0  0  0  0  0  0  0  0  0  0  0  0
   -1.1977    0.6973    0.0028 C   0  0  0  0  0  0  0  0  0  0  0  0
   -2.0654    1.1837    0.0061 H   0  0  0  0  0  0  0  0  0  0  0  0
   -1.2020   -0.6995   -0.0000 C   0  0  0  0  0  0  0  0  0  0  0  0
   -2.0745   -1.1936    0.0013 H   0  0  0  0  0  0  0  0  0  0  0  0
    0.0082   -1.3950   -0.0023 C   0  0  0  0  0  0  0  0  0  0  0  0
    0.0010   -2.3938   -0.0060 H   0  0  0  0  0  0  0  0  0  0  0  0
    1.2020   -0.6982    0.0000 C   0  0  0  0  0  0  0  0  0  0  0  0
    2.0863   -1.1918    0.0033 H   0  0  0  0  0  0  0  0  0  0  0  0
    1.1924    0.6916    0.0001 C   0  0  0  0  0  0  0  0  0  0  0  0
    2.0619    1.1900   -0.0006 H   0  0  0  0  0  0  0  0  0  0  0  0
  1  5  1  0
  5  8  1  0
  1  2  1  0
  1  3  1  0
  1  4  1  0
  5  6  1  0
  5  7  1  0
  8  9  1  0
  8 10  1  0
  8 11  1  0
 12 16  1  0
 16 17  2  0
 17 19  1  0
 19 21  2  0
 21 23  1  0
 23 25  2  0
 25 16  1  0
 12 13  1  0
 12 14  1  0
 12 15  1  0
 17 18  1  0
 19 20  1  0
 21 22  1  0
 23 24  1  0
 25 26  1  0
M  CHG  1   8   1
M  END
>  <PDB_ID>  (13) 
pdb2d3w

>  <RESIDUE_NAME>  (13) 
LYS   PHE

>  <FRAG_NAME>  (13) 
ETAM   MBZ

>  <FRAG_ATOM_NUM>  (13) 
fragi: 11  fragj: 15

>  <atom.prop.CHAIN_ID>  (13) 
A A A A A A A A A A A Z Z Z Z Z Z Z Z Z Z Z Z Z Z Z

>  <atom.prop.IS_HEAVY_ATOM>  (13) 
1 0 0 0 1 0 0 1 0 0 0 1 0 0 0 1 1 0 1 0 1 0 1 0 1 0

>  <DIFUSE_FUNC_ATOM>  (13) 
n/a

>  <FINAL_SINGLE_POINT_ENERGY>  (13) 
0

>  <NONCOV_INTER_ENERGY_QM>  (13) 
0

>  <FF_Energy>  (13) 
2.2

>  <QM_Energy>  (13) 
-8.85

>  <source>  (13) 
ETAM_MBZ

>  <Index>  (13) 
1972

$$$$
ETAM-pdb1cgi-E-LYS-203:MBZ-pdb1cgi-E-PHE-130
     RDKit          3D

 26 25  0  0  0  0  0  0  0  0999 V2000
    1.2724   -4.3037    2.9474 C   0  0  0  0  0  0  0  0  0  0  0  0
    1.2814   -5.2848    2.7906 H   0  0  0  0  0  0  0  0  0  0  0  0
    0.7886   -4.0898    3.7885 H   0  0  0  0  0  0  0  0  0  0  0  0
    2.3039   -3.9674    3.0521 H   0  0  0  0  0  0  0  0  0  0  0  0
    0.5696   -3.6219    1.7855 C   0  0  0  0  0  0  0  0  0  0  0  0
    0.2570   -2.7177    2.0788 H   0  0  0  0  0  0  0  0  0  0  0  0
    1.2145   -3.5205    1.0275 H   0  0  0  0  0  0  0  0  0  0  0  0
   -0.6036   -4.4193    1.3245 N   0  0  0  0  0  4  0  0  0  0  0  0
   -1.2952   -3.8032    0.9508 H   0  0  0  0  0  0  0  0  0  0  0  0
   -0.3088   -5.0615    0.6186 H   0  0  0  0  0  0  0  0  0  0  0  0
   -0.9852   -4.9224    2.0988 H   0  0  0  0  0  0  0  0  0  0  0  0
    0.0308    2.9049    0.0059 C   0  0  0  0  0  0  0  0  0  0  0  0
   -0.7406    3.2130   -0.6076 H   0  0  0  0  0  0  0  0  0  0  0  0
    0.8889    3.1823   -0.4978 H   0  0  0  0  0  0  0  0  0  0  0  0
   -0.0192    3.5051    0.9144 H   0  0  0  0  0  0  0  0  0  0  0  0
    0.0023    1.4128    0.0168 C   0  0  0  0  0  0  0  0  0  0  0  0
   -1.1814    0.6763    0.0131 C   0  0  0  0  0  0  0  0  0  0  0  0
   -2.0628    1.1850    0.0188 H   0  0  0  0  0  0  0  0  0  0  0  0
   -1.2265   -0.7063    0.0000 C   0  0  0  0  0  0  0  0  0  0  0  0
   -2.0877   -1.1888   -0.0124 H   0  0  0  0  0  0  0  0  0  0  0  0
   -0.0132   -1.3723    0.0072 C   0  0  0  0  0  0  0  0  0  0  0  0
   -0.0159   -2.3941    0.0173 H   0  0  0  0  0  0  0  0  0  0  0  0
    1.2265   -0.7163    0.0000 C   0  0  0  0  0  0  0  0  0  0  0  0
    2.0799   -1.1975    0.0212 H   0  0  0  0  0  0  0  0  0  0  0  0
    1.1923    0.7057   -0.0370 C   0  0  0  0  0  0  0  0  0  0  0  0
    2.0658    1.1970   -0.1055 H   0  0  0  0  0  0  0  0  0  0  0  0
  1  5  1  0
  5  8  1  0
  1  2  1  0
  1  3  1  0
  1  4  1  0
  5  6  1  0
  5  7  1  0
  8  9  1  0
  8 10  1  0
  8 11  1  0
 12 16  1  0
 16 17  2  0
 17 19  1  0
 19 21  2  0
 21 23  1  0
 23 25  2  0
 25 16  1  0
 12 13  1  0
 12 14  1  0
 12 15  1  0
 17 18  1  0
 19 20  1  0
 21 22  1  0
 23 24  1  0
 25 26  1  0
M  CHG  1   8   1
M  END
>  <PDB_ID>  (14) 
pdb1cgi

>  <RESIDUE_NAME>  (14) 
LYS   PHE

>  <FRAG_NAME>  (14) 
ETAM   MBZ

>  <FRAG_ATOM_NUM>  (14) 
fragi: 11  fragj: 15

>  <atom.prop.CHAIN_ID>  (14) 
A A A A A A A A A A A Z Z Z Z Z Z Z Z Z Z Z Z Z Z Z

>  <atom.prop.IS_HEAVY_ATOM>  (14) 
1 0 0 0 1 0 0 1 0 0 0 1 0 0 0 1 1 0 1 0 1 0 1 0 1 0

>  <DIFUSE_FUNC_ATOM>  (14) 
n/a

>  <FINAL_SINGLE_POINT_ENERGY>  (14) 
0

>  <NONCOV_INTER_ENERGY_QM>  (14) 
0

>  <FF_Energy>  (14) 
10.87

>  <QM_Energy>  (14) 
-0.58

>  <source>  (14) 
ETAM_MBZ

>  <Index>  (14) 
1996

$$$$
ETAM-pdb1crc-B-LYS-13:MBZ-pdb1crc-B-PHE-82
     RDKit          3D

 26 25  0  0  0  0  0  0  0  0999 V2000
   -2.3835   -4.0647    0.9765 C   0  0  0  0  0  0  0  0  0  0  0  0
   -2.1651   -4.7321    1.6932 H   0  0  0  0  0  0  0  0  0  0  0  0
   -1.5655   -3.9086    0.4161 H   0  0  0  0  0  0  0  0  0  0  0  0
   -3.1693   -4.4766    0.3433 H   0  0  0  0  0  0  0  0  0  0  0  0
   -2.7491   -2.7307    1.6646 C   0  0  0  0  0  0  0  0  0  0  0  0
   -1.9683   -2.1300    1.6268 H   0  0  0  0  0  0  0  0  0  0  0  0
   -3.5318   -2.3415    1.2078 H   0  0  0  0  0  0  0  0  0  0  0  0
   -3.0974   -3.0078    3.1029 N   0  0  0  0  0  4  0  0  0  0  0  0
   -3.1895   -3.9925    3.2296 H   0  0  0  0  0  0  0  0  0  0  0  0
   -2.3693   -2.6556    3.6855 H   0  0  0  0  0  0  0  0  0  0  0  0
   -3.9578   -2.5541    3.3199 H   0  0  0  0  0  0  0  0  0  0  0  0
   -0.0084    2.9321    0.0346 C   0  0  0  0  0  0  0  0  0  0  0  0
   -0.7458    3.2369   -0.5751 H   0  0  0  0  0  0  0  0  0  0  0  0
    0.8691    3.2493   -0.3369 H   0  0  0  0  0  0  0  0  0  0  0  0
   -0.1534    3.4289    0.9940 H   0  0  0  0  0  0  0  0  0  0  0  0
    0.0059    1.4214    0.0152 C   0  0  0  0  0  0  0  0  0  0  0  0
   -1.2025    0.6874   -0.0043 C   0  0  0  0  0  0  0  0  0  0  0  0
   -2.0674    1.1766   -0.0228 H   0  0  0  0  0  0  0  0  0  0  0  0
   -1.2043   -0.7120    0.0000 C   0  0  0  0  0  0  0  0  0  0  0  0
   -2.0785   -1.2047    0.0157 H   0  0  0  0  0  0  0  0  0  0  0  0
    0.0031   -1.4080   -0.0155 C   0  0  0  0  0  0  0  0  0  0  0  0
    0.0110   -2.3991   -0.0374 H   0  0  0  0  0  0  0  0  0  0  0  0
    1.2043   -0.6886    0.0000 C   0  0  0  0  0  0  0  0  0  0  0  0
    2.0889   -1.1847    0.0094 H   0  0  0  0  0  0  0  0  0  0  0  0
    1.1935    0.6998    0.0046 C   0  0  0  0  0  0  0  0  0  0  0  0
    2.0693    1.1968   -0.0005 H   0  0  0  0  0  0  0  0  0  0  0  0
  1  5  1  0
  5  8  1  0
  1  2  1  0
  1  3  1  0
  1  4  1  0
  5  6  1  0
  5  7  1  0
  8  9  1  0
  8 10  1  0
  8 11  1  0
 12 16  1  0
 16 17  2  0
 17 19  1  0
 19 21  2  0
 21 23  1  0
 23 25  2  0
 25 16  1  0
 12 13  1  0
 12 14  1  0
 12 15  1  0
 17 18  1  0
 19 20  1  0
 21 22  1  0
 23 24  1  0
 25 26  1  0
M  CHG  1   8   1
M  END
>  <PDB_ID>  (15) 
pdb1crc

>  <RESIDUE_NAME>  (15) 
LYS   PHE

>  <FRAG_NAME>  (15) 
ETAM   MBZ

>  <FRAG_ATOM_NUM>  (15) 
fragi: 11  fragj: 15

>  <atom.prop.CHAIN_ID>  (15) 
A A A A A A A A A A A Z Z Z Z Z Z Z Z Z Z Z Z Z Z Z

>  <atom.prop.IS_HEAVY_ATOM>  (15) 
1 0 0 0 1 0 0 1 0 0 0 1 0 0 0 1 1 0 1 0 1 0 1 0 1 0

>  <DIFUSE_FUNC_ATOM>  (15) 
n/a

>  <FINAL_SINGLE_POINT_ENERGY>  (15) 
0

>  <NONCOV_INTER_ENERGY_QM>  (15) 
0

>  <FF_Energy>  (15) 
8.62

>  <QM_Energy>  (15) 
-1.43

>  <source>  (15) 
ETAM_MBZ

>  <Index>  (15) 
2091

$$$$
ETAM-pdb1d8h-A-LYS-474:MBZ-pdb1d8h-A-PHE-348
     RDKit          3D

 26 25  0  0  0  0  0  0  0  0999 V2000
    3.7313   -2.4228   -3.0462 C   0  0  0  0  0  0  0  0  0  0  0  0
    4.1884   -3.1853   -3.4555 H   0  0  0  0  0  0  0  0  0  0  0  0
    4.2142   -1.5795   -3.1633 H   0  0  0  0  0  0  0  0  0  0  0  0
    2.7425   -2.3262   -3.4946 H   0  0  0  0  0  0  0  0  0  0  0  0
    3.5409   -2.6880   -1.5707 C   0  0  0  0  0  0  0  0  0  0  0  0
    3.0139   -1.9607   -1.1701 H   0  0  0  0  0  0  0  0  0  0  0  0
    3.1160   -3.5656   -1.4448 H   0  0  0  0  0  0  0  0  0  0  0  0
    4.9032   -2.7074   -0.9539 N   0  0  0  0  0  4  0  0  0  0  0  0
    4.8149   -2.8341    0.0321 H   0  0  0  0  0  0  0  0  0  0  0  0
    5.4297   -3.4602   -1.3456 H   0  0  0  0  0  0  0  0  0  0  0  0
    5.3614   -1.8402   -1.1427 H   0  0  0  0  0  0  0  0  0  0  0  0
    0.0261    2.9321   -0.0577 C   0  0  0  0  0  0  0  0  0  0  0  0
   -0.7884    3.2158   -0.5582 H   0  0  0  0  0  0  0  0  0  0  0  0
    0.8444    3.2172   -0.5506 H   0  0  0  0  0  0  0  0  0  0  0  0
    0.0211    3.4432    0.9051 H   0  0  0  0  0  0  0  0  0  0  0  0
    0.0274    1.4208   -0.0047 C   0  0  0  0  0  0  0  0  0  0  0  0
   -1.2051    0.6915   -0.0104 C   0  0  0  0  0  0  0  0  0  0  0  0
   -2.0557    1.1991   -0.0229 H   0  0  0  0  0  0  0  0  0  0  0  0
   -1.2116   -0.6930   -0.0000 C   0  0  0  0  0  0  0  0  0  0  0  0
   -2.1069   -1.1773    0.0079 H   0  0  0  0  0  0  0  0  0  0  0  0
   -0.0414   -1.4044    0.0021 C   0  0  0  0  0  0  0  0  0  0  0  0
   -0.0361   -2.3985    0.0048 H   0  0  0  0  0  0  0  0  0  0  0  0
    1.2116   -0.7113    0.0000 C   0  0  0  0  0  0  0  0  0  0  0  0
    2.0667   -1.2248   -0.0087 H   0  0  0  0  0  0  0  0  0  0  0  0
    1.2191    0.6964    0.0130 C   0  0  0  0  0  0  0  0  0  0  0  0
    2.0925    1.1776    0.0340 H   0  0  0  0  0  0  0  0  0  0  0  0
  1  5  1  0
  5  8  1  0
  1  2  1  0
  1  3  1  0
  1  4  1  0
  5  6  1  0
  5  7  1  0
  8  9  1  0
  8 10  1  0
  8 11  1  0
 12 16  1  0
 16 17  2  0
 17 19  1  0
 19 21  2  0
 21 23  1  0
 23 25  2  0
 25 16  1  0
 12 13  1  0
 12 14  1  0
 12 15  1  0
 17 18  1  0
 19 20  1  0
 21 22  1  0
 23 24  1  0
 25 26  1  0
M  CHG  1   8   1
M  END
>  <PDB_ID>  (16) 
pdb1d8h

>  <RESIDUE_NAME>  (16) 
LYS   PHE

>  <FRAG_NAME>  (16) 
ETAM   MBZ

>  <FRAG_ATOM_NUM>  (16) 
fragi: 11  fragj: 15

>  <atom.prop.CHAIN_ID>  (16) 
A A A A A A A A A A A Z Z Z Z Z Z Z Z Z Z Z Z Z Z Z

>  <atom.prop.IS_HEAVY_ATOM>  (16) 
1 0 0 0 1 0 0 1 0 0 0 1 0 0 0 1 1 0 1 0 1 0 1 0 1 0

>  <DIFUSE_FUNC_ATOM>  (16) 
n/a

>  <FINAL_SINGLE_POINT_ENERGY>  (16) 
0

>  <NONCOV_INTER_ENERGY_QM>  (16) 
0

>  <FF_Energy>  (16) 
10.92

>  <QM_Energy>  (16) 
-0.4

>  <source>  (16) 
ETAM_MBZ

>  <Index>  (16) 
2483

$$$$
ETAM-pdb2e3d-D-LYS-7:MBZ-pdb2e3d-D-PHE-159
     RDKit          3D

 26 25  0  0  0  0  0  0  0  0999 V2000
    3.6363   -3.2109    0.4739 C   0  0  0  0  0  0  0  0  0  0  0  0
    3.1155   -2.4360    0.1345 H   0  0  0  0  0  0  0  0  0  0  0  0
    3.6877   -3.9260   -0.2133 H   0  0  0  0  0  0  0  0  0  0  0  0
    4.6474   -2.8760    0.7050 H   0  0  0  0  0  0  0  0  0  0  0  0
    2.8970   -3.7848    1.7136 C   0  0  0  0  0  0  0  0  0  0  0  0
    2.9255   -4.8307    1.6293 H   0  0  0  0  0  0  0  0  0  0  0  0
    3.5159   -3.6142    2.5442 H   0  0  0  0  0  0  0  0  0  0  0  0
    1.5058   -3.3860    2.0811 N   0  0  0  0  0  4  0  0  0  0  0  0
    1.5152   -2.9453    2.9770 H   0  0  0  0  0  0  0  0  0  0  0  0
    1.1542   -2.7492    1.3969 H   0  0  0  0  0  0  0  0  0  0  0  0
    0.9272   -4.1997    2.1123 H   0  0  0  0  0  0  0  0  0  0  0  0
    0.0219    2.8811    0.0722 C   0  0  0  0  0  0  0  0  0  0  0  0
   -0.7041    3.2268   -0.4905 H   0  0  0  0  0  0  0  0  0  0  0  0
    0.9053    3.1929   -0.2196 H   0  0  0  0  0  0  0  0  0  0  0  0
   -0.1405    3.2478    1.0857 H   0  0  0  0  0  0  0  0  0  0  0  0
    0.0028    1.3795   -0.0033 C   0  0  0  0  0  0  0  0  0  0  0  0
   -1.2039    0.6844   -0.0264 C   0  0  0  0  0  0  0  0  0  0  0  0
   -2.0616    1.1908   -0.0638 H   0  0  0  0  0  0  0  0  0  0  0  0
   -1.2253   -0.6945   -0.0000 C   0  0  0  0  0  0  0  0  0  0  0  0
   -2.0871   -1.1933    0.0179 H   0  0  0  0  0  0  0  0  0  0  0  0
   -0.0045   -1.3796    0.0024 C   0  0  0  0  0  0  0  0  0  0  0  0
    0.0014   -2.3813    0.0053 H   0  0  0  0  0  0  0  0  0  0  0  0
    1.2253   -0.6810    0.0000 C   0  0  0  0  0  0  0  0  0  0  0  0
    2.0885   -1.1904   -0.0197 H   0  0  0  0  0  0  0  0  0  0  0  0
    1.2057    0.6912    0.0273 C   0  0  0  0  0  0  0  0  0  0  0  0
    2.0645    1.2052    0.0691 H   0  0  0  0  0  0  0  0  0  0  0  0
  1  5  1  0
  5  8  1  0
  1  2  1  0
  1  3  1  0
  1  4  1  0
  5  6  1  0
  5  7  1  0
  8  9  1  0
  8 10  1  0
  8 11  1  0
 12 16  1  0
 16 17  2  0
 17 19  1  0
 19 21  2  0
 21 23  1  0
 23 25  2  0
 25 16  1  0
 12 13  1  0
 12 14  1  0
 12 15  1  0
 17 18  1  0
 19 20  1  0
 21 22  1  0
 23 24  1  0
 25 26  1  0
M  CHG  1   8   1
M  END
>  <PDB_ID>  (17) 
pdb2e3d

>  <RESIDUE_NAME>  (17) 
LYS   PHE

>  <FRAG_NAME>  (17) 
ETAM   MBZ

>  <FRAG_ATOM_NUM>  (17) 
fragi: 11  fragj: 15

>  <atom.prop.CHAIN_ID>  (17) 
A A A A A A A A A A A Z Z Z Z Z Z Z Z Z Z Z Z Z Z Z

>  <atom.prop.IS_HEAVY_ATOM>  (17) 
1 0 0 0 1 0 0 1 0 0 0 1 0 0 0 1 1 0 1 0 1 0 1 0 1 0

>  <DIFUSE_FUNC_ATOM>  (17) 
n/a

>  <FINAL_SINGLE_POINT_ENERGY>  (17) 
0

>  <NONCOV_INTER_ENERGY_QM>  (17) 
0

>  <FF_Energy>  (17) 
11.55

>  <QM_Energy>  (17) 
-5.36

>  <source>  (17) 
ETAM_MBZ

>  <Index>  (17) 
2616

$$$$
ETAM-pdb1f0y-A-LYS-173:MBZ-pdb1f0y-A-PHE-182
     RDKit          3D

 26 25  0  0  0  0  0  0  0  0999 V2000
   -1.2435    1.9633   -3.6871 C   0  0  0  0  0  0  0  0  0  0  0  0
   -1.1020    0.9826   -3.5645 H   0  0  0  0  0  0  0  0  0  0  0  0
   -1.2815    2.1806   -4.6611 H   0  0  0  0  0  0  0  0  0  0  0  0
   -2.1948    2.2372   -3.2309 H   0  0  0  0  0  0  0  0  0  0  0  0
   -0.0628    2.7041   -3.0716 C   0  0  0  0  0  0  0  0  0  0  0  0
   -0.2200    3.6971   -3.1586 H   0  0  0  0  0  0  0  0  0  0  0  0
   -0.0151    2.4810   -2.0886 H   0  0  0  0  0  0  0  0  0  0  0  0
    1.2498    2.3644   -3.7083 N   0  0  0  0  0  4  0  0  0  0  0  0
    1.1112    1.6304   -4.3699 H   0  0  0  0  0  0  0  0  0  0  0  0
    1.6084    3.1740   -4.1696 H   0  0  0  0  0  0  0  0  0  0  0  0
    1.8884    2.0667   -3.0018 H   0  0  0  0  0  0  0  0  0  0  0  0
    0.0047    2.9165    0.0088 C   0  0  0  0  0  0  0  0  0  0  0  0
   -0.5719    3.2251   -0.7323 H   0  0  0  0  0  0  0  0  0  0  0  0
    0.9384    3.2173   -0.1107 H   0  0  0  0  0  0  0  0  0  0  0  0
   -0.3735    3.3536    0.9330 H   0  0  0  0  0  0  0  0  0  0  0  0
   -0.0002    1.4075    0.0014 C   0  0  0  0  0  0  0  0  0  0  0  0
   -1.1977    0.7003    0.0004 C   0  0  0  0  0  0  0  0  0  0  0  0
   -2.0645    1.1885   -0.0009 H   0  0  0  0  0  0  0  0  0  0  0  0
   -1.2060   -0.6989   -0.0000 C   0  0  0  0  0  0  0  0  0  0  0  0
   -2.0820   -1.1883    0.0026 H   0  0  0  0  0  0  0  0  0  0  0  0
   -0.0014   -1.4016   -0.0015 C   0  0  0  0  0  0  0  0  0  0  0  0
   -0.0077   -2.3974   -0.0043 H   0  0  0  0  0  0  0  0  0  0  0  0
    1.2060   -0.7042   -0.0000 C   0  0  0  0  0  0  0  0  0  0  0  0
    2.0851   -1.1981    0.0025 H   0  0  0  0  0  0  0  0  0  0  0  0
    1.1993    0.6969   -0.0004 C   0  0  0  0  0  0  0  0  0  0  0  0
    2.0676    1.1899   -0.0029 H   0  0  0  0  0  0  0  0  0  0  0  0
  1  5  1  0
  5  8  1  0
  1  2  1  0
  1  3  1  0
  1  4  1  0
  5  6  1  0
  5  7  1  0
  8  9  1  0
  8 10  1  0
  8 11  1  0
 12 16  1  0
 16 17  2  0
 17 19  1  0
 19 21  2  0
 21 23  1  0
 23 25  2  0
 25 16  1  0
 12 13  1  0
 12 14  1  0
 12 15  1  0
 17 18  1  0
 19 20  1  0
 21 22  1  0
 23 24  1  0
 25 26  1  0
M  CHG  1   8   1
M  END
>  <PDB_ID>  (18) 
pdb1f0y

>  <RESIDUE_NAME>  (18) 
LYS   PHE

>  <FRAG_NAME>  (18) 
ETAM   MBZ

>  <FRAG_ATOM_NUM>  (18) 
fragi: 11  fragj: 15

>  <atom.prop.CHAIN_ID>  (18) 
A A A A A A A A A A A Z Z Z Z Z Z Z Z Z Z Z Z Z Z Z

>  <atom.prop.IS_HEAVY_ATOM>  (18) 
1 0 0 0 1 0 0 1 0 0 0 1 0 0 0 1 1 0 1 0 1 0 1 0 1 0

>  <DIFUSE_FUNC_ATOM>  (18) 
n/a

>  <FINAL_SINGLE_POINT_ENERGY>  (18) 
0

>  <NONCOV_INTER_ENERGY_QM>  (18) 
0

>  <FF_Energy>  (18) 
19.28

>  <QM_Energy>  (18) 
-3.08

>  <source>  (18) 
ETAM_MBZ

>  <Index>  (18) 
3934

$$$$
ETAM-pdb1fwk-A-LYS-79:MBZ-pdb1fwk-A-PHE-113
     RDKit          3D

 26 25  0  0  0  0  0  0  0  0999 V2000
    4.0445   -2.7531   -0.6662 C   0  0  0  0  0  0  0  0  0  0  0  0
    3.1525   -2.3350   -0.4723 H   0  0  0  0  0  0  0  0  0  0  0  0
    4.2299   -3.4550    0.0282 H   0  0  0  0  0  0  0  0  0  0  0  0
    4.0052   -3.2277   -1.6467 H   0  0  0  0  0  0  0  0  0  0  0  0
    5.1170   -1.6646   -0.5397 C   0  0  0  0  0  0  0  0  0  0  0  0
    6.0127   -2.0825   -0.6257 H   0  0  0  0  0  0  0  0  0  0  0  0
    4.9759   -0.9878   -1.2512 H   0  0  0  0  0  0  0  0  0  0  0  0
    5.0113   -0.9972    0.8044 N   0  0  0  0  0  4  0  0  0  0  0  0
    5.8814   -1.0914    1.2813 H   0  0  0  0  0  0  0  0  0  0  0  0
    4.7992   -0.0321    0.6705 H   0  0  0  0  0  0  0  0  0  0  0  0
    4.2858   -1.4373    1.3279 H   0  0  0  0  0  0  0  0  0  0  0  0
    0.0078    2.9134    0.0050 C   0  0  0  0  0  0  0  0  0  0  0  0
   -0.9272    3.2226   -0.0430 H   0  0  0  0  0  0  0  0  0  0  0  0
    0.5340    3.2175   -0.7711 H   0  0  0  0  0  0  0  0  0  0  0  0
    0.4582    3.3329    0.9046 H   0  0  0  0  0  0  0  0  0  0  0  0
   -0.0004    1.4115   -0.0005 C   0  0  0  0  0  0  0  0  0  0  0  0
   -1.2008    0.7033    0.0005 C   0  0  0  0  0  0  0  0  0  0  0  0
   -2.0666    1.1927    0.0001 H   0  0  0  0  0  0  0  0  0  0  0  0
   -1.2099   -0.6965   -0.0000 C   0  0  0  0  0  0  0  0  0  0  0  0
   -2.0866   -1.1859    0.0014 H   0  0  0  0  0  0  0  0  0  0  0  0
   -0.0031   -1.4073   -0.0007 C   0  0  0  0  0  0  0  0  0  0  0  0
   -0.0127   -2.3999   -0.0021 H   0  0  0  0  0  0  0  0  0  0  0  0
    1.2099   -0.7088    0.0000 C   0  0  0  0  0  0  0  0  0  0  0  0
    2.0861   -1.2021    0.0018 H   0  0  0  0  0  0  0  0  0  0  0  0
    1.2043    0.6977    0.0006 C   0  0  0  0  0  0  0  0  0  0  0  0
    2.0702    1.1900    0.0014 H   0  0  0  0  0  0  0  0  0  0  0  0
  1  5  1  0
  5  8  1  0
  1  2  1  0
  1  3  1  0
  1  4  1  0
  5  6  1  0
  5  7  1  0
  8  9  1  0
  8 10  1  0
  8 11  1  0
 12 16  1  0
 16 17  2  0
 17 19  1  0
 19 21  2  0
 21 23  1  0
 23 25  2  0
 25 16  1  0
 12 13  1  0
 12 14  1  0
 12 15  1  0
 17 18  1  0
 19 20  1  0
 21 22  1  0
 23 24  1  0
 25 26  1  0
M  CHG  1   8   1
M  END
>  <PDB_ID>  (19) 
pdb1fwk

>  <RESIDUE_NAME>  (19) 
LYS   PHE

>  <FRAG_NAME>  (19) 
ETAM   MBZ

>  <FRAG_ATOM_NUM>  (19) 
fragi: 11  fragj: 15

>  <atom.prop.CHAIN_ID>  (19) 
A A A A A A A A A A A Z Z Z Z Z Z Z Z Z Z Z Z Z Z Z

>  <atom.prop.IS_HEAVY_ATOM>  (19) 
1 0 0 0 1 0 0 1 0 0 0 1 0 0 0 1 1 0 1 0 1 0 1 0 1 0

>  <DIFUSE_FUNC_ATOM>  (19) 
n/a

>  <FINAL_SINGLE_POINT_ENERGY>  (19) 
0

>  <NONCOV_INTER_ENERGY_QM>  (19) 
0

>  <FF_Energy>  (19) 
12.27

>  <QM_Energy>  (19) 
-0.36

>  <source>  (19) 
ETAM_MBZ

>  <Index>  (19) 
4403

$$$$
ETAM-pdb2gzm-A-LYS-21:MBZ-pdb2gzm-A-PHE-254
     RDKit          3D

 26 25  0  0  0  0  0  0  0  0999 V2000
    1.0395   -1.8993   -3.2615 C   0  0  0  0  0  0  0  0  0  0  0  0
    0.4659   -1.6028   -2.4999 H   0  0  0  0  0  0  0  0  0  0  0  0
    0.6501   -2.7188   -3.6774 H   0  0  0  0  0  0  0  0  0  0  0  0
    1.0561   -1.1069   -4.0099 H   0  0  0  0  0  0  0  0  0  0  0  0
    2.4416   -2.2667   -2.6936 C   0  0  0  0  0  0  0  0  0  0  0  0
    2.3280   -3.0571   -2.0769 H   0  0  0  0  0  0  0  0  0  0  0  0
    3.0225   -2.5563   -3.4667 H   0  0  0  0  0  0  0  0  0  0  0  0
    3.1103   -1.1541   -1.9587 N   0  0  0  0  0  4  0  0  0  0  0  0
    3.9061   -1.5119   -1.4722 H   0  0  0  0  0  0  0  0  0  0  0  0
    3.4011   -0.4552   -2.6106 H   0  0  0  0  0  0  0  0  0  0  0  0
    2.4672   -0.7573   -1.3051 H   0  0  0  0  0  0  0  0  0  0  0  0
   -0.0015    2.8993    0.0987 C   0  0  0  0  0  0  0  0  0  0  0  0
   -0.6097    3.2522   -0.5929 H   0  0  0  0  0  0  0  0  0  0  0  0
    0.9232    3.2180   -0.0308 H   0  0  0  0  0  0  0  0  0  0  0  0
   -0.3468    3.2673    1.0649 H   0  0  0  0  0  0  0  0  0  0  0  0
   -0.0003    1.4033    0.0011 C   0  0  0  0  0  0  0  0  0  0  0  0
   -1.1941    0.6953   -0.0015 C   0  0  0  0  0  0  0  0  0  0  0  0
   -2.0632    1.1826   -0.0059 H   0  0  0  0  0  0  0  0  0  0  0  0
   -1.2008   -0.7008   -0.0000 C   0  0  0  0  0  0  0  0  0  0  0  0
   -2.0789   -1.1904    0.0007 H   0  0  0  0  0  0  0  0  0  0  0  0
   -0.0013   -1.3966    0.0028 C   0  0  0  0  0  0  0  0  0  0  0  0
   -0.0014   -2.3942    0.0063 H   0  0  0  0  0  0  0  0  0  0  0  0
    1.2008   -0.6958    0.0000 C   0  0  0  0  0  0  0  0  0  0  0  0
    2.0823   -1.1944    0.0008 H   0  0  0  0  0  0  0  0  0  0  0  0
    1.1957    0.6946   -0.0024 C   0  0  0  0  0  0  0  0  0  0  0  0
    2.0641    1.1907   -0.0072 H   0  0  0  0  0  0  0  0  0  0  0  0
  1  5  1  0
  5  8  1  0
  1  2  1  0
  1  3  1  0
  1  4  1  0
  5  6  1  0
  5  7  1  0
  8  9  1  0
  8 10  1  0
  8 11  1  0
 12 16  1  0
 16 17  2  0
 17 19  1  0
 19 21  2  0
 21 23  1  0
 23 25  2  0
 25 16  1  0
 12 13  1  0
 12 14  1  0
 12 15  1  0
 17 18  1  0
 19 20  1  0
 21 22  1  0
 23 24  1  0
 25 26  1  0
M  CHG  1   8   1
M  END
>  <PDB_ID>  (20) 
pdb2gzm

>  <RESIDUE_NAME>  (20) 
LYS   PHE

>  <FRAG_NAME>  (20) 
ETAM   MBZ

>  <FRAG_ATOM_NUM>  (20) 
fragi: 11  fragj: 15

>  <atom.prop.CHAIN_ID>  (20) 
A A A A A A A A A A A Z Z Z Z Z Z Z Z Z Z Z Z Z Z Z

>  <atom.prop.IS_HEAVY_ATOM>  (20) 
1 0 0 0 1 0 0 1 0 0 0 1 0 0 0 1 1 0 1 0 1 0 1 0 1 0

>  <DIFUSE_FUNC_ATOM>  (20) 
n/a

>  <FINAL_SINGLE_POINT_ENERGY>  (20) 
0

>  <NONCOV_INTER_ENERGY_QM>  (20) 
0

>  <FF_Energy>  (20) 
8.65

>  <QM_Energy>  (20) 
-2.28

>  <source>  (20) 
ETAM_MBZ

>  <Index>  (20) 
4575

$$$$
ETAM-pdb1gd2-F-LYS-97:MBZ-pdb1gd2-F-PHE-93
     RDKit          3D

 26 25  0  0  0  0  0  0  0  0999 V2000
    1.5867   -2.7045    3.6105 C   0  0  0  0  0  0  0  0  0  0  0  0
    2.3266   -3.2487    3.2477 H   0  0  0  0  0  0  0  0  0  0  0  0
    1.3804   -2.9488    4.5446 H   0  0  0  0  0  0  0  0  0  0  0  0
    1.8749   -1.6538    3.5778 H   0  0  0  0  0  0  0  0  0  0  0  0
    0.3310   -2.9549    2.7515 C   0  0  0  0  0  0  0  0  0  0  0  0
   -0.4873   -2.6820    3.2984 H   0  0  0  0  0  0  0  0  0  0  0  0
    0.3609   -2.3197    1.9522 H   0  0  0  0  0  0  0  0  0  0  0  0
    0.1237   -4.3538    2.2444 N   0  0  0  0  0  4  0  0  0  0  0  0
    0.5927   -4.4552    1.3706 H   0  0  0  0  0  0  0  0  0  0  0  0
    0.4977   -4.9984    2.9072 H   0  0  0  0  0  0  0  0  0  0  0  0
   -0.8532   -4.5146    2.1270 H   0  0  0  0  0  0  0  0  0  0  0  0
   -0.0029    2.9027   -0.0034 C   0  0  0  0  0  0  0  0  0  0  0  0
   -0.8207    3.2068   -0.4688 H   0  0  0  0  0  0  0  0  0  0  0  0
    0.8123    3.2096   -0.4726 H   0  0  0  0  0  0  0  0  0  0  0  0
   -0.0016    3.3453    0.9927 H   0  0  0  0  0  0  0  0  0  0  0  0
   -0.0003    1.4010   -0.0011 C   0  0  0  0  0  0  0  0  0  0  0  0
   -1.1989    0.6918    0.0006 C   0  0  0  0  0  0  0  0  0  0  0  0
   -2.0644    1.1837    0.0011 H   0  0  0  0  0  0  0  0  0  0  0  0
   -1.2029   -0.6974    0.0000 C   0  0  0  0  0  0  0  0  0  0  0  0
   -2.0783   -1.1929    0.0004 H   0  0  0  0  0  0  0  0  0  0  0  0
    0.0002   -1.3917    0.0010 C   0  0  0  0  0  0  0  0  0  0  0  0
   -0.0035   -2.3916    0.0019 H   0  0  0  0  0  0  0  0  0  0  0  0
    1.2029   -0.6961   -0.0000 C   0  0  0  0  0  0  0  0  0  0  0  0
    2.0828   -1.1958    0.0007 H   0  0  0  0  0  0  0  0  0  0  0  0
    1.1990    0.6924   -0.0005 C   0  0  0  0  0  0  0  0  0  0  0  0
    2.0650    1.1904   -0.0013 H   0  0  0  0  0  0  0  0  0  0  0  0
  1  5  1  0
  5  8  1  0
  1  2  1  0
  1  3  1  0
  1  4  1  0
  5  6  1  0
  5  7  1  0
  8  9  1  0
  8 10  1  0
  8 11  1  0
 12 16  1  0
 16 17  2  0
 17 19  1  0
 19 21  2  0
 21 23  1  0
 23 25  2  0
 25 16  1  0
 12 13  1  0
 12 14  1  0
 12 15  1  0
 17 18  1  0
 19 20  1  0
 21 22  1  0
 23 24  1  0
 25 26  1  0
M  CHG  1   8   1
M  END
>  <PDB_ID>  (21) 
pdb1gd2

>  <RESIDUE_NAME>  (21) 
LYS   PHE

>  <FRAG_NAME>  (21) 
ETAM   MBZ

>  <FRAG_ATOM_NUM>  (21) 
fragi: 11  fragj: 15

>  <atom.prop.CHAIN_ID>  (21) 
A A A A A A A A A A A Z Z Z Z Z Z Z Z Z Z Z Z Z Z Z

>  <atom.prop.IS_HEAVY_ATOM>  (21) 
1 0 0 0 1 0 0 1 0 0 0 1 0 0 0 1 1 0 1 0 1 0 1 0 1 0

>  <DIFUSE_FUNC_ATOM>  (21) 
n/a

>  <FINAL_SINGLE_POINT_ENERGY>  (21) 
0

>  <NONCOV_INTER_ENERGY_QM>  (21) 
0

>  <FF_Energy>  (21) 
6.67

>  <QM_Energy>  (21) 
-3.6

>  <source>  (21) 
ETAM_MBZ

>  <Index>  (21) 
4763

$$$$
ETAM-pdb2hiv-A-LYS-271:MBZ-pdb2hiv-A-PHE-276
     RDKit          3D

 26 25  0  0  0  0  0  0  0  0999 V2000
   -3.1071   -3.6976   -1.4896 C   0  0  0  0  0  0  0  0  0  0  0  0
   -3.0964   -4.1402   -0.5976 H   0  0  0  0  0  0  0  0  0  0  0  0
   -3.5418   -4.2898   -2.1615 H   0  0  0  0  0  0  0  0  0  0  0  0
   -3.6799   -2.7733   -1.4144 H   0  0  0  0  0  0  0  0  0  0  0  0
   -1.6595   -3.4512   -1.9254 C   0  0  0  0  0  0  0  0  0  0  0  0
   -1.6606   -2.9889   -2.8137 H   0  0  0  0  0  0  0  0  0  0  0  0
   -1.2102   -2.8632   -1.2491 H   0  0  0  0  0  0  0  0  0  0  0  0
   -0.8706   -4.7365   -2.0490 N   0  0  0  0  0  4  0  0  0  0  0  0
   -1.4930   -5.4693   -2.3095 H   0  0  0  0  0  0  0  0  0  0  0  0
   -0.1706   -4.6157   -2.7457 H   0  0  0  0  0  0  0  0  0  0  0  0
   -0.4495   -4.9385   -1.1695 H   0  0  0  0  0  0  0  0  0  0  0  0
   -0.0015    2.8888   -0.0121 C   0  0  0  0  0  0  0  0  0  0  0  0
   -0.6694    3.1905   -0.6813 H   0  0  0  0  0  0  0  0  0  0  0  0
    0.9081    3.2000   -0.2605 H   0  0  0  0  0  0  0  0  0  0  0  0
   -0.2584    3.3493    0.9419 H   0  0  0  0  0  0  0  0  0  0  0  0
    0.0019    1.4012    0.0078 C   0  0  0  0  0  0  0  0  0  0  0  0
   -1.1946    0.6906    0.0050 C   0  0  0  0  0  0  0  0  0  0  0  0
   -2.0619    1.1850    0.0057 H   0  0  0  0  0  0  0  0  0  0  0  0
   -1.2034   -0.6958   -0.0000 C   0  0  0  0  0  0  0  0  0  0  0  0
   -2.0815   -1.1888   -0.0033 H   0  0  0  0  0  0  0  0  0  0  0  0
   -0.0041   -1.4003    0.0013 C   0  0  0  0  0  0  0  0  0  0  0  0
   -0.0118   -2.3971    0.0021 H   0  0  0  0  0  0  0  0  0  0  0  0
    1.2034   -0.7061    0.0000 C   0  0  0  0  0  0  0  0  0  0  0  0
    2.0830   -1.1925    0.0100 H   0  0  0  0  0  0  0  0  0  0  0  0
    1.1967    0.7104   -0.0141 C   0  0  0  0  0  0  0  0  0  0  0  0
    2.0644    1.1939   -0.0412 H   0  0  0  0  0  0  0  0  0  0  0  0
  1  5  1  0
  5  8  1  0
  1  2  1  0
  1  3  1  0
  1  4  1  0
  5  6  1  0
  5  7  1  0
  8  9  1  0
  8 10  1  0
  8 11  1  0
 12 16  1  0
 16 17  2  0
 17 19  1  0
 19 21  2  0
 21 23  1  0
 23 25  2  0
 25 16  1  0
 12 13  1  0
 12 14  1  0
 12 15  1  0
 17 18  1  0
 19 20  1  0
 21 22  1  0
 23 24  1  0
 25 26  1  0
M  CHG  1   8   1
M  END
>  <PDB_ID>  (22) 
pdb2hiv

>  <RESIDUE_NAME>  (22) 
LYS   PHE

>  <FRAG_NAME>  (22) 
ETAM   MBZ

>  <FRAG_ATOM_NUM>  (22) 
fragi: 11  fragj: 15

>  <atom.prop.CHAIN_ID>  (22) 
A A A A A A A A A A A Z Z Z Z Z Z Z Z Z Z Z Z Z Z Z

>  <atom.prop.IS_HEAVY_ATOM>  (22) 
1 0 0 0 1 0 0 1 0 0 0 1 0 0 0 1 1 0 1 0 1 0 1 0 1 0

>  <DIFUSE_FUNC_ATOM>  (22) 
n/a

>  <FINAL_SINGLE_POINT_ENERGY>  (22) 
0

>  <NONCOV_INTER_ENERGY_QM>  (22) 
0

>  <FF_Energy>  (22) 
8.56

>  <QM_Energy>  (22) 
-1.98

>  <source>  (22) 
ETAM_MBZ

>  <Index>  (22) 
4893

$$$$
ETAM-pdb1hur-B-LYS-59:MBZ-pdb1hur-B-PHE-13
     RDKit          3D

 26 25  0  0  0  0  0  0  0  0999 V2000
    0.3881   -1.9391    3.1171 C   0  0  0  0  0  0  0  0  0  0  0  0
    0.3164   -2.9294    3.2230 H   0  0  0  0  0  0  0  0  0  0  0  0
    0.0253   -1.6676    2.2269 H   0  0  0  0  0  0  0  0  0  0  0  0
   -0.1893   -1.4527    3.9034 H   0  0  0  0  0  0  0  0  0  0  0  0
    1.8517   -1.5551    3.1756 C   0  0  0  0  0  0  0  0  0  0  0  0
    2.2291   -1.8334    4.0646 H   0  0  0  0  0  0  0  0  0  0  0  0
    2.3493   -2.0427    2.4498 H   0  0  0  0  0  0  0  0  0  0  0  0
    2.0571   -0.0871    3.0005 N   0  0  0  0  0  4  0  0  0  0  0  0
    1.5680    0.2190    2.1855 H   0  0  0  0  0  0  0  0  0  0  0  0
    1.7068    0.3926    3.8033 H   0  0  0  0  0  0  0  0  0  0  0  0
    3.0336    0.0989    2.8971 H   0  0  0  0  0  0  0  0  0  0  0  0
   -0.0090    2.9149   -0.1083 C   0  0  0  0  0  0  0  0  0  0  0  0
    0.6486    3.1886   -0.7862 H   0  0  0  0  0  0  0  0  0  0  0  0
    0.1881    3.2943    0.7771 H   0  0  0  0  0  0  0  0  0  0  0  0
   -0.9668    3.3322   -0.4189 H   0  0  0  0  0  0  0  0  0  0  0  0
    0.0004    1.4063   -0.0028 C   0  0  0  0  0  0  0  0  0  0  0  0
   -1.1953    0.6838    0.0031 C   0  0  0  0  0  0  0  0  0  0  0  0
   -2.0655    1.1749    0.0084 H   0  0  0  0  0  0  0  0  0  0  0  0
   -1.2017   -0.7063   -0.0000 C   0  0  0  0  0  0  0  0  0  0  0  0
   -2.0783   -1.1978    0.0047 H   0  0  0  0  0  0  0  0  0  0  0  0
   -0.0041   -1.3925   -0.0077 C   0  0  0  0  0  0  0  0  0  0  0  0
    0.0010   -2.3935   -0.0191 H   0  0  0  0  0  0  0  0  0  0  0  0
    1.2017   -0.6929   -0.0000 C   0  0  0  0  0  0  0  0  0  0  0  0
    2.0814   -1.1921    0.0019 H   0  0  0  0  0  0  0  0  0  0  0  0
    1.1990    0.7016    0.0074 C   0  0  0  0  0  0  0  0  0  0  0  0
    2.0653    1.1960    0.0196 H   0  0  0  0  0  0  0  0  0  0  0  0
  1  5  1  0
  5  8  1  0
  1  2  1  0
  1  3  1  0
  1  4  1  0
  5  6  1  0
  5  7  1  0
  8  9  1  0
  8 10  1  0
  8 11  1  0
 12 16  1  0
 16 17  2  0
 17 19  1  0
 19 21  2  0
 21 23  1  0
 23 25  2  0
 25 16  1  0
 12 13  1  0
 12 14  1  0
 12 15  1  0
 17 18  1  0
 19 20  1  0
 21 22  1  0
 23 24  1  0
 25 26  1  0
M  CHG  1   8   1
M  END
>  <PDB_ID>  (23) 
pdb1hur

>  <RESIDUE_NAME>  (23) 
LYS   PHE

>  <FRAG_NAME>  (23) 
ETAM   MBZ

>  <FRAG_ATOM_NUM>  (23) 
fragi: 11  fragj: 15

>  <atom.prop.CHAIN_ID>  (23) 
A A A A A A A A A A A Z Z Z Z Z Z Z Z Z Z Z Z Z Z Z

>  <atom.prop.IS_HEAVY_ATOM>  (23) 
1 0 0 0 1 0 0 1 0 0 0 1 0 0 0 1 1 0 1 0 1 0 1 0 1 0

>  <DIFUSE_FUNC_ATOM>  (23) 
n/a

>  <FINAL_SINGLE_POINT_ENERGY>  (23) 
0

>  <NONCOV_INTER_ENERGY_QM>  (23) 
0

>  <FF_Energy>  (23) 
-1.44

>  <QM_Energy>  (23) 
-11.95

>  <source>  (23) 
ETAM_MBZ

>  <Index>  (23) 
5608

$$$$
ETAM-pdb1iic-B-LYS-277:MBZ-pdb1iic-B-PHE-273
     RDKit          3D

 26 25  0  0  0  0  0  0  0  0999 V2000
    1.3545   -1.3202    3.9201 C   0  0  0  0  0  0  0  0  0  0  0  0
    1.7970   -0.4339    3.7628 H   0  0  0  0  0  0  0  0  0  0  0  0
    1.7996   -1.7767    4.6934 H   0  0  0  0  0  0  0  0  0  0  0  0
    0.3097   -1.1440    4.1764 H   0  0  0  0  0  0  0  0  0  0  0  0
    1.5227   -2.1738    2.6893 C   0  0  0  0  0  0  0  0  0  0  0  0
    1.1467   -3.0847    2.8631 H   0  0  0  0  0  0  0  0  0  0  0  0
    1.0340   -1.7530    1.9246 H   0  0  0  0  0  0  0  0  0  0  0  0
    2.9633   -2.3049    2.3306 N   0  0  0  0  0  4  0  0  0  0  0  0
    3.5242   -1.9507    3.0782 H   0  0  0  0  0  0  0  0  0  0  0  0
    3.1791   -3.2685    2.1774 H   0  0  0  0  0  0  0  0  0  0  0  0
    3.1453   -1.7825    1.4980 H   0  0  0  0  0  0  0  0  0  0  0  0
    0.0073    2.8975   -0.0310 C   0  0  0  0  0  0  0  0  0  0  0  0
   -0.4842    3.1911   -0.8391 H   0  0  0  0  0  0  0  0  0  0  0  0
    0.9497    3.2014   -0.0581 H   0  0  0  0  0  0  0  0  0  0  0  0
   -0.4663    3.3638    0.8329 H   0  0  0  0  0  0  0  0  0  0  0  0
    0.0012    1.3979   -0.0007 C   0  0  0  0  0  0  0  0  0  0  0  0
   -1.1926    0.6920   -0.0001 C   0  0  0  0  0  0  0  0  0  0  0  0
   -2.0602    1.1847   -0.0005 H   0  0  0  0  0  0  0  0  0  0  0  0
   -1.2015   -0.6954    0.0000 C   0  0  0  0  0  0  0  0  0  0  0  0
   -2.0811   -1.1867    0.0023 H   0  0  0  0  0  0  0  0  0  0  0  0
   -0.0061   -1.3922   -0.0010 C   0  0  0  0  0  0  0  0  0  0  0  0
   -0.0058   -2.3900   -0.0026 H   0  0  0  0  0  0  0  0  0  0  0  0
    1.2015   -0.6929   -0.0000 C   0  0  0  0  0  0  0  0  0  0  0  0
    2.0792   -1.1972    0.0005 H   0  0  0  0  0  0  0  0  0  0  0  0
    1.1975    0.6905    0.0018 C   0  0  0  0  0  0  0  0  0  0  0  0
    2.0653    1.1903    0.0041 H   0  0  0  0  0  0  0  0  0  0  0  0
  1  5  1  0
  5  8  1  0
  1  2  1  0
  1  3  1  0
  1  4  1  0
  5  6  1  0
  5  7  1  0
  8  9  1  0
  8 10  1  0
  8 11  1  0
 12 16  1  0
 16 17  2  0
 17 19  1  0
 19 21  2  0
 21 23  1  0
 23 25  2  0
 25 16  1  0
 12 13  1  0
 12 14  1  0
 12 15  1  0
 17 18  1  0
 19 20  1  0
 21 22  1  0
 23 24  1  0
 25 26  1  0
M  CHG  1   8   1
M  END
>  <PDB_ID>  (24) 
pdb1iic

>  <RESIDUE_NAME>  (24) 
LYS   PHE

>  <FRAG_NAME>  (24) 
ETAM   MBZ

>  <FRAG_ATOM_NUM>  (24) 
fragi: 11  fragj: 15

>  <atom.prop.CHAIN_ID>  (24) 
A A A A A A A A A A A Z Z Z Z Z Z Z Z Z Z Z Z Z Z Z

>  <atom.prop.IS_HEAVY_ATOM>  (24) 
1 0 0 0 1 0 0 1 0 0 0 1 0 0 0 1 1 0 1 0 1 0 1 0 1 0

>  <DIFUSE_FUNC_ATOM>  (24) 
n/a

>  <FINAL_SINGLE_POINT_ENERGY>  (24) 
0

>  <NONCOV_INTER_ENERGY_QM>  (24) 
0

>  <FF_Energy>  (24) 
10.96

>  <QM_Energy>  (24) 
-3.91

>  <source>  (24) 
ETAM_MBZ

>  <Index>  (24) 
6070

$$$$
ETAM-pdb1in0-B-LYS-148:MBZ-pdb1in0-B-PHE-158
     RDKit          3D

 26 25  0  0  0  0  0  0  0  0999 V2000
    4.0074   -1.8246    2.6108 C   0  0  0  0  0  0  0  0  0  0  0  0
    3.4246   -1.8995    3.4069 H   0  0  0  0  0  0  0  0  0  0  0  0
    4.9630   -1.8035    2.8664 H   0  0  0  0  0  0  0  0  0  0  0  0
    3.8314   -2.6814    1.9605 H   0  0  0  0  0  0  0  0  0  0  0  0
    3.6709   -0.5269    1.8823 C   0  0  0  0  0  0  0  0  0  0  0  0
    4.1836   -0.5123    0.9913 H   0  0  0  0  0  0  0  0  0  0  0  0
    2.6767   -0.5493    1.6201 H   0  0  0  0  0  0  0  0  0  0  0  0
    3.9365    0.7707    2.5970 N   0  0  0  0  0  4  0  0  0  0  0  0
    4.9090    0.9830    2.5315 H   0  0  0  0  0  0  0  0  0  0  0  0
    3.4001    1.4922    2.1671 H   0  0  0  0  0  0  0  0  0  0  0  0
    3.6718    0.6735    3.5534 H   0  0  0  0  0  0  0  0  0  0  0  0
   -0.0742    2.9096    0.0099 C   0  0  0  0  0  0  0  0  0  0  0  0
    0.8277    3.2590    0.1537 H   0  0  0  0  0  0  0  0  0  0  0  0
   -0.7122    3.1984    0.6933 H   0  0  0  0  0  0  0  0  0  0  0  0
   -0.4253    3.2855   -0.9512 H   0  0  0  0  0  0  0  0  0  0  0  0
   -0.0108    1.4121    0.0215 C   0  0  0  0  0  0  0  0  0  0  0  0
   -1.1911    0.6709   -0.0209 C   0  0  0  0  0  0  0  0  0  0  0  0
   -2.0722    1.1518   -0.0691 H   0  0  0  0  0  0  0  0  0  0  0  0
   -1.2006   -0.7330   -0.0000 C   0  0  0  0  0  0  0  0  0  0  0  0
   -2.0652   -1.2216    0.0245 H   0  0  0  0  0  0  0  0  0  0  0  0
    0.0140   -1.3999   -0.0126 C   0  0  0  0  0  0  0  0  0  0  0  0
    0.0376   -2.3968   -0.0309 H   0  0  0  0  0  0  0  0  0  0  0  0
    1.2006   -0.6715    0.0000 C   0  0  0  0  0  0  0  0  0  0  0  0
    2.0949   -1.1596    0.0025 H   0  0  0  0  0  0  0  0  0  0  0  0
    1.1879    0.7214    0.0119 C   0  0  0  0  0  0  0  0  0  0  0  0
    2.0528    1.2210    0.0131 H   0  0  0  0  0  0  0  0  0  0  0  0
  1  5  1  0
  5  8  1  0
  1  2  1  0
  1  3  1  0
  1  4  1  0
  5  6  1  0
  5  7  1  0
  8  9  1  0
  8 10  1  0
  8 11  1  0
 12 16  1  0
 16 17  2  0
 17 19  1  0
 19 21  2  0
 21 23  1  0
 23 25  2  0
 25 16  1  0
 12 13  1  0
 12 14  1  0
 12 15  1  0
 17 18  1  0
 19 20  1  0
 21 22  1  0
 23 24  1  0
 25 26  1  0
M  CHG  1   8   1
M  END
>  <PDB_ID>  (25) 
pdb1in0

>  <RESIDUE_NAME>  (25) 
LYS   PHE

>  <FRAG_NAME>  (25) 
ETAM   MBZ

>  <FRAG_ATOM_NUM>  (25) 
fragi: 11  fragj: 15

>  <atom.prop.CHAIN_ID>  (25) 
A A A A A A A A A A A Z Z Z Z Z Z Z Z Z Z Z Z Z Z Z

>  <atom.prop.IS_HEAVY_ATOM>  (25) 
1 0 0 0 1 0 0 1 0 0 0 1 0 0 0 1 1 0 1 0 1 0 1 0 1 0

>  <DIFUSE_FUNC_ATOM>  (25) 
n/a

>  <FINAL_SINGLE_POINT_ENERGY>  (25) 
0

>  <NONCOV_INTER_ENERGY_QM>  (25) 
0

>  <FF_Energy>  (25) 
9.79

>  <QM_Energy>  (25) 
-2.28

>  <source>  (25) 
ETAM_MBZ

>  <Index>  (25) 
6221

$$$$
ETAM-pdb2nxz-A-LYS-490:MBZ-pdb2nxz-A-PHE-223
     RDKit          3D

 26 25  0  0  0  0  0  0  0  0999 V2000
    2.6740   -1.9218    2.4393 C   0  0  0  0  0  0  0  0  0  0  0  0
    2.2770   -1.4052    1.6898 H   0  0  0  0  0  0  0  0  0  0  0  0
    3.6646   -1.8549    2.4248 H   0  0  0  0  0  0  0  0  0  0  0  0
    2.3042   -1.5186    3.3820 H   0  0  0  0  0  0  0  0  0  0  0  0
    2.2878   -3.3939    2.2696 C   0  0  0  0  0  0  0  0  0  0  0  0
    2.3444   -3.6307    1.2906 H   0  0  0  0  0  0  0  0  0  0  0  0
    2.9556   -3.9618    2.7685 H   0  0  0  0  0  0  0  0  0  0  0  0
    0.9127   -3.7094    2.7675 N   0  0  0  0  0  4  0  0  0  0  0  0
    0.2474   -3.4783    2.0601 H   0  0  0  0  0  0  0  0  0  0  0  0
    0.8563   -4.6838    2.9790 H   0  0  0  0  0  0  0  0  0  0  0  0
    0.7313   -3.1737    3.5905 H   0  0  0  0  0  0  0  0  0  0  0  0
   -0.0022    2.8906   -0.0001 C   0  0  0  0  0  0  0  0  0  0  0  0
   -0.6613    3.1988   -0.6710 H   0  0  0  0  0  0  0  0  0  0  0  0
    0.9105    3.2010   -0.2243 H   0  0  0  0  0  0  0  0  0  0  0  0
   -0.2751    3.3305    0.9591 H   0  0  0  0  0  0  0  0  0  0  0  0
   -0.0001    1.3938    0.0006 C   0  0  0  0  0  0  0  0  0  0  0  0
   -1.1933    0.6852   -0.0028 C   0  0  0  0  0  0  0  0  0  0  0  0
   -2.0606    1.1785   -0.0085 H   0  0  0  0  0  0  0  0  0  0  0  0
   -1.1980   -0.6959   -0.0000 C   0  0  0  0  0  0  0  0  0  0  0  0
   -2.0739   -1.1932    0.0029 H   0  0  0  0  0  0  0  0  0  0  0  0
    0.0002   -1.3862    0.0010 C   0  0  0  0  0  0  0  0  0  0  0  0
   -0.0006   -2.3867    0.0014 H   0  0  0  0  0  0  0  0  0  0  0  0
    1.1980   -0.6900    0.0000 C   0  0  0  0  0  0  0  0  0  0  0  0
    2.0799   -1.1899   -0.0005 H   0  0  0  0  0  0  0  0  0  0  0  0
    1.1932    0.6930    0.0012 C   0  0  0  0  0  0  0  0  0  0  0  0
    2.0615    1.1918    0.0022 H   0  0  0  0  0  0  0  0  0  0  0  0
  1  5  1  0
  5  8  1  0
  1  2  1  0
  1  3  1  0
  1  4  1  0
  5  6  1  0
  5  7  1  0
  8  9  1  0
  8 10  1  0
  8 11  1  0
 12 16  1  0
 16 17  2  0
 17 19  1  0
 19 21  2  0
 21 23  1  0
 23 25  2  0
 25 16  1  0
 12 13  1  0
 12 14  1  0
 12 15  1  0
 17 18  1  0
 19 20  1  0
 21 22  1  0
 23 24  1  0
 25 26  1  0
M  CHG  1   8   1
M  END
>  <PDB_ID>  (26) 
pdb2nxz

>  <RESIDUE_NAME>  (26) 
LYS   PHE

>  <FRAG_NAME>  (26) 
ETAM   MBZ

>  <FRAG_ATOM_NUM>  (26) 
fragi: 11  fragj: 15

>  <atom.prop.CHAIN_ID>  (26) 
A A A A A A A A A A A Z Z Z Z Z Z Z Z Z Z Z Z Z Z Z

>  <atom.prop.IS_HEAVY_ATOM>  (26) 
1 0 0 0 1 0 0 1 0 0 0 1 0 0 0 1 1 0 1 0 1 0 1 0 1 0

>  <DIFUSE_FUNC_ATOM>  (26) 
n/a

>  <FINAL_SINGLE_POINT_ENERGY>  (26) 
0

>  <NONCOV_INTER_ENERGY_QM>  (26) 
0

>  <FF_Energy>  (26) 
12.95

>  <QM_Energy>  (26) 
-2.32

>  <source>  (26) 
ETAM_MBZ

>  <Index>  (26) 
6511

$$$$
ETAM-pdb2o18-B-LYS-21:MBZ-pdb2o18-B-PHE-26
     RDKit          3D

 26 25  0  0  0  0  0  0  0  0999 V2000
   -3.4695   -1.3367   -2.9353 C   0  0  0  0  0  0  0  0  0  0  0  0
   -4.1328   -1.6003   -3.6306 H   0  0  0  0  0  0  0  0  0  0  0  0
   -2.5439   -1.4974   -3.2665 H   0  0  0  0  0  0  0  0  0  0  0  0
   -3.5895   -0.2763   -2.7130 H   0  0  0  0  0  0  0  0  0  0  0  0
   -3.6964   -2.2212   -1.6991 C   0  0  0  0  0  0  0  0  0  0  0  0
   -2.9648   -2.0392   -1.0331 H   0  0  0  0  0  0  0  0  0  0  0  0
   -4.5769   -1.9721   -1.2800 H   0  0  0  0  0  0  0  0  0  0  0  0
   -3.7107   -3.7015   -2.0111 N   0  0  0  0  0  4  0  0  0  0  0  0
   -4.6467   -4.0332   -1.9428 H   0  0  0  0  0  0  0  0  0  0  0  0
   -3.3636   -3.8361   -2.9345 H   0  0  0  0  0  0  0  0  0  0  0  0
   -3.1307   -4.1719   -1.3528 H   0  0  0  0  0  0  0  0  0  0  0  0
    0.0066    2.9002   -0.0388 C   0  0  0  0  0  0  0  0  0  0  0  0
    0.8748    3.2143    0.3146 H   0  0  0  0  0  0  0  0  0  0  0  0
   -0.7463    3.2247    0.5135 H   0  0  0  0  0  0  0  0  0  0  0  0
   -0.1139    3.3123   -1.0406 H   0  0  0  0  0  0  0  0  0  0  0  0
    0.0019    1.4025   -0.0004 C   0  0  0  0  0  0  0  0  0  0  0  0
   -1.1980    0.6947    0.0002 C   0  0  0  0  0  0  0  0  0  0  0  0
   -2.0629    1.1872   -0.0006 H   0  0  0  0  0  0  0  0  0  0  0  0
   -1.2067   -0.6965    0.0000 C   0  0  0  0  0  0  0  0  0  0  0  0
   -2.0835   -1.1878    0.0019 H   0  0  0  0  0  0  0  0  0  0  0  0
   -0.0054   -1.3951   -0.0008 C   0  0  0  0  0  0  0  0  0  0  0  0
   -0.0078   -2.3934   -0.0020 H   0  0  0  0  0  0  0  0  0  0  0  0
    1.2067   -0.6986    0.0000 C   0  0  0  0  0  0  0  0  0  0  0  0
    2.0818   -1.1998    0.0015 H   0  0  0  0  0  0  0  0  0  0  0  0
    1.2014    0.6930    0.0009 C   0  0  0  0  0  0  0  0  0  0  0  0
    2.0679    1.1902    0.0016 H   0  0  0  0  0  0  0  0  0  0  0  0
  1  5  1  0
  5  8  1  0
  1  2  1  0
  1  3  1  0
  1  4  1  0
  5  6  1  0
  5  7  1  0
  8  9  1  0
  8 10  1  0
  8 11  1  0
 12 16  1  0
 16 17  2  0
 17 19  1  0
 19 21  2  0
 21 23  1  0
 23 25  2  0
 25 16  1  0
 12 13  1  0
 12 14  1  0
 12 15  1  0
 17 18  1  0
 19 20  1  0
 21 22  1  0
 23 24  1  0
 25 26  1  0
M  CHG  1   8   1
M  END
>  <PDB_ID>  (27) 
pdb2o18

>  <RESIDUE_NAME>  (27) 
LYS   PHE

>  <FRAG_NAME>  (27) 
ETAM   MBZ

>  <FRAG_ATOM_NUM>  (27) 
fragi: 11  fragj: 15

>  <atom.prop.CHAIN_ID>  (27) 
A A A A A A A A A A A Z Z Z Z Z Z Z Z Z Z Z Z Z Z Z

>  <atom.prop.IS_HEAVY_ATOM>  (27) 
1 0 0 0 1 0 0 1 0 0 0 1 0 0 0 1 1 0 1 0 1 0 1 0 1 0

>  <DIFUSE_FUNC_ATOM>  (27) 
n/a

>  <FINAL_SINGLE_POINT_ENERGY>  (27) 
0

>  <NONCOV_INTER_ENERGY_QM>  (27) 
0

>  <FF_Energy>  (27) 
16.8

>  <QM_Energy>  (27) 
-0.51

>  <source>  (27) 
ETAM_MBZ

>  <Index>  (27) 
6606

$$$$
ETAM-pdb1jey-B-LYS-35:MBZ-pdb1jey-B-PHE-31
     RDKit          3D

 26 25  0  0  0  0  0  0  0  0999 V2000
    1.8537   -1.7707    3.3228 C   0  0  0  0  0  0  0  0  0  0  0  0
    2.0135   -2.7417    3.1653 H   0  0  0  0  0  0  0  0  0  0  0  0
    0.9440   -1.5183    3.0047 H   0  0  0  0  0  0  0  0  0  0  0  0
    1.9187   -1.5747    4.3931 H   0  0  0  0  0  0  0  0  0  0  0  0
    2.8869   -0.9729    2.5109 C   0  0  0  0  0  0  0  0  0  0  0  0
    2.5921   -0.9651    1.5415 H   0  0  0  0  0  0  0  0  0  0  0  0
    2.8760   -0.0131    2.8366 H   0  0  0  0  0  0  0  0  0  0  0  0
    4.2817   -1.4986    2.5916 N   0  0  0  0  0  4  0  0  0  0  0  0
    4.4348   -2.1429    1.8443 H   0  0  0  0  0  0  0  0  0  0  0  0
    4.9254   -0.7384    2.5166 H   0  0  0  0  0  0  0  0  0  0  0  0
    4.4092   -1.9625    3.4676 H   0  0  0  0  0  0  0  0  0  0  0  0
   -0.0014    2.9149   -0.0103 C   0  0  0  0  0  0  0  0  0  0  0  0
   -0.7477    3.2150   -0.5844 H   0  0  0  0  0  0  0  0  0  0  0  0
    0.8707    3.2148   -0.3678 H   0  0  0  0  0  0  0  0  0  0  0  0
   -0.1331    3.3646    0.9739 H   0  0  0  0  0  0  0  0  0  0  0  0
   -0.0031    1.4055   -0.0008 C   0  0  0  0  0  0  0  0  0  0  0  0
   -1.1924    0.6990    0.0001 C   0  0  0  0  0  0  0  0  0  0  0  0
   -2.0631    1.1834   -0.0009 H   0  0  0  0  0  0  0  0  0  0  0  0
   -1.1986   -0.6996    0.0000 C   0  0  0  0  0  0  0  0  0  0  0  0
   -2.0759   -1.1886    0.0015 H   0  0  0  0  0  0  0  0  0  0  0  0
    0.0029   -1.3977   -0.0005 C   0  0  0  0  0  0  0  0  0  0  0  0
   -0.0042   -2.3961   -0.0018 H   0  0  0  0  0  0  0  0  0  0  0  0
    1.1986   -0.7031   -0.0000 C   0  0  0  0  0  0  0  0  0  0  0  0
    2.0830   -1.1936    0.0009 H   0  0  0  0  0  0  0  0  0  0  0  0
    1.1927    0.6959    0.0013 C   0  0  0  0  0  0  0  0  0  0  0  0
    2.0621    1.1889    0.0032 H   0  0  0  0  0  0  0  0  0  0  0  0
  1  5  1  0
  5  8  1  0
  1  2  1  0
  1  3  1  0
  1  4  1  0
  5  6  1  0
  5  7  1  0
  8  9  1  0
  8 10  1  0
  8 11  1  0
 12 16  1  0
 16 17  2  0
 17 19  1  0
 19 21  2  0
 21 23  1  0
 23 25  2  0
 25 16  1  0
 12 13  1  0
 12 14  1  0
 12 15  1  0
 17 18  1  0
 19 20  1  0
 21 22  1  0
 23 24  1  0
 25 26  1  0
M  CHG  1   8   1
M  END
>  <PDB_ID>  (28) 
pdb1jey

>  <RESIDUE_NAME>  (28) 
LYS   PHE

>  <FRAG_NAME>  (28) 
ETAM   MBZ

>  <FRAG_ATOM_NUM>  (28) 
fragi: 11  fragj: 15

>  <atom.prop.CHAIN_ID>  (28) 
A A A A A A A A A A A Z Z Z Z Z Z Z Z Z Z Z Z Z Z Z

>  <atom.prop.IS_HEAVY_ATOM>  (28) 
1 0 0 0 1 0 0 1 0 0 0 1 0 0 0 1 1 0 1 0 1 0 1 0 1 0

>  <DIFUSE_FUNC_ATOM>  (28) 
n/a

>  <FINAL_SINGLE_POINT_ENERGY>  (28) 
0

>  <NONCOV_INTER_ENERGY_QM>  (28) 
0

>  <FF_Energy>  (28) 
22.65

>  <QM_Energy>  (28) 
-0.86

>  <source>  (28) 
ETAM_MBZ

>  <Index>  (28) 
6709

$$$$
ETAM-pdb2p9j-F-LYS-7:MBZ-pdb2p9j-B-PHE-158
     RDKit          3D

 26 25  0  0  0  0  0  0  0  0999 V2000
   -0.2760   -5.5093   -0.6357 C   0  0  0  0  0  0  0  0  0  0  0  0
   -0.1814   -5.8557    0.2902 H   0  0  0  0  0  0  0  0  0  0  0  0
   -0.2398   -6.2526   -1.2927 H   0  0  0  0  0  0  0  0  0  0  0  0
   -1.2385   -5.0059   -0.7258 H   0  0  0  0  0  0  0  0  0  0  0  0
    0.8815   -4.5546   -0.9179 C   0  0  0  0  0  0  0  0  0  0  0  0
    0.8916   -3.8365   -0.2100 H   0  0  0  0  0  0  0  0  0  0  0  0
    1.7483   -5.0663   -0.8584 H   0  0  0  0  0  0  0  0  0  0  0  0
    0.8028   -3.8972   -2.2700 N   0  0  0  0  0  4  0  0  0  0  0  0
    1.7007   -3.9368   -2.7008 H   0  0  0  0  0  0  0  0  0  0  0  0
    0.1341   -4.3834   -2.8274 H   0  0  0  0  0  0  0  0  0  0  0  0
    0.5230   -2.9478   -2.1515 H   0  0  0  0  0  0  0  0  0  0  0  0
    0.0038    2.8839    0.0280 C   0  0  0  0  0  0  0  0  0  0  0  0
   -0.7141    3.2075   -0.5686 H   0  0  0  0  0  0  0  0  0  0  0  0
    0.8919    3.1974   -0.2705 H   0  0  0  0  0  0  0  0  0  0  0  0
   -0.1778    3.2993    1.0193 H   0  0  0  0  0  0  0  0  0  0  0  0
    0.0004    1.3895   -0.0019 C   0  0  0  0  0  0  0  0  0  0  0  0
   -1.1915    0.6904    0.0105 C   0  0  0  0  0  0  0  0  0  0  0  0
   -2.0574    1.1866    0.0261 H   0  0  0  0  0  0  0  0  0  0  0  0
   -1.1941   -0.6832    0.0000 C   0  0  0  0  0  0  0  0  0  0  0  0
   -2.0755   -1.1818   -0.0023 H   0  0  0  0  0  0  0  0  0  0  0  0
   -0.0041   -1.3789   -0.0056 C   0  0  0  0  0  0  0  0  0  0  0  0
   -0.0133   -2.3827   -0.0141 H   0  0  0  0  0  0  0  0  0  0  0  0
    1.1941   -0.6963   -0.0000 C   0  0  0  0  0  0  0  0  0  0  0  0
    2.0730   -1.2037    0.0082 H   0  0  0  0  0  0  0  0  0  0  0  0
    1.1952    0.6785   -0.0030 C   0  0  0  0  0  0  0  0  0  0  0  0
    2.0629    1.1790   -0.0067 H   0  0  0  0  0  0  0  0  0  0  0  0
  1  5  1  0
  5  8  1  0
  1  2  1  0
  1  3  1  0
  1  4  1  0
  5  6  1  0
  5  7  1  0
  8  9  1  0
  8 10  1  0
  8 11  1  0
 12 16  1  0
 16 17  2  0
 17 19  1  0
 19 21  2  0
 21 23  1  0
 23 25  2  0
 25 16  1  0
 12 13  1  0
 12 14  1  0
 12 15  1  0
 17 18  1  0
 19 20  1  0
 21 22  1  0
 23 24  1  0
 25 26  1  0
M  CHG  1   8   1
M  END
>  <PDB_ID>  (29) 
pdb2p9j

>  <RESIDUE_NAME>  (29) 
LYS   PHE

>  <FRAG_NAME>  (29) 
ETAM   MBZ

>  <FRAG_ATOM_NUM>  (29) 
fragi: 11  fragj: 15

>  <atom.prop.CHAIN_ID>  (29) 
A A A A A A A A A A A Z Z Z Z Z Z Z Z Z Z Z Z Z Z Z

>  <atom.prop.IS_HEAVY_ATOM>  (29) 
1 0 0 0 1 0 0 1 0 0 0 1 0 0 0 1 1 0 1 0 1 0 1 0 1 0

>  <DIFUSE_FUNC_ATOM>  (29) 
n/a

>  <FINAL_SINGLE_POINT_ENERGY>  (29) 
0

>  <NONCOV_INTER_ENERGY_QM>  (29) 
0

>  <FF_Energy>  (29) 
6.5

>  <QM_Energy>  (29) 
-5.48

>  <source>  (29) 
ETAM_MBZ

>  <Index>  (29) 
7570

$$$$
ETAM-pdb1ky7-A-LYS-841:MBZ-pdb1ky7-P-PHE-323
     RDKit          3D

 26 25  0  0  0  0  0  0  0  0999 V2000
    3.5237   -2.1338   -3.6642 C   0  0  0  0  0  0  0  0  0  0  0  0
    3.0347   -2.8754   -3.2283 H   0  0  0  0  0  0  0  0  0  0  0  0
    4.4893   -2.1665   -3.4543 H   0  0  0  0  0  0  0  0  0  0  0  0
    3.3836   -2.1927   -4.7436 H   0  0  0  0  0  0  0  0  0  0  0  0
    2.9631   -0.8162   -3.1430 C   0  0  0  0  0  0  0  0  0  0  0  0
    3.2414   -0.0754   -3.7689 H   0  0  0  0  0  0  0  0  0  0  0  0
    1.9554   -0.8675   -3.1490 H   0  0  0  0  0  0  0  0  0  0  0  0
    3.4242   -0.4875   -1.7657 N   0  0  0  0  0  4  0  0  0  0  0  0
    3.4013   -1.3135   -1.2028 H   0  0  0  0  0  0  0  0  0  0  0  0
    4.3584   -0.1335   -1.8052 H   0  0  0  0  0  0  0  0  0  0  0  0
    2.8204    0.2040   -1.3699 H   0  0  0  0  0  0  0  0  0  0  0  0
   -0.0024    2.9230    0.0240 C   0  0  0  0  0  0  0  0  0  0  0  0
    0.9164    3.2302   -0.1691 H   0  0  0  0  0  0  0  0  0  0  0  0
   -0.3010    3.2112    0.9206 H   0  0  0  0  0  0  0  0  0  0  0  0
   -0.6681    3.3742   -0.7118 H   0  0  0  0  0  0  0  0  0  0  0  0
   -0.0005    1.4110    0.0002 C   0  0  0  0  0  0  0  0  0  0  0  0
   -1.1968    0.6942   -0.0005 C   0  0  0  0  0  0  0  0  0  0  0  0
   -2.0655    1.1832   -0.0027 H   0  0  0  0  0  0  0  0  0  0  0  0
   -1.2050   -0.7029    0.0000 C   0  0  0  0  0  0  0  0  0  0  0  0
   -2.0822   -1.1920    0.0010 H   0  0  0  0  0  0  0  0  0  0  0  0
   -0.0026   -1.4024    0.0006 C   0  0  0  0  0  0  0  0  0  0  0  0
   -0.0041   -2.3980    0.0006 H   0  0  0  0  0  0  0  0  0  0  0  0
    1.2050   -0.7011    0.0000 C   0  0  0  0  0  0  0  0  0  0  0  0
    2.0847   -1.1956    0.0012 H   0  0  0  0  0  0  0  0  0  0  0  0
    1.1999    0.7012   -0.0003 C   0  0  0  0  0  0  0  0  0  0  0  0
    2.0676    1.1934   -0.0020 H   0  0  0  0  0  0  0  0  0  0  0  0
  1  5  1  0
  5  8  1  0
  1  2  1  0
  1  3  1  0
  1  4  1  0
  5  6  1  0
  5  7  1  0
  8  9  1  0
  8 10  1  0
  8 11  1  0
 12 16  1  0
 16 17  2  0
 17 19  1  0
 19 21  2  0
 21 23  1  0
 23 25  2  0
 25 16  1  0
 12 13  1  0
 12 14  1  0
 12 15  1  0
 17 18  1  0
 19 20  1  0
 21 22  1  0
 23 24  1  0
 25 26  1  0
M  CHG  1   8   1
M  END
>  <PDB_ID>  (30) 
pdb1ky7

>  <RESIDUE_NAME>  (30) 
LYS   PHE

>  <FRAG_NAME>  (30) 
ETAM   MBZ

>  <FRAG_ATOM_NUM>  (30) 
fragi: 11  fragj: 15

>  <atom.prop.CHAIN_ID>  (30) 
A A A A A A A A A A A Z Z Z Z Z Z Z Z Z Z Z Z Z Z Z

>  <atom.prop.IS_HEAVY_ATOM>  (30) 
1 0 0 0 1 0 0 1 0 0 0 1 0 0 0 1 1 0 1 0 1 0 1 0 1 0

>  <DIFUSE_FUNC_ATOM>  (30) 
n/a

>  <FINAL_SINGLE_POINT_ENERGY>  (30) 
0

>  <NONCOV_INTER_ENERGY_QM>  (30) 
0

>  <FF_Energy>  (30) 
5.22

>  <QM_Energy>  (30) 
-4.81

>  <source>  (30) 
ETAM_MBZ

>  <Index>  (30) 
7601

$$$$
ETAM-pdb1ldn-C-LYS-69:MBZ-pdb1ldn-B-PHE-172
     RDKit          3D

 26 25  0  0  0  0  0  0  0  0999 V2000
   -3.6332    0.5747   -3.3635 C   0  0  0  0  0  0  0  0  0  0  0  0
   -4.1424    0.0506   -4.0467 H   0  0  0  0  0  0  0  0  0  0  0  0
   -2.7556    0.1282   -3.1876 H   0  0  0  0  0  0  0  0  0  0  0  0
   -3.4474    1.5747   -3.7555 H   0  0  0  0  0  0  0  0  0  0  0  0
   -4.4337    0.5885   -2.0712 C   0  0  0  0  0  0  0  0  0  0  0  0
   -4.4456    1.5190   -1.7048 H   0  0  0  0  0  0  0  0  0  0  0  0
   -5.3711    0.2958   -2.2643 H   0  0  0  0  0  0  0  0  0  0  0  0
   -3.8353   -0.3286   -1.0563 N   0  0  0  0  0  4  0  0  0  0  0  0
   -3.6850   -1.2251   -1.4710 H   0  0  0  0  0  0  0  0  0  0  0  0
   -2.9643    0.0483   -0.7450 H   0  0  0  0  0  0  0  0  0  0  0  0
   -4.4607   -0.4159   -0.2819 H   0  0  0  0  0  0  0  0  0  0  0  0
    0.0332    2.8927    0.0019 C   0  0  0  0  0  0  0  0  0  0  0  0
   -0.6723    3.2158   -0.6148 H   0  0  0  0  0  0  0  0  0  0  0  0
    0.9318    3.1765   -0.3067 H   0  0  0  0  0  0  0  0  0  0  0  0
   -0.1447    3.3339    0.9826 H   0  0  0  0  0  0  0  0  0  0  0  0
   -0.0017    1.3919   -0.0068 C   0  0  0  0  0  0  0  0  0  0  0  0
   -1.2186    0.7034    0.0125 C   0  0  0  0  0  0  0  0  0  0  0  0
   -2.0700    1.1948    0.0335 H   0  0  0  0  0  0  0  0  0  0  0  0
   -1.2146   -0.6909    0.0000 C   0  0  0  0  0  0  0  0  0  0  0  0
   -2.0774   -1.1982   -0.0031 H   0  0  0  0  0  0  0  0  0  0  0  0
    0.0172   -1.3950   -0.0071 C   0  0  0  0  0  0  0  0  0  0  0  0
    0.0010   -2.3914   -0.0176 H   0  0  0  0  0  0  0  0  0  0  0  0
    1.2146   -0.6993   -0.0000 C   0  0  0  0  0  0  0  0  0  0  0  0
    2.0967   -1.1931    0.0062 H   0  0  0  0  0  0  0  0  0  0  0  0
    1.2032    0.6900    0.0015 C   0  0  0  0  0  0  0  0  0  0  0  0
    2.0660    1.1928    0.0076 H   0  0  0  0  0  0  0  0  0  0  0  0
  1  5  1  0
  5  8  1  0
  1  2  1  0
  1  3  1  0
  1  4  1  0
  5  6  1  0
  5  7  1  0
  8  9  1  0
  8 10  1  0
  8 11  1  0
 12 16  1  0
 16 17  2  0
 17 19  1  0
 19 21  2  0
 21 23  1  0
 23 25  2  0
 25 16  1  0
 12 13  1  0
 12 14  1  0
 12 15  1  0
 17 18  1  0
 19 20  1  0
 21 22  1  0
 23 24  1  0
 25 26  1  0
M  CHG  1   8   1
M  END
>  <PDB_ID>  (31) 
pdb1ldn

>  <RESIDUE_NAME>  (31) 
LYS   PHE

>  <FRAG_NAME>  (31) 
ETAM   MBZ

>  <FRAG_ATOM_NUM>  (31) 
fragi: 11  fragj: 15

>  <atom.prop.CHAIN_ID>  (31) 
A A A A A A A A A A A Z Z Z Z Z Z Z Z Z Z Z Z Z Z Z

>  <atom.prop.IS_HEAVY_ATOM>  (31) 
1 0 0 0 1 0 0 1 0 0 0 1 0 0 0 1 1 0 1 0 1 0 1 0 1 0

>  <DIFUSE_FUNC_ATOM>  (31) 
n/a

>  <FINAL_SINGLE_POINT_ENERGY>  (31) 
0

>  <NONCOV_INTER_ENERGY_QM>  (31) 
0

>  <FF_Energy>  (31) 
9.34

>  <QM_Energy>  (31) 
-1.36

>  <source>  (31) 
ETAM_MBZ

>  <Index>  (31) 
7891

$$$$
ETAM-pdb1k9a-D-LYS-222:MBZ-pdb1k9a-D-PHE-233
     RDKit          3D

 26 25  0  0  0  0  0  0  0  0999 V2000
    1.7825    0.3009   -3.2263 C   0  0  0  0  0  0  0  0  0  0  0  0
    2.4392   -0.2908   -2.7743 H   0  0  0  0  0  0  0  0  0  0  0  0
    1.7429    1.1864   -2.7776 H   0  0  0  0  0  0  0  0  0  0  0  0
    2.0705    0.4337   -4.2692 H   0  0  0  0  0  0  0  0  0  0  0  0
    0.4188   -0.3416   -3.1411 C   0  0  0  0  0  0  0  0  0  0  0  0
    0.1121   -0.3412   -2.1885 H   0  0  0  0  0  0  0  0  0  0  0  0
   -0.2288    0.1833   -3.6963 H   0  0  0  0  0  0  0  0  0  0  0  0
    0.4572   -1.7463   -3.6381 N   0  0  0  0  0  4  0  0  0  0  0  0
    0.5333   -2.3698   -2.8604 H   0  0  0  0  0  0  0  0  0  0  0  0
   -0.3823   -1.9408   -4.1433 H   0  0  0  0  0  0  0  0  0  0  0  0
    1.2465   -1.8622   -4.2397 H   0  0  0  0  0  0  0  0  0  0  0  0
    0.0092    2.9126    0.0324 C   0  0  0  0  0  0  0  0  0  0  0  0
   -0.7701    3.2323   -0.4819 H   0  0  0  0  0  0  0  0  0  0  0  0
    0.8588    3.2212   -0.3635 H   0  0  0  0  0  0  0  0  0  0  0  0
   -0.0611    3.3249    1.0390 H   0  0  0  0  0  0  0  0  0  0  0  0
    0.0016    1.4063   -0.0001 C   0  0  0  0  0  0  0  0  0  0  0  0
   -1.1987    0.6982    0.0006 C   0  0  0  0  0  0  0  0  0  0  0  0
   -2.0640    1.1863    0.0004 H   0  0  0  0  0  0  0  0  0  0  0  0
   -1.2051   -0.7010    0.0000 C   0  0  0  0  0  0  0  0  0  0  0  0
   -2.0817   -1.1910    0.0002 H   0  0  0  0  0  0  0  0  0  0  0  0
   -0.0013   -1.4002    0.0006 C   0  0  0  0  0  0  0  0  0  0  0  0
   -0.0030   -2.3959    0.0010 H   0  0  0  0  0  0  0  0  0  0  0  0
    1.2051   -0.6974   -0.0000 C   0  0  0  0  0  0  0  0  0  0  0  0
    2.0849   -1.1957    0.0015 H   0  0  0  0  0  0  0  0  0  0  0  0
    1.1984    0.6942   -0.0010 C   0  0  0  0  0  0  0  0  0  0  0  0
    2.0672    1.1913   -0.0033 H   0  0  0  0  0  0  0  0  0  0  0  0
  1  5  1  0
  5  8  1  0
  1  2  1  0
  1  3  1  0
  1  4  1  0
  5  6  1  0
  5  7  1  0
  8  9  1  0
  8 10  1  0
  8 11  1  0
 12 16  1  0
 16 17  2  0
 17 19  1  0
 19 21  2  0
 21 23  1  0
 23 25  2  0
 25 16  1  0
 12 13  1  0
 12 14  1  0
 12 15  1  0
 17 18  1  0
 19 20  1  0
 21 22  1  0
 23 24  1  0
 25 26  1  0
M  CHG  1   8   1
M  END
>  <PDB_ID>  (32) 
pdb1k9a

>  <RESIDUE_NAME>  (32) 
LYS   PHE

>  <FRAG_NAME>  (32) 
ETAM   MBZ

>  <FRAG_ATOM_NUM>  (32) 
fragi: 11  fragj: 15

>  <atom.prop.CHAIN_ID>  (32) 
A A A A A A A A A A A Z Z Z Z Z Z Z Z Z Z Z Z Z Z Z

>  <atom.prop.IS_HEAVY_ATOM>  (32) 
1 0 0 0 1 0 0 1 0 0 0 1 0 0 0 1 1 0 1 0 1 0 1 0 1 0

>  <DIFUSE_FUNC_ATOM>  (32) 
n/a

>  <FINAL_SINGLE_POINT_ENERGY>  (32) 
0

>  <NONCOV_INTER_ENERGY_QM>  (32) 
0

>  <FF_Energy>  (32) 
-1.47

>  <QM_Energy>  (32) 
-11.56

>  <source>  (32) 
ETAM_MBZ

>  <Index>  (32) 
8012

$$$$
ETAM-pdb2qep-A-LYS-929:MBZ-pdb2qep-A-PHE-885
     RDKit          3D

 26 25  0  0  0  0  0  0  0  0999 V2000
    3.4702   -2.8117    1.1001 C   0  0  0  0  0  0  0  0  0  0  0  0
    2.7713   -2.1054    1.2180 H   0  0  0  0  0  0  0  0  0  0  0  0
    4.3209   -2.3894    0.7864 H   0  0  0  0  0  0  0  0  0  0  0  0
    3.6483   -3.2958    2.0604 H   0  0  0  0  0  0  0  0  0  0  0  0
    2.9980   -3.7858    0.0442 C   0  0  0  0  0  0  0  0  0  0  0  0
    3.6924   -4.4920   -0.0853 H   0  0  0  0  0  0  0  0  0  0  0  0
    2.1438   -4.2083    0.3455 H   0  0  0  0  0  0  0  0  0  0  0  0
    2.7664   -3.0862   -1.2482 N   0  0  0  0  0  4  0  0  0  0  0  0
    1.9039   -2.5825   -1.2037 H   0  0  0  0  0  0  0  0  0  0  0  0
    3.5176   -2.4478   -1.4198 H   0  0  0  0  0  0  0  0  0  0  0  0
    2.7237   -3.7579   -1.9870 H   0  0  0  0  0  0  0  0  0  0  0  0
   -0.0117    2.9020    0.0044 C   0  0  0  0  0  0  0  0  0  0  0  0
    0.8158    3.2191    0.4474 H   0  0  0  0  0  0  0  0  0  0  0  0
   -0.8167    3.2122    0.4914 H   0  0  0  0  0  0  0  0  0  0  0  0
   -0.0407    3.3572   -0.9856 H   0  0  0  0  0  0  0  0  0  0  0  0
   -0.0056    1.4090   -0.0009 C   0  0  0  0  0  0  0  0  0  0  0  0
   -1.1979    0.6980    0.0071 C   0  0  0  0  0  0  0  0  0  0  0  0
   -2.0681    1.1826    0.0170 H   0  0  0  0  0  0  0  0  0  0  0  0
   -1.2030   -0.7005   -0.0000 C   0  0  0  0  0  0  0  0  0  0  0  0
   -2.0756   -1.1939    0.0025 H   0  0  0  0  0  0  0  0  0  0  0  0
    0.0081   -1.4034   -0.0089 C   0  0  0  0  0  0  0  0  0  0  0  0
   -0.0036   -2.3997   -0.0223 H   0  0  0  0  0  0  0  0  0  0  0  0
    1.2030   -0.7072   -0.0000 C   0  0  0  0  0  0  0  0  0  0  0  0
    2.0890   -1.1907    0.0060 H   0  0  0  0  0  0  0  0  0  0  0  0
    1.1954    0.7041    0.0027 C   0  0  0  0  0  0  0  0  0  0  0  0
    2.0622    1.1935    0.0068 H   0  0  0  0  0  0  0  0  0  0  0  0
  1  5  1  0
  5  8  1  0
  1  2  1  0
  1  3  1  0
  1  4  1  0
  5  6  1  0
  5  7  1  0
  8  9  1  0
  8 10  1  0
  8 11  1  0
 12 16  1  0
 16 17  2  0
 17 19  1  0
 19 21  2  0
 21 23  1  0
 23 25  2  0
 25 16  1  0
 12 13  1  0
 12 14  1  0
 12 15  1  0
 17 18  1  0
 19 20  1  0
 21 22  1  0
 23 24  1  0
 25 26  1  0
M  CHG  1   8   1
M  END
>  <PDB_ID>  (33) 
pdb2qep

>  <RESIDUE_NAME>  (33) 
LYS   PHE

>  <FRAG_NAME>  (33) 
ETAM   MBZ

>  <FRAG_ATOM_NUM>  (33) 
fragi: 11  fragj: 15

>  <atom.prop.CHAIN_ID>  (33) 
A A A A A A A A A A A Z Z Z Z Z Z Z Z Z Z Z Z Z Z Z

>  <atom.prop.IS_HEAVY_ATOM>  (33) 
1 0 0 0 1 0 0 1 0 0 0 1 0 0 0 1 1 0 1 0 1 0 1 0 1 0

>  <DIFUSE_FUNC_ATOM>  (33) 
n/a

>  <FINAL_SINGLE_POINT_ENERGY>  (33) 
0

>  <NONCOV_INTER_ENERGY_QM>  (33) 
0

>  <FF_Energy>  (33) 
14.76

>  <QM_Energy>  (33) 
-2.15

>  <source>  (33) 
ETAM_MBZ

>  <Index>  (33) 
8459

$$$$
ETAM-pdb1mww-B-LYS-34:MBZ-pdb1mww-C-PHE-53
     RDKit          3D

 26 25  0  0  0  0  0  0  0  0999 V2000
    2.7547   -4.0749    0.2202 C   0  0  0  0  0  0  0  0  0  0  0  0
    3.1286   -4.9958    0.3289 H   0  0  0  0  0  0  0  0  0  0  0  0
    3.4664   -3.4000    0.4087 H   0  0  0  0  0  0  0  0  0  0  0  0
    2.4376   -3.9563   -0.8159 H   0  0  0  0  0  0  0  0  0  0  0  0
    1.6213   -3.8844    1.2221 C   0  0  0  0  0  0  0  0  0  0  0  0
    1.9957   -3.9310    2.1533 H   0  0  0  0  0  0  0  0  0  0  0  0
    1.2116   -2.9776    1.0849 H   0  0  0  0  0  0  0  0  0  0  0  0
    0.5421   -4.9270    1.0833 N   0  0  0  0  0  4  0  0  0  0  0  0
    0.7201   -5.4683    0.2653 H   0  0  0  0  0  0  0  0  0  0  0  0
    0.5537   -5.5122    1.8896 H   0  0  0  0  0  0  0  0  0  0  0  0
   -0.3393   -4.4696    1.0055 H   0  0  0  0  0  0  0  0  0  0  0  0
    0.0021    2.8826    0.0413 C   0  0  0  0  0  0  0  0  0  0  0  0
    0.7030    3.2200   -0.5719 H   0  0  0  0  0  0  0  0  0  0  0  0
    0.1719    3.1764    0.9719 H   0  0  0  0  0  0  0  0  0  0  0  0
   -0.9408    3.3322   -0.2699 H   0  0  0  0  0  0  0  0  0  0  0  0
    0.0058    1.4024    0.0007 C   0  0  0  0  0  0  0  0  0  0  0  0
   -1.2027    0.6871    0.0029 C   0  0  0  0  0  0  0  0  0  0  0  0
   -2.0664    1.1785    0.0055 H   0  0  0  0  0  0  0  0  0  0  0  0
   -1.2146   -0.7166   -0.0000 C   0  0  0  0  0  0  0  0  0  0  0  0
   -2.0863   -1.2019   -0.0004 H   0  0  0  0  0  0  0  0  0  0  0  0
   -0.0087   -1.3977   -0.0005 C   0  0  0  0  0  0  0  0  0  0  0  0
    0.0093   -2.3958   -0.0022 H   0  0  0  0  0  0  0  0  0  0  0  0
    1.2146   -0.6838   -0.0000 C   0  0  0  0  0  0  0  0  0  0  0  0
    2.0864   -1.1871    0.0037 H   0  0  0  0  0  0  0  0  0  0  0  0
    1.2056    0.7087   -0.0030 C   0  0  0  0  0  0  0  0  0  0  0  0
    2.0695    1.2070   -0.0084 H   0  0  0  0  0  0  0  0  0  0  0  0
  1  5  1  0
  5  8  1  0
  1  2  1  0
  1  3  1  0
  1  4  1  0
  5  6  1  0
  5  7  1  0
  8  9  1  0
  8 10  1  0
  8 11  1  0
 12 16  1  0
 16 17  2  0
 17 19  1  0
 19 21  2  0
 21 23  1  0
 23 25  2  0
 25 16  1  0
 12 13  1  0
 12 14  1  0
 12 15  1  0
 17 18  1  0
 19 20  1  0
 21 22  1  0
 23 24  1  0
 25 26  1  0
M  CHG  1   8   1
M  END
>  <PDB_ID>  (34) 
pdb1mww

>  <RESIDUE_NAME>  (34) 
LYS   PHE

>  <FRAG_NAME>  (34) 
ETAM   MBZ

>  <FRAG_ATOM_NUM>  (34) 
fragi: 11  fragj: 15

>  <atom.prop.CHAIN_ID>  (34) 
A A A A A A A A A A A Z Z Z Z Z Z Z Z Z Z Z Z Z Z Z

>  <atom.prop.IS_HEAVY_ATOM>  (34) 
1 0 0 0 1 0 0 1 0 0 0 1 0 0 0 1 1 0 1 0 1 0 1 0 1 0

>  <DIFUSE_FUNC_ATOM>  (34) 
n/a

>  <FINAL_SINGLE_POINT_ENERGY>  (34) 
0

>  <NONCOV_INTER_ENERGY_QM>  (34) 
0

>  <FF_Energy>  (34) 
12.6

>  <QM_Energy>  (34) 
-1.63

>  <source>  (34) 
ETAM_MBZ

>  <Index>  (34) 
8657

$$$$
ETAM-pdb1n1b-B-LYS-280:MBZ-pdb1n1b-B-PHE-276
     RDKit          3D

 26 25  0  0  0  0  0  0  0  0999 V2000
   -0.0765   -0.8956    3.1539 C   0  0  0  0  0  0  0  0  0  0  0  0
   -0.0704   -0.9028    2.1546 H   0  0  0  0  0  0  0  0  0  0  0  0
    0.4901   -0.1443    3.4879 H   0  0  0  0  0  0  0  0  0  0  0  0
   -1.1000   -0.7413    3.4954 H   0  0  0  0  0  0  0  0  0  0  0  0
    0.5044   -2.2012    3.6530 C   0  0  0  0  0  0  0  0  0  0  0  0
    0.5741   -2.1703    4.6498 H   0  0  0  0  0  0  0  0  0  0  0  0
   -0.0968   -2.9540    3.3834 H   0  0  0  0  0  0  0  0  0  0  0  0
    1.8611   -2.4323    3.0764 N   0  0  0  0  0  4  0  0  0  0  0  0
    2.5530   -2.1129    3.7229 H   0  0  0  0  0  0  0  0  0  0  0  0
    1.9854   -3.4088    2.9074 H   0  0  0  0  0  0  0  0  0  0  0  0
    1.9449   -1.9284    2.2174 H   0  0  0  0  0  0  0  0  0  0  0  0
    0.0090    2.9107   -0.0544 C   0  0  0  0  0  0  0  0  0  0  0  0
   -0.3108    3.1875   -0.9498 H   0  0  0  0  0  0  0  0  0  0  0  0
    0.9371    3.2179    0.1040 H   0  0  0  0  0  0  0  0  0  0  0  0
   -0.6296    3.3895    0.6879 H   0  0  0  0  0  0  0  0  0  0  0  0
    0.0013    1.4069   -0.0009 C   0  0  0  0  0  0  0  0  0  0  0  0
   -1.1958    0.6979    0.0010 C   0  0  0  0  0  0  0  0  0  0  0  0
   -2.0636    1.1856    0.0016 H   0  0  0  0  0  0  0  0  0  0  0  0
   -1.2021   -0.7002    0.0000 C   0  0  0  0  0  0  0  0  0  0  0  0
   -2.0810   -1.1890    0.0014 H   0  0  0  0  0  0  0  0  0  0  0  0
   -0.0030   -1.3997   -0.0016 C   0  0  0  0  0  0  0  0  0  0  0  0
   -0.0061   -2.3963   -0.0040 H   0  0  0  0  0  0  0  0  0  0  0  0
    1.2021   -0.7004    0.0000 C   0  0  0  0  0  0  0  0  0  0  0  0
    2.0821   -1.1967    0.0012 H   0  0  0  0  0  0  0  0  0  0  0  0
    1.1975    0.6955    0.0014 C   0  0  0  0  0  0  0  0  0  0  0  0
    2.0674    1.1895    0.0036 H   0  0  0  0  0  0  0  0  0  0  0  0
  1  5  1  0
  5  8  1  0
  1  2  1  0
  1  3  1  0
  1  4  1  0
  5  6  1  0
  5  7  1  0
  8  9  1  0
  8 10  1  0
  8 11  1  0
 12 16  1  0
 16 17  2  0
 17 19  1  0
 19 21  2  0
 21 23  1  0
 23 25  2  0
 25 16  1  0
 12 13  1  0
 12 14  1  0
 12 15  1  0
 17 18  1  0
 19 20  1  0
 21 22  1  0
 23 24  1  0
 25 26  1  0
M  CHG  1   8   1
M  END
>  <PDB_ID>  (35) 
pdb1n1b

>  <RESIDUE_NAME>  (35) 
LYS   PHE

>  <FRAG_NAME>  (35) 
ETAM   MBZ

>  <FRAG_ATOM_NUM>  (35) 
fragi: 11  fragj: 15

>  <atom.prop.CHAIN_ID>  (35) 
A A A A A A A A A A A Z Z Z Z Z Z Z Z Z Z Z Z Z Z Z

>  <atom.prop.IS_HEAVY_ATOM>  (35) 
1 0 0 0 1 0 0 1 0 0 0 1 0 0 0 1 1 0 1 0 1 0 1 0 1 0

>  <DIFUSE_FUNC_ATOM>  (35) 
n/a

>  <FINAL_SINGLE_POINT_ENERGY>  (35) 
0

>  <NONCOV_INTER_ENERGY_QM>  (35) 
0

>  <FF_Energy>  (35) 
3.38

>  <QM_Energy>  (35) 
-7.66

>  <source>  (35) 
ETAM_MBZ

>  <Index>  (35) 
8747

$$$$
ETAM-pdb2qts-B-LYS-43:MBZ-pdb2qts-A-PHE-453
     RDKit          3D

 26 25  0  0  0  0  0  0  0  0999 V2000
   -3.2209   -3.4996    1.6393 C   0  0  0  0  0  0  0  0  0  0  0  0
   -3.4968   -4.3039    2.1571 H   0  0  0  0  0  0  0  0  0  0  0  0
   -2.3806   -3.1197    2.0143 H   0  0  0  0  0  0  0  0  0  0  0  0
   -3.0458   -3.7903    0.6035 H   0  0  0  0  0  0  0  0  0  0  0  0
   -4.3180   -2.4522    1.7492 C   0  0  0  0  0  0  0  0  0  0  0  0
   -5.1654   -2.8268    1.3606 H   0  0  0  0  0  0  0  0  0  0  0  0
   -4.4744   -2.2446    2.7199 H   0  0  0  0  0  0  0  0  0  0  0  0
   -3.9678   -1.1945    1.0328 N   0  0  0  0  0  4  0  0  0  0  0  0
   -4.4830   -0.4343    1.4276 H   0  0  0  0  0  0  0  0  0  0  0  0
   -2.9878   -1.0210    1.1286 H   0  0  0  0  0  0  0  0  0  0  0  0
   -4.1981   -1.2892    0.0648 H   0  0  0  0  0  0  0  0  0  0  0  0
    0.0025    2.9085    0.0035 C   0  0  0  0  0  0  0  0  0  0  0  0
   -0.4427    3.2169   -0.8232 H   0  0  0  0  0  0  0  0  0  0  0  0
    0.9412    3.2134    0.0429 H   0  0  0  0  0  0  0  0  0  0  0  0
   -0.5261    3.3461    0.8504 H   0  0  0  0  0  0  0  0  0  0  0  0
    0.0008    1.4043    0.0002 C   0  0  0  0  0  0  0  0  0  0  0  0
   -1.1984    0.6965   -0.0007 C   0  0  0  0  0  0  0  0  0  0  0  0
   -2.0638    1.1862   -0.0026 H   0  0  0  0  0  0  0  0  0  0  0  0
   -1.2037   -0.6985    0.0000 C   0  0  0  0  0  0  0  0  0  0  0  0
   -2.0796   -1.1901    0.0022 H   0  0  0  0  0  0  0  0  0  0  0  0
   -0.0002   -1.3974   -0.0002 C   0  0  0  0  0  0  0  0  0  0  0  0
   -0.0048   -2.3947   -0.0015 H   0  0  0  0  0  0  0  0  0  0  0  0
    1.2037   -0.6999   -0.0000 C   0  0  0  0  0  0  0  0  0  0  0  0
    2.0836   -1.1963    0.0013 H   0  0  0  0  0  0  0  0  0  0  0  0
    1.1979    0.6951    0.0007 C   0  0  0  0  0  0  0  0  0  0  0  0
    2.0662    1.1897    0.0011 H   0  0  0  0  0  0  0  0  0  0  0  0
  1  5  1  0
  5  8  1  0
  1  2  1  0
  1  3  1  0
  1  4  1  0
  5  6  1  0
  5  7  1  0
  8  9  1  0
  8 10  1  0
  8 11  1  0
 12 16  1  0
 16 17  2  0
 17 19  1  0
 19 21  2  0
 21 23  1  0
 23 25  2  0
 25 16  1  0
 12 13  1  0
 12 14  1  0
 12 15  1  0
 17 18  1  0
 19 20  1  0
 21 22  1  0
 23 24  1  0
 25 26  1  0
M  CHG  1   8   1
M  END
>  <PDB_ID>  (36) 
pdb2qts

>  <RESIDUE_NAME>  (36) 
LYS   PHE

>  <FRAG_NAME>  (36) 
ETAM   MBZ

>  <FRAG_ATOM_NUM>  (36) 
fragi: 11  fragj: 15

>  <atom.prop.CHAIN_ID>  (36) 
A A A A A A A A A A A Z Z Z Z Z Z Z Z Z Z Z Z Z Z Z

>  <atom.prop.IS_HEAVY_ATOM>  (36) 
1 0 0 0 1 0 0 1 0 0 0 1 0 0 0 1 1 0 1 0 1 0 1 0 1 0

>  <DIFUSE_FUNC_ATOM>  (36) 
n/a

>  <FINAL_SINGLE_POINT_ENERGY>  (36) 
0

>  <NONCOV_INTER_ENERGY_QM>  (36) 
0

>  <FF_Energy>  (36) 
9.95

>  <QM_Energy>  (36) 
-0.63

>  <source>  (36) 
ETAM_MBZ

>  <Index>  (36) 
8816

$$$$
ETAM-pdb1nb2-A-LYS-37:MBZ-pdb1nb2-A-PHE-132
     RDKit          3D

 26 25  0  0  0  0  0  0  0  0999 V2000
    3.0315   -1.2700    3.4692 C   0  0  0  0  0  0  0  0  0  0  0  0
    3.9921   -1.1682    3.7090 H   0  0  0  0  0  0  0  0  0  0  0  0
    2.9262   -1.9536    2.7543 H   0  0  0  0  0  0  0  0  0  0  0  0
    2.4857   -1.6014    4.3525 H   0  0  0  0  0  0  0  0  0  0  0  0
    2.5072    0.0457    2.9719 C   0  0  0  0  0  0  0  0  0  0  0  0
    2.7594    0.7690    3.6187 H   0  0  0  0  0  0  0  0  0  0  0  0
    2.9163    0.2500    2.0791 H   0  0  0  0  0  0  0  0  0  0  0  0
    1.0361    0.0084    2.8342 N   0  0  0  0  0  4  0  0  0  0  0  0
    0.6100    0.3071    3.6901 H   0  0  0  0  0  0  0  0  0  0  0  0
    0.7522    0.6181    2.0921 H   0  0  0  0  0  0  0  0  0  0  0  0
    0.7413   -0.9259    2.6261 H   0  0  0  0  0  0  0  0  0  0  0  0
    0.0071    2.8965    0.0491 C   0  0  0  0  0  0  0  0  0  0  0  0
   -0.6146    3.2306   -0.6428 H   0  0  0  0  0  0  0  0  0  0  0  0
    0.9314    3.2054   -0.1175 H   0  0  0  0  0  0  0  0  0  0  0  0
   -0.3117    3.3079    1.0069 H   0  0  0  0  0  0  0  0  0  0  0  0
   -0.0009    1.3985    0.0010 C   0  0  0  0  0  0  0  0  0  0  0  0
   -1.1956    0.6930   -0.0021 C   0  0  0  0  0  0  0  0  0  0  0  0
   -2.0616    1.1841   -0.0072 H   0  0  0  0  0  0  0  0  0  0  0  0
   -1.1980   -0.6915   -0.0000 C   0  0  0  0  0  0  0  0  0  0  0  0
   -2.0747   -1.1887    0.0015 H   0  0  0  0  0  0  0  0  0  0  0  0
    0.0031   -1.3887    0.0024 C   0  0  0  0  0  0  0  0  0  0  0  0
   -0.0071   -2.3900    0.0062 H   0  0  0  0  0  0  0  0  0  0  0  0
    1.1980   -0.7003    0.0000 C   0  0  0  0  0  0  0  0  0  0  0  0
    2.0813   -1.1968    0.0001 H   0  0  0  0  0  0  0  0  0  0  0  0
    1.1935    0.6890   -0.0013 C   0  0  0  0  0  0  0  0  0  0  0  0
    2.0627    1.1856   -0.0052 H   0  0  0  0  0  0  0  0  0  0  0  0
  1  5  1  0
  5  8  1  0
  1  2  1  0
  1  3  1  0
  1  4  1  0
  5  6  1  0
  5  7  1  0
  8  9  1  0
  8 10  1  0
  8 11  1  0
 12 16  1  0
 16 17  2  0
 17 19  1  0
 19 21  2  0
 21 23  1  0
 23 25  2  0
 25 16  1  0
 12 13  1  0
 12 14  1  0
 12 15  1  0
 17 18  1  0
 19 20  1  0
 21 22  1  0
 23 24  1  0
 25 26  1  0
M  CHG  1   8   1
M  END
>  <PDB_ID>  (37) 
pdb1nb2

>  <RESIDUE_NAME>  (37) 
LYS   PHE

>  <FRAG_NAME>  (37) 
ETAM   MBZ

>  <FRAG_ATOM_NUM>  (37) 
fragi: 11  fragj: 15

>  <atom.prop.CHAIN_ID>  (37) 
A A A A A A A A A A A Z Z Z Z Z Z Z Z Z Z Z Z Z Z Z

>  <atom.prop.IS_HEAVY_ATOM>  (37) 
1 0 0 0 1 0 0 1 0 0 0 1 0 0 0 1 1 0 1 0 1 0 1 0 1 0

>  <DIFUSE_FUNC_ATOM>  (37) 
n/a

>  <FINAL_SINGLE_POINT_ENERGY>  (37) 
0

>  <NONCOV_INTER_ENERGY_QM>  (37) 
0

>  <FF_Energy>  (37) 
-5.68

>  <QM_Energy>  (37) 
-15.88

>  <source>  (37) 
ETAM_MBZ

>  <Index>  (37) 
8903

$$$$
ETAM-pdb2r3z-D-LYS-62:MBZ-pdb2r3z-A-PHE-68
     RDKit          3D

 26 25  0  0  0  0  0  0  0  0999 V2000
   -3.2570   -3.2546    0.7645 C   0  0  0  0  0  0  0  0  0  0  0  0
   -2.8804   -2.7344    0.0110 H   0  0  0  0  0  0  0  0  0  0  0  0
   -4.1933   -3.5185    0.5845 H   0  0  0  0  0  0  0  0  0  0  0  0
   -2.6559   -4.1518    0.9119 H   0  0  0  0  0  0  0  0  0  0  0  0
   -3.2291   -2.3869    2.0163 C   0  0  0  0  0  0  0  0  0  0  0  0
   -3.4582   -2.9629    2.8165 H   0  0  0  0  0  0  0  0  0  0  0  0
   -2.2885   -2.0378    2.1497 H   0  0  0  0  0  0  0  0  0  0  0  0
   -4.1718   -1.2248    1.9735 N   0  0  0  0  0  4  0  0  0  0  0  0
   -3.7566   -0.4862    1.4451 H   0  0  0  0  0  0  0  0  0  0  0  0
   -5.0248   -1.5109    1.5420 H   0  0  0  0  0  0  0  0  0  0  0  0
   -4.3517   -0.9151    2.9051 H   0  0  0  0  0  0  0  0  0  0  0  0
   -0.0261    2.9157    0.1188 C   0  0  0  0  0  0  0  0  0  0  0  0
   -0.4213    3.1665    0.9915 H   0  0  0  0  0  0  0  0  0  0  0  0
   -0.5760    3.2551   -0.6318 H   0  0  0  0  0  0  0  0  0  0  0  0
    0.9521    3.3919    0.0513 H   0  0  0  0  0  0  0  0  0  0  0  0
   -0.0012    1.4078    0.0345 C   0  0  0  0  0  0  0  0  0  0  0  0
   -1.2009    0.6931   -0.0025 C   0  0  0  0  0  0  0  0  0  0  0  0
   -2.0666    1.1815   -0.0325 H   0  0  0  0  0  0  0  0  0  0  0  0
   -1.2045   -0.7034    0.0000 C   0  0  0  0  0  0  0  0  0  0  0  0
   -2.0784   -1.1967    0.0238 H   0  0  0  0  0  0  0  0  0  0  0  0
    0.0018   -1.3984   -0.0280 C   0  0  0  0  0  0  0  0  0  0  0  0
    0.0014   -2.3943   -0.0681 H   0  0  0  0  0  0  0  0  0  0  0  0
    1.2045   -0.6962    0.0000 C   0  0  0  0  0  0  0  0  0  0  0  0
    2.0856   -1.1934    0.0254 H   0  0  0  0  0  0  0  0  0  0  0  0
    1.2003    0.6972   -0.0041 C   0  0  0  0  0  0  0  0  0  0  0  0
    2.0658    1.1942   -0.0355 H   0  0  0  0  0  0  0  0  0  0  0  0
  1  5  1  0
  5  8  1  0
  1  2  1  0
  1  3  1  0
  1  4  1  0
  5  6  1  0
  5  7  1  0
  8  9  1  0
  8 10  1  0
  8 11  1  0
 12 16  1  0
 16 17  2  0
 17 19  1  0
 19 21  2  0
 21 23  1  0
 23 25  2  0
 25 16  1  0
 12 13  1  0
 12 14  1  0
 12 15  1  0
 17 18  1  0
 19 20  1  0
 21 22  1  0
 23 24  1  0
 25 26  1  0
M  CHG  1   8   1
M  END
>  <PDB_ID>  (38) 
pdb2r3z

>  <RESIDUE_NAME>  (38) 
LYS   PHE

>  <FRAG_NAME>  (38) 
ETAM   MBZ

>  <FRAG_ATOM_NUM>  (38) 
fragi: 11  fragj: 15

>  <atom.prop.CHAIN_ID>  (38) 
A A A A A A A A A A A Z Z Z Z Z Z Z Z Z Z Z Z Z Z Z

>  <atom.prop.IS_HEAVY_ATOM>  (38) 
1 0 0 0 1 0 0 1 0 0 0 1 0 0 0 1 1 0 1 0 1 0 1 0 1 0

>  <DIFUSE_FUNC_ATOM>  (38) 
n/a

>  <FINAL_SINGLE_POINT_ENERGY>  (38) 
0

>  <NONCOV_INTER_ENERGY_QM>  (38) 
0

>  <FF_Energy>  (38) 
7.03

>  <QM_Energy>  (38) 
-3.25

>  <source>  (38) 
ETAM_MBZ

>  <Index>  (38) 
9038

$$$$
ETAM-pdb1nkq-C-LYS-142:MBZ-pdb1nkq-C-PHE-37
     RDKit          3D

 26 25  0  0  0  0  0  0  0  0999 V2000
   -2.2447   -1.8215   -3.3334 C   0  0  0  0  0  0  0  0  0  0  0  0
   -2.8638   -1.9810   -2.5668 H   0  0  0  0  0  0  0  0  0  0  0  0
   -2.5434   -2.3485   -4.1256 H   0  0  0  0  0  0  0  0  0  0  0  0
   -2.2702   -0.7620   -3.5881 H   0  0  0  0  0  0  0  0  0  0  0  0
   -0.8532   -2.2856   -2.9388 C   0  0  0  0  0  0  0  0  0  0  0  0
   -0.6090   -1.8564   -2.0579 H   0  0  0  0  0  0  0  0  0  0  0  0
   -0.8744   -3.2863   -2.8009 H   0  0  0  0  0  0  0  0  0  0  0  0
    0.1690   -1.9521   -3.9465 N   0  0  0  0  0  4  0  0  0  0  0  0
   -0.2628   -1.8415   -4.8436 H   0  0  0  0  0  0  0  0  0  0  0  0
    0.6271   -1.0972   -3.6942 H   0  0  0  0  0  0  0  0  0  0  0  0
    0.8475   -2.6876   -3.9972 H   0  0  0  0  0  0  0  0  0  0  0  0
    0.0066    2.9079    0.0362 C   0  0  0  0  0  0  0  0  0  0  0  0
   -0.7504    3.2307   -0.5113 H   0  0  0  0  0  0  0  0  0  0  0  0
    0.8722    3.2199   -0.3257 H   0  0  0  0  0  0  0  0  0  0  0  0
   -0.1049    3.3279    1.0359 H   0  0  0  0  0  0  0  0  0  0  0  0
    0.0008    1.4042    0.0010 C   0  0  0  0  0  0  0  0  0  0  0  0
   -1.2032    0.6946   -0.0016 C   0  0  0  0  0  0  0  0  0  0  0  0
   -2.0662    1.1876   -0.0054 H   0  0  0  0  0  0  0  0  0  0  0  0
   -1.2096   -0.6964    0.0000 C   0  0  0  0  0  0  0  0  0  0  0  0
   -2.0822   -1.1924    0.0015 H   0  0  0  0  0  0  0  0  0  0  0  0
    0.0010   -1.3983    0.0015 C   0  0  0  0  0  0  0  0  0  0  0  0
   -0.0045   -2.3938    0.0025 H   0  0  0  0  0  0  0  0  0  0  0  0
    1.2096   -0.6987   -0.0000 C   0  0  0  0  0  0  0  0  0  0  0  0
    2.0873   -1.1964    0.0012 H   0  0  0  0  0  0  0  0  0  0  0  0
    1.2015    0.6946   -0.0008 C   0  0  0  0  0  0  0  0  0  0  0  0
    2.0687    1.1931   -0.0039 H   0  0  0  0  0  0  0  0  0  0  0  0
  1  5  1  0
  5  8  1  0
  1  2  1  0
  1  3  1  0
  1  4  1  0
  5  6  1  0
  5  7  1  0
  8  9  1  0
  8 10  1  0
  8 11  1  0
 12 16  1  0
 16 17  2  0
 17 19  1  0
 19 21  2  0
 21 23  1  0
 23 25  2  0
 25 16  1  0
 12 13  1  0
 12 14  1  0
 12 15  1  0
 17 18  1  0
 19 20  1  0
 21 22  1  0
 23 24  1  0
 25 26  1  0
M  CHG  1   8   1
M  END
>  <PDB_ID>  (39) 
pdb1nkq

>  <RESIDUE_NAME>  (39) 
LYS   PHE

>  <FRAG_NAME>  (39) 
ETAM   MBZ

>  <FRAG_ATOM_NUM>  (39) 
fragi: 11  fragj: 15

>  <atom.prop.CHAIN_ID>  (39) 
A A A A A A A A A A A Z Z Z Z Z Z Z Z Z Z Z Z Z Z Z

>  <atom.prop.IS_HEAVY_ATOM>  (39) 
1 0 0 0 1 0 0 1 0 0 0 1 0 0 0 1 1 0 1 0 1 0 1 0 1 0

>  <DIFUSE_FUNC_ATOM>  (39) 
n/a

>  <FINAL_SINGLE_POINT_ENERGY>  (39) 
0

>  <NONCOV_INTER_ENERGY_QM>  (39) 
0

>  <FF_Energy>  (39) 
3.45

>  <QM_Energy>  (39) 
-6.56

>  <source>  (39) 
ETAM_MBZ

>  <Index>  (39) 
9143

$$$$
ETAM-pdb1o57-D-LYS-190:MBZ-pdb1o57-D-PHE-222
     RDKit          3D

 26 25  0  0  0  0  0  0  0  0999 V2000
    0.1841   -4.1517    3.9379 C   0  0  0  0  0  0  0  0  0  0  0  0
    0.3894   -5.1103    3.7571 H   0  0  0  0  0  0  0  0  0  0  0  0
   -0.6339   -4.0789    4.5030 H   0  0  0  0  0  0  0  0  0  0  0  0
    1.0222   -3.7122    4.4790 H   0  0  0  0  0  0  0  0  0  0  0  0
   -0.0933   -3.4546    2.5944 C   0  0  0  0  0  0  0  0  0  0  0  0
    0.3459   -3.9705    1.8707 H   0  0  0  0  0  0  0  0  0  0  0  0
   -1.0746   -3.4135    2.4519 H   0  0  0  0  0  0  0  0  0  0  0  0
    0.4635   -2.0627    2.6213 N   0  0  0  0  0  4  0  0  0  0  0  0
    0.2926   -1.6609    3.5184 H   0  0  0  0  0  0  0  0  0  0  0  0
    1.4455   -2.1009    2.4476 H   0  0  0  0  0  0  0  0  0  0  0  0
    0.0152   -1.5181    1.9157 H   0  0  0  0  0  0  0  0  0  0  0  0
    0.0121    2.9147   -0.0671 C   0  0  0  0  0  0  0  0  0  0  0  0
   -0.6823    3.1973   -0.7165 H   0  0  0  0  0  0  0  0  0  0  0  0
    0.9126    3.2015   -0.3687 H   0  0  0  0  0  0  0  0  0  0  0  0
   -0.1943    3.4221    0.8753 H   0  0  0  0  0  0  0  0  0  0  0  0
    0.0009    1.4068    0.0004 C   0  0  0  0  0  0  0  0  0  0  0  0
   -1.1969    0.6973    0.0032 C   0  0  0  0  0  0  0  0  0  0  0  0
   -2.0639    1.1908    0.0065 H   0  0  0  0  0  0  0  0  0  0  0  0
   -1.2067   -0.6916    0.0000 C   0  0  0  0  0  0  0  0  0  0  0  0
   -2.0859   -1.1831    0.0028 H   0  0  0  0  0  0  0  0  0  0  0  0
   -0.0074   -1.4007   -0.0046 C   0  0  0  0  0  0  0  0  0  0  0  0
   -0.0150   -2.3952   -0.0112 H   0  0  0  0  0  0  0  0  0  0  0  0
    1.2067   -0.7054   -0.0000 C   0  0  0  0  0  0  0  0  0  0  0  0
    2.0813   -1.2049    0.0044 H   0  0  0  0  0  0  0  0  0  0  0  0
    1.2034    0.6937    0.0010 C   0  0  0  0  0  0  0  0  0  0  0  0
    2.0701    1.1871    0.0015 H   0  0  0  0  0  0  0  0  0  0  0  0
  1  5  1  0
  5  8  1  0
  1  2  1  0
  1  3  1  0
  1  4  1  0
  5  6  1  0
  5  7  1  0
  8  9  1  0
  8 10  1  0
  8 11  1  0
 12 16  1  0
 16 17  2  0
 17 19  1  0
 19 21  2  0
 21 23  1  0
 23 25  2  0
 25 16  1  0
 12 13  1  0
 12 14  1  0
 12 15  1  0
 17 18  1  0
 19 20  1  0
 21 22  1  0
 23 24  1  0
 25 26  1  0
M  CHG  1   8   1
M  END
>  <PDB_ID>  (40) 
pdb1o57

>  <RESIDUE_NAME>  (40) 
LYS   PHE

>  <FRAG_NAME>  (40) 
ETAM   MBZ

>  <FRAG_ATOM_NUM>  (40) 
fragi: 11  fragj: 15

>  <atom.prop.CHAIN_ID>  (40) 
A A A A A A A A A A A Z Z Z Z Z Z Z Z Z Z Z Z Z Z Z

>  <atom.prop.IS_HEAVY_ATOM>  (40) 
1 0 0 0 1 0 0 1 0 0 0 1 0 0 0 1 1 0 1 0 1 0 1 0 1 0

>  <DIFUSE_FUNC_ATOM>  (40) 
n/a

>  <FINAL_SINGLE_POINT_ENERGY>  (40) 
0

>  <NONCOV_INTER_ENERGY_QM>  (40) 
0

>  <FF_Energy>  (40) 
-0.45

>  <QM_Energy>  (40) 
-10.62

>  <source>  (40) 
ETAM_MBZ

>  <Index>  (40) 
9380

$$$$
ETAM-pdb2v0v-B-LYS-557:MBZ-pdb2v0v-B-PHE-489
     RDKit          3D

 26 25  0  0  0  0  0  0  0  0999 V2000
   -4.0560   -0.4891    1.6309 C   0  0  0  0  0  0  0  0  0  0  0  0
   -3.2934   -0.4017    0.9876 H   0  0  0  0  0  0  0  0  0  0  0  0
   -4.9011   -0.1883    1.1857 H   0  0  0  0  0  0  0  0  0  0  0  0
   -4.1589   -1.5365    1.9147 H   0  0  0  0  0  0  0  0  0  0  0  0
   -3.7895    0.4222    2.8190 C   0  0  0  0  0  0  0  0  0  0  0  0
   -4.5175    1.1123    2.8697 H   0  0  0  0  0  0  0  0  0  0  0  0
   -3.8071   -0.1260    3.6612 H   0  0  0  0  0  0  0  0  0  0  0  0
   -2.4705    1.1134    2.7167 N   0  0  0  0  0  4  0  0  0  0  0  0
   -2.1107    1.2728    3.6347 H   0  0  0  0  0  0  0  0  0  0  0  0
   -1.8366    0.5385    2.2019 H   0  0  0  0  0  0  0  0  0  0  0  0
   -2.5918    1.9858    2.2463 H   0  0  0  0  0  0  0  0  0  0  0  0
    0.0239    2.9202   -0.0107 C   0  0  0  0  0  0  0  0  0  0  0  0
   -0.6609    3.2224   -0.6632 H   0  0  0  0  0  0  0  0  0  0  0  0
    0.9303    3.2078   -0.2978 H   0  0  0  0  0  0  0  0  0  0  0  0
   -0.1917    3.3950    0.9465 H   0  0  0  0  0  0  0  0  0  0  0  0
    0.0078    1.4038    0.0006 C   0  0  0  0  0  0  0  0  0  0  0  0
   -1.1877    0.6992   -0.0004 C   0  0  0  0  0  0  0  0  0  0  0  0
   -2.0533    1.1933   -0.0025 H   0  0  0  0  0  0  0  0  0  0  0  0
   -1.1937   -0.6841   -0.0000 C   0  0  0  0  0  0  0  0  0  0  0  0
   -2.0796   -1.1757    0.0109 H   0  0  0  0  0  0  0  0  0  0  0  0
   -0.0067   -1.3941   -0.0122 C   0  0  0  0  0  0  0  0  0  0  0  0
   -0.0178   -2.3899   -0.0296 H   0  0  0  0  0  0  0  0  0  0  0  0
    1.1937   -0.7028    0.0000 C   0  0  0  0  0  0  0  0  0  0  0  0
    2.0736   -1.2040    0.0014 H   0  0  0  0  0  0  0  0  0  0  0  0
    1.1867    0.6780    0.0119 C   0  0  0  0  0  0  0  0  0  0  0  0
    2.0667    1.1738    0.0289 H   0  0  0  0  0  0  0  0  0  0  0  0
  1  5  1  0
  5  8  1  0
  1  2  1  0
  1  3  1  0
  1  4  1  0
  5  6  1  0
  5  7  1  0
  8  9  1  0
  8 10  1  0
  8 11  1  0
 12 16  1  0
 16 17  2  0
 17 19  1  0
 19 21  2  0
 21 23  1  0
 23 25  2  0
 25 16  1  0
 12 13  1  0
 12 14  1  0
 12 15  1  0
 17 18  1  0
 19 20  1  0
 21 22  1  0
 23 24  1  0
 25 26  1  0
M  CHG  1   8   1
M  END
>  <PDB_ID>  (41) 
pdb2v0v

>  <RESIDUE_NAME>  (41) 
LYS   PHE

>  <FRAG_NAME>  (41) 
ETAM   MBZ

>  <FRAG_ATOM_NUM>  (41) 
fragi: 11  fragj: 15

>  <atom.prop.CHAIN_ID>  (41) 
A A A A A A A A A A A Z Z Z Z Z Z Z Z Z Z Z Z Z Z Z

>  <atom.prop.IS_HEAVY_ATOM>  (41) 
1 0 0 0 1 0 0 1 0 0 0 1 0 0 0 1 1 0 1 0 1 0 1 0 1 0

>  <DIFUSE_FUNC_ATOM>  (41) 
n/a

>  <FINAL_SINGLE_POINT_ENERGY>  (41) 
0

>  <NONCOV_INTER_ENERGY_QM>  (41) 
0

>  <FF_Energy>  (41) 
4.36

>  <QM_Energy>  (41) 
-7.47

>  <source>  (41) 
ETAM_MBZ

>  <Index>  (41) 
9566

$$$$
ETAM-pdb2v65-A-LYS-226:MBZ-pdb2v65-B-PHE-122
     RDKit          3D

 26 25  0  0  0  0  0  0  0  0999 V2000
    1.4394   -2.2776    2.6543 C   0  0  0  0  0  0  0  0  0  0  0  0
    2.1654   -2.6091    3.2413 H   0  0  0  0  0  0  0  0  0  0  0  0
    1.7946   -2.0038    1.7708 H   0  0  0  0  0  0  0  0  0  0  0  0
    0.7109   -3.0755    2.5102 H   0  0  0  0  0  0  0  0  0  0  0  0
    0.7933   -1.0638    3.3165 C   0  0  0  0  0  0  0  0  0  0  0  0
   -0.0391   -0.8266    2.8095 H   0  0  0  0  0  0  0  0  0  0  0  0
    0.5422   -1.3069    4.2575 H   0  0  0  0  0  0  0  0  0  0  0  0
    1.7071    0.1020    3.3365 N   0  0  0  0  0  4  0  0  0  0  0  0
    2.6142   -0.1886    3.6440 H   0  0  0  0  0  0  0  0  0  0  0  0
    1.7766    0.4887    2.4162 H   0  0  0  0  0  0  0  0  0  0  0  0
    1.3501    0.7967    3.9625 H   0  0  0  0  0  0  0  0  0  0  0  0
    0.0348    2.9812    0.0018 C   0  0  0  0  0  0  0  0  0  0  0  0
    0.9712    3.2544   -0.1282 H   0  0  0  0  0  0  0  0  0  0  0  0
   -0.3190    3.2704    0.8735 H   0  0  0  0  0  0  0  0  0  0  0  0
   -0.5618    3.4605   -0.7744 H   0  0  0  0  0  0  0  0  0  0  0  0
    0.0035    1.4236   -0.0131 C   0  0  0  0  0  0  0  0  0  0  0  0
   -1.1940    0.6916    0.0002 C   0  0  0  0  0  0  0  0  0  0  0  0
   -2.0656    1.1637    0.0082 H   0  0  0  0  0  0  0  0  0  0  0  0
   -1.1860   -0.7252   -0.0000 C   0  0  0  0  0  0  0  0  0  0  0  0
   -2.0695   -1.2061   -0.0081 H   0  0  0  0  0  0  0  0  0  0  0  0
    0.0007   -1.3973    0.0118 C   0  0  0  0  0  0  0  0  0  0  0  0
    0.0135   -2.4016    0.0289 H   0  0  0  0  0  0  0  0  0  0  0  0
    1.1860   -0.6945    0.0000 C   0  0  0  0  0  0  0  0  0  0  0  0
    2.0780   -1.1878   -0.0084 H   0  0  0  0  0  0  0  0  0  0  0  0
    1.1898    0.7019    0.0011 C   0  0  0  0  0  0  0  0  0  0  0  0
    2.0655    1.1881    0.0119 H   0  0  0  0  0  0  0  0  0  0  0  0
  1  5  1  0
  5  8  1  0
  1  2  1  0
  1  3  1  0
  1  4  1  0
  5  6  1  0
  5  7  1  0
  8  9  1  0
  8 10  1  0
  8 11  1  0
 12 16  1  0
 16 17  2  0
 17 19  1  0
 19 21  2  0
 21 23  1  0
 23 25  2  0
 25 16  1  0
 12 13  1  0
 12 14  1  0
 12 15  1  0
 17 18  1  0
 19 20  1  0
 21 22  1  0
 23 24  1  0
 25 26  1  0
M  CHG  1   8   1
M  END
>  <PDB_ID>  (42) 
pdb2v65

>  <RESIDUE_NAME>  (42) 
LYS   PHE

>  <FRAG_NAME>  (42) 
ETAM   MBZ

>  <FRAG_ATOM_NUM>  (42) 
fragi: 11  fragj: 15

>  <atom.prop.CHAIN_ID>  (42) 
A A A A A A A A A A A Z Z Z Z Z Z Z Z Z Z Z Z Z Z Z

>  <atom.prop.IS_HEAVY_ATOM>  (42) 
1 0 0 0 1 0 0 1 0 0 0 1 0 0 0 1 1 0 1 0 1 0 1 0 1 0

>  <DIFUSE_FUNC_ATOM>  (42) 
n/a

>  <FINAL_SINGLE_POINT_ENERGY>  (42) 
0

>  <NONCOV_INTER_ENERGY_QM>  (42) 
0

>  <FF_Energy>  (42) 
-0.27

>  <QM_Energy>  (42) 
-10.39

>  <source>  (42) 
ETAM_MBZ

>  <Index>  (42) 
9638

$$$$
ETAM-pdb1osc-B-LYS-34:MBZ-pdb1osc-B-PHE-79
     RDKit          3D

 26 25  0  0  0  0  0  0  0  0999 V2000
   -1.5117   -0.3153   -4.0276 C   0  0  0  0  0  0  0  0  0  0  0  0
   -0.9572    0.3653   -3.5948 H   0  0  0  0  0  0  0  0  0  0  0  0
   -2.3272    0.0523   -4.4264 H   0  0  0  0  0  0  0  0  0  0  0  0
   -0.9238   -0.7749   -4.8221 H   0  0  0  0  0  0  0  0  0  0  0  0
   -1.8876   -1.3855   -3.0055 C   0  0  0  0  0  0  0  0  0  0  0  0
   -1.2060   -2.1471   -3.0503 H   0  0  0  0  0  0  0  0  0  0  0  0
   -1.8065   -0.9939   -2.0632 H   0  0  0  0  0  0  0  0  0  0  0  0
   -3.2949   -2.0264   -3.1118 N   0  0  0  0  0  4  0  0  0  0  0  0
   -3.2311   -2.9514   -2.7652 H   0  0  0  0  0  0  0  0  0  0  0  0
   -3.9158   -1.4816   -2.5658 H   0  0  0  0  0  0  0  0  0  0  0  0
   -3.5577   -2.0197   -4.0665 H   0  0  0  0  0  0  0  0  0  0  0  0
   -0.0012    2.9327    0.1403 C   0  0  0  0  0  0  0  0  0  0  0  0
   -0.6224    3.2933   -0.5306 H   0  0  0  0  0  0  0  0  0  0  0  0
    0.9162    3.2636    0.0156 H   0  0  0  0  0  0  0  0  0  0  0  0
   -0.3438    3.2547    1.1237 H   0  0  0  0  0  0  0  0  0  0  0  0
    0.0182    1.4395    0.0046 C   0  0  0  0  0  0  0  0  0  0  0  0
   -1.2274    0.7015    0.0472 C   0  0  0  0  0  0  0  0  0  0  0  0
   -2.0731    1.1792    0.1062 H   0  0  0  0  0  0  0  0  0  0  0  0
   -1.2139   -0.7339    0.0000 C   0  0  0  0  0  0  0  0  0  0  0  0
   -2.0820   -1.2205    0.0166 H   0  0  0  0  0  0  0  0  0  0  0  0
    0.0047   -1.4125   -0.0658 C   0  0  0  0  0  0  0  0  0  0  0  0
    0.0024   -2.4144   -0.1628 H   0  0  0  0  0  0  0  0  0  0  0  0
    1.2139   -0.7272   -0.0000 C   0  0  0  0  0  0  0  0  0  0  0  0
    2.0930   -1.1925    0.0395 H   0  0  0  0  0  0  0  0  0  0  0  0
    1.2045    0.7326    0.0139 C   0  0  0  0  0  0  0  0  0  0  0  0
    2.0839    1.1934    0.0293 H   0  0  0  0  0  0  0  0  0  0  0  0
  1  5  1  0
  5  8  1  0
  1  2  1  0
  1  3  1  0
  1  4  1  0
  5  6  1  0
  5  7  1  0
  8  9  1  0
  8 10  1  0
  8 11  1  0
 12 16  1  0
 16 17  2  0
 17 19  1  0
 19 21  2  0
 21 23  1  0
 23 25  2  0
 25 16  1  0
 12 13  1  0
 12 14  1  0
 12 15  1  0
 17 18  1  0
 19 20  1  0
 21 22  1  0
 23 24  1  0
 25 26  1  0
M  CHG  1   8   1
M  END
>  <PDB_ID>  (43) 
pdb1osc

>  <RESIDUE_NAME>  (43) 
LYS   PHE

>  <FRAG_NAME>  (43) 
ETAM   MBZ

>  <FRAG_ATOM_NUM>  (43) 
fragi: 11  fragj: 15

>  <atom.prop.CHAIN_ID>  (43) 
A A A A A A A A A A A Z Z Z Z Z Z Z Z Z Z Z Z Z Z Z

>  <atom.prop.IS_HEAVY_ATOM>  (43) 
1 0 0 0 1 0 0 1 0 0 0 1 0 0 0 1 1 0 1 0 1 0 1 0 1 0

>  <DIFUSE_FUNC_ATOM>  (43) 
n/a

>  <FINAL_SINGLE_POINT_ENERGY>  (43) 
0

>  <NONCOV_INTER_ENERGY_QM>  (43) 
0

>  <FF_Energy>  (43) 
5.79

>  <QM_Energy>  (43) 
-4.83

>  <source>  (43) 
ETAM_MBZ

>  <Index>  (43) 
9724

$$$$
ETAM-pdb1pqy-A-LYS-37:MBZ-pdb1pqy-A-PHE-62
     RDKit          3D

 26 25  0  0  0  0  0  0  0  0999 V2000
   -3.6415   -4.0255    0.6736 C   0  0  0  0  0  0  0  0  0  0  0  0
   -3.3113   -3.9735    1.6100 H   0  0  0  0  0  0  0  0  0  0  0  0
   -2.8958   -4.2472    0.0543 H   0  0  0  0  0  0  0  0  0  0  0  0
   -4.3930   -4.8126    0.6120 H   0  0  0  0  0  0  0  0  0  0  0  0
   -4.2208   -2.6862    0.2825 C   0  0  0  0  0  0  0  0  0  0  0  0
   -3.4857   -2.0012    0.2692 H   0  0  0  0  0  0  0  0  0  0  0  0
   -4.6144   -2.7544   -0.6394 H   0  0  0  0  0  0  0  0  0  0  0  0
   -5.2781   -2.2445    1.2297 N   0  0  0  0  0  4  0  0  0  0  0  0
   -5.7950   -3.0403    1.5455 H   0  0  0  0  0  0  0  0  0  0  0  0
   -4.8540   -1.7897    2.0130 H   0  0  0  0  0  0  0  0  0  0  0  0
   -5.8945   -1.6082    0.7666 H   0  0  0  0  0  0  0  0  0  0  0  0
   -0.0014    2.9001    0.0342 C   0  0  0  0  0  0  0  0  0  0  0  0
   -0.6653    3.2227   -0.6241 H   0  0  0  0  0  0  0  0  0  0  0  0
    0.9095    3.2126   -0.1901 H   0  0  0  0  0  0  0  0  0  0  0  0
   -0.2667    3.3136    1.0072 H   0  0  0  0  0  0  0  0  0  0  0  0
   -0.0011    1.4030   -0.0002 C   0  0  0  0  0  0  0  0  0  0  0  0
   -1.1988    0.6955   -0.0007 C   0  0  0  0  0  0  0  0  0  0  0  0
   -2.0656    1.1826   -0.0028 H   0  0  0  0  0  0  0  0  0  0  0  0
   -1.2036   -0.7020   -0.0000 C   0  0  0  0  0  0  0  0  0  0  0  0
   -2.0780   -1.1941    0.0007 H   0  0  0  0  0  0  0  0  0  0  0  0
    0.0025   -1.3971    0.0017 C   0  0  0  0  0  0  0  0  0  0  0  0
    0.0005   -2.3950    0.0033 H   0  0  0  0  0  0  0  0  0  0  0  0
    1.2036   -0.6964    0.0000 C   0  0  0  0  0  0  0  0  0  0  0  0
    2.0859   -1.1919    0.0006 H   0  0  0  0  0  0  0  0  0  0  0  0
    1.1974    0.6970   -0.0009 C   0  0  0  0  0  0  0  0  0  0  0  0
    2.0648    1.1940   -0.0024 H   0  0  0  0  0  0  0  0  0  0  0  0
  1  5  1  0
  5  8  1  0
  1  2  1  0
  1  3  1  0
  1  4  1  0
  5  6  1  0
  5  7  1  0
  8  9  1  0
  8 10  1  0
  8 11  1  0
 12 16  1  0
 16 17  2  0
 17 19  1  0
 19 21  2  0
 21 23  1  0
 23 25  2  0
 25 16  1  0
 12 13  1  0
 12 14  1  0
 12 15  1  0
 17 18  1  0
 19 20  1  0
 21 22  1  0
 23 24  1  0
 25 26  1  0
M  CHG  1   8   1
M  END
>  <PDB_ID>  (44) 
pdb1pqy

>  <RESIDUE_NAME>  (44) 
LYS   PHE

>  <FRAG_NAME>  (44) 
ETAM   MBZ

>  <FRAG_ATOM_NUM>  (44) 
fragi: 11  fragj: 15

>  <atom.prop.CHAIN_ID>  (44) 
A A A A A A A A A A A Z Z Z Z Z Z Z Z Z Z Z Z Z Z Z

>  <atom.prop.IS_HEAVY_ATOM>  (44) 
1 0 0 0 1 0 0 1 0 0 0 1 0 0 0 1 1 0 1 0 1 0 1 0 1 0

>  <DIFUSE_FUNC_ATOM>  (44) 
n/a

>  <FINAL_SINGLE_POINT_ENERGY>  (44) 
0

>  <NONCOV_INTER_ENERGY_QM>  (44) 
0

>  <FF_Energy>  (44) 
12.02

>  <QM_Energy>  (44) 
-0.06

>  <source>  (44) 
ETAM_MBZ

>  <Index>  (44) 
10209

$$$$
ETAM-pdb1pv1-A-LYS-16:MBZ-pdb1pv1-A-PHE-7
     RDKit          3D

 26 25  0  0  0  0  0  0  0  0999 V2000
   -0.1644   -5.4017    1.7659 C   0  0  0  0  0  0  0  0  0  0  0  0
    0.7014   -5.0355    2.0602 H   0  0  0  0  0  0  0  0  0  0  0  0
   -0.1958   -6.3829    1.8395 H   0  0  0  0  0  0  0  0  0  0  0  0
   -0.9587   -4.9721    2.3765 H   0  0  0  0  0  0  0  0  0  0  0  0
   -0.3835   -5.0166    0.3016 C   0  0  0  0  0  0  0  0  0  0  0  0
   -1.2873   -5.3796    0.0066 H   0  0  0  0  0  0  0  0  0  0  0  0
   -0.4419   -4.0022    0.2422 H   0  0  0  0  0  0  0  0  0  0  0  0
    0.6613   -5.4953   -0.6472 N   0  0  0  0  0  4  0  0  0  0  0  0
    1.5518   -5.1382   -0.3661 H   0  0  0  0  0  0  0  0  0  0  0  0
    0.6826   -6.4941   -0.6388 H   0  0  0  0  0  0  0  0  0  0  0  0
    0.4455   -5.1722   -1.5672 H   0  0  0  0  0  0  0  0  0  0  0  0
    0.0083    2.8714    0.0497 C   0  0  0  0  0  0  0  0  0  0  0  0
   -0.5392    3.2153   -0.7012 H   0  0  0  0  0  0  0  0  0  0  0  0
    0.9459    3.1851   -0.0224 H   0  0  0  0  0  0  0  0  0  0  0  0
   -0.4039    3.2839    0.9707 H   0  0  0  0  0  0  0  0  0  0  0  0
   -0.0001    1.3925    0.0021 C   0  0  0  0  0  0  0  0  0  0  0  0
   -1.1983    0.6993   -0.0019 C   0  0  0  0  0  0  0  0  0  0  0  0
   -2.0610    1.1978   -0.0076 H   0  0  0  0  0  0  0  0  0  0  0  0
   -1.2093   -0.6810    0.0000 C   0  0  0  0  0  0  0  0  0  0  0  0
   -2.0842   -1.1792    0.0025 H   0  0  0  0  0  0  0  0  0  0  0  0
   -0.0018   -1.3920    0.0001 C   0  0  0  0  0  0  0  0  0  0  0  0
   -0.0169   -2.3877   -0.0003 H   0  0  0  0  0  0  0  0  0  0  0  0
    1.2093   -0.7027    0.0000 C   0  0  0  0  0  0  0  0  0  0  0  0
    2.0833   -1.2039    0.0014 H   0  0  0  0  0  0  0  0  0  0  0  0
    1.2002    0.6839   -0.0003 C   0  0  0  0  0  0  0  0  0  0  0  0
    2.0661    1.1856   -0.0032 H   0  0  0  0  0  0  0  0  0  0  0  0
  1  5  1  0
  5  8  1  0
  1  2  1  0
  1  3  1  0
  1  4  1  0
  5  6  1  0
  5  7  1  0
  8  9  1  0
  8 10  1  0
  8 11  1  0
 12 16  1  0
 16 17  2  0
 17 19  1  0
 19 21  2  0
 21 23  1  0
 23 25  2  0
 25 16  1  0
 12 13  1  0
 12 14  1  0
 12 15  1  0
 17 18  1  0
 19 20  1  0
 21 22  1  0
 23 24  1  0
 25 26  1  0
M  CHG  1   8   1
M  END
>  <PDB_ID>  (45) 
pdb1pv1

>  <RESIDUE_NAME>  (45) 
LYS   PHE

>  <FRAG_NAME>  (45) 
ETAM   MBZ

>  <FRAG_ATOM_NUM>  (45) 
fragi: 11  fragj: 15

>  <atom.prop.CHAIN_ID>  (45) 
A A A A A A A A A A A Z Z Z Z Z Z Z Z Z Z Z Z Z Z Z

>  <atom.prop.IS_HEAVY_ATOM>  (45) 
1 0 0 0 1 0 0 1 0 0 0 1 0 0 0 1 1 0 1 0 1 0 1 0 1 0

>  <DIFUSE_FUNC_ATOM>  (45) 
n/a

>  <FINAL_SINGLE_POINT_ENERGY>  (45) 
0

>  <NONCOV_INTER_ENERGY_QM>  (45) 
0

>  <FF_Energy>  (45) 
9.18

>  <QM_Energy>  (45) 
-0.87

>  <source>  (45) 
ETAM_MBZ

>  <Index>  (45) 
10492

$$$$
ETAM-pdb1q7m-B-LYS-423:MBZ-pdb1q7m-B-PHE-410
     RDKit          3D

 26 25  0  0  0  0  0  0  0  0999 V2000
    4.1929   -2.3341   -0.5097 C   0  0  0  0  0  0  0  0  0  0  0  0
    5.1224   -2.4132   -0.1814 H   0  0  0  0  0  0  0  0  0  0  0  0
    3.7147   -1.5940   -0.0617 H   0  0  0  0  0  0  0  0  0  0  0  0
    4.2075   -2.1528   -1.5844 H   0  0  0  0  0  0  0  0  0  0  0  0
    3.4597   -3.6375   -0.2073 C   0  0  0  0  0  0  0  0  0  0  0  0
    2.5025   -3.5435   -0.5021 H   0  0  0  0  0  0  0  0  0  0  0  0
    3.8852   -4.3770   -0.7400 H   0  0  0  0  0  0  0  0  0  0  0  0
    3.4964   -3.9882    1.2342 N   0  0  0  0  0  4  0  0  0  0  0  0
    3.3182   -3.1697    1.7813 H   0  0  0  0  0  0  0  0  0  0  0  0
    2.7978   -4.6768    1.4273 H   0  0  0  0  0  0  0  0  0  0  0  0
    4.3976   -4.3543    1.4655 H   0  0  0  0  0  0  0  0  0  0  0  0
   -0.0091    2.9104    0.0414 C   0  0  0  0  0  0  0  0  0  0  0  0
   -0.4298    3.2358   -0.7901 H   0  0  0  0  0  0  0  0  0  0  0  0
    0.9243    3.2195    0.1222 H   0  0  0  0  0  0  0  0  0  0  0  0
   -0.5702    3.3176    0.8825 H   0  0  0  0  0  0  0  0  0  0  0  0
    0.0001    1.4066    0.0012 C   0  0  0  0  0  0  0  0  0  0  0  0
   -1.1954    0.6928   -0.0019 C   0  0  0  0  0  0  0  0  0  0  0  0
   -2.0644    1.1828   -0.0065 H   0  0  0  0  0  0  0  0  0  0  0  0
   -1.2018   -0.7001   -0.0000 C   0  0  0  0  0  0  0  0  0  0  0  0
   -2.0792   -1.1915    0.0029 H   0  0  0  0  0  0  0  0  0  0  0  0
   -0.0006   -1.3991    0.0001 C   0  0  0  0  0  0  0  0  0  0  0  0
   -0.0049   -2.3963    0.0001 H   0  0  0  0  0  0  0  0  0  0  0  0
    1.2018   -0.7022    0.0000 C   0  0  0  0  0  0  0  0  0  0  0  0
    2.0837   -1.1935    0.0006 H   0  0  0  0  0  0  0  0  0  0  0  0
    1.1958    0.7021    0.0006 C   0  0  0  0  0  0  0  0  0  0  0  0
    2.0657    1.1919   -0.0000 H   0  0  0  0  0  0  0  0  0  0  0  0
  1  5  1  0
  5  8  1  0
  1  2  1  0
  1  3  1  0
  1  4  1  0
  5  6  1  0
  5  7  1  0
  8  9  1  0
  8 10  1  0
  8 11  1  0
 12 16  1  0
 16 17  2  0
 17 19  1  0
 19 21  2  0
 21 23  1  0
 23 25  2  0
 25 16  1  0
 12 13  1  0
 12 14  1  0
 12 15  1  0
 17 18  1  0
 19 20  1  0
 21 22  1  0
 23 24  1  0
 25 26  1  0
M  CHG  1   8   1
M  END
>  <PDB_ID>  (46) 
pdb1q7m

>  <RESIDUE_NAME>  (46) 
LYS   PHE

>  <FRAG_NAME>  (46) 
ETAM   MBZ

>  <FRAG_ATOM_NUM>  (46) 
fragi: 11  fragj: 15

>  <atom.prop.CHAIN_ID>  (46) 
A A A A A A A A A A A Z Z Z Z Z Z Z Z Z Z Z Z Z Z Z

>  <atom.prop.IS_HEAVY_ATOM>  (46) 
1 0 0 0 1 0 0 1 0 0 0 1 0 0 0 1 1 0 1 0 1 0 1 0 1 0

>  <DIFUSE_FUNC_ATOM>  (46) 
n/a

>  <FINAL_SINGLE_POINT_ENERGY>  (46) 
0

>  <NONCOV_INTER_ENERGY_QM>  (46) 
0

>  <FF_Energy>  (46) 
9.28

>  <QM_Energy>  (46) 
-0.95

>  <source>  (46) 
ETAM_MBZ

>  <Index>  (46) 
10654

$$$$
ETAM-pdb2wya-C-LYS-473:MBZ-pdb2wya-C-PHE-470
     RDKit          3D

 26 25  0  0  0  0  0  0  0  0999 V2000
   -2.0852    1.1830   -2.6715 C   0  0  0  0  0  0  0  0  0  0  0  0
   -1.8208    1.3972   -1.7296 H   0  0  0  0  0  0  0  0  0  0  0  0
   -2.6952    0.3894   -2.6713 H   0  0  0  0  0  0  0  0  0  0  0  0
   -2.6211    2.0366   -3.0868 H   0  0  0  0  0  0  0  0  0  0  0  0
   -0.8413    0.8375   -3.4563 C   0  0  0  0  0  0  0  0  0  0  0  0
   -1.0976    0.6174   -4.3984 H   0  0  0  0  0  0  0  0  0  0  0  0
   -0.2232    1.6252   -3.4567 H   0  0  0  0  0  0  0  0  0  0  0  0
   -0.1466   -0.3272   -2.8545 N   0  0  0  0  0  4  0  0  0  0  0  0
    0.0425   -1.0068   -3.5634 H   0  0  0  0  0  0  0  0  0  0  0  0
    0.7142   -0.0270   -2.4425 H   0  0  0  0  0  0  0  0  0  0  0  0
   -0.7275   -0.7348   -2.1499 H   0  0  0  0  0  0  0  0  0  0  0  0
   -0.0049    2.8905   -0.0009 C   0  0  0  0  0  0  0  0  0  0  0  0
    0.8390    3.2013    0.4106 H   0  0  0  0  0  0  0  0  0  0  0  0
   -0.7904    3.1971    0.5167 H   0  0  0  0  0  0  0  0  0  0  0  0
   -0.0708    3.3317   -0.9954 H   0  0  0  0  0  0  0  0  0  0  0  0
   -0.0009    1.3938   -0.0020 C   0  0  0  0  0  0  0  0  0  0  0  0
   -1.1925    0.6871   -0.0006 C   0  0  0  0  0  0  0  0  0  0  0  0
   -2.0606    1.1793   -0.0017 H   0  0  0  0  0  0  0  0  0  0  0  0
   -1.1958   -0.6943    0.0000 C   0  0  0  0  0  0  0  0  0  0  0  0
   -2.0728   -1.1913    0.0021 H   0  0  0  0  0  0  0  0  0  0  0  0
    0.0011   -1.3862    0.0000 C   0  0  0  0  0  0  0  0  0  0  0  0
   -0.0014   -2.3864   -0.0005 H   0  0  0  0  0  0  0  0  0  0  0  0
    1.1958   -0.6906   -0.0000 C   0  0  0  0  0  0  0  0  0  0  0  0
    2.0793   -1.1917   -0.0000 H   0  0  0  0  0  0  0  0  0  0  0  0
    1.1922    0.6902    0.0025 C   0  0  0  0  0  0  0  0  0  0  0  0
    2.0603    1.1896    0.0071 H   0  0  0  0  0  0  0  0  0  0  0  0
  1  5  1  0
  5  8  1  0
  1  2  1  0
  1  3  1  0
  1  4  1  0
  5  6  1  0
  5  7  1  0
  8  9  1  0
  8 10  1  0
  8 11  1  0
 12 16  1  0
 16 17  2  0
 17 19  1  0
 19 21  2  0
 21 23  1  0
 23 25  2  0
 25 16  1  0
 12 13  1  0
 12 14  1  0
 12 15  1  0
 17 18  1  0
 19 20  1  0
 21 22  1  0
 23 24  1  0
 25 26  1  0
M  CHG  1   8   1
M  END
>  <PDB_ID>  (47) 
pdb2wya

>  <RESIDUE_NAME>  (47) 
LYS   PHE

>  <FRAG_NAME>  (47) 
ETAM   MBZ

>  <FRAG_ATOM_NUM>  (47) 
fragi: 11  fragj: 15

>  <atom.prop.CHAIN_ID>  (47) 
A A A A A A A A A A A Z Z Z Z Z Z Z Z Z Z Z Z Z Z Z

>  <atom.prop.IS_HEAVY_ATOM>  (47) 
1 0 0 0 1 0 0 1 0 0 0 1 0 0 0 1 1 0 1 0 1 0 1 0 1 0

>  <DIFUSE_FUNC_ATOM>  (47) 
n/a

>  <FINAL_SINGLE_POINT_ENERGY>  (47) 
0

>  <NONCOV_INTER_ENERGY_QM>  (47) 
0

>  <FF_Energy>  (47) 
20.61

>  <QM_Energy>  (47) 
-9.92

>  <source>  (47) 
ETAM_MBZ

>  <Index>  (47) 
10803

$$$$
ETAM-pdb2xam-A-LYS-433:MBZ-pdb2xam-A-PHE-429
     RDKit          3D

 26 25  0  0  0  0  0  0  0  0999 V2000
    0.4674   -2.8259    3.6670 C   0  0  0  0  0  0  0  0  0  0  0  0
    1.3794   -3.2175    3.6349 H   0  0  0  0  0  0  0  0  0  0  0  0
   -0.0118   -3.1204    4.4842 H   0  0  0  0  0  0  0  0  0  0  0  0
    0.5503   -1.7392    3.6777 H   0  0  0  0  0  0  0  0  0  0  0  0
   -0.3099   -3.3030    2.4488 C   0  0  0  0  0  0  0  0  0  0  0  0
   -1.2906   -3.1740    2.6189 H   0  0  0  0  0  0  0  0  0  0  0  0
   -0.0423   -2.7498    1.6557 H   0  0  0  0  0  0  0  0  0  0  0  0
   -0.0499   -4.7394    2.1526 N   0  0  0  0  0  4  0  0  0  0  0  0
    0.8231   -4.8262    1.6748 H   0  0  0  0  0  0  0  0  0  0  0  0
   -0.0160   -5.2528    3.0093 H   0  0  0  0  0  0  0  0  0  0  0  0
   -0.7845   -5.0966    1.5767 H   0  0  0  0  0  0  0  0  0  0  0  0
    0.0012    2.9019   -0.0015 C   0  0  0  0  0  0  0  0  0  0  0  0
   -0.6188    3.2095   -0.7054 H   0  0  0  0  0  0  0  0  0  0  0  0
    0.9243    3.2075   -0.1707 H   0  0  0  0  0  0  0  0  0  0  0  0
   -0.3262    3.3341    0.9440 H   0  0  0  0  0  0  0  0  0  0  0  0
    0.0004    1.3991   -0.0036 C   0  0  0  0  0  0  0  0  0  0  0  0
   -1.1887    0.6971   -0.0015 C   0  0  0  0  0  0  0  0  0  0  0  0
   -2.0579    1.1867   -0.0028 H   0  0  0  0  0  0  0  0  0  0  0  0
   -1.1944   -0.6892   -0.0000 C   0  0  0  0  0  0  0  0  0  0  0  0
   -2.0761   -1.1813    0.0030 H   0  0  0  0  0  0  0  0  0  0  0  0
   -0.0018   -1.3902   -0.0001 C   0  0  0  0  0  0  0  0  0  0  0  0
   -0.0129   -2.3901   -0.0004 H   0  0  0  0  0  0  0  0  0  0  0  0
    1.1944   -0.7037    0.0000 C   0  0  0  0  0  0  0  0  0  0  0  0
    2.0763   -1.1994   -0.0019 H   0  0  0  0  0  0  0  0  0  0  0  0
    1.1902    0.6870    0.0052 C   0  0  0  0  0  0  0  0  0  0  0  0
    2.0631    1.1807    0.0147 H   0  0  0  0  0  0  0  0  0  0  0  0
  1  5  1  0
  5  8  1  0
  1  2  1  0
  1  3  1  0
  1  4  1  0
  5  6  1  0
  5  7  1  0
  8  9  1  0
  8 10  1  0
  8 11  1  0
 12 16  1  0
 16 17  2  0
 17 19  1  0
 19 21  2  0
 21 23  1  0
 23 25  2  0
 25 16  1  0
 12 13  1  0
 12 14  1  0
 12 15  1  0
 17 18  1  0
 19 20  1  0
 21 22  1  0
 23 24  1  0
 25 26  1  0
M  CHG  1   8   1
M  END
>  <PDB_ID>  (48) 
pdb2xam

>  <RESIDUE_NAME>  (48) 
LYS   PHE

>  <FRAG_NAME>  (48) 
ETAM   MBZ

>  <FRAG_ATOM_NUM>  (48) 
fragi: 11  fragj: 15

>  <atom.prop.CHAIN_ID>  (48) 
A A A A A A A A A A A Z Z Z Z Z Z Z Z Z Z Z Z Z Z Z

>  <atom.prop.IS_HEAVY_ATOM>  (48) 
1 0 0 0 1 0 0 1 0 0 0 1 0 0 0 1 1 0 1 0 1 0 1 0 1 0

>  <DIFUSE_FUNC_ATOM>  (48) 
n/a

>  <FINAL_SINGLE_POINT_ENERGY>  (48) 
0

>  <NONCOV_INTER_ENERGY_QM>  (48) 
0

>  <FF_Energy>  (48) 
15.88

>  <QM_Energy>  (48) 
-1.13

>  <source>  (48) 
ETAM_MBZ

>  <Index>  (48) 
11113

$$$$
ETAM-pdb2xdp-A-LYS-979:MBZ-pdb2xdp-A-PHE-922
     RDKit          3D

 26 25  0  0  0  0  0  0  0  0999 V2000
    1.3366   -2.8019   -3.5938 C   0  0  0  0  0  0  0  0  0  0  0  0
    2.2411   -3.2113   -3.5821 H   0  0  0  0  0  0  0  0  0  0  0  0
    1.0316   -2.6518   -4.5269 H   0  0  0  0  0  0  0  0  0  0  0  0
    0.6429   -3.4928   -3.1146 H   0  0  0  0  0  0  0  0  0  0  0  0
    1.3801   -1.4797   -2.8672 C   0  0  0  0  0  0  0  0  0  0  0  0
    0.5126   -0.9874   -3.0227 H   0  0  0  0  0  0  0  0  0  0  0  0
    1.4681   -1.6486   -1.8759 H   0  0  0  0  0  0  0  0  0  0  0  0
    2.5113   -0.6045   -3.3052 N   0  0  0  0  0  4  0  0  0  0  0  0
    2.8237   -0.8994   -4.2065 H   0  0  0  0  0  0  0  0  0  0  0  0
    2.1959    0.3419   -3.3495 H   0  0  0  0  0  0  0  0  0  0  0  0
    3.2589   -0.6810   -2.6471 H   0  0  0  0  0  0  0  0  0  0  0  0
    0.0226    2.9025    0.0334 C   0  0  0  0  0  0  0  0  0  0  0  0
    0.9623    3.1995    0.1407 H   0  0  0  0  0  0  0  0  0  0  0  0
   -0.5303    3.1924    0.8038 H   0  0  0  0  0  0  0  0  0  0  0  0
   -0.3769    3.3812   -0.8606 H   0  0  0  0  0  0  0  0  0  0  0  0
    0.0119    1.4011   -0.0072 C   0  0  0  0  0  0  0  0  0  0  0  0
   -1.1863    0.7041    0.0127 C   0  0  0  0  0  0  0  0  0  0  0  0
   -2.0489    1.1921    0.0349 H   0  0  0  0  0  0  0  0  0  0  0  0
   -1.1861   -0.6864    0.0000 C   0  0  0  0  0  0  0  0  0  0  0  0
   -2.0824   -1.1707   -0.0025 H   0  0  0  0  0  0  0  0  0  0  0  0
   -0.0170   -1.3924   -0.0076 C   0  0  0  0  0  0  0  0  0  0  0  0
   -0.0276   -2.3930   -0.0189 H   0  0  0  0  0  0  0  0  0  0  0  0
    1.1861   -0.7130   -0.0000 C   0  0  0  0  0  0  0  0  0  0  0  0
    2.0647   -1.2113    0.0054 H   0  0  0  0  0  0  0  0  0  0  0  0
    1.1914    0.6866    0.0021 C   0  0  0  0  0  0  0  0  0  0  0  0
    2.0692    1.1680    0.0096 H   0  0  0  0  0  0  0  0  0  0  0  0
  1  5  1  0
  5  8  1  0
  1  2  1  0
  1  3  1  0
  1  4  1  0
  5  6  1  0
  5  7  1  0
  8  9  1  0
  8 10  1  0
  8 11  1  0
 12 16  1  0
 16 17  2  0
 17 19  1  0
 19 21  2  0
 21 23  1  0
 23 25  2  0
 25 16  1  0
 12 13  1  0
 12 14  1  0
 12 15  1  0
 17 18  1  0
 19 20  1  0
 21 22  1  0
 23 24  1  0
 25 26  1  0
M  CHG  1   8   1
M  END
>  <PDB_ID>  (49) 
pdb2xdp

>  <RESIDUE_NAME>  (49) 
LYS   PHE

>  <FRAG_NAME>  (49) 
ETAM   MBZ

>  <FRAG_ATOM_NUM>  (49) 
fragi: 11  fragj: 15

>  <atom.prop.CHAIN_ID>  (49) 
A A A A A A A A A A A Z Z Z Z Z Z Z Z Z Z Z Z Z Z Z

>  <atom.prop.IS_HEAVY_ATOM>  (49) 
1 0 0 0 1 0 0 1 0 0 0 1 0 0 0 1 1 0 1 0 1 0 1 0 1 0

>  <DIFUSE_FUNC_ATOM>  (49) 
n/a

>  <FINAL_SINGLE_POINT_ENERGY>  (49) 
0

>  <NONCOV_INTER_ENERGY_QM>  (49) 
0

>  <FF_Energy>  (49) 
9.49

>  <QM_Energy>  (49) 
-4.15

>  <source>  (49) 
ETAM_MBZ

>  <Index>  (49) 
11175

$$$$
ETAM-pdb2xig-A-LYS-84:MBZ-pdb2xig-A-PHE-139
     RDKit          3D

 26 25  0  0  0  0  0  0  0  0999 V2000
   -5.2548    2.0294    2.6974 C   0  0  0  0  0  0  0  0  0  0  0  0
   -6.0817    2.4888    2.3701 H   0  0  0  0  0  0  0  0  0  0  0  0
   -4.7866    2.6188    3.3568 H   0  0  0  0  0  0  0  0  0  0  0  0
   -5.5435    1.1046    3.1970 H   0  0  0  0  0  0  0  0  0  0  0  0
   -4.3358    1.7934    1.5215 C   0  0  0  0  0  0  0  0  0  0  0  0
   -4.8291    1.2849    0.8157 H   0  0  0  0  0  0  0  0  0  0  0  0
   -4.0424    2.6756    1.1512 H   0  0  0  0  0  0  0  0  0  0  0  0
   -3.1400    1.0171    1.9363 N   0  0  0  0  0  4  0  0  0  0  0  0
   -2.9220    0.3397    1.2334 H   0  0  0  0  0  0  0  0  0  0  0  0
   -2.3638    1.6367    2.0543 H   0  0  0  0  0  0  0  0  0  0  0  0
   -3.3285    0.5506    2.8007 H   0  0  0  0  0  0  0  0  0  0  0  0
    0.0008    2.9103   -0.0033 C   0  0  0  0  0  0  0  0  0  0  0  0
    0.8452    3.2114    0.4117 H   0  0  0  0  0  0  0  0  0  0  0  0
   -0.7853    3.2157    0.5119 H   0  0  0  0  0  0  0  0  0  0  0  0
   -0.0595    3.3477   -0.9999 H   0  0  0  0  0  0  0  0  0  0  0  0
   -0.0027    1.4029   -0.0031 C   0  0  0  0  0  0  0  0  0  0  0  0
   -1.1945    0.7011    0.0017 C   0  0  0  0  0  0  0  0  0  0  0  0
   -2.0628    1.1860    0.0048 H   0  0  0  0  0  0  0  0  0  0  0  0
   -1.1977   -0.6952   -0.0000 C   0  0  0  0  0  0  0  0  0  0  0  0
   -2.0747   -1.1872   -0.0024 H   0  0  0  0  0  0  0  0  0  0  0  0
    0.0049   -1.3958    0.0031 C   0  0  0  0  0  0  0  0  0  0  0  0
   -0.0047   -2.3936    0.0075 H   0  0  0  0  0  0  0  0  0  0  0  0
    1.1977   -0.7021    0.0000 C   0  0  0  0  0  0  0  0  0  0  0  0
    2.0824   -1.1960    0.0004 H   0  0  0  0  0  0  0  0  0  0  0  0
    1.1924    0.6891   -0.0017 C   0  0  0  0  0  0  0  0  0  0  0  0
    2.0622    1.1854   -0.0029 H   0  0  0  0  0  0  0  0  0  0  0  0
  1  5  1  0
  5  8  1  0
  1  2  1  0
  1  3  1  0
  1  4  1  0
  5  6  1  0
  5  7  1  0
  8  9  1  0
  8 10  1  0
  8 11  1  0
 12 16  1  0
 16 17  2  0
 17 19  1  0
 19 21  2  0
 21 23  1  0
 23 25  2  0
 25 16  1  0
 12 13  1  0
 12 14  1  0
 12 15  1  0
 17 18  1  0
 19 20  1  0
 21 22  1  0
 23 24  1  0
 25 26  1  0
M  CHG  1   8   1
M  END
>  <PDB_ID>  (50) 
pdb2xig

>  <RESIDUE_NAME>  (50) 
LYS   PHE

>  <FRAG_NAME>  (50) 
ETAM   MBZ

>  <FRAG_ATOM_NUM>  (50) 
fragi: 11  fragj: 15

>  <atom.prop.CHAIN_ID>  (50) 
A A A A A A A A A A A Z Z Z Z Z Z Z Z Z Z Z Z Z Z Z

>  <atom.prop.IS_HEAVY_ATOM>  (50) 
1 0 0 0 1 0 0 1 0 0 0 1 0 0 0 1 1 0 1 0 1 0 1 0 1 0

>  <DIFUSE_FUNC_ATOM>  (50) 
n/a

>  <FINAL_SINGLE_POINT_ENERGY>  (50) 
0

>  <NONCOV_INTER_ENERGY_QM>  (50) 
0

>  <FF_Energy>  (50) 
7.89

>  <QM_Energy>  (50) 
-2.34

>  <source>  (50) 
ETAM_MBZ

>  <Index>  (50) 
11207

$$$$
ETAM-pdb1sef-A-LYS-149:MBZ-pdb1sef-A-PHE-114
     RDKit          3D

 26 25  0  0  0  0  0  0  0  0999 V2000
   -2.3939   -0.5574    3.9324 C   0  0  0  0  0  0  0  0  0  0  0  0
   -1.5266   -0.0695    4.0126 H   0  0  0  0  0  0  0  0  0  0  0  0
   -2.6212   -0.9868    4.8040 H   0  0  0  0  0  0  0  0  0  0  0  0
   -3.1749    0.1607    3.6822 H   0  0  0  0  0  0  0  0  0  0  0  0
   -2.2568   -1.6295    2.8819 C   0  0  0  0  0  0  0  0  0  0  0  0
   -3.1005   -2.1665    2.8447 H   0  0  0  0  0  0  0  0  0  0  0  0
   -2.0986   -1.2017    1.9907 H   0  0  0  0  0  0  0  0  0  0  0  0
   -1.1192   -2.5334    3.1950 N   0  0  0  0  0  4  0  0  0  0  0  0
   -0.4586   -2.0504    3.7704 H   0  0  0  0  0  0  0  0  0  0  0  0
   -1.4587   -3.3391    3.6808 H   0  0  0  0  0  0  0  0  0  0  0  0
   -0.6762   -2.8174    2.3444 H   0  0  0  0  0  0  0  0  0  0  0  0
    0.0060    2.9116   -0.0442 C   0  0  0  0  0  0  0  0  0  0  0  0
    0.0612    3.1877   -0.9925 H   0  0  0  0  0  0  0  0  0  0  0  0
    0.7914    3.2268    0.4678 H   0  0  0  0  0  0  0  0  0  0  0  0
   -0.8820    3.3728    0.3881 H   0  0  0  0  0  0  0  0  0  0  0  0
   -0.0009    1.4045    0.0003 C   0  0  0  0  0  0  0  0  0  0  0  0
   -1.1984    0.6956    0.0006 C   0  0  0  0  0  0  0  0  0  0  0  0
   -2.0657    1.1847    0.0001 H   0  0  0  0  0  0  0  0  0  0  0  0
   -1.2047   -0.6998    0.0000 C   0  0  0  0  0  0  0  0  0  0  0  0
   -2.0783   -1.1932    0.0020 H   0  0  0  0  0  0  0  0  0  0  0  0
    0.0028   -1.3986   -0.0016 C   0  0  0  0  0  0  0  0  0  0  0  0
   -0.0016   -2.3954   -0.0049 H   0  0  0  0  0  0  0  0  0  0  0  0
    1.2047   -0.6982   -0.0000 C   0  0  0  0  0  0  0  0  0  0  0  0
    2.0858   -1.1927    0.0024 H   0  0  0  0  0  0  0  0  0  0  0  0
    1.1965    0.6965    0.0007 C   0  0  0  0  0  0  0  0  0  0  0  0
    2.0650    1.1927    0.0003 H   0  0  0  0  0  0  0  0  0  0  0  0
  1  5  1  0
  5  8  1  0
  1  2  1  0
  1  3  1  0
  1  4  1  0
  5  6  1  0
  5  7  1  0
  8  9  1  0
  8 10  1  0
  8 11  1  0
 12 16  1  0
 16 17  2  0
 17 19  1  0
 19 21  2  0
 21 23  1  0
 23 25  2  0
 25 16  1  0
 12 13  1  0
 12 14  1  0
 12 15  1  0
 17 18  1  0
 19 20  1  0
 21 22  1  0
 23 24  1  0
 25 26  1  0
M  CHG  1   8   1
M  END
>  <PDB_ID>  (51) 
pdb1sef

>  <RESIDUE_NAME>  (51) 
LYS   PHE

>  <FRAG_NAME>  (51) 
ETAM   MBZ

>  <FRAG_ATOM_NUM>  (51) 
fragi: 11  fragj: 15

>  <atom.prop.CHAIN_ID>  (51) 
A A A A A A A A A A A Z Z Z Z Z Z Z Z Z Z Z Z Z Z Z

>  <atom.prop.IS_HEAVY_ATOM>  (51) 
1 0 0 0 1 0 0 1 0 0 0 1 0 0 0 1 1 0 1 0 1 0 1 0 1 0

>  <DIFUSE_FUNC_ATOM>  (51) 
n/a

>  <FINAL_SINGLE_POINT_ENERGY>  (51) 
0

>  <NONCOV_INTER_ENERGY_QM>  (51) 
0

>  <FF_Energy>  (51) 
2.39

>  <QM_Energy>  (51) 
-7.74

>  <source>  (51) 
ETAM_MBZ

>  <Index>  (51) 
11799

$$$$
ETAM-pdb1t0l-C-MET-1:MBZ-pdb1t0l-C-PHE-32
     RDKit          3D

 26 25  0  0  0  0  0  0  0  0999 V2000
   -0.9039    1.5950   -3.5064 C   0  0  0  0  0  0  0  0  0  0  0  0
   -1.1686    0.7003   -3.1195 H   0  0  0  0  0  0  0  0  0  0  0  0
   -1.1075    1.5774   -4.4958 H   0  0  0  0  0  0  0  0  0  0  0  0
    0.1727    1.7131   -3.3830 H   0  0  0  0  0  0  0  0  0  0  0  0
   -1.7544    2.6937   -2.8448 C   0  0  0  0  0  0  0  0  0  0  0  0
   -1.4776    2.8447   -1.8964 H   0  0  0  0  0  0  0  0  0  0  0  0
   -1.6281    3.6265   -3.3945 H   0  0  0  0  0  0  0  0  0  0  0  0
   -3.1940    2.2966   -2.8328 N   0  0  0  0  0  4  0  0  0  0  0  0
   -3.2658    1.3266   -3.0497 H   0  0  0  0  0  0  0  0  0  0  0  0
   -3.5723    2.4707   -1.9274 H   0  0  0  0  0  0  0  0  0  0  0  0
   -3.6851    2.8335   -3.5135 H   0  0  0  0  0  0  0  0  0  0  0  0
   -0.0077    2.9243   -0.0098 C   0  0  0  0  0  0  0  0  0  0  0  0
   -0.5144    3.2301    0.7807 H   0  0  0  0  0  0  0  0  0  0  0  0
   -0.4331    3.2192   -0.8509 H   0  0  0  0  0  0  0  0  0  0  0  0
    0.9853    3.3714    0.0364 H   0  0  0  0  0  0  0  0  0  0  0  0
   -0.0004    1.4098    0.0004 C   0  0  0  0  0  0  0  0  0  0  0  0
   -1.1955    0.6953    0.0001 C   0  0  0  0  0  0  0  0  0  0  0  0
   -2.0648    1.1798   -0.0009 H   0  0  0  0  0  0  0  0  0  0  0  0
   -1.1995   -0.7054   -0.0000 C   0  0  0  0  0  0  0  0  0  0  0  0
   -2.0785   -1.1937    0.0018 H   0  0  0  0  0  0  0  0  0  0  0  0
   -0.0016   -1.3990   -0.0012 C   0  0  0  0  0  0  0  0  0  0  0  0
   -0.0018   -2.3976   -0.0038 H   0  0  0  0  0  0  0  0  0  0  0  0
    1.1995   -0.6996   -0.0000 C   0  0  0  0  0  0  0  0  0  0  0  0
    2.0825   -1.1946    0.0019 H   0  0  0  0  0  0  0  0  0  0  0  0
    1.1974    0.6990    0.0007 C   0  0  0  0  0  0  0  0  0  0  0  0
    2.0661    1.1908    0.0007 H   0  0  0  0  0  0  0  0  0  0  0  0
  1  5  1  0
  5  8  1  0
  1  2  1  0
  1  3  1  0
  1  4  1  0
  5  6  1  0
  5  7  1  0
  8  9  1  0
  8 10  1  0
  8 11  1  0
 12 16  1  0
 16 17  2  0
 17 19  1  0
 19 21  2  0
 21 23  1  0
 23 25  2  0
 25 16  1  0
 12 13  1  0
 12 14  1  0
 12 15  1  0
 17 18  1  0
 19 20  1  0
 21 22  1  0
 23 24  1  0
 25 26  1  0
M  CHG  1   8   1
M  END
>  <PDB_ID>  (52) 
pdb1t0l

>  <RESIDUE_NAME>  (52) 
MET   PHE

>  <FRAG_NAME>  (52) 
ETAM   MBZ

>  <FRAG_ATOM_NUM>  (52) 
fragi: 11  fragj: 15

>  <atom.prop.CHAIN_ID>  (52) 
A A A A A A A A A A A Z Z Z Z Z Z Z Z Z Z Z Z Z Z Z

>  <atom.prop.IS_HEAVY_ATOM>  (52) 
1 0 0 0 1 0 0 1 0 0 0 1 0 0 0 1 1 0 1 0 1 0 1 0 1 0

>  <DIFUSE_FUNC_ATOM>  (52) 
n/a

>  <FINAL_SINGLE_POINT_ENERGY>  (52) 
0

>  <NONCOV_INTER_ENERGY_QM>  (52) 
0

>  <FF_Energy>  (52) 
24.27

>  <QM_Energy>  (52) 
-2.34

>  <source>  (52) 
ETAM_MBZ

>  <Index>  (52) 
12151

$$$$
ETAM-pdb1t3a-B-LYS-21:MBZ-pdb1t3a-B-PHE-28
     RDKit          3D

 26 25  0  0  0  0  0  0  0  0999 V2000
    0.6224   -2.1602   -3.9691 C   0  0  0  0  0  0  0  0  0  0  0  0
   -0.1730   -2.7313   -3.7915 H   0  0  0  0  0  0  0  0  0  0  0  0
    1.1538   -2.5326   -4.7239 H   0  0  0  0  0  0  0  0  0  0  0  0
    0.2792   -1.1625   -4.2429 H   0  0  0  0  0  0  0  0  0  0  0  0
    1.4934   -2.1337   -2.7248 C   0  0  0  0  0  0  0  0  0  0  0  0
    2.2604   -1.4815   -2.8716 H   0  0  0  0  0  0  0  0  0  0  0  0
    0.9474   -1.7725   -1.9459 H   0  0  0  0  0  0  0  0  0  0  0  0
    2.0795   -3.4642   -2.3116 N   0  0  0  0  0  4  0  0  0  0  0  0
    1.3349   -4.1053   -2.1491 H   0  0  0  0  0  0  0  0  0  0  0  0
    2.6658   -3.7975   -3.0445 H   0  0  0  0  0  0  0  0  0  0  0  0
    2.6101   -3.3352   -1.4783 H   0  0  0  0  0  0  0  0  0  0  0  0
   -0.0013    2.9000   -0.0639 C   0  0  0  0  0  0  0  0  0  0  0  0
    0.7832    3.2305    0.4364 H   0  0  0  0  0  0  0  0  0  0  0  0
   -0.8467    3.2255    0.3305 H   0  0  0  0  0  0  0  0  0  0  0  0
    0.0633    3.2904   -1.0796 H   0  0  0  0  0  0  0  0  0  0  0  0
   -0.0002    1.4038    0.0001 C   0  0  0  0  0  0  0  0  0  0  0  0
   -1.1993    0.6957    0.0010 C   0  0  0  0  0  0  0  0  0  0  0  0
   -2.0656    1.1844    0.0012 H   0  0  0  0  0  0  0  0  0  0  0  0
   -1.2052   -0.7018   -0.0000 C   0  0  0  0  0  0  0  0  0  0  0  0
   -2.0802   -1.1933    0.0027 H   0  0  0  0  0  0  0  0  0  0  0  0
    0.0006   -1.3991   -0.0020 C   0  0  0  0  0  0  0  0  0  0  0  0
   -0.0002   -2.3951   -0.0049 H   0  0  0  0  0  0  0  0  0  0  0  0
    1.2052   -0.6959    0.0000 C   0  0  0  0  0  0  0  0  0  0  0  0
    2.0864   -1.1929    0.0026 H   0  0  0  0  0  0  0  0  0  0  0  0
    1.1988    0.6973    0.0009 C   0  0  0  0  0  0  0  0  0  0  0  0
    2.0663    1.1939    0.0014 H   0  0  0  0  0  0  0  0  0  0  0  0
  1  5  1  0
  5  8  1  0
  1  2  1  0
  1  3  1  0
  1  4  1  0
  5  6  1  0
  5  7  1  0
  8  9  1  0
  8 10  1  0
  8 11  1  0
 12 16  1  0
 16 17  2  0
 17 19  1  0
 19 21  2  0
 21 23  1  0
 23 25  2  0
 25 16  1  0
 12 13  1  0
 12 14  1  0
 12 15  1  0
 17 18  1  0
 19 20  1  0
 21 22  1  0
 23 24  1  0
 25 26  1  0
M  CHG  1   8   1
M  END
>  <PDB_ID>  (53) 
pdb1t3a

>  <RESIDUE_NAME>  (53) 
LYS   PHE

>  <FRAG_NAME>  (53) 
ETAM   MBZ

>  <FRAG_ATOM_NUM>  (53) 
fragi: 11  fragj: 15

>  <atom.prop.CHAIN_ID>  (53) 
A A A A A A A A A A A Z Z Z Z Z Z Z Z Z Z Z Z Z Z Z

>  <atom.prop.IS_HEAVY_ATOM>  (53) 
1 0 0 0 1 0 0 1 0 0 0 1 0 0 0 1 1 0 1 0 1 0 1 0 1 0

>  <DIFUSE_FUNC_ATOM>  (53) 
n/a

>  <FINAL_SINGLE_POINT_ENERGY>  (53) 
0

>  <NONCOV_INTER_ENERGY_QM>  (53) 
0

>  <FF_Energy>  (53) 
10.11

>  <QM_Energy>  (53) 
-3.02

>  <source>  (53) 
ETAM_MBZ

>  <Index>  (53) 
12259

$$$$
ETAM-pdb1tb3-H-LYS-131:MBZ-pdb1tb3-H-PHE-136
     RDKit          3D

 26 25  0  0  0  0  0  0  0  0999 V2000
   -1.0240   -0.7448    4.0446 C   0  0  0  0  0  0  0  0  0  0  0  0
   -0.8085   -0.4595    4.9756 H   0  0  0  0  0  0  0  0  0  0  0  0
   -0.7695   -1.6996    3.9140 H   0  0  0  0  0  0  0  0  0  0  0  0
   -2.0978   -0.6431    3.8873 H   0  0  0  0  0  0  0  0  0  0  0  0
   -0.2191    0.1088    3.0775 C   0  0  0  0  0  0  0  0  0  0  0  0
   -0.4399   -0.1681    2.1375 H   0  0  0  0  0  0  0  0  0  0  0  0
   -0.4779    1.0717    3.1993 H   0  0  0  0  0  0  0  0  0  0  0  0
    1.2504   -0.0308    3.2942 N   0  0  0  0  0  4  0  0  0  0  0  0
    1.5275   -0.9661    3.0792 H   0  0  0  0  0  0  0  0  0  0  0  0
    1.7339    0.6083    2.6983 H   0  0  0  0  0  0  0  0  0  0  0  0
    1.4639    0.1722    4.2486 H   0  0  0  0  0  0  0  0  0  0  0  0
    0.0010    2.9201    0.0104 C   0  0  0  0  0  0  0  0  0  0  0  0
    0.9056    3.2215    0.2744 H   0  0  0  0  0  0  0  0  0  0  0  0
   -0.6809    3.2195    0.6608 H   0  0  0  0  0  0  0  0  0  0  0  0
   -0.2346    3.3757   -0.9514 H   0  0  0  0  0  0  0  0  0  0  0  0
    0.0005    1.4085   -0.0007 C   0  0  0  0  0  0  0  0  0  0  0  0
   -1.1987    0.6937   -0.0002 C   0  0  0  0  0  0  0  0  0  0  0  0
   -2.0660    1.1810   -0.0009 H   0  0  0  0  0  0  0  0  0  0  0  0
   -1.2037   -0.7053    0.0000 C   0  0  0  0  0  0  0  0  0  0  0  0
   -2.0794   -1.1959    0.0007 H   0  0  0  0  0  0  0  0  0  0  0  0
   -0.0001   -1.4001    0.0010 C   0  0  0  0  0  0  0  0  0  0  0  0
    0.0004   -2.3974    0.0022 H   0  0  0  0  0  0  0  0  0  0  0  0
    1.2037   -0.6974    0.0000 C   0  0  0  0  0  0  0  0  0  0  0  0
    2.0853   -1.1922    0.0006 H   0  0  0  0  0  0  0  0  0  0  0  0
    1.1983    0.7005   -0.0001 C   0  0  0  0  0  0  0  0  0  0  0  0
    2.0665    1.1942   -0.0002 H   0  0  0  0  0  0  0  0  0  0  0  0
  1  5  1  0
  5  8  1  0
  1  2  1  0
  1  3  1  0
  1  4  1  0
  5  6  1  0
  5  7  1  0
  8  9  1  0
  8 10  1  0
  8 11  1  0
 12 16  1  0
 16 17  2  0
 17 19  1  0
 19 21  2  0
 21 23  1  0
 23 25  2  0
 25 16  1  0
 12 13  1  0
 12 14  1  0
 12 15  1  0
 17 18  1  0
 19 20  1  0
 21 22  1  0
 23 24  1  0
 25 26  1  0
M  CHG  1   8   1
M  END
>  <PDB_ID>  (54) 
pdb1tb3

>  <RESIDUE_NAME>  (54) 
LYS   PHE

>  <FRAG_NAME>  (54) 
ETAM   MBZ

>  <FRAG_ATOM_NUM>  (54) 
fragi: 11  fragj: 15

>  <atom.prop.CHAIN_ID>  (54) 
A A A A A A A A A A A Z Z Z Z Z Z Z Z Z Z Z Z Z Z Z

>  <atom.prop.IS_HEAVY_ATOM>  (54) 
1 0 0 0 1 0 0 1 0 0 0 1 0 0 0 1 1 0 1 0 1 0 1 0 1 0

>  <DIFUSE_FUNC_ATOM>  (54) 
n/a

>  <FINAL_SINGLE_POINT_ENERGY>  (54) 
0

>  <NONCOV_INTER_ENERGY_QM>  (54) 
0

>  <FF_Energy>  (54) 
-1.49

>  <QM_Energy>  (54) 
-13.04

>  <source>  (54) 
ETAM_MBZ

>  <Index>  (54) 
12409

$$$$
ETAM-pdb2zyg-B-LYS-458:MBZ-pdb2zyg-B-PHE-462
     RDKit          3D

 26 25  0  0  0  0  0  0  0  0999 V2000
    0.8845   -4.2189   -4.2691 C   0  0  0  0  0  0  0  0  0  0  0  0
    1.3250   -5.0033   -3.8413 H   0  0  0  0  0  0  0  0  0  0  0  0
    1.1786   -4.1334   -5.2167 H   0  0  0  0  0  0  0  0  0  0  0  0
   -0.1921   -4.3894   -4.2616 H   0  0  0  0  0  0  0  0  0  0  0  0
    1.2613   -2.9662   -3.5171 C   0  0  0  0  0  0  0  0  0  0  0  0
    2.2409   -2.9745   -3.3306 H   0  0  0  0  0  0  0  0  0  0  0  0
    1.0260   -2.1683   -4.0661 H   0  0  0  0  0  0  0  0  0  0  0  0
    0.5199   -2.9087   -2.2287 N   0  0  0  0  0  4  0  0  0  0  0  0
    0.7521   -2.0623   -1.7498 H   0  0  0  0  0  0  0  0  0  0  0  0
   -0.4635   -2.9314   -2.4106 H   0  0  0  0  0  0  0  0  0  0  0  0
    0.7736   -3.6934   -1.6644 H   0  0  0  0  0  0  0  0  0  0  0  0
   -0.0020    2.8930    0.0815 C   0  0  0  0  0  0  0  0  0  0  0  0
   -0.7708    3.2293   -0.4416 H   0  0  0  0  0  0  0  0  0  0  0  0
    0.8547    3.2242   -0.2842 H   0  0  0  0  0  0  0  0  0  0  0  0
   -0.0989    3.2703    1.0996 H   0  0  0  0  0  0  0  0  0  0  0  0
    0.0009    1.4037    0.0009 C   0  0  0  0  0  0  0  0  0  0  0  0
   -1.1969    0.6891   -0.0015 C   0  0  0  0  0  0  0  0  0  0  0  0
   -2.0640    1.1789   -0.0055 H   0  0  0  0  0  0  0  0  0  0  0  0
   -1.2016   -0.7028    0.0000 C   0  0  0  0  0  0  0  0  0  0  0  0
   -2.0756   -1.1976    0.0007 H   0  0  0  0  0  0  0  0  0  0  0  0
    0.0043   -1.3985    0.0030 C   0  0  0  0  0  0  0  0  0  0  0  0
    0.0041   -2.3939    0.0068 H   0  0  0  0  0  0  0  0  0  0  0  0
    1.2016   -0.6926    0.0000 C   0  0  0  0  0  0  0  0  0  0  0  0
    2.0867   -1.1849    0.0015 H   0  0  0  0  0  0  0  0  0  0  0  0
    1.1917    0.7011   -0.0025 C   0  0  0  0  0  0  0  0  0  0  0  0
    2.0628    1.1961   -0.0077 H   0  0  0  0  0  0  0  0  0  0  0  0
  1  5  1  0
  5  8  1  0
  1  2  1  0
  1  3  1  0
  1  4  1  0
  5  6  1  0
  5  7  1  0
  8  9  1  0
  8 10  1  0
  8 11  1  0
 12 16  1  0
 16 17  2  0
 17 19  1  0
 19 21  2  0
 21 23  1  0
 23 25  2  0
 25 16  1  0
 12 13  1  0
 12 14  1  0
 12 15  1  0
 17 18  1  0
 19 20  1  0
 21 22  1  0
 23 24  1  0
 25 26  1  0
M  CHG  1   8   1
M  END
>  <PDB_ID>  (55) 
pdb2zyg

>  <RESIDUE_NAME>  (55) 
LYS   PHE

>  <FRAG_NAME>  (55) 
ETAM   MBZ

>  <FRAG_ATOM_NUM>  (55) 
fragi: 11  fragj: 15

>  <atom.prop.CHAIN_ID>  (55) 
A A A A A A A A A A A Z Z Z Z Z Z Z Z Z Z Z Z Z Z Z

>  <atom.prop.IS_HEAVY_ATOM>  (55) 
1 0 0 0 1 0 0 1 0 0 0 1 0 0 0 1 1 0 1 0 1 0 1 0 1 0

>  <DIFUSE_FUNC_ATOM>  (55) 
n/a

>  <FINAL_SINGLE_POINT_ENERGY>  (55) 
0

>  <NONCOV_INTER_ENERGY_QM>  (55) 
0

>  <FF_Energy>  (55) 
4.0

>  <QM_Energy>  (55) 
-6.85

>  <source>  (55) 
ETAM_MBZ

>  <Index>  (55) 
12999

$$$$
ETAM-pdb1wkm-C-MET-1:MBZ-pdb1wkm-C-PHE-90
     RDKit          3D

 26 25  0  0  0  0  0  0  0  0999 V2000
   -1.8151   -4.6792    1.4891 C   0  0  0  0  0  0  0  0  0  0  0  0
   -1.2198   -5.4021    1.1316 H   0  0  0  0  0  0  0  0  0  0  0  0
   -2.3196   -5.0326    2.2807 H   0  0  0  0  0  0  0  0  0  0  0  0
   -2.5344   -4.4124    0.7149 H   0  0  0  0  0  0  0  0  0  0  0  0
   -0.9490   -3.4932    1.9370 C   0  0  0  0  0  0  0  0  0  0  0  0
   -1.0010   -2.8736    1.1400 H   0  0  0  0  0  0  0  0  0  0  0  0
   -1.2848   -2.9709    2.8329 H   0  0  0  0  0  0  0  0  0  0  0  0
    0.4761   -3.9151    2.0524 N   0  0  0  0  0  4  0  0  0  0  0  0
    0.5645   -4.8575    1.7399 H   0  0  0  0  0  0  0  0  0  0  0  0
    1.0407   -3.3173    1.4881 H   0  0  0  0  0  0  0  0  0  0  0  0
    0.7608   -3.8475    3.0048 H   0  0  0  0  0  0  0  0  0  0  0  0
   -0.0075    2.9251   -0.0271 C   0  0  0  0  0  0  0  0  0  0  0  0
    0.8651    3.2268    0.2769 H   0  0  0  0  0  0  0  0  0  0  0  0
   -0.7488    3.2239    0.5263 H   0  0  0  0  0  0  0  0  0  0  0  0
   -0.1653    3.2801   -1.0456 H   0  0  0  0  0  0  0  0  0  0  0  0
   -0.0004    1.3986   -0.0000 C   0  0  0  0  0  0  0  0  0  0  0  0
   -1.2121    0.6992   -0.0008 C   0  0  0  0  0  0  0  0  0  0  0  0
   -2.0692    1.1881   -0.0031 H   0  0  0  0  0  0  0  0  0  0  0  0
   -1.2125   -0.7006    0.0000 C   0  0  0  0  0  0  0  0  0  0  0  0
   -2.0844   -1.1958    0.0014 H   0  0  0  0  0  0  0  0  0  0  0  0
    0.0001   -1.3991    0.0000 C   0  0  0  0  0  0  0  0  0  0  0  0
   -0.0026   -2.3955   -0.0003 H   0  0  0  0  0  0  0  0  0  0  0  0
    1.2125   -0.6987   -0.0000 C   0  0  0  0  0  0  0  0  0  0  0  0
    2.0899   -1.1982    0.0011 H   0  0  0  0  0  0  0  0  0  0  0  0
    1.2124    0.7006    0.0008 C   0  0  0  0  0  0  0  0  0  0  0  0
    2.0699    1.1969    0.0012 H   0  0  0  0  0  0  0  0  0  0  0  0
  1  5  1  0
  5  8  1  0
  1  2  1  0
  1  3  1  0
  1  4  1  0
  5  6  1  0
  5  7  1  0
  8  9  1  0
  8 10  1  0
  8 11  1  0
 12 16  1  0
 16 17  2  0
 17 19  1  0
 19 21  2  0
 21 23  1  0
 23 25  2  0
 25 16  1  0
 12 13  1  0
 12 14  1  0
 12 15  1  0
 17 18  1  0
 19 20  1  0
 21 22  1  0
 23 24  1  0
 25 26  1  0
M  CHG  1   8   1
M  END
>  <PDB_ID>  (56) 
pdb1wkm

>  <RESIDUE_NAME>  (56) 
MET   PHE

>  <FRAG_NAME>  (56) 
ETAM   MBZ

>  <FRAG_ATOM_NUM>  (56) 
fragi: 11  fragj: 15

>  <atom.prop.CHAIN_ID>  (56) 
A A A A A A A A A A A Z Z Z Z Z Z Z Z Z Z Z Z Z Z Z

>  <atom.prop.IS_HEAVY_ATOM>  (56) 
1 0 0 0 1 0 0 1 0 0 0 1 0 0 0 1 1 0 1 0 1 0 1 0 1 0

>  <DIFUSE_FUNC_ATOM>  (56) 
n/a

>  <FINAL_SINGLE_POINT_ENERGY>  (56) 
0

>  <NONCOV_INTER_ENERGY_QM>  (56) 
0

>  <FF_Energy>  (56) 
30.82

>  <QM_Energy>  (56) 
-0.35

>  <source>  (56) 
ETAM_MBZ

>  <Index>  (56) 
13906

$$$$
ETAM-pdb1wkm-D-MET-1:MBZ-pdb1wkm-D-PHE-90
     RDKit          3D

 26 25  0  0  0  0  0  0  0  0999 V2000
   -2.9460   -3.9555    2.1519 C   0  0  0  0  0  0  0  0  0  0  0  0
   -2.7346   -4.8180    1.6861 H   0  0  0  0  0  0  0  0  0  0  0  0
   -3.1511   -4.1453    3.1151 H   0  0  0  0  0  0  0  0  0  0  0  0
   -3.8341   -3.5244    1.6898 H   0  0  0  0  0  0  0  0  0  0  0  0
   -1.7181   -3.0322    2.0757 C   0  0  0  0  0  0  0  0  0  0  0  0
   -1.7915   -2.3685    1.3213 H   0  0  0  0  0  0  0  0  0  0  0  0
   -1.6442   -2.5007    3.0245 H   0  0  0  0  0  0  0  0  0  0  0  0
   -0.4876   -3.8363    1.8200 N   0  0  0  0  0  4  0  0  0  0  0  0
   -0.3500   -4.4712    2.5757 H   0  0  0  0  0  0  0  0  0  0  0  0
   -0.5998   -4.3431    0.9689 H   0  0  0  0  0  0  0  0  0  0  0  0
    0.2939   -3.2219    1.7479 H   0  0  0  0  0  0  0  0  0  0  0  0
   -0.0047    2.9267   -0.0293 C   0  0  0  0  0  0  0  0  0  0  0  0
    0.8692    3.2269    0.2733 H   0  0  0  0  0  0  0  0  0  0  0  0
   -0.7448    3.2268    0.5261 H   0  0  0  0  0  0  0  0  0  0  0  0
   -0.1641    3.2835   -1.0469 H   0  0  0  0  0  0  0  0  0  0  0  0
   -0.0000    1.3992   -0.0003 C   0  0  0  0  0  0  0  0  0  0  0  0
   -1.2124    0.6997   -0.0000 C   0  0  0  0  0  0  0  0  0  0  0  0
   -2.0689    1.1887   -0.0008 H   0  0  0  0  0  0  0  0  0  0  0  0
   -1.2124   -0.7002   -0.0000 C   0  0  0  0  0  0  0  0  0  0  0  0
   -2.0850   -1.1961    0.0029 H   0  0  0  0  0  0  0  0  0  0  0  0
    0.0000   -1.3991   -0.0022 C   0  0  0  0  0  0  0  0  0  0  0  0
   -0.0034   -2.3961   -0.0057 H   0  0  0  0  0  0  0  0  0  0  0  0
    1.2124   -0.6997    0.0000 C   0  0  0  0  0  0  0  0  0  0  0  0
    2.0893   -1.1989    0.0015 H   0  0  0  0  0  0  0  0  0  0  0  0
    1.2124    0.7000    0.0024 C   0  0  0  0  0  0  0  0  0  0  0  0
    2.0709    1.1959    0.0050 H   0  0  0  0  0  0  0  0  0  0  0  0
  1  5  1  0
  5  8  1  0
  1  2  1  0
  1  3  1  0
  1  4  1  0
  5  6  1  0
  5  7  1  0
  8  9  1  0
  8 10  1  0
  8 11  1  0
 12 16  1  0
 16 17  2  0
 17 19  1  0
 19 21  2  0
 21 23  1  0
 23 25  2  0
 25 16  1  0
 12 13  1  0
 12 14  1  0
 12 15  1  0
 17 18  1  0
 19 20  1  0
 21 22  1  0
 23 24  1  0
 25 26  1  0
M  CHG  1   8   1
M  END
>  <PDB_ID>  (57) 
pdb1wkm

>  <RESIDUE_NAME>  (57) 
MET   PHE

>  <FRAG_NAME>  (57) 
ETAM   MBZ

>  <FRAG_ATOM_NUM>  (57) 
fragi: 11  fragj: 15

>  <atom.prop.CHAIN_ID>  (57) 
A A A A A A A A A A A Z Z Z Z Z Z Z Z Z Z Z Z Z Z Z

>  <atom.prop.IS_HEAVY_ATOM>  (57) 
1 0 0 0 1 0 0 1 0 0 0 1 0 0 0 1 1 0 1 0 1 0 1 0 1 0

>  <DIFUSE_FUNC_ATOM>  (57) 
n/a

>  <FINAL_SINGLE_POINT_ENERGY>  (57) 
0

>  <NONCOV_INTER_ENERGY_QM>  (57) 
0

>  <FF_Energy>  (57) 
14.61

>  <QM_Energy>  (57) 
-2.44

>  <source>  (57) 
ETAM_MBZ

>  <Index>  (57) 
13908

$$$$
ETAM-pdb3aq4-B-LYS-59:MBZ-pdb3aq4-B-PHE-13
     RDKit          3D

 26 25  0  0  0  0  0  0  0  0999 V2000
    0.2510   -2.4581   -2.9453 C   0  0  0  0  0  0  0  0  0  0  0  0
    0.7061   -3.3332   -3.0596 H   0  0  0  0  0  0  0  0  0  0  0  0
    0.4643   -2.0637   -2.0603 H   0  0  0  0  0  0  0  0  0  0  0  0
    0.5624   -1.7766   -3.7370 H   0  0  0  0  0  0  0  0  0  0  0  0
   -1.2634   -2.7014   -3.0017 C   0  0  0  0  0  0  0  0  0  0  0  0
   -1.7260   -1.8180   -3.0948 H   0  0  0  0  0  0  0  0  0  0  0  0
   -1.4681   -3.2650   -3.8036 H   0  0  0  0  0  0  0  0  0  0  0  0
   -1.7627   -3.3926   -1.7741 N   0  0  0  0  0  4  0  0  0  0  0  0
   -1.0415   -3.9807   -1.4124 H   0  0  0  0  0  0  0  0  0  0  0  0
   -2.0145   -2.7091   -1.0917 H   0  0  0  0  0  0  0  0  0  0  0  0
   -2.5607   -3.9445   -2.0097 H   0  0  0  0  0  0  0  0  0  0  0  0
   -0.0082    2.9118    0.0026 C   0  0  0  0  0  0  0  0  0  0  0  0
   -0.6162    3.2077    0.7227 H   0  0  0  0  0  0  0  0  0  0  0  0
   -0.3180    3.2211   -0.8832 H   0  0  0  0  0  0  0  0  0  0  0  0
    0.9691    3.3575    0.1879 H   0  0  0  0  0  0  0  0  0  0  0  0
    0.0012    1.4032   -0.0086 C   0  0  0  0  0  0  0  0  0  0  0  0
   -1.1992    0.6963    0.0020 C   0  0  0  0  0  0  0  0  0  0  0  0
   -2.0635    1.1891    0.0097 H   0  0  0  0  0  0  0  0  0  0  0  0
   -1.2073   -0.6946    0.0000 C   0  0  0  0  0  0  0  0  0  0  0  0
   -2.0845   -1.1858   -0.0077 H   0  0  0  0  0  0  0  0  0  0  0  0
   -0.0083   -1.3913    0.0107 C   0  0  0  0  0  0  0  0  0  0  0  0
   -0.0107   -2.3912    0.0256 H   0  0  0  0  0  0  0  0  0  0  0  0
    1.2073   -0.6994   -0.0000 C   0  0  0  0  0  0  0  0  0  0  0  0
    2.0792   -1.2067   -0.0035 H   0  0  0  0  0  0  0  0  0  0  0  0
    1.2062    0.6858   -0.0041 C   0  0  0  0  0  0  0  0  0  0  0  0
    2.0711    1.1867   -0.0044 H   0  0  0  0  0  0  0  0  0  0  0  0
  1  5  1  0
  5  8  1  0
  1  2  1  0
  1  3  1  0
  1  4  1  0
  5  6  1  0
  5  7  1  0
  8  9  1  0
  8 10  1  0
  8 11  1  0
 12 16  1  0
 16 17  2  0
 17 19  1  0
 19 21  2  0
 21 23  1  0
 23 25  2  0
 25 16  1  0
 12 13  1  0
 12 14  1  0
 12 15  1  0
 17 18  1  0
 19 20  1  0
 21 22  1  0
 23 24  1  0
 25 26  1  0
M  CHG  1   8   1
M  END
>  <PDB_ID>  (58) 
pdb3aq4

>  <RESIDUE_NAME>  (58) 
LYS   PHE

>  <FRAG_NAME>  (58) 
ETAM   MBZ

>  <FRAG_ATOM_NUM>  (58) 
fragi: 11  fragj: 15

>  <atom.prop.CHAIN_ID>  (58) 
A A A A A A A A A A A Z Z Z Z Z Z Z Z Z Z Z Z Z Z Z

>  <atom.prop.IS_HEAVY_ATOM>  (58) 
1 0 0 0 1 0 0 1 0 0 0 1 0 0 0 1 1 0 1 0 1 0 1 0 1 0

>  <DIFUSE_FUNC_ATOM>  (58) 
n/a

>  <FINAL_SINGLE_POINT_ENERGY>  (58) 
0

>  <NONCOV_INTER_ENERGY_QM>  (58) 
0

>  <FF_Energy>  (58) 
5.56

>  <QM_Energy>  (58) 
-5.18

>  <source>  (58) 
ETAM_MBZ

>  <Index>  (58) 
14029

$$$$
ETAM-pdb1wz3-B-LYS-82:MBZ-pdb1wz3-B-PHE-79
     RDKit          3D

 26 25  0  0  0  0  0  0  0  0999 V2000
    2.2084   -1.6956    4.0857 C   0  0  0  0  0  0  0  0  0  0  0  0
    3.0566   -2.1742    4.2997 H   0  0  0  0  0  0  0  0  0  0  0  0
    1.5847   -1.7423    4.8610 H   0  0  0  0  0  0  0  0  0  0  0  0
    2.4371   -0.6502    3.8789 H   0  0  0  0  0  0  0  0  0  0  0  0
    1.5510   -2.3846    2.8955 C   0  0  0  0  0  0  0  0  0  0  0  0
    2.2157   -2.4245    2.1373 H   0  0  0  0  0  0  0  0  0  0  0  0
    1.3191   -3.3316    3.1567 H   0  0  0  0  0  0  0  0  0  0  0  0
    0.3183   -1.6946    2.4253 N   0  0  0  0  0  4  0  0  0  0  0  0
   -0.2893   -1.5365    3.2026 H   0  0  0  0  0  0  0  0  0  0  0  0
    0.5660   -0.8198    2.0109 H   0  0  0  0  0  0  0  0  0  0  0  0
   -0.1442   -2.2672    1.7486 H   0  0  0  0  0  0  0  0  0  0  0  0
   -0.0095    2.8937   -0.0260 C   0  0  0  0  0  0  0  0  0  0  0  0
   -0.8200    3.1904   -0.5365 H   0  0  0  0  0  0  0  0  0  0  0  0
    0.8128    3.2024   -0.5091 H   0  0  0  0  0  0  0  0  0  0  0  0
   -0.0290    3.3984    0.9400 H   0  0  0  0  0  0  0  0  0  0  0  0
    0.0011    1.3986   -0.0077 C   0  0  0  0  0  0  0  0  0  0  0  0
   -1.1988    0.6926   -0.0084 C   0  0  0  0  0  0  0  0  0  0  0  0
   -2.0640    1.1934   -0.0172 H   0  0  0  0  0  0  0  0  0  0  0  0
   -1.2194   -0.6930    0.0000 C   0  0  0  0  0  0  0  0  0  0  0  0
   -2.0872   -1.1861   -0.0102 H   0  0  0  0  0  0  0  0  0  0  0  0
   -0.0058   -1.3909    0.0258 C   0  0  0  0  0  0  0  0  0  0  0  0
   -0.0112   -2.3896    0.0621 H   0  0  0  0  0  0  0  0  0  0  0  0
    1.2194   -0.6999   -0.0000 C   0  0  0  0  0  0  0  0  0  0  0  0
    2.0855   -1.1998   -0.0089 H   0  0  0  0  0  0  0  0  0  0  0  0
    1.2035    0.6925   -0.0097 C   0  0  0  0  0  0  0  0  0  0  0  0
    2.0692    1.1950   -0.0196 H   0  0  0  0  0  0  0  0  0  0  0  0
  1  5  1  0
  5  8  1  0
  1  2  1  0
  1  3  1  0
  1  4  1  0
  5  6  1  0
  5  7  1  0
  8  9  1  0
  8 10  1  0
  8 11  1  0
 12 16  1  0
 16 17  2  0
 17 19  1  0
 19 21  2  0
 21 23  1  0
 23 25  2  0
 25 16  1  0
 12 13  1  0
 12 14  1  0
 12 15  1  0
 17 18  1  0
 19 20  1  0
 21 22  1  0
 23 24  1  0
 25 26  1  0
M  CHG  1   8   1
M  END
>  <PDB_ID>  (59) 
pdb1wz3

>  <RESIDUE_NAME>  (59) 
LYS   PHE

>  <FRAG_NAME>  (59) 
ETAM   MBZ

>  <FRAG_ATOM_NUM>  (59) 
fragi: 11  fragj: 15

>  <atom.prop.CHAIN_ID>  (59) 
A A A A A A A A A A A Z Z Z Z Z Z Z Z Z Z Z Z Z Z Z

>  <atom.prop.IS_HEAVY_ATOM>  (59) 
1 0 0 0 1 0 0 1 0 0 0 1 0 0 0 1 1 0 1 0 1 0 1 0 1 0

>  <DIFUSE_FUNC_ATOM>  (59) 
n/a

>  <FINAL_SINGLE_POINT_ENERGY>  (59) 
0

>  <NONCOV_INTER_ENERGY_QM>  (59) 
0

>  <FF_Energy>  (59) 
21.74

>  <QM_Energy>  (59) 
-0.51

>  <source>  (59) 
ETAM_MBZ

>  <Index>  (59) 
14281

$$$$
ETAM-pdb1xta-B-LYS-156:MBZ-pdb1xta-B-PHE-153
     RDKit          3D

 26 25  0  0  0  0  0  0  0  0999 V2000
    5.6055    2.1675   -0.0704 C   0  0  0  0  0  0  0  0  0  0  0  0
    5.4824    2.8938   -0.7356 H   0  0  0  0  0  0  0  0  0  0  0  0
    6.3871    1.6032   -0.3053 H   0  0  0  0  0  0  0  0  0  0  0  0
    5.7694    2.6105    0.9120 H   0  0  0  0  0  0  0  0  0  0  0  0
    4.3601    1.2946   -0.0685 C   0  0  0  0  0  0  0  0  0  0  0  0
    4.4691    0.5737    0.6261 H   0  0  0  0  0  0  0  0  0  0  0  0
    3.5657    1.8604    0.1829 H   0  0  0  0  0  0  0  0  0  0  0  0
    4.1044    0.6601   -1.3923 N   0  0  0  0  0  4  0  0  0  0  0  0
    3.4972   -0.1241   -1.2717 H   0  0  0  0  0  0  0  0  0  0  0  0
    3.6753    1.3261   -2.0011 H   0  0  0  0  0  0  0  0  0  0  0  0
    4.9703    0.3561   -1.7865 H   0  0  0  0  0  0  0  0  0  0  0  0
    0.0028    2.9077    0.0089 C   0  0  0  0  0  0  0  0  0  0  0  0
   -0.4640    3.2187   -0.8040 H   0  0  0  0  0  0  0  0  0  0  0  0
    0.9420    3.2115    0.0266 H   0  0  0  0  0  0  0  0  0  0  0  0
   -0.5046    3.3386    0.8720 H   0  0  0  0  0  0  0  0  0  0  0  0
    0.0011    1.4037   -0.0003 C   0  0  0  0  0  0  0  0  0  0  0  0
   -1.1976    0.6969    0.0005 C   0  0  0  0  0  0  0  0  0  0  0  0
   -2.0635    1.1850   -0.0001 H   0  0  0  0  0  0  0  0  0  0  0  0
   -1.2033   -0.6995    0.0000 C   0  0  0  0  0  0  0  0  0  0  0  0
   -2.0798   -1.1910    0.0008 H   0  0  0  0  0  0  0  0  0  0  0  0
   -0.0003   -1.3968   -0.0003 C   0  0  0  0  0  0  0  0  0  0  0  0
   -0.0040   -2.3952   -0.0015 H   0  0  0  0  0  0  0  0  0  0  0  0
    1.2033   -0.6993    0.0000 C   0  0  0  0  0  0  0  0  0  0  0  0
    2.0837   -1.1952    0.0012 H   0  0  0  0  0  0  0  0  0  0  0  0
    1.1968    0.6948    0.0001 C   0  0  0  0  0  0  0  0  0  0  0  0
    2.0658    1.1906   -0.0005 H   0  0  0  0  0  0  0  0  0  0  0  0
  1  5  1  0
  5  8  1  0
  1  2  1  0
  1  3  1  0
  1  4  1  0
  5  6  1  0
  5  7  1  0
  8  9  1  0
  8 10  1  0
  8 11  1  0
 12 16  1  0
 16 17  2  0
 17 19  1  0
 19 21  2  0
 21 23  1  0
 23 25  2  0
 25 16  1  0
 12 13  1  0
 12 14  1  0
 12 15  1  0
 17 18  1  0
 19 20  1  0
 21 22  1  0
 23 24  1  0
 25 26  1  0
M  CHG  1   8   1
M  END
>  <PDB_ID>  (60) 
pdb1xta

>  <RESIDUE_NAME>  (60) 
LYS   PHE

>  <FRAG_NAME>  (60) 
ETAM   MBZ

>  <FRAG_ATOM_NUM>  (60) 
fragi: 11  fragj: 15

>  <atom.prop.CHAIN_ID>  (60) 
A A A A A A A A A A A Z Z Z Z Z Z Z Z Z Z Z Z Z Z Z

>  <atom.prop.IS_HEAVY_ATOM>  (60) 
1 0 0 0 1 0 0 1 0 0 0 1 0 0 0 1 1 0 1 0 1 0 1 0 1 0

>  <DIFUSE_FUNC_ATOM>  (60) 
n/a

>  <FINAL_SINGLE_POINT_ENERGY>  (60) 
0

>  <NONCOV_INTER_ENERGY_QM>  (60) 
0

>  <FF_Energy>  (60) 
15.18

>  <QM_Energy>  (60) 
-1.99

>  <source>  (60) 
ETAM_MBZ

>  <Index>  (60) 
14719

$$$$
ETAM-pdb3by8-A-LYS-121:MBZ-pdb3by8-A-PHE-141
     RDKit          3D

 26 25  0  0  0  0  0  0  0  0999 V2000
    0.9141   -1.1675   -3.9579 C   0  0  0  0  0  0  0  0  0  0  0  0
    1.0375   -0.2864   -3.5031 H   0  0  0  0  0  0  0  0  0  0  0  0
    0.3479   -1.0497   -4.7716 H   0  0  0  0  0  0  0  0  0  0  0  0
    1.8908   -1.5447   -4.2613 H   0  0  0  0  0  0  0  0  0  0  0  0
    0.2162   -2.1099   -3.0118 C   0  0  0  0  0  0  0  0  0  0  0  0
    0.1744   -3.0188   -3.4163 H   0  0  0  0  0  0  0  0  0  0  0  0
    0.7104   -2.1419   -2.1478 H   0  0  0  0  0  0  0  0  0  0  0  0
   -1.1785   -1.6296   -2.7544 N   0  0  0  0  0  4  0  0  0  0  0  0
   -1.7489   -1.8427   -3.5454 H   0  0  0  0  0  0  0  0  0  0  0  0
   -1.5386   -2.0890   -1.9441 H   0  0  0  0  0  0  0  0  0  0  0  0
   -1.1622   -0.6430   -2.6051 H   0  0  0  0  0  0  0  0  0  0  0  0
   -0.0161    2.8739   -0.1362 C   0  0  0  0  0  0  0  0  0  0  0  0
    0.8617    3.2287    0.1389 H   0  0  0  0  0  0  0  0  0  0  0  0
   -0.7467    3.2350    0.4191 H   0  0  0  0  0  0  0  0  0  0  0  0
   -0.1940    3.1950   -1.1626 H   0  0  0  0  0  0  0  0  0  0  0  0
    0.0016    1.4040   -0.0022 C   0  0  0  0  0  0  0  0  0  0  0  0
   -1.1970    0.6918    0.0025 C   0  0  0  0  0  0  0  0  0  0  0  0
   -2.0633    1.1846    0.0060 H   0  0  0  0  0  0  0  0  0  0  0  0
   -1.2045   -0.6978    0.0000 C   0  0  0  0  0  0  0  0  0  0  0  0
   -2.0818   -1.1910    0.0010 H   0  0  0  0  0  0  0  0  0  0  0  0
   -0.0036   -1.3975   -0.0022 C   0  0  0  0  0  0  0  0  0  0  0  0
   -0.0058   -2.3945   -0.0057 H   0  0  0  0  0  0  0  0  0  0  0  0
    1.2045   -0.6986   -0.0000 C   0  0  0  0  0  0  0  0  0  0  0  0
    2.0830   -1.1961    0.0017 H   0  0  0  0  0  0  0  0  0  0  0  0
    1.1990    0.6981    0.0018 C   0  0  0  0  0  0  0  0  0  0  0  0
    2.0671    1.1918    0.0051 H   0  0  0  0  0  0  0  0  0  0  0  0
  1  5  1  0
  5  8  1  0
  1  2  1  0
  1  3  1  0
  1  4  1  0
  5  6  1  0
  5  7  1  0
  8  9  1  0
  8 10  1  0
  8 11  1  0
 12 16  1  0
 16 17  2  0
 17 19  1  0
 19 21  2  0
 21 23  1  0
 23 25  2  0
 25 16  1  0
 12 13  1  0
 12 14  1  0
 12 15  1  0
 17 18  1  0
 19 20  1  0
 21 22  1  0
 23 24  1  0
 25 26  1  0
M  CHG  1   8   1
M  END
>  <PDB_ID>  (61) 
pdb3by8

>  <RESIDUE_NAME>  (61) 
LYS   PHE

>  <FRAG_NAME>  (61) 
ETAM   MBZ

>  <FRAG_ATOM_NUM>  (61) 
fragi: 11  fragj: 15

>  <atom.prop.CHAIN_ID>  (61) 
A A A A A A A A A A A Z Z Z Z Z Z Z Z Z Z Z Z Z Z Z

>  <atom.prop.IS_HEAVY_ATOM>  (61) 
1 0 0 0 1 0 0 1 0 0 0 1 0 0 0 1 1 0 1 0 1 0 1 0 1 0

>  <DIFUSE_FUNC_ATOM>  (61) 
n/a

>  <FINAL_SINGLE_POINT_ENERGY>  (61) 
0

>  <NONCOV_INTER_ENERGY_QM>  (61) 
0

>  <FF_Energy>  (61) 
0.12

>  <QM_Energy>  (61) 
-10.39

>  <source>  (61) 
ETAM_MBZ

>  <Index>  (61) 
14911

$$$$
ETAM-pdb3cty-A-LYS-87:MBZ-pdb3cty-A-PHE-17
     RDKit          3D

 26 25  0  0  0  0  0  0  0  0999 V2000
    2.1442   -3.9161   -0.3406 C   0  0  0  0  0  0  0  0  0  0  0  0
    1.5865   -3.0881   -0.4111 H   0  0  0  0  0  0  0  0  0  0  0  0
    1.5553   -4.7205   -0.4253 H   0  0  0  0  0  0  0  0  0  0  0  0
    2.8674   -3.9222   -1.1561 H   0  0  0  0  0  0  0  0  0  0  0  0
    2.8013   -3.9416    1.0218 C   0  0  0  0  0  0  0  0  0  0  0  0
    3.3575   -4.7694    1.1021 H   0  0  0  0  0  0  0  0  0  0  0  0
    3.3896   -3.1369    1.1168 H   0  0  0  0  0  0  0  0  0  0  0  0
    1.7798   -3.9315    2.0983 N   0  0  0  0  0  4  0  0  0  0  0  0
    1.9393   -3.1500    2.7022 H   0  0  0  0  0  0  0  0  0  0  0  0
    0.8688   -3.8586    1.6929 H   0  0  0  0  0  0  0  0  0  0  0  0
    1.8435   -4.7788    2.6257 H   0  0  0  0  0  0  0  0  0  0  0  0
    0.0039    2.9086   -0.0022 C   0  0  0  0  0  0  0  0  0  0  0  0
   -0.6502    3.2150   -0.6781 H   0  0  0  0  0  0  0  0  0  0  0  0
    0.9188    3.2124   -0.2262 H   0  0  0  0  0  0  0  0  0  0  0  0
   -0.2704    3.3568    0.9528 H   0  0  0  0  0  0  0  0  0  0  0  0
    0.0004    1.4034    0.0003 C   0  0  0  0  0  0  0  0  0  0  0  0
   -1.1994    0.6907    0.0002 C   0  0  0  0  0  0  0  0  0  0  0  0
   -2.0650    1.1835   -0.0013 H   0  0  0  0  0  0  0  0  0  0  0  0
   -1.2050   -0.6987    0.0000 C   0  0  0  0  0  0  0  0  0  0  0  0
   -2.0788   -1.1948    0.0014 H   0  0  0  0  0  0  0  0  0  0  0  0
    0.0010   -1.3958   -0.0005 C   0  0  0  0  0  0  0  0  0  0  0  0
   -0.0025   -2.3937   -0.0012 H   0  0  0  0  0  0  0  0  0  0  0  0
    1.2050   -0.6971   -0.0000 C   0  0  0  0  0  0  0  0  0  0  0  0
    2.0851   -1.1932    0.0020 H   0  0  0  0  0  0  0  0  0  0  0  0
    1.1981    0.6976   -0.0000 C   0  0  0  0  0  0  0  0  0  0  0  0
    2.0659    1.1933   -0.0008 H   0  0  0  0  0  0  0  0  0  0  0  0
  1  5  1  0
  5  8  1  0
  1  2  1  0
  1  3  1  0
  1  4  1  0
  5  6  1  0
  5  7  1  0
  8  9  1  0
  8 10  1  0
  8 11  1  0
 12 16  1  0
 16 17  2  0
 17 19  1  0
 19 21  2  0
 21 23  1  0
 23 25  2  0
 25 16  1  0
 12 13  1  0
 12 14  1  0
 12 15  1  0
 17 18  1  0
 19 20  1  0
 21 22  1  0
 23 24  1  0
 25 26  1  0
M  CHG  1   8   1
M  END
>  <PDB_ID>  (62) 
pdb3cty

>  <RESIDUE_NAME>  (62) 
LYS   PHE

>  <FRAG_NAME>  (62) 
ETAM   MBZ

>  <FRAG_ATOM_NUM>  (62) 
fragi: 11  fragj: 15

>  <atom.prop.CHAIN_ID>  (62) 
A A A A A A A A A A A Z Z Z Z Z Z Z Z Z Z Z Z Z Z Z

>  <atom.prop.IS_HEAVY_ATOM>  (62) 
1 0 0 0 1 0 0 1 0 0 0 1 0 0 0 1 1 0 1 0 1 0 1 0 1 0

>  <DIFUSE_FUNC_ATOM>  (62) 
n/a

>  <FINAL_SINGLE_POINT_ENERGY>  (62) 
0

>  <NONCOV_INTER_ENERGY_QM>  (62) 
0

>  <FF_Energy>  (62) 
7.58

>  <QM_Energy>  (62) 
-3.07

>  <source>  (62) 
ETAM_MBZ

>  <Index>  (62) 
15559

$$$$
ETAM-pdb3dol-A-LYS-46:MBZ-pdb3dol-A-PHE-116
     RDKit          3D

 26 25  0  0  0  0  0  0  0  0999 V2000
    2.0953    2.8167    4.0375 C   0  0  0  0  0  0  0  0  0  0  0  0
    2.6191    3.5925    3.6917 H   0  0  0  0  0  0  0  0  0  0  0  0
    2.6868    2.2208    4.5751 H   0  0  0  0  0  0  0  0  0  0  0  0
    1.2944    3.1893    4.6761 H   0  0  0  0  0  0  0  0  0  0  0  0
    1.5635    2.0252    2.8498 C   0  0  0  0  0  0  0  0  0  0  0  0
    0.9101    2.6046    2.3378 H   0  0  0  0  0  0  0  0  0  0  0  0
    2.3338    1.8138    2.2274 H   0  0  0  0  0  0  0  0  0  0  0  0
    0.8803    0.7441    3.2203 N   0  0  0  0  0  4  0  0  0  0  0  0
    0.8031    0.6904    4.2135 H   0  0  0  0  0  0  0  0  0  0  0  0
   -0.0283    0.7281    2.8089 H   0  0  0  0  0  0  0  0  0  0  0  0
    1.4196   -0.0237    2.8808 H   0  0  0  0  0  0  0  0  0  0  0  0
   -0.0034    2.9309    0.0171 C   0  0  0  0  0  0  0  0  0  0  0  0
    0.6174    3.2407   -0.6830 H   0  0  0  0  0  0  0  0  0  0  0  0
    0.2818    3.2220    0.9150 H   0  0  0  0  0  0  0  0  0  0  0  0
   -0.9805    3.3706   -0.1827 H   0  0  0  0  0  0  0  0  0  0  0  0
   -0.0022    1.4139   -0.0005 C   0  0  0  0  0  0  0  0  0  0  0  0
   -1.2002    0.6986    0.0009 C   0  0  0  0  0  0  0  0  0  0  0  0
   -2.0686    1.1830    0.0014 H   0  0  0  0  0  0  0  0  0  0  0  0
   -1.2031   -0.7046   -0.0000 C   0  0  0  0  0  0  0  0  0  0  0  0
   -2.0779   -1.1952    0.0009 H   0  0  0  0  0  0  0  0  0  0  0  0
    0.0052   -1.4047   -0.0001 C   0  0  0  0  0  0  0  0  0  0  0  0
   -0.0008   -2.4007   -0.0011 H   0  0  0  0  0  0  0  0  0  0  0  0
    1.2031   -0.7037    0.0000 C   0  0  0  0  0  0  0  0  0  0  0  0
    2.0874   -1.1927    0.0020 H   0  0  0  0  0  0  0  0  0  0  0  0
    1.1972    0.7005   -0.0003 C   0  0  0  0  0  0  0  0  0  0  0  0
    2.0657    1.1920   -0.0008 H   0  0  0  0  0  0  0  0  0  0  0  0
  1  5  1  0
  5  8  1  0
  1  2  1  0
  1  3  1  0
  1  4  1  0
  5  6  1  0
  5  7  1  0
  8  9  1  0
  8 10  1  0
  8 11  1  0
 12 16  1  0
 16 17  2  0
 17 19  1  0
 19 21  2  0
 21 23  1  0
 23 25  2  0
 25 16  1  0
 12 13  1  0
 12 14  1  0
 12 15  1  0
 17 18  1  0
 19 20  1  0
 21 22  1  0
 23 24  1  0
 25 26  1  0
M  CHG  1   8   1
M  END
>  <PDB_ID>  (63) 
pdb3dol

>  <RESIDUE_NAME>  (63) 
LYS   PHE

>  <FRAG_NAME>  (63) 
ETAM   MBZ

>  <FRAG_ATOM_NUM>  (63) 
fragi: 11  fragj: 15

>  <atom.prop.CHAIN_ID>  (63) 
A A A A A A A A A A A Z Z Z Z Z Z Z Z Z Z Z Z Z Z Z

>  <atom.prop.IS_HEAVY_ATOM>  (63) 
1 0 0 0 1 0 0 1 0 0 0 1 0 0 0 1 1 0 1 0 1 0 1 0 1 0

>  <DIFUSE_FUNC_ATOM>  (63) 
n/a

>  <FINAL_SINGLE_POINT_ENERGY>  (63) 
0

>  <NONCOV_INTER_ENERGY_QM>  (63) 
0

>  <FF_Energy>  (63) 
2.38

>  <QM_Energy>  (63) 
-10.87

>  <source>  (63) 
ETAM_MBZ

>  <Index>  (63) 
16266

$$$$
ETAM-pdb3e5r-C-LYS-253:MBZ-pdb3e5r-C-PHE-170
     RDKit          3D

 26 25  0  0  0  0  0  0  0  0999 V2000
   -5.4850    2.3570   -0.9221 C   0  0  0  0  0  0  0  0  0  0  0  0
   -6.4140    2.0566   -1.0904 H   0  0  0  0  0  0  0  0  0  0  0  0
   -5.0707    2.7127   -1.7487 H   0  0  0  0  0  0  0  0  0  0  0  0
   -5.5012    3.1450   -0.1692 H   0  0  0  0  0  0  0  0  0  0  0  0
   -4.6674    1.1664   -0.4394 C   0  0  0  0  0  0  0  0  0  0  0  0
   -3.7163    1.4644   -0.2936 H   0  0  0  0  0  0  0  0  0  0  0  0
   -5.0391    0.8542    0.4438 H   0  0  0  0  0  0  0  0  0  0  0  0
   -4.6791    0.0288   -1.4009 N   0  0  0  0  0  4  0  0  0  0  0  0
   -3.7604   -0.3590   -1.4659 H   0  0  0  0  0  0  0  0  0  0  0  0
   -5.3155   -0.6706   -1.0782 H   0  0  0  0  0  0  0  0  0  0  0  0
   -4.9694    0.3574   -2.2994 H   0  0  0  0  0  0  0  0  0  0  0  0
   -0.0038    2.9002   -0.0117 C   0  0  0  0  0  0  0  0  0  0  0  0
    0.9240    3.2090    0.1314 H   0  0  0  0  0  0  0  0  0  0  0  0
   -0.6040    3.2100    0.7094 H   0  0  0  0  0  0  0  0  0  0  0  0
   -0.3593    3.3255   -0.9503 H   0  0  0  0  0  0  0  0  0  0  0  0
   -0.0003    1.3994    0.0007 C   0  0  0  0  0  0  0  0  0  0  0  0
   -1.1949    0.6935   -0.0008 C   0  0  0  0  0  0  0  0  0  0  0  0
   -2.0627    1.1864   -0.0038 H   0  0  0  0  0  0  0  0  0  0  0  0
   -1.2029   -0.6932   -0.0000 C   0  0  0  0  0  0  0  0  0  0  0  0
   -2.0790   -1.1882    0.0016 H   0  0  0  0  0  0  0  0  0  0  0  0
   -0.0007   -1.3934    0.0007 C   0  0  0  0  0  0  0  0  0  0  0  0
   -0.0075   -2.3910    0.0018 H   0  0  0  0  0  0  0  0  0  0  0  0
    1.2029   -0.6988   -0.0000 C   0  0  0  0  0  0  0  0  0  0  0  0
    2.0823   -1.1960    0.0018 H   0  0  0  0  0  0  0  0  0  0  0  0
    1.1958    0.6926   -0.0007 C   0  0  0  0  0  0  0  0  0  0  0  0
    2.0638    1.1899   -0.0026 H   0  0  0  0  0  0  0  0  0  0  0  0
  1  5  1  0
  5  8  1  0
  1  2  1  0
  1  3  1  0
  1  4  1  0
  5  6  1  0
  5  7  1  0
  8  9  1  0
  8 10  1  0
  8 11  1  0
 12 16  1  0
 16 17  2  0
 17 19  1  0
 19 21  2  0
 21 23  1  0
 23 25  2  0
 25 16  1  0
 12 13  1  0
 12 14  1  0
 12 15  1  0
 17 18  1  0
 19 20  1  0
 21 22  1  0
 23 24  1  0
 25 26  1  0
M  CHG  1   8   1
M  END
>  <PDB_ID>  (64) 
pdb3e5r

>  <RESIDUE_NAME>  (64) 
LYS   PHE

>  <FRAG_NAME>  (64) 
ETAM   MBZ

>  <FRAG_ATOM_NUM>  (64) 
fragi: 11  fragj: 15

>  <atom.prop.CHAIN_ID>  (64) 
A A A A A A A A A A A Z Z Z Z Z Z Z Z Z Z Z Z Z Z Z

>  <atom.prop.IS_HEAVY_ATOM>  (64) 
1 0 0 0 1 0 0 1 0 0 0 1 0 0 0 1 1 0 1 0 1 0 1 0 1 0

>  <DIFUSE_FUNC_ATOM>  (64) 
n/a

>  <FINAL_SINGLE_POINT_ENERGY>  (64) 
0

>  <NONCOV_INTER_ENERGY_QM>  (64) 
0

>  <FF_Energy>  (64) 
7.82

>  <QM_Energy>  (64) 
-2.51

>  <source>  (64) 
ETAM_MBZ

>  <Index>  (64) 
16444

$$$$
ETAM-pdb4a0m-D-LYS-91:MBZ-pdb4a0m-D-PHE-3
     RDKit          3D

 26 25  0  0  0  0  0  0  0  0999 V2000
   -0.6295    0.0566    4.0253 C   0  0  0  0  0  0  0  0  0  0  0  0
   -1.3406   -0.0399    3.3321 H   0  0  0  0  0  0  0  0  0  0  0  0
   -1.0401    0.0572    4.9346 H   0  0  0  0  0  0  0  0  0  0  0  0
    0.0683   -0.7769    3.9445 H   0  0  0  0  0  0  0  0  0  0  0  0
    0.0754    1.3583    3.8141 C   0  0  0  0  0  0  0  0  0  0  0  0
   -0.2149    2.0146    4.5259 H   0  0  0  0  0  0  0  0  0  0  0  0
    1.0712    1.2190    3.9120 H   0  0  0  0  0  0  0  0  0  0  0  0
   -0.1986    1.9411    2.4839 N   0  0  0  0  0  4  0  0  0  0  0  0
    0.5343    1.6900    1.8488 H   0  0  0  0  0  0  0  0  0  0  0  0
   -1.0712    1.5932    2.1370 H   0  0  0  0  0  0  0  0  0  0  0  0
   -0.2454    2.9386    2.5566 H   0  0  0  0  0  0  0  0  0  0  0  0
   -0.0103    2.8730    0.0185 C   0  0  0  0  0  0  0  0  0  0  0  0
    0.8517    3.1789    0.4020 H   0  0  0  0  0  0  0  0  0  0  0  0
   -0.7712    3.1686    0.5819 H   0  0  0  0  0  0  0  0  0  0  0  0
   -0.1219    3.3315   -0.9641 H   0  0  0  0  0  0  0  0  0  0  0  0
   -0.0030    1.3805   -0.0035 C   0  0  0  0  0  0  0  0  0  0  0  0
   -1.1870    0.6732    0.0049 C   0  0  0  0  0  0  0  0  0  0  0  0
   -2.0580    1.1718    0.0139 H   0  0  0  0  0  0  0  0  0  0  0  0
   -1.1905   -0.6897   -0.0000 C   0  0  0  0  0  0  0  0  0  0  0  0
   -2.0637   -1.1963    0.0034 H   0  0  0  0  0  0  0  0  0  0  0  0
    0.0081   -1.3727   -0.0072 C   0  0  0  0  0  0  0  0  0  0  0  0
    0.0077   -2.3763   -0.0183 H   0  0  0  0  0  0  0  0  0  0  0  0
    1.1905   -0.6775    0.0000 C   0  0  0  0  0  0  0  0  0  0  0  0
    2.0794   -1.1797    0.0024 H   0  0  0  0  0  0  0  0  0  0  0  0
    1.1818    0.6863    0.0059 C   0  0  0  0  0  0  0  0  0  0  0  0
    2.0521    1.1934    0.0166 H   0  0  0  0  0  0  0  0  0  0  0  0
  1  5  1  0
  5  8  1  0
  1  2  1  0
  1  3  1  0
  1  4  1  0
  5  6  1  0
  5  7  1  0
  8  9  1  0
  8 10  1  0
  8 11  1  0
 12 16  1  0
 16 17  2  0
 17 19  1  0
 19 21  2  0
 21 23  1  0
 23 25  2  0
 25 16  1  0
 12 13  1  0
 12 14  1  0
 12 15  1  0
 17 18  1  0
 19 20  1  0
 21 22  1  0
 23 24  1  0
 25 26  1  0
M  CHG  1   8   1
M  END
>  <PDB_ID>  (65) 
pdb4a0m

>  <RESIDUE_NAME>  (65) 
LYS   PHE

>  <FRAG_NAME>  (65) 
ETAM   MBZ

>  <FRAG_ATOM_NUM>  (65) 
fragi: 11  fragj: 15

>  <atom.prop.CHAIN_ID>  (65) 
A A A A A A A A A A A Z Z Z Z Z Z Z Z Z Z Z Z Z Z Z

>  <atom.prop.IS_HEAVY_ATOM>  (65) 
1 0 0 0 1 0 0 1 0 0 0 1 0 0 0 1 1 0 1 0 1 0 1 0 1 0

>  <DIFUSE_FUNC_ATOM>  (65) 
n/a

>  <FINAL_SINGLE_POINT_ENERGY>  (65) 
0

>  <NONCOV_INTER_ENERGY_QM>  (65) 
0

>  <FF_Energy>  (65) 
17.48

>  <QM_Energy>  (65) 
-2.99

>  <source>  (65) 
ETAM_MBZ

>  <Index>  (65) 
16830

$$$$
ETAM-pdb4az9-A-LYS-23:MBZ-pdb4az9-A-PHE-34
     RDKit          3D

 26 25  0  0  0  0  0  0  0  0999 V2000
   -2.5512    1.7533    3.4722 C   0  0  0  0  0  0  0  0  0  0  0  0
   -2.4270    2.2695    4.3197 H   0  0  0  0  0  0  0  0  0  0  0  0
   -3.0374    0.9014    3.6700 H   0  0  0  0  0  0  0  0  0  0  0  0
   -3.1700    2.3492    2.8013 H   0  0  0  0  0  0  0  0  0  0  0  0
   -1.2076    1.4320    2.8869 C   0  0  0  0  0  0  0  0  0  0  0  0
   -1.3287    0.9150    2.0379 H   0  0  0  0  0  0  0  0  0  0  0  0
   -0.7181    2.2824    2.6883 H   0  0  0  0  0  0  0  0  0  0  0  0
   -0.4038    0.6213    3.8360 N   0  0  0  0  0  4  0  0  0  0  0  0
    0.2241    0.0346    3.3242 H   0  0  0  0  0  0  0  0  0  0  0  0
    0.1194    1.2296    4.4330 H   0  0  0  0  0  0  0  0  0  0  0  0
   -1.0132    0.0539    4.3896 H   0  0  0  0  0  0  0  0  0  0  0  0
    0.0178    2.9023   -0.0038 C   0  0  0  0  0  0  0  0  0  0  0  0
    0.8941    3.1994    0.3396 H   0  0  0  0  0  0  0  0  0  0  0  0
   -0.7223    3.2206    0.5670 H   0  0  0  0  0  0  0  0  0  0  0  0
   -0.1173    3.3211   -1.0010 H   0  0  0  0  0  0  0  0  0  0  0  0
    0.0004    1.3977    0.0170 C   0  0  0  0  0  0  0  0  0  0  0  0
   -1.1909    0.6985   -0.0113 C   0  0  0  0  0  0  0  0  0  0  0  0
   -2.0580    1.1889   -0.0414 H   0  0  0  0  0  0  0  0  0  0  0  0
   -1.1942   -0.6867    0.0000 C   0  0  0  0  0  0  0  0  0  0  0  0
   -2.0772   -1.1804    0.0244 H   0  0  0  0  0  0  0  0  0  0  0  0
   -0.0013   -1.3944   -0.0198 C   0  0  0  0  0  0  0  0  0  0  0  0
   -0.0152   -2.3913   -0.0485 H   0  0  0  0  0  0  0  0  0  0  0  0
    1.1942   -0.7061    0.0000 C   0  0  0  0  0  0  0  0  0  0  0  0
    2.0781   -1.1997    0.0059 H   0  0  0  0  0  0  0  0  0  0  0  0
    1.1918    0.6910    0.0142 C   0  0  0  0  0  0  0  0  0  0  0  0
    2.0628    1.1809    0.0213 H   0  0  0  0  0  0  0  0  0  0  0  0
  1  5  1  0
  5  8  1  0
  1  2  1  0
  1  3  1  0
  1  4  1  0
  5  6  1  0
  5  7  1  0
  8  9  1  0
  8 10  1  0
  8 11  1  0
 12 16  1  0
 16 17  2  0
 17 19  1  0
 19 21  2  0
 21 23  1  0
 23 25  2  0
 25 16  1  0
 12 13  1  0
 12 14  1  0
 12 15  1  0
 17 18  1  0
 19 20  1  0
 21 22  1  0
 23 24  1  0
 25 26  1  0
M  CHG  1   8   1
M  END
>  <PDB_ID>  (66) 
pdb4az9

>  <RESIDUE_NAME>  (66) 
LYS   PHE

>  <FRAG_NAME>  (66) 
ETAM   MBZ

>  <FRAG_ATOM_NUM>  (66) 
fragi: 11  fragj: 15

>  <atom.prop.CHAIN_ID>  (66) 
A A A A A A A A A A A Z Z Z Z Z Z Z Z Z Z Z Z Z Z Z

>  <atom.prop.IS_HEAVY_ATOM>  (66) 
1 0 0 0 1 0 0 1 0 0 0 1 0 0 0 1 1 0 1 0 1 0 1 0 1 0

>  <DIFUSE_FUNC_ATOM>  (66) 
n/a

>  <FINAL_SINGLE_POINT_ENERGY>  (66) 
0

>  <NONCOV_INTER_ENERGY_QM>  (66) 
0

>  <FF_Energy>  (66) 
10.15

>  <QM_Energy>  (66) 
-5.99

>  <source>  (66) 
ETAM_MBZ

>  <Index>  (66) 
17272

$$$$
ETAM-pdb4btj-B-LYS-95:MBZ-pdb4btj-B-PHE-69
     RDKit          3D

 26 25  0  0  0  0  0  0  0  0999 V2000
   -3.9014   -3.0243   -0.4200 C   0  0  0  0  0  0  0  0  0  0  0  0
   -3.5497   -3.6316   -1.1297 H   0  0  0  0  0  0  0  0  0  0  0  0
   -3.3015   -2.2313   -0.3269 H   0  0  0  0  0  0  0  0  0  0  0  0
   -4.8927   -2.6803   -0.7150 H   0  0  0  0  0  0  0  0  0  0  0  0
   -3.9269   -3.7722    0.8918 C   0  0  0  0  0  0  0  0  0  0  0  0
   -4.5593   -3.3104    1.5216 H   0  0  0  0  0  0  0  0  0  0  0  0
   -4.2603   -4.7070    0.7321 H   0  0  0  0  0  0  0  0  0  0  0  0
   -2.5807   -3.8393    1.5188 N   0  0  0  0  0  4  0  0  0  0  0  0
   -2.1474   -4.7092    1.2827 H   0  0  0  0  0  0  0  0  0  0  0  0
   -2.0189   -3.0838    1.1816 H   0  0  0  0  0  0  0  0  0  0  0  0
   -2.6724   -3.7707    2.5121 H   0  0  0  0  0  0  0  0  0  0  0  0
   -0.0004    2.9182    0.0053 C   0  0  0  0  0  0  0  0  0  0  0  0
    0.8844    3.2210    0.3245 H   0  0  0  0  0  0  0  0  0  0  0  0
   -0.7237    3.2198    0.6067 H   0  0  0  0  0  0  0  0  0  0  0  0
   -0.1728    3.3676   -0.9727 H   0  0  0  0  0  0  0  0  0  0  0  0
   -0.0006    1.4080   -0.0024 C   0  0  0  0  0  0  0  0  0  0  0  0
   -1.1949    0.6959    0.0065 C   0  0  0  0  0  0  0  0  0  0  0  0
   -2.0638    1.1790    0.0161 H   0  0  0  0  0  0  0  0  0  0  0  0
   -1.1944   -0.7027    0.0000 C   0  0  0  0  0  0  0  0  0  0  0  0
   -2.0746   -1.1922    0.0004 H   0  0  0  0  0  0  0  0  0  0  0  0
    0.0009   -1.3934   -0.0049 C   0  0  0  0  0  0  0  0  0  0  0  0
   -0.0039   -2.3956   -0.0128 H   0  0  0  0  0  0  0  0  0  0  0  0
    1.1944   -0.7036   -0.0000 C   0  0  0  0  0  0  0  0  0  0  0  0
    2.0797   -1.1966    0.0041 H   0  0  0  0  0  0  0  0  0  0  0  0
    1.1946    0.6959    0.0008 C   0  0  0  0  0  0  0  0  0  0  0  0
    2.0647    1.1853    0.0023 H   0  0  0  0  0  0  0  0  0  0  0  0
  1  5  1  0
  5  8  1  0
  1  2  1  0
  1  3  1  0
  1  4  1  0
  5  6  1  0
  5  7  1  0
  8  9  1  0
  8 10  1  0
  8 11  1  0
 12 16  1  0
 16 17  2  0
 17 19  1  0
 19 21  2  0
 21 23  1  0
 23 25  2  0
 25 16  1  0
 12 13  1  0
 12 14  1  0
 12 15  1  0
 17 18  1  0
 19 20  1  0
 21 22  1  0
 23 24  1  0
 25 26  1  0
M  CHG  1   8   1
M  END
>  <PDB_ID>  (67) 
pdb4btj

>  <RESIDUE_NAME>  (67) 
LYS   PHE

>  <FRAG_NAME>  (67) 
ETAM   MBZ

>  <FRAG_ATOM_NUM>  (67) 
fragi: 11  fragj: 15

>  <atom.prop.CHAIN_ID>  (67) 
A A A A A A A A A A A Z Z Z Z Z Z Z Z Z Z Z Z Z Z Z

>  <atom.prop.IS_HEAVY_ATOM>  (67) 
1 0 0 0 1 0 0 1 0 0 0 1 0 0 0 1 1 0 1 0 1 0 1 0 1 0

>  <DIFUSE_FUNC_ATOM>  (67) 
n/a

>  <FINAL_SINGLE_POINT_ENERGY>  (67) 
0

>  <NONCOV_INTER_ENERGY_QM>  (67) 
0

>  <FF_Energy>  (67) 
10.62

>  <QM_Energy>  (67) 
-2.57

>  <source>  (67) 
ETAM_MBZ

>  <Index>  (67) 
17716

$$$$
ETAM-pdb3g8z-A-LYS-56:MBZ-pdb3g8z-A-PHE-40
     RDKit          3D

 26 25  0  0  0  0  0  0  0  0999 V2000
   -3.3870   -3.2870   -0.5042 C   0  0  0  0  0  0  0  0  0  0  0  0
   -4.3645   -3.4501   -0.3799 H   0  0  0  0  0  0  0  0  0  0  0  0
   -3.1919   -2.3128   -0.4055 H   0  0  0  0  0  0  0  0  0  0  0  0
   -2.8469   -3.8274    0.2734 H   0  0  0  0  0  0  0  0  0  0  0  0
   -2.9893   -3.7269   -1.8949 C   0  0  0  0  0  0  0  0  0  0  0  0
   -2.0118   -3.5652   -2.0227 H   0  0  0  0  0  0  0  0  0  0  0  0
   -3.1836   -4.7026   -1.9982 H   0  0  0  0  0  0  0  0  0  0  0  0
   -3.7491   -2.9665   -2.9168 N   0  0  0  0  0  4  0  0  0  0  0  0
   -4.7224   -3.1810   -2.8370 H   0  0  0  0  0  0  0  0  0  0  0  0
   -3.6119   -1.9859   -2.7733 H   0  0  0  0  0  0  0  0  0  0  0  0
   -3.4254   -3.2172   -3.8290 H   0  0  0  0  0  0  0  0  0  0  0  0
   -0.0234    2.8899    0.0034 C   0  0  0  0  0  0  0  0  0  0  0  0
    0.9075    3.2093    0.0588 H   0  0  0  0  0  0  0  0  0  0  0  0
   -0.5641    3.2004    0.7673 H   0  0  0  0  0  0  0  0  0  0  0  0
   -0.4625    3.3068   -0.9030 H   0  0  0  0  0  0  0  0  0  0  0  0
   -0.0072    1.3895    0.0168 C   0  0  0  0  0  0  0  0  0  0  0  0
   -1.1899    0.6838   -0.0102 C   0  0  0  0  0  0  0  0  0  0  0  0
   -2.0623    1.1762   -0.0391 H   0  0  0  0  0  0  0  0  0  0  0  0
   -1.1953   -0.6921    0.0000 C   0  0  0  0  0  0  0  0  0  0  0  0
   -2.0726   -1.1904    0.0119 H   0  0  0  0  0  0  0  0  0  0  0  0
   -0.0001   -1.3793   -0.0043 C   0  0  0  0  0  0  0  0  0  0  0  0
   -0.0016   -2.3825   -0.0108 H   0  0  0  0  0  0  0  0  0  0  0  0
    1.1953   -0.6876    0.0000 C   0  0  0  0  0  0  0  0  0  0  0  0
    2.0775   -1.1947    0.0066 H   0  0  0  0  0  0  0  0  0  0  0  0
    1.1972    0.6856   -0.0022 C   0  0  0  0  0  0  0  0  0  0  0  0
    2.0581    1.1908   -0.0185 H   0  0  0  0  0  0  0  0  0  0  0  0
  1  5  1  0
  5  8  1  0
  1  2  1  0
  1  3  1  0
  1  4  1  0
  5  6  1  0
  5  7  1  0
  8  9  1  0
  8 10  1  0
  8 11  1  0
 12 16  1  0
 16 17  2  0
 17 19  1  0
 19 21  2  0
 21 23  1  0
 23 25  2  0
 25 16  1  0
 12 13  1  0
 12 14  1  0
 12 15  1  0
 17 18  1  0
 19 20  1  0
 21 22  1  0
 23 24  1  0
 25 26  1  0
M  CHG  1   8   1
M  END
>  <PDB_ID>  (68) 
pdb3g8z

>  <RESIDUE_NAME>  (68) 
LYS   PHE

>  <FRAG_NAME>  (68) 
ETAM   MBZ

>  <FRAG_ATOM_NUM>  (68) 
fragi: 11  fragj: 15

>  <atom.prop.CHAIN_ID>  (68) 
A A A A A A A A A A A Z Z Z Z Z Z Z Z Z Z Z Z Z Z Z

>  <atom.prop.IS_HEAVY_ATOM>  (68) 
1 0 0 0 1 0 0 1 0 0 0 1 0 0 0 1 1 0 1 0 1 0 1 0 1 0

>  <DIFUSE_FUNC_ATOM>  (68) 
n/a

>  <FINAL_SINGLE_POINT_ENERGY>  (68) 
0

>  <NONCOV_INTER_ENERGY_QM>  (68) 
0

>  <FF_Energy>  (68) 
10.4

>  <QM_Energy>  (68) 
-0.84

>  <source>  (68) 
ETAM_MBZ

>  <Index>  (68) 
17954

$$$$
ETAM-pdb4dix-B-LYS-408:MBZ-pdb4dix-B-PHE-475
     RDKit          3D

 26 25  0  0  0  0  0  0  0  0999 V2000
   -2.9469   -0.7611    3.1901 C   0  0  0  0  0  0  0  0  0  0  0  0
   -3.6399   -0.6516    3.9001 H   0  0  0  0  0  0  0  0  0  0  0  0
   -2.8542    0.0898    2.6758 H   0  0  0  0  0  0  0  0  0  0  0  0
   -1.9927   -0.9936    3.6629 H   0  0  0  0  0  0  0  0  0  0  0  0
   -3.4087   -1.8553    2.2303 C   0  0  0  0  0  0  0  0  0  0  0  0
   -4.4004   -1.7474    2.0704 H   0  0  0  0  0  0  0  0  0  0  0  0
   -2.9381   -1.7289    1.3453 H   0  0  0  0  0  0  0  0  0  0  0  0
   -3.1450   -3.2380    2.7260 N   0  0  0  0  0  4  0  0  0  0  0  0
   -2.9169   -3.8276    1.9527 H   0  0  0  0  0  0  0  0  0  0  0  0
   -2.3812   -3.2176    3.3698 H   0  0  0  0  0  0  0  0  0  0  0  0
   -3.9613   -3.5852    3.1838 H   0  0  0  0  0  0  0  0  0  0  0  0
    0.0299    2.9063    0.0280 C   0  0  0  0  0  0  0  0  0  0  0  0
    0.8348    3.2106   -0.4628 H   0  0  0  0  0  0  0  0  0  0  0  0
    0.0629    3.1927    0.9759 H   0  0  0  0  0  0  0  0  0  0  0  0
   -0.8358    3.3838   -0.4311 H   0  0  0  0  0  0  0  0  0  0  0  0
    0.0024    1.4042   -0.0047 C   0  0  0  0  0  0  0  0  0  0  0  0
   -1.1982    0.6906    0.0091 C   0  0  0  0  0  0  0  0  0  0  0  0
   -2.0626    1.1802    0.0240 H   0  0  0  0  0  0  0  0  0  0  0  0
   -1.1973   -0.6987   -0.0000 C   0  0  0  0  0  0  0  0  0  0  0  0
   -2.0765   -1.1940   -0.0031 H   0  0  0  0  0  0  0  0  0  0  0  0
   -0.0002   -1.3922   -0.0026 C   0  0  0  0  0  0  0  0  0  0  0  0
   -0.0021   -2.3919   -0.0061 H   0  0  0  0  0  0  0  0  0  0  0  0
    1.1973   -0.6957   -0.0000 C   0  0  0  0  0  0  0  0  0  0  0  0
    2.0805   -1.1955    0.0045 H   0  0  0  0  0  0  0  0  0  0  0  0
    1.1960    0.6917   -0.0019 C   0  0  0  0  0  0  0  0  0  0  0  0
    2.0656    1.1872   -0.0026 H   0  0  0  0  0  0  0  0  0  0  0  0
  1  5  1  0
  5  8  1  0
  1  2  1  0
  1  3  1  0
  1  4  1  0
  5  6  1  0
  5  7  1  0
  8  9  1  0
  8 10  1  0
  8 11  1  0
 12 16  1  0
 16 17  2  0
 17 19  1  0
 19 21  2  0
 21 23  1  0
 23 25  2  0
 25 16  1  0
 12 13  1  0
 12 14  1  0
 12 15  1  0
 17 18  1  0
 19 20  1  0
 21 22  1  0
 23 24  1  0
 25 26  1  0
M  CHG  1   8   1
M  END
>  <PDB_ID>  (69) 
pdb4dix

>  <RESIDUE_NAME>  (69) 
LYS   PHE

>  <FRAG_NAME>  (69) 
ETAM   MBZ

>  <FRAG_ATOM_NUM>  (69) 
fragi: 11  fragj: 15

>  <atom.prop.CHAIN_ID>  (69) 
A A A A A A A A A A A Z Z Z Z Z Z Z Z Z Z Z Z Z Z Z

>  <atom.prop.IS_HEAVY_ATOM>  (69) 
1 0 0 0 1 0 0 1 0 0 0 1 0 0 0 1 1 0 1 0 1 0 1 0 1 0

>  <DIFUSE_FUNC_ATOM>  (69) 
n/a

>  <FINAL_SINGLE_POINT_ENERGY>  (69) 
0

>  <NONCOV_INTER_ENERGY_QM>  (69) 
0

>  <FF_Energy>  (69) 
8.63

>  <QM_Energy>  (69) 
-2.42

>  <source>  (69) 
ETAM_MBZ

>  <Index>  (69) 
18570

$$$$
ETAM-pdb3gzm-A-LYS-11:MBZ-pdb3gzm-A-PHE-7
     RDKit          3D

 26 25  0  0  0  0  0  0  0  0999 V2000
   -0.1608   -2.0544   -2.9906 C   0  0  0  0  0  0  0  0  0  0  0  0
   -0.0323   -2.9765   -3.3397 H   0  0  0  0  0  0  0  0  0  0  0  0
   -0.1581   -2.0554   -1.9970 H   0  0  0  0  0  0  0  0  0  0  0  0
    0.6723   -1.4409   -3.3338 H   0  0  0  0  0  0  0  0  0  0  0  0
   -1.5065   -1.5250   -3.4795 C   0  0  0  0  0  0  0  0  0  0  0  0
   -1.4695   -0.5232   -3.5204 H   0  0  0  0  0  0  0  0  0  0  0  0
   -1.6835   -1.8801   -4.4017 H   0  0  0  0  0  0  0  0  0  0  0  0
   -2.6501   -1.9288   -2.5788 N   0  0  0  0  0  4  0  0  0  0  0  0
   -2.5152   -1.5124   -1.6842 H   0  0  0  0  0  0  0  0  0  0  0  0
   -3.5031   -1.6094   -2.9817 H   0  0  0  0  0  0  0  0  0  0  0  0
   -2.6589   -2.9212   -2.4975 H   0  0  0  0  0  0  0  0  0  0  0  0
    0.0294    2.9082   -0.0086 C   0  0  0  0  0  0  0  0  0  0  0  0
    0.3747    3.2238    0.8541 H   0  0  0  0  0  0  0  0  0  0  0  0
   -0.8779    3.2324   -0.1938 H   0  0  0  0  0  0  0  0  0  0  0  0
    0.6855    3.2903   -0.7907 H   0  0  0  0  0  0  0  0  0  0  0  0
   -0.0036    1.4056    0.0195 C   0  0  0  0  0  0  0  0  0  0  0  0
   -1.2082    0.7126    0.0066 C   0  0  0  0  0  0  0  0  0  0  0  0
   -2.0692    1.1987    0.0002 H   0  0  0  0  0  0  0  0  0  0  0  0
   -1.2146   -0.6935    0.0000 C   0  0  0  0  0  0  0  0  0  0  0  0
   -2.0755   -1.1922    0.0012 H   0  0  0  0  0  0  0  0  0  0  0  0
    0.0222   -1.4019   -0.0069 C   0  0  0  0  0  0  0  0  0  0  0  0
    0.0011   -2.3973   -0.0172 H   0  0  0  0  0  0  0  0  0  0  0  0
    1.2146   -0.7078   -0.0000 C   0  0  0  0  0  0  0  0  0  0  0  0
    2.0986   -1.1916    0.0205 H   0  0  0  0  0  0  0  0  0  0  0  0
    1.1896    0.6851   -0.0192 C   0  0  0  0  0  0  0  0  0  0  0  0
    2.0624    1.1883   -0.0632 H   0  0  0  0  0  0  0  0  0  0  0  0
  1  5  1  0
  5  8  1  0
  1  2  1  0
  1  3  1  0
  1  4  1  0
  5  6  1  0
  5  7  1  0
  8  9  1  0
  8 10  1  0
  8 11  1  0
 12 16  1  0
 16 17  2  0
 17 19  1  0
 19 21  2  0
 21 23  1  0
 23 25  2  0
 25 16  1  0
 12 13  1  0
 12 14  1  0
 12 15  1  0
 17 18  1  0
 19 20  1  0
 21 22  1  0
 23 24  1  0
 25 26  1  0
M  CHG  1   8   1
M  END
>  <PDB_ID>  (70) 
pdb3gzm

>  <RESIDUE_NAME>  (70) 
LYS   PHE

>  <FRAG_NAME>  (70) 
ETAM   MBZ

>  <FRAG_ATOM_NUM>  (70) 
fragi: 11  fragj: 15

>  <atom.prop.CHAIN_ID>  (70) 
A A A A A A A A A A A Z Z Z Z Z Z Z Z Z Z Z Z Z Z Z

>  <atom.prop.IS_HEAVY_ATOM>  (70) 
1 0 0 0 1 0 0 1 0 0 0 1 0 0 0 1 1 0 1 0 1 0 1 0 1 0

>  <DIFUSE_FUNC_ATOM>  (70) 
n/a

>  <FINAL_SINGLE_POINT_ENERGY>  (70) 
0

>  <NONCOV_INTER_ENERGY_QM>  (70) 
0

>  <FF_Energy>  (70) 
9.11

>  <QM_Energy>  (70) 
-5.03

>  <source>  (70) 
ETAM_MBZ

>  <Index>  (70) 
18655

$$$$
ETAM-pdb3h43-L-LYS-75:MBZ-pdb3h43-I-PHE-123
     RDKit          3D

 26 25  0  0  0  0  0  0  0  0999 V2000
    4.3501    1.9590    0.2599 C   0  0  0  0  0  0  0  0  0  0  0  0
    5.2696    2.3212    0.3913 H   0  0  0  0  0  0  0  0  0  0  0  0
    3.7626    2.6580   -0.1403 H   0  0  0  0  0  0  0  0  0  0  0  0
    4.3990    1.1064   -0.4174 H   0  0  0  0  0  0  0  0  0  0  0  0
    3.7857    1.5693    1.6122 C   0  0  0  0  0  0  0  0  0  0  0  0
    2.8498    1.2402    1.4934 H   0  0  0  0  0  0  0  0  0  0  0  0
    4.3488    0.8423    2.0046 H   0  0  0  0  0  0  0  0  0  0  0  0
    3.7803    2.7362    2.5374 N   0  0  0  0  0  4  0  0  0  0  0  0
    4.5660    2.6746    3.1527 H   0  0  0  0  0  0  0  0  0  0  0  0
    3.8365    3.5804    2.0057 H   0  0  0  0  0  0  0  0  0  0  0  0
    2.9345    2.7315    3.0710 H   0  0  0  0  0  0  0  0  0  0  0  0
    0.0221    2.9077    0.0768 C   0  0  0  0  0  0  0  0  0  0  0  0
   -0.8943    3.2331   -0.0803 H   0  0  0  0  0  0  0  0  0  0  0  0
    0.6535    3.2379   -0.6038 H   0  0  0  0  0  0  0  0  0  0  0  0
    0.3498    3.2787    1.0479 H   0  0  0  0  0  0  0  0  0  0  0  0
    0.0007    1.4048    0.0011 C   0  0  0  0  0  0  0  0  0  0  0  0
   -1.1984    0.7046   -0.0007 C   0  0  0  0  0  0  0  0  0  0  0  0
   -2.0624    1.1906   -0.0043 H   0  0  0  0  0  0  0  0  0  0  0  0
   -1.2003   -0.6941   -0.0000 C   0  0  0  0  0  0  0  0  0  0  0  0
   -2.0782   -1.1851    0.0005 H   0  0  0  0  0  0  0  0  0  0  0  0
    0.0021   -1.3947    0.0018 C   0  0  0  0  0  0  0  0  0  0  0  0
   -0.0093   -2.3944    0.0039 H   0  0  0  0  0  0  0  0  0  0  0  0
    1.2003   -0.7050    0.0000 C   0  0  0  0  0  0  0  0  0  0  0  0
    2.0815   -1.2025    0.0017 H   0  0  0  0  0  0  0  0  0  0  0  0
    1.1956    0.6845   -0.0022 C   0  0  0  0  0  0  0  0  0  0  0  0
    2.0666    1.1814   -0.0073 H   0  0  0  0  0  0  0  0  0  0  0  0
  1  5  1  0
  5  8  1  0
  1  2  1  0
  1  3  1  0
  1  4  1  0
  5  6  1  0
  5  7  1  0
  8  9  1  0
  8 10  1  0
  8 11  1  0
 12 16  1  0
 16 17  2  0
 17 19  1  0
 19 21  2  0
 21 23  1  0
 23 25  2  0
 25 16  1  0
 12 13  1  0
 12 14  1  0
 12 15  1  0
 17 18  1  0
 19 20  1  0
 21 22  1  0
 23 24  1  0
 25 26  1  0
M  CHG  1   8   1
M  END
>  <PDB_ID>  (71) 
pdb3h43

>  <RESIDUE_NAME>  (71) 
LYS   PHE

>  <FRAG_NAME>  (71) 
ETAM   MBZ

>  <FRAG_ATOM_NUM>  (71) 
fragi: 11  fragj: 15

>  <atom.prop.CHAIN_ID>  (71) 
A A A A A A A A A A A Z Z Z Z Z Z Z Z Z Z Z Z Z Z Z

>  <atom.prop.IS_HEAVY_ATOM>  (71) 
1 0 0 0 1 0 0 1 0 0 0 1 0 0 0 1 1 0 1 0 1 0 1 0 1 0

>  <DIFUSE_FUNC_ATOM>  (71) 
n/a

>  <FINAL_SINGLE_POINT_ENERGY>  (71) 
0

>  <NONCOV_INTER_ENERGY_QM>  (71) 
0

>  <FF_Energy>  (71) 
13.88

>  <QM_Energy>  (71) 
-0.28

>  <source>  (71) 
ETAM_MBZ

>  <Index>  (71) 
18766

$$$$
ETAM-pdb3hei-M-LYS-172:MBZ-pdb3hei-M-PHE-68
     RDKit          3D

 26 25  0  0  0  0  0  0  0  0999 V2000
   -1.3379   -1.4922   -2.9820 C   0  0  0  0  0  0  0  0  0  0  0  0
   -1.2768   -1.0273   -2.0813 H   0  0  0  0  0  0  0  0  0  0  0  0
   -1.6866   -2.4305   -2.8105 H   0  0  0  0  0  0  0  0  0  0  0  0
   -2.0413   -0.9550   -3.6182 H   0  0  0  0  0  0  0  0  0  0  0  0
    0.0827   -1.6232   -3.5292 C   0  0  0  0  0  0  0  0  0  0  0  0
    0.5568   -2.3417   -2.9713 H   0  0  0  0  0  0  0  0  0  0  0  0
    0.0087   -2.0167   -4.4743 H   0  0  0  0  0  0  0  0  0  0  0  0
    0.8391   -0.4232   -3.5462 N   0  0  0  0  0  4  0  0  0  0  0  0
    0.2674    0.3665   -3.8180 H   0  0  0  0  0  0  0  0  0  0  0  0
    1.2267   -0.2214   -2.6334 H   0  0  0  0  0  0  0  0  0  0  0  0
    1.6093   -0.4846   -4.2002 H   0  0  0  0  0  0  0  0  0  0  0  0
   -0.0326    2.9180    0.0452 C   0  0  0  0  0  0  0  0  0  0  0  0
   -0.7472    3.2423   -0.5387 H   0  0  0  0  0  0  0  0  0  0  0  0
    0.8528    3.2474   -0.2120 H   0  0  0  0  0  0  0  0  0  0  0  0
   -0.2386    3.2908    1.0485 H   0  0  0  0  0  0  0  0  0  0  0  0
   -0.0163    1.4070   -0.0135 C   0  0  0  0  0  0  0  0  0  0  0  0
   -1.2010    0.7018   -0.0019 C   0  0  0  0  0  0  0  0  0  0  0  0
   -2.0750    1.1723    0.0036 H   0  0  0  0  0  0  0  0  0  0  0  0
   -1.1995   -0.7143    0.0000 C   0  0  0  0  0  0  0  0  0  0  0  0
   -2.0585   -1.2098    0.0082 H   0  0  0  0  0  0  0  0  0  0  0  0
    0.0339   -1.3945   -0.0082 C   0  0  0  0  0  0  0  0  0  0  0  0
    0.0223   -2.3986   -0.0206 H   0  0  0  0  0  0  0  0  0  0  0  0
    1.1995   -0.6998   -0.0000 C   0  0  0  0  0  0  0  0  0  0  0  0
    2.0996   -1.1745   -0.0096 H   0  0  0  0  0  0  0  0  0  0  0  0
    1.1833    0.6998    0.0236 C   0  0  0  0  0  0  0  0  0  0  0  0
    2.0497    1.1981    0.0669 H   0  0  0  0  0  0  0  0  0  0  0  0
  1  5  1  0
  5  8  1  0
  1  2  1  0
  1  3  1  0
  1  4  1  0
  5  6  1  0
  5  7  1  0
  8  9  1  0
  8 10  1  0
  8 11  1  0
 12 16  1  0
 16 17  2  0
 17 19  1  0
 19 21  2  0
 21 23  1  0
 23 25  2  0
 25 16  1  0
 12 13  1  0
 12 14  1  0
 12 15  1  0
 17 18  1  0
 19 20  1  0
 21 22  1  0
 23 24  1  0
 25 26  1  0
M  CHG  1   8   1
M  END
>  <PDB_ID>  (72) 
pdb3hei

>  <RESIDUE_NAME>  (72) 
LYS   PHE

>  <FRAG_NAME>  (72) 
ETAM   MBZ

>  <FRAG_ATOM_NUM>  (72) 
fragi: 11  fragj: 15

>  <atom.prop.CHAIN_ID>  (72) 
A A A A A A A A A A A Z Z Z Z Z Z Z Z Z Z Z Z Z Z Z

>  <atom.prop.IS_HEAVY_ATOM>  (72) 
1 0 0 0 1 0 0 1 0 0 0 1 0 0 0 1 1 0 1 0 1 0 1 0 1 0

>  <DIFUSE_FUNC_ATOM>  (72) 
n/a

>  <FINAL_SINGLE_POINT_ENERGY>  (72) 
0

>  <NONCOV_INTER_ENERGY_QM>  (72) 
0

>  <FF_Energy>  (72) 
3.54

>  <QM_Energy>  (72) 
-10.39

>  <source>  (72) 
ETAM_MBZ

>  <Index>  (72) 
18983

$$$$
ETAM-pdb3hqc-A-LYS-1402:MBZ-pdb3hqc-A-PHE-1399
     RDKit          3D

 26 25  0  0  0  0  0  0  0  0999 V2000
   -4.4782    2.4417   -0.7019 C   0  0  0  0  0  0  0  0  0  0  0  0
   -3.8864    2.4127    0.1061 H   0  0  0  0  0  0  0  0  0  0  0  0
   -5.3934    2.1216   -0.4516 H   0  0  0  0  0  0  0  0  0  0  0  0
   -4.5496    3.4734   -1.0465 H   0  0  0  0  0  0  0  0  0  0  0  0
   -3.9104    1.5141   -1.7506 C   0  0  0  0  0  0  0  0  0  0  0  0
   -4.4994    1.5333   -2.5594 H   0  0  0  0  0  0  0  0  0  0  0  0
   -2.9924    1.8244   -2.0017 H   0  0  0  0  0  0  0  0  0  0  0  0
   -3.8318    0.1243   -1.2369 N   0  0  0  0  0  4  0  0  0  0  0  0
   -3.6389    0.1413   -0.2559 H   0  0  0  0  0  0  0  0  0  0  0  0
   -4.7032   -0.3403   -1.3972 H   0  0  0  0  0  0  0  0  0  0  0  0
   -3.1006   -0.3666   -1.7118 H   0  0  0  0  0  0  0  0  0  0  0  0
    0.0308    2.8796    0.0477 C   0  0  0  0  0  0  0  0  0  0  0  0
    0.9104    3.1820   -0.3050 H   0  0  0  0  0  0  0  0  0  0  0  0
   -0.0767    3.1653    0.9957 H   0  0  0  0  0  0  0  0  0  0  0  0
   -0.7495    3.3659   -0.5377 H   0  0  0  0  0  0  0  0  0  0  0  0
    0.0005    1.3963    0.0048 C   0  0  0  0  0  0  0  0  0  0  0  0
   -1.1922    0.7005   -0.0078 C   0  0  0  0  0  0  0  0  0  0  0  0
   -2.0591    1.1819   -0.0240 H   0  0  0  0  0  0  0  0  0  0  0  0
   -1.1903   -0.6985    0.0000 C   0  0  0  0  0  0  0  0  0  0  0  0
   -2.0701   -1.1872    0.0194 H   0  0  0  0  0  0  0  0  0  0  0  0
    0.0018   -1.3798   -0.0171 C   0  0  0  0  0  0  0  0  0  0  0  0
   -0.0060   -2.3898   -0.0434 H   0  0  0  0  0  0  0  0  0  0  0  0
    1.1903   -0.7042   -0.0000 C   0  0  0  0  0  0  0  0  0  0  0  0
    2.0751   -1.1992   -0.0006 H   0  0  0  0  0  0  0  0  0  0  0  0
    1.1900    0.6857    0.0201 C   0  0  0  0  0  0  0  0  0  0  0  0
    2.0612    1.1779    0.0455 H   0  0  0  0  0  0  0  0  0  0  0  0
  1  5  1  0
  5  8  1  0
  1  2  1  0
  1  3  1  0
  1  4  1  0
  5  6  1  0
  5  7  1  0
  8  9  1  0
  8 10  1  0
  8 11  1  0
 12 16  1  0
 16 17  2  0
 17 19  1  0
 19 21  2  0
 21 23  1  0
 23 25  2  0
 25 16  1  0
 12 13  1  0
 12 14  1  0
 12 15  1  0
 17 18  1  0
 19 20  1  0
 21 22  1  0
 23 24  1  0
 25 26  1  0
M  CHG  1   8   1
M  END
>  <PDB_ID>  (73) 
pdb3hqc

>  <RESIDUE_NAME>  (73) 
LYS   PHE

>  <FRAG_NAME>  (73) 
ETAM   MBZ

>  <FRAG_ATOM_NUM>  (73) 
fragi: 11  fragj: 15

>  <atom.prop.CHAIN_ID>  (73) 
A A A A A A A A A A A Z Z Z Z Z Z Z Z Z Z Z Z Z Z Z

>  <atom.prop.IS_HEAVY_ATOM>  (73) 
1 0 0 0 1 0 0 1 0 0 0 1 0 0 0 1 1 0 1 0 1 0 1 0 1 0

>  <DIFUSE_FUNC_ATOM>  (73) 
n/a

>  <FINAL_SINGLE_POINT_ENERGY>  (73) 
0

>  <NONCOV_INTER_ENERGY_QM>  (73) 
0

>  <FF_Energy>  (73) 
5.87

>  <QM_Energy>  (73) 
-4.82

>  <source>  (73) 
ETAM_MBZ

>  <Index>  (73) 
19267

$$$$
ETAM-pdb3i4k-E-LYS-171:MBZ-pdb3i4k-E-PHE-26
     RDKit          3D

 26 25  0  0  0  0  0  0  0  0999 V2000
   -3.5985    0.1420   -2.6351 C   0  0  0  0  0  0  0  0  0  0  0  0
   -3.0233   -0.0457   -3.4284 H   0  0  0  0  0  0  0  0  0  0  0  0
   -3.1557    0.8142   -2.0458 H   0  0  0  0  0  0  0  0  0  0  0  0
   -4.5505    0.5467   -2.9787 H   0  0  0  0  0  0  0  0  0  0  0  0
   -3.7484   -1.1732   -1.8314 C   0  0  0  0  0  0  0  0  0  0  0  0
   -2.8512   -1.3733   -1.3886 H   0  0  0  0  0  0  0  0  0  0  0  0
   -4.4101   -1.0035   -1.0737 H   0  0  0  0  0  0  0  0  0  0  0  0
   -4.1901   -2.3794   -2.5998 N   0  0  0  0  0  4  0  0  0  0  0  0
   -5.1821   -2.3541   -2.7077 H   0  0  0  0  0  0  0  0  0  0  0  0
   -3.7531   -2.3742   -3.4976 H   0  0  0  0  0  0  0  0  0  0  0  0
   -3.9246   -3.2018   -2.0995 H   0  0  0  0  0  0  0  0  0  0  0  0
    0.0044    2.9164    0.0149 C   0  0  0  0  0  0  0  0  0  0  0  0
    0.9206    3.2162    0.2368 H   0  0  0  0  0  0  0  0  0  0  0  0
   -0.6461    3.2156    0.6978 H   0  0  0  0  0  0  0  0  0  0  0  0
   -0.2753    3.3707   -0.9356 H   0  0  0  0  0  0  0  0  0  0  0  0
    0.0007    1.4096    0.0000 C   0  0  0  0  0  0  0  0  0  0  0  0
   -1.1991    0.6994   -0.0017 C   0  0  0  0  0  0  0  0  0  0  0  0
   -2.0650    1.1845   -0.0054 H   0  0  0  0  0  0  0  0  0  0  0  0
   -1.2045   -0.7048    0.0000 C   0  0  0  0  0  0  0  0  0  0  0  0
   -2.0808   -1.1927    0.0023 H   0  0  0  0  0  0  0  0  0  0  0  0
   -0.0003   -1.4042    0.0007 C   0  0  0  0  0  0  0  0  0  0  0  0
   -0.0017   -2.3988    0.0011 H   0  0  0  0  0  0  0  0  0  0  0  0
    1.2045   -0.7001    0.0000 C   0  0  0  0  0  0  0  0  0  0  0  0
    2.0855   -1.1940   -0.0001 H   0  0  0  0  0  0  0  0  0  0  0  0
    1.1986    0.6999    0.0010 C   0  0  0  0  0  0  0  0  0  0  0  0
    2.0669    1.1935    0.0019 H   0  0  0  0  0  0  0  0  0  0  0  0
  1  5  1  0
  5  8  1  0
  1  2  1  0
  1  3  1  0
  1  4  1  0
  5  6  1  0
  5  7  1  0
  8  9  1  0
  8 10  1  0
  8 11  1  0
 12 16  1  0
 16 17  2  0
 17 19  1  0
 19 21  2  0
 21 23  1  0
 23 25  2  0
 25 16  1  0
 12 13  1  0
 12 14  1  0
 12 15  1  0
 17 18  1  0
 19 20  1  0
 21 22  1  0
 23 24  1  0
 25 26  1  0
M  CHG  1   8   1
M  END
>  <PDB_ID>  (74) 
pdb3i4k

>  <RESIDUE_NAME>  (74) 
LYS   PHE

>  <FRAG_NAME>  (74) 
ETAM   MBZ

>  <FRAG_ATOM_NUM>  (74) 
fragi: 11  fragj: 15

>  <atom.prop.CHAIN_ID>  (74) 
A A A A A A A A A A A Z Z Z Z Z Z Z Z Z Z Z Z Z Z Z

>  <atom.prop.IS_HEAVY_ATOM>  (74) 
1 0 0 0 1 0 0 1 0 0 0 1 0 0 0 1 1 0 1 0 1 0 1 0 1 0

>  <DIFUSE_FUNC_ATOM>  (74) 
n/a

>  <FINAL_SINGLE_POINT_ENERGY>  (74) 
0

>  <NONCOV_INTER_ENERGY_QM>  (74) 
0

>  <FF_Energy>  (74) 
20.57

>  <QM_Energy>  (74) 
-0.01

>  <source>  (74) 
ETAM_MBZ

>  <Index>  (74) 
19603

$$$$
ETAM-pdb3i4k-G-LYS-171:MBZ-pdb3i4k-G-PHE-26
     RDKit          3D

 26 25  0  0  0  0  0  0  0  0999 V2000
   -3.7515    0.0646   -2.7571 C   0  0  0  0  0  0  0  0  0  0  0  0
   -3.1482   -0.1241   -3.5272 H   0  0  0  0  0  0  0  0  0  0  0  0
   -3.3653    0.7863   -2.1889 H   0  0  0  0  0  0  0  0  0  0  0  0
   -4.7166    0.3963   -3.1403 H   0  0  0  0  0  0  0  0  0  0  0  0
   -3.8664   -1.2061   -1.9117 C   0  0  0  0  0  0  0  0  0  0  0  0
   -2.9899   -1.3452   -1.4217 H   0  0  0  0  0  0  0  0  0  0  0  0
   -4.5836   -1.0613   -1.2097 H   0  0  0  0  0  0  0  0  0  0  0  0
   -4.1893   -2.4378   -2.6873 N   0  0  0  0  0  4  0  0  0  0  0  0
   -3.7844   -3.2302   -2.2324 H   0  0  0  0  0  0  0  0  0  0  0  0
   -5.1811   -2.5484   -2.7340 H   0  0  0  0  0  0  0  0  0  0  0  0
   -3.8174   -2.3540   -3.6109 H   0  0  0  0  0  0  0  0  0  0  0  0
    0.0016    2.9098   -0.0027 C   0  0  0  0  0  0  0  0  0  0  0  0
    0.9109    3.2156    0.2384 H   0  0  0  0  0  0  0  0  0  0  0  0
   -0.6683    3.2176    0.6563 H   0  0  0  0  0  0  0  0  0  0  0  0
   -0.2532    3.3493   -0.9670 H   0  0  0  0  0  0  0  0  0  0  0  0
    0.0008    1.4058    0.0005 C   0  0  0  0  0  0  0  0  0  0  0  0
   -1.1987    0.6958   -0.0005 C   0  0  0  0  0  0  0  0  0  0  0  0
   -2.0649    1.1845   -0.0027 H   0  0  0  0  0  0  0  0  0  0  0  0
   -1.2045   -0.7008    0.0000 C   0  0  0  0  0  0  0  0  0  0  0  0
   -2.0813   -1.1921    0.0018 H   0  0  0  0  0  0  0  0  0  0  0  0
   -0.0018   -1.3981   -0.0001 C   0  0  0  0  0  0  0  0  0  0  0  0
   -0.0037   -2.3953   -0.0008 H   0  0  0  0  0  0  0  0  0  0  0  0
    1.2045   -0.6989   -0.0000 C   0  0  0  0  0  0  0  0  0  0  0  0
    2.0836   -1.1963    0.0014 H   0  0  0  0  0  0  0  0  0  0  0  0
    1.1998    0.6963    0.0000 C   0  0  0  0  0  0  0  0  0  0  0  0
    2.0672    1.1918   -0.0017 H   0  0  0  0  0  0  0  0  0  0  0  0
  1  5  1  0
  5  8  1  0
  1  2  1  0
  1  3  1  0
  1  4  1  0
  5  6  1  0
  5  7  1  0
  8  9  1  0
  8 10  1  0
  8 11  1  0
 12 16  1  0
 16 17  2  0
 17 19  1  0
 19 21  2  0
 21 23  1  0
 23 25  2  0
 25 16  1  0
 12 13  1  0
 12 14  1  0
 12 15  1  0
 17 18  1  0
 19 20  1  0
 21 22  1  0
 23 24  1  0
 25 26  1  0
M  CHG  1   8   1
M  END
>  <PDB_ID>  (75) 
pdb3i4k

>  <RESIDUE_NAME>  (75) 
LYS   PHE

>  <FRAG_NAME>  (75) 
ETAM   MBZ

>  <FRAG_ATOM_NUM>  (75) 
fragi: 11  fragj: 15

>  <atom.prop.CHAIN_ID>  (75) 
A A A A A A A A A A A Z Z Z Z Z Z Z Z Z Z Z Z Z Z Z

>  <atom.prop.IS_HEAVY_ATOM>  (75) 
1 0 0 0 1 0 0 1 0 0 0 1 0 0 0 1 1 0 1 0 1 0 1 0 1 0

>  <DIFUSE_FUNC_ATOM>  (75) 
n/a

>  <FINAL_SINGLE_POINT_ENERGY>  (75) 
0

>  <NONCOV_INTER_ENERGY_QM>  (75) 
0

>  <FF_Energy>  (75) 
9.22

>  <QM_Energy>  (75) 
-1.63

>  <source>  (75) 
ETAM_MBZ

>  <Index>  (75) 
19607

$$$$
ETAM-pdb4fz2-B-LYS-282:MBZ-pdb4fz2-B-PHE-229
     RDKit          3D

 26 25  0  0  0  0  0  0  0  0999 V2000
    0.1788   -0.3268    3.6086 C   0  0  0  0  0  0  0  0  0  0  0  0
   -0.4468    0.2175    3.0697 H   0  0  0  0  0  0  0  0  0  0  0  0
    1.1031    0.0193    3.5463 H   0  0  0  0  0  0  0  0  0  0  0  0
   -0.1418   -0.3204    4.6504 H   0  0  0  0  0  0  0  0  0  0  0  0
    0.1620   -1.7545    3.0688 C   0  0  0  0  0  0  0  0  0  0  0  0
    0.2491   -1.7225    2.0692 H   0  0  0  0  0  0  0  0  0  0  0  0
    0.9479   -2.2526    3.4466 H   0  0  0  0  0  0  0  0  0  0  0  0
   -1.0930   -2.4759    3.4284 N   0  0  0  0  0  4  0  0  0  0  0  0
   -1.0954   -3.3725    2.9884 H   0  0  0  0  0  0  0  0  0  0  0  0
   -1.1367   -2.5885    4.4203 H   0  0  0  0  0  0  0  0  0  0  0  0
   -1.8794   -1.9455    3.1155 H   0  0  0  0  0  0  0  0  0  0  0  0
   -0.0003    2.8955   -0.0013 C   0  0  0  0  0  0  0  0  0  0  0  0
    0.9249    3.2048   -0.1626 H   0  0  0  0  0  0  0  0  0  0  0  0
   -0.3358    3.2039    0.8753 H   0  0  0  0  0  0  0  0  0  0  0  0
   -0.6344    3.3356   -0.7709 H   0  0  0  0  0  0  0  0  0  0  0  0
    0.0004    1.3954   -0.0013 C   0  0  0  0  0  0  0  0  0  0  0  0
   -1.1913    0.6897    0.0038 C   0  0  0  0  0  0  0  0  0  0  0  0
   -2.0595    1.1815    0.0089 H   0  0  0  0  0  0  0  0  0  0  0  0
   -1.1944   -0.6938   -0.0000 C   0  0  0  0  0  0  0  0  0  0  0  0
   -2.0730   -1.1903   -0.0000 H   0  0  0  0  0  0  0  0  0  0  0  0
    0.0019   -1.3883   -0.0023 C   0  0  0  0  0  0  0  0  0  0  0  0
   -0.0032   -2.3879   -0.0060 H   0  0  0  0  0  0  0  0  0  0  0  0
    1.1944   -0.6938    0.0000 C   0  0  0  0  0  0  0  0  0  0  0  0
    2.0798   -1.1910    0.0036 H   0  0  0  0  0  0  0  0  0  0  0  0
    1.1890    0.6909   -0.0002 C   0  0  0  0  0  0  0  0  0  0  0  0
    2.0605    1.1881   -0.0003 H   0  0  0  0  0  0  0  0  0  0  0  0
  1  5  1  0
  5  8  1  0
  1  2  1  0
  1  3  1  0
  1  4  1  0
  5  6  1  0
  5  7  1  0
  8  9  1  0
  8 10  1  0
  8 11  1  0
 12 16  1  0
 16 17  2  0
 17 19  1  0
 19 21  2  0
 21 23  1  0
 23 25  2  0
 25 16  1  0
 12 13  1  0
 12 14  1  0
 12 15  1  0
 17 18  1  0
 19 20  1  0
 21 22  1  0
 23 24  1  0
 25 26  1  0
M  CHG  1   8   1
M  END
>  <PDB_ID>  (76) 
pdb4fz2

>  <RESIDUE_NAME>  (76) 
LYS   PHE

>  <FRAG_NAME>  (76) 
ETAM   MBZ

>  <FRAG_ATOM_NUM>  (76) 
fragi: 11  fragj: 15

>  <atom.prop.CHAIN_ID>  (76) 
A A A A A A A A A A A Z Z Z Z Z Z Z Z Z Z Z Z Z Z Z

>  <atom.prop.IS_HEAVY_ATOM>  (76) 
1 0 0 0 1 0 0 1 0 0 0 1 0 0 0 1 1 0 1 0 1 0 1 0 1 0

>  <DIFUSE_FUNC_ATOM>  (76) 
n/a

>  <FINAL_SINGLE_POINT_ENERGY>  (76) 
0

>  <NONCOV_INTER_ENERGY_QM>  (76) 
0

>  <FF_Energy>  (76) 
7.44

>  <QM_Energy>  (76) 
-6.99

>  <source>  (76) 
ETAM_MBZ

>  <Index>  (76) 
20180

$$$$
ETAM-pdb4g2v-A-LYS-340:MBZ-pdb4g2v-A-PHE-337
     RDKit          3D

 26 25  0  0  0  0  0  0  0  0999 V2000
   -2.8798    1.3858   -3.1543 C   0  0  0  0  0  0  0  0  0  0  0  0
   -3.1573    1.4158   -2.1925 H   0  0  0  0  0  0  0  0  0  0  0  0
   -3.4156    0.6879   -3.6315 H   0  0  0  0  0  0  0  0  0  0  0  0
   -3.0856    2.3557   -3.6072 H   0  0  0  0  0  0  0  0  0  0  0  0
   -1.4190    1.0077   -3.2245 C   0  0  0  0  0  0  0  0  0  0  0  0
   -1.1346    0.9712   -4.1830 H   0  0  0  0  0  0  0  0  0  0  0  0
   -0.8763    1.6987   -2.7449 H   0  0  0  0  0  0  0  0  0  0  0  0
   -1.1876   -0.3176   -2.5964 N   0  0  0  0  0  4  0  0  0  0  0  0
   -1.2352   -0.2271   -1.6012 H   0  0  0  0  0  0  0  0  0  0  0  0
   -1.8882   -0.9605   -2.9070 H   0  0  0  0  0  0  0  0  0  0  0  0
   -0.2833   -0.6568   -2.8575 H   0  0  0  0  0  0  0  0  0  0  0  0
   -0.0051    2.8971   -0.0066 C   0  0  0  0  0  0  0  0  0  0  0  0
    0.9069    3.2077    0.2123 H   0  0  0  0  0  0  0  0  0  0  0  0
   -0.6629    3.2049    0.6632 H   0  0  0  0  0  0  0  0  0  0  0  0
   -0.2823    3.3269   -0.9692 H   0  0  0  0  0  0  0  0  0  0  0  0
   -0.0002    1.3965    0.0005 C   0  0  0  0  0  0  0  0  0  0  0  0
   -1.1917    0.6900   -0.0003 C   0  0  0  0  0  0  0  0  0  0  0  0
   -2.0599    1.1800   -0.0018 H   0  0  0  0  0  0  0  0  0  0  0  0
   -1.1945   -0.6949   -0.0000 C   0  0  0  0  0  0  0  0  0  0  0  0
   -2.0736   -1.1903    0.0007 H   0  0  0  0  0  0  0  0  0  0  0  0
    0.0007   -1.3883    0.0007 C   0  0  0  0  0  0  0  0  0  0  0  0
   -0.0036   -2.3883    0.0014 H   0  0  0  0  0  0  0  0  0  0  0  0
    1.1945   -0.6947   -0.0000 C   0  0  0  0  0  0  0  0  0  0  0  0
    2.0788   -1.1928    0.0015 H   0  0  0  0  0  0  0  0  0  0  0  0
    1.1912    0.6914   -0.0010 C   0  0  0  0  0  0  0  0  0  0  0  0
    2.0611    1.1881   -0.0036 H   0  0  0  0  0  0  0  0  0  0  0  0
  1  5  1  0
  5  8  1  0
  1  2  1  0
  1  3  1  0
  1  4  1  0
  5  6  1  0
  5  7  1  0
  8  9  1  0
  8 10  1  0
  8 11  1  0
 12 16  1  0
 16 17  2  0
 17 19  1  0
 19 21  2  0
 21 23  1  0
 23 25  2  0
 25 16  1  0
 12 13  1  0
 12 14  1  0
 12 15  1  0
 17 18  1  0
 19 20  1  0
 21 22  1  0
 23 24  1  0
 25 26  1  0
M  CHG  1   8   1
M  END
>  <PDB_ID>  (77) 
pdb4g2v

>  <RESIDUE_NAME>  (77) 
LYS   PHE

>  <FRAG_NAME>  (77) 
ETAM   MBZ

>  <FRAG_ATOM_NUM>  (77) 
fragi: 11  fragj: 15

>  <atom.prop.CHAIN_ID>  (77) 
A A A A A A A A A A A Z Z Z Z Z Z Z Z Z Z Z Z Z Z Z

>  <atom.prop.IS_HEAVY_ATOM>  (77) 
1 0 0 0 1 0 0 1 0 0 0 1 0 0 0 1 1 0 1 0 1 0 1 0 1 0

>  <DIFUSE_FUNC_ATOM>  (77) 
n/a

>  <FINAL_SINGLE_POINT_ENERGY>  (77) 
0

>  <NONCOV_INTER_ENERGY_QM>  (77) 
0

>  <FF_Energy>  (77) 
4.09

>  <QM_Energy>  (77) 
-6.98

>  <source>  (77) 
ETAM_MBZ

>  <Index>  (77) 
20225

$$$$
ETAM-pdb3jwh-A-LYS-349:MBZ-pdb3jwh-A-PHE-381
     RDKit          3D

 26 25  0  0  0  0  0  0  0  0999 V2000
   -0.5940   -4.8798    0.2679 C   0  0  0  0  0  0  0  0  0  0  0  0
   -0.0642   -4.0407    0.3377 H   0  0  0  0  0  0  0  0  0  0  0  0
   -1.2313   -4.8232   -0.4946 H   0  0  0  0  0  0  0  0  0  0  0  0
    0.0899   -5.7098    0.0905 H   0  0  0  0  0  0  0  0  0  0  0  0
   -1.3938   -5.0597    1.5577 C   0  0  0  0  0  0  0  0  0  0  0  0
   -1.8913   -5.9312    1.5103 H   0  0  0  0  0  0  0  0  0  0  0  0
   -0.7547   -5.0965    2.3325 H   0  0  0  0  0  0  0  0  0  0  0  0
   -2.3701   -3.9508    1.7831 N   0  0  0  0  0  4  0  0  0  0  0  0
   -2.1172   -3.4542    2.6117 H   0  0  0  0  0  0  0  0  0  0  0  0
   -2.3504   -3.3315    0.9999 H   0  0  0  0  0  0  0  0  0  0  0  0
   -3.2856   -4.3355    1.8859 H   0  0  0  0  0  0  0  0  0  0  0  0
   -0.0049    2.9042    0.0240 C   0  0  0  0  0  0  0  0  0  0  0  0
   -0.5727    3.2230   -0.7205 H   0  0  0  0  0  0  0  0  0  0  0  0
    0.9270    3.2208   -0.0743 H   0  0  0  0  0  0  0  0  0  0  0  0
   -0.4018    3.3285    0.9463 H   0  0  0  0  0  0  0  0  0  0  0  0
    0.0031    1.4068    0.0005 C   0  0  0  0  0  0  0  0  0  0  0  0
   -1.1978    0.6934    0.0000 C   0  0  0  0  0  0  0  0  0  0  0  0
   -2.0640    1.1838   -0.0018 H   0  0  0  0  0  0  0  0  0  0  0  0
   -1.2058   -0.7044    0.0000 C   0  0  0  0  0  0  0  0  0  0  0  0
   -2.0829   -1.1927    0.0014 H   0  0  0  0  0  0  0  0  0  0  0  0
   -0.0053   -1.4015   -0.0001 C   0  0  0  0  0  0  0  0  0  0  0  0
   -0.0022   -2.3970   -0.0004 H   0  0  0  0  0  0  0  0  0  0  0  0
    1.2058   -0.6964   -0.0000 C   0  0  0  0  0  0  0  0  0  0  0  0
    2.0835   -1.1935    0.0020 H   0  0  0  0  0  0  0  0  0  0  0  0
    1.2000    0.7022   -0.0004 C   0  0  0  0  0  0  0  0  0  0  0  0
    2.0681    1.1953   -0.0026 H   0  0  0  0  0  0  0  0  0  0  0  0
  1  5  1  0
  5  8  1  0
  1  2  1  0
  1  3  1  0
  1  4  1  0
  5  6  1  0
  5  7  1  0
  8  9  1  0
  8 10  1  0
  8 11  1  0
 12 16  1  0
 16 17  2  0
 17 19  1  0
 19 21  2  0
 21 23  1  0
 23 25  2  0
 25 16  1  0
 12 13  1  0
 12 14  1  0
 12 15  1  0
 17 18  1  0
 19 20  1  0
 21 22  1  0
 23 24  1  0
 25 26  1  0
M  CHG  1   8   1
M  END
>  <PDB_ID>  (78) 
pdb3jwh

>  <RESIDUE_NAME>  (78) 
LYS   PHE

>  <FRAG_NAME>  (78) 
ETAM   MBZ

>  <FRAG_ATOM_NUM>  (78) 
fragi: 11  fragj: 15

>  <atom.prop.CHAIN_ID>  (78) 
A A A A A A A A A A A Z Z Z Z Z Z Z Z Z Z Z Z Z Z Z

>  <atom.prop.IS_HEAVY_ATOM>  (78) 
1 0 0 0 1 0 0 1 0 0 0 1 0 0 0 1 1 0 1 0 1 0 1 0 1 0

>  <DIFUSE_FUNC_ATOM>  (78) 
n/a

>  <FINAL_SINGLE_POINT_ENERGY>  (78) 
0

>  <NONCOV_INTER_ENERGY_QM>  (78) 
0

>  <FF_Energy>  (78) 
8.13

>  <QM_Energy>  (78) 
-2.16

>  <source>  (78) 
ETAM_MBZ

>  <Index>  (78) 
20472

$$$$
ETAM-pdb4gkp-A-LYS-482:MBZ-pdb4gkp-A-PHE-406
     RDKit          3D

 26 25  0  0  0  0  0  0  0  0999 V2000
    4.1622    1.5475   -1.2652 C   0  0  0  0  0  0  0  0  0  0  0  0
    4.8125    2.2681   -1.5154 H   0  0  0  0  0  0  0  0  0  0  0  0
    3.2299    1.9118   -1.3286 H   0  0  0  0  0  0  0  0  0  0  0  0
    4.2658    0.7214   -1.9688 H   0  0  0  0  0  0  0  0  0  0  0  0
    4.4235    1.1371    0.1659 C   0  0  0  0  0  0  0  0  0  0  0  0
    4.0964    0.2021    0.3034 H   0  0  0  0  0  0  0  0  0  0  0  0
    5.4085    1.1721    0.3423 H   0  0  0  0  0  0  0  0  0  0  0  0
    3.7252    2.0434    1.1109 N   0  0  0  0  0  4  0  0  0  0  0  0
    3.8093    2.9877    0.7922 H   0  0  0  0  0  0  0  0  0  0  0  0
    2.7581    1.7932    1.1610 H   0  0  0  0  0  0  0  0  0  0  0  0
    4.1376    1.9609    2.0185 H   0  0  0  0  0  0  0  0  0  0  0  0
   -0.0086    2.9197   -0.0045 C   0  0  0  0  0  0  0  0  0  0  0  0
   -0.5867    3.2169   -0.7467 H   0  0  0  0  0  0  0  0  0  0  0  0
    0.9217    3.2283   -0.1201 H   0  0  0  0  0  0  0  0  0  0  0  0
   -0.3934    3.3631    0.9139 H   0  0  0  0  0  0  0  0  0  0  0  0
   -0.0003    1.4056    0.0023 C   0  0  0  0  0  0  0  0  0  0  0  0
   -1.1944    0.6824   -0.0050 C   0  0  0  0  0  0  0  0  0  0  0  0
   -2.0644    1.1731   -0.0154 H   0  0  0  0  0  0  0  0  0  0  0  0
   -1.1981   -0.7053    0.0000 C   0  0  0  0  0  0  0  0  0  0  0  0
   -2.0741   -1.2000    0.0070 H   0  0  0  0  0  0  0  0  0  0  0  0
    0.0015   -1.3944   -0.0023 C   0  0  0  0  0  0  0  0  0  0  0  0
    0.0040   -2.3935   -0.0065 H   0  0  0  0  0  0  0  0  0  0  0  0
    1.1981   -0.6916   -0.0000 C   0  0  0  0  0  0  0  0  0  0  0  0
    2.0828   -1.1857   -0.0005 H   0  0  0  0  0  0  0  0  0  0  0  0
    1.1932    0.7034    0.0050 C   0  0  0  0  0  0  0  0  0  0  0  0
    2.0621    1.1965    0.0094 H   0  0  0  0  0  0  0  0  0  0  0  0
  1  5  1  0
  5  8  1  0
  1  2  1  0
  1  3  1  0
  1  4  1  0
  5  6  1  0
  5  7  1  0
  8  9  1  0
  8 10  1  0
  8 11  1  0
 12 16  1  0
 16 17  2  0
 17 19  1  0
 19 21  2  0
 21 23  1  0
 23 25  2  0
 25 16  1  0
 12 13  1  0
 12 14  1  0
 12 15  1  0
 17 18  1  0
 19 20  1  0
 21 22  1  0
 23 24  1  0
 25 26  1  0
M  CHG  1   8   1
M  END
>  <PDB_ID>  (79) 
pdb4gkp

>  <RESIDUE_NAME>  (79) 
LYS   PHE

>  <FRAG_NAME>  (79) 
ETAM   MBZ

>  <FRAG_ATOM_NUM>  (79) 
fragi: 11  fragj: 15

>  <atom.prop.CHAIN_ID>  (79) 
A A A A A A A A A A A Z Z Z Z Z Z Z Z Z Z Z Z Z Z Z

>  <atom.prop.IS_HEAVY_ATOM>  (79) 
1 0 0 0 1 0 0 1 0 0 0 1 0 0 0 1 1 0 1 0 1 0 1 0 1 0

>  <DIFUSE_FUNC_ATOM>  (79) 
n/a

>  <FINAL_SINGLE_POINT_ENERGY>  (79) 
0

>  <NONCOV_INTER_ENERGY_QM>  (79) 
0

>  <FF_Energy>  (79) 
13.43

>  <QM_Energy>  (79) 
-0.06

>  <source>  (79) 
ETAM_MBZ

>  <Index>  (79) 
20655

$$$$
ETAM-pdb3k5h-B-LYS-148:MBZ-pdb3k5h-B-PHE-105
     RDKit          3D

 26 25  0  0  0  0  0  0  0  0999 V2000
    0.9371    4.1838   -3.7481 C   0  0  0  0  0  0  0  0  0  0  0  0
    0.7718    4.0563   -4.7160 H   0  0  0  0  0  0  0  0  0  0  0  0
    1.8515    4.5270   -3.5838 H   0  0  0  0  0  0  0  0  0  0  0  0
    0.2178    4.9074   -3.3643 H   0  0  0  0  0  0  0  0  0  0  0  0
    0.7816    2.8439   -3.0429 C   0  0  0  0  0  0  0  0  0  0  0  0
    0.9223    2.9971   -2.0262 H   0  0  0  0  0  0  0  0  0  0  0  0
   -0.2140    2.5572   -3.1121 H   0  0  0  0  0  0  0  0  0  0  0  0
    1.6270    1.6854   -3.4582 N   0  0  0  0  0  4  0  0  0  0  0  0
    2.5758    1.8600   -3.1983 H   0  0  0  0  0  0  0  0  0  0  0  0
    1.2997    0.8583   -3.0026 H   0  0  0  0  0  0  0  0  0  0  0  0
    1.5647    1.5714   -4.4487 H   0  0  0  0  0  0  0  0  0  0  0  0
    0.0588    2.9174    0.0391 C   0  0  0  0  0  0  0  0  0  0  0  0
   -0.5674    3.2340   -0.6665 H   0  0  0  0  0  0  0  0  0  0  0  0
    0.9921    3.1827   -0.1839 H   0  0  0  0  0  0  0  0  0  0  0  0
   -0.2144    3.4064    0.9742 H   0  0  0  0  0  0  0  0  0  0  0  0
    0.0064    1.3982    0.0464 C   0  0  0  0  0  0  0  0  0  0  0  0
   -1.1968    0.6997    0.0293 C   0  0  0  0  0  0  0  0  0  0  0  0
   -2.0583    1.1966    0.0369 H   0  0  0  0  0  0  0  0  0  0  0  0
   -1.2080   -0.6875    0.0000 C   0  0  0  0  0  0  0  0  0  0  0  0
   -2.0788   -1.1827    0.0106 H   0  0  0  0  0  0  0  0  0  0  0  0
    0.0005   -1.3791   -0.0422 C   0  0  0  0  0  0  0  0  0  0  0  0
   -0.0123   -2.3836   -0.1052 H   0  0  0  0  0  0  0  0  0  0  0  0
    1.2080   -0.7039   -0.0000 C   0  0  0  0  0  0  0  0  0  0  0  0
    2.0773   -1.2033    0.0554 H   0  0  0  0  0  0  0  0  0  0  0  0
    1.1898    0.6727   -0.0334 C   0  0  0  0  0  0  0  0  0  0  0  0
    2.0624    1.1776   -0.1195 H   0  0  0  0  0  0  0  0  0  0  0  0
  1  5  1  0
  5  8  1  0
  1  2  1  0
  1  3  1  0
  1  4  1  0
  5  6  1  0
  5  7  1  0
  8  9  1  0
  8 10  1  0
  8 11  1  0
 12 16  1  0
 16 17  2  0
 17 19  1  0
 19 21  2  0
 21 23  1  0
 23 25  2  0
 25 16  1  0
 12 13  1  0
 12 14  1  0
 12 15  1  0
 17 18  1  0
 19 20  1  0
 21 22  1  0
 23 24  1  0
 25 26  1  0
M  CHG  1   8   1
M  END
>  <PDB_ID>  (80) 
pdb3k5h

>  <RESIDUE_NAME>  (80) 
LYS   PHE

>  <FRAG_NAME>  (80) 
ETAM   MBZ

>  <FRAG_ATOM_NUM>  (80) 
fragi: 11  fragj: 15

>  <atom.prop.CHAIN_ID>  (80) 
A A A A A A A A A A A Z Z Z Z Z Z Z Z Z Z Z Z Z Z Z

>  <atom.prop.IS_HEAVY_ATOM>  (80) 
1 0 0 0 1 0 0 1 0 0 0 1 0 0 0 1 1 0 1 0 1 0 1 0 1 0

>  <DIFUSE_FUNC_ATOM>  (80) 
n/a

>  <FINAL_SINGLE_POINT_ENERGY>  (80) 
0

>  <NONCOV_INTER_ENERGY_QM>  (80) 
0

>  <FF_Energy>  (80) 
4.11

>  <QM_Energy>  (80) 
-6.74

>  <source>  (80) 
ETAM_MBZ

>  <Index>  (80) 
20847

$$$$
ETAM-pdb3l3s-E-LYS-71:MBZ-pdb3l3s-E-PHE-86
     RDKit          3D

 26 25  0  0  0  0  0  0  0  0999 V2000
    0.3324   -4.5630   -3.3378 C   0  0  0  0  0  0  0  0  0  0  0  0
    0.0301   -3.6251   -3.5260 H   0  0  0  0  0  0  0  0  0  0  0  0
    0.1290   -5.1376   -4.1339 H   0  0  0  0  0  0  0  0  0  0  0  0
    1.4105   -4.5559   -3.1780 H   0  0  0  0  0  0  0  0  0  0  0  0
   -0.4567   -5.0929   -2.1488 C   0  0  0  0  0  0  0  0  0  0  0  0
   -1.4395   -5.1383   -2.4095 H   0  0  0  0  0  0  0  0  0  0  0  0
   -0.1603   -6.0498   -1.9666 H   0  0  0  0  0  0  0  0  0  0  0  0
   -0.3236   -4.3009   -0.9042 N   0  0  0  0  0  4  0  0  0  0  0  0
    0.6434   -4.2187   -0.6611 H   0  0  0  0  0  0  0  0  0  0  0  0
   -0.7093   -3.3877   -1.0450 H   0  0  0  0  0  0  0  0  0  0  0  0
   -0.8153   -4.7581   -0.1621 H   0  0  0  0  0  0  0  0  0  0  0  0
    0.0051    2.9346    0.0985 C   0  0  0  0  0  0  0  0  0  0  0  0
   -0.7129    3.2812   -0.4831 H   0  0  0  0  0  0  0  0  0  0  0  0
    0.8935    3.2544   -0.1910 H   0  0  0  0  0  0  0  0  0  0  0  0
   -0.1713    3.3185    1.1033 H   0  0  0  0  0  0  0  0  0  0  0  0
   -0.0029    1.4237    0.0020 C   0  0  0  0  0  0  0  0  0  0  0  0
   -1.2129    0.7166   -0.0017 C   0  0  0  0  0  0  0  0  0  0  0  0
   -2.0754    1.1994   -0.0072 H   0  0  0  0  0  0  0  0  0  0  0  0
   -1.2224   -0.7039   -0.0000 C   0  0  0  0  0  0  0  0  0  0  0  0
   -2.0913   -1.1900   -0.0010 H   0  0  0  0  0  0  0  0  0  0  0  0
    0.0035   -1.4176    0.0052 C   0  0  0  0  0  0  0  0  0  0  0  0
   -0.0091   -2.4085    0.0119 H   0  0  0  0  0  0  0  0  0  0  0  0
    1.2224   -0.7167    0.0000 C   0  0  0  0  0  0  0  0  0  0  0  0
    2.0961   -1.2071    0.0016 H   0  0  0  0  0  0  0  0  0  0  0  0
    1.2123    0.6978   -0.0055 C   0  0  0  0  0  0  0  0  0  0  0  0
    2.0761    1.1926   -0.0158 H   0  0  0  0  0  0  0  0  0  0  0  0
  1  5  1  0
  5  8  1  0
  1  2  1  0
  1  3  1  0
  1  4  1  0
  5  6  1  0
  5  7  1  0
  8  9  1  0
  8 10  1  0
  8 11  1  0
 12 16  1  0
 16 17  2  0
 17 19  1  0
 19 21  2  0
 21 23  1  0
 23 25  2  0
 25 16  1  0
 12 13  1  0
 12 14  1  0
 12 15  1  0
 17 18  1  0
 19 20  1  0
 21 22  1  0
 23 24  1  0
 25 26  1  0
M  CHG  1   8   1
M  END
>  <PDB_ID>  (81) 
pdb3l3s

>  <RESIDUE_NAME>  (81) 
LYS   PHE

>  <FRAG_NAME>  (81) 
ETAM   MBZ

>  <FRAG_ATOM_NUM>  (81) 
fragi: 11  fragj: 15

>  <atom.prop.CHAIN_ID>  (81) 
A A A A A A A A A A A Z Z Z Z Z Z Z Z Z Z Z Z Z Z Z

>  <atom.prop.IS_HEAVY_ATOM>  (81) 
1 0 0 0 1 0 0 1 0 0 0 1 0 0 0 1 1 0 1 0 1 0 1 0 1 0

>  <DIFUSE_FUNC_ATOM>  (81) 
n/a

>  <FINAL_SINGLE_POINT_ENERGY>  (81) 
0

>  <NONCOV_INTER_ENERGY_QM>  (81) 
0

>  <FF_Energy>  (81) 
11.56

>  <QM_Energy>  (81) 
-0.42

>  <source>  (81) 
ETAM_MBZ

>  <Index>  (81) 
21356

$$$$
ETAM-pdb3lyc-D-LYS-75:MBZ-pdb3lyc-D-PHE-99
     RDKit          3D

 26 25  0  0  0  0  0  0  0  0999 V2000
   -6.4431    1.7331    0.2025 C   0  0  0  0  0  0  0  0  0  0  0  0
   -6.1075    2.6323   -0.0567 H   0  0  0  0  0  0  0  0  0  0  0  0
   -6.3120    1.5815    1.1764 H   0  0  0  0  0  0  0  0  0  0  0  0
   -7.5103    1.6875   -0.0144 H   0  0  0  0  0  0  0  0  0  0  0  0
   -5.6581    0.6767   -0.5671 C   0  0  0  0  0  0  0  0  0  0  0  0
   -6.0185   -0.2297   -0.3414 H   0  0  0  0  0  0  0  0  0  0  0  0
   -5.7646    0.8387   -1.5501 H   0  0  0  0  0  0  0  0  0  0  0  0
   -4.1856    0.7085   -0.2297 N   0  0  0  0  0  4  0  0  0  0  0  0
   -3.7623    1.4676   -0.7160 H   0  0  0  0  0  0  0  0  0  0  0  0
   -4.0854    0.8315    0.7535 H   0  0  0  0  0  0  0  0  0  0  0  0
   -3.7733   -0.1526   -0.5120 H   0  0  0  0  0  0  0  0  0  0  0  0
   -0.0090    2.8935   -0.0270 C   0  0  0  0  0  0  0  0  0  0  0  0
   -0.8218    3.1921   -0.5283 H   0  0  0  0  0  0  0  0  0  0  0  0
    0.8114    3.2037   -0.5086 H   0  0  0  0  0  0  0  0  0  0  0  0
   -0.0245    3.3921    0.9421 H   0  0  0  0  0  0  0  0  0  0  0  0
    0.0015    1.3998   -0.0085 C   0  0  0  0  0  0  0  0  0  0  0  0
   -1.1986    0.6920   -0.0085 C   0  0  0  0  0  0  0  0  0  0  0  0
   -2.0638    1.1938   -0.0170 H   0  0  0  0  0  0  0  0  0  0  0  0
   -1.2194   -0.6927    0.0000 C   0  0  0  0  0  0  0  0  0  0  0  0
   -2.0882   -1.1863   -0.0090 H   0  0  0  0  0  0  0  0  0  0  0  0
   -0.0059   -1.3907    0.0264 C   0  0  0  0  0  0  0  0  0  0  0  0
   -0.0115   -2.3894    0.0638 H   0  0  0  0  0  0  0  0  0  0  0  0
    1.2194   -0.7005   -0.0000 C   0  0  0  0  0  0  0  0  0  0  0  0
    2.0853   -1.2007   -0.0089 H   0  0  0  0  0  0  0  0  0  0  0  0
    1.2030    0.6921   -0.0095 C   0  0  0  0  0  0  0  0  0  0  0  0
    2.0696    1.1949   -0.0200 H   0  0  0  0  0  0  0  0  0  0  0  0
  1  5  1  0
  5  8  1  0
  1  2  1  0
  1  3  1  0
  1  4  1  0
  5  6  1  0
  5  7  1  0
  8  9  1  0
  8 10  1  0
  8 11  1  0
 12 16  1  0
 16 17  2  0
 17 19  1  0
 19 21  2  0
 21 23  1  0
 23 25  2  0
 25 16  1  0
 12 13  1  0
 12 14  1  0
 12 15  1  0
 17 18  1  0
 19 20  1  0
 21 22  1  0
 23 24  1  0
 25 26  1  0
M  CHG  1   8   1
M  END
>  <PDB_ID>  (82) 
pdb3lyc

>  <RESIDUE_NAME>  (82) 
LYS   PHE

>  <FRAG_NAME>  (82) 
ETAM   MBZ

>  <FRAG_ATOM_NUM>  (82) 
fragi: 11  fragj: 15

>  <atom.prop.CHAIN_ID>  (82) 
A A A A A A A A A A A Z Z Z Z Z Z Z Z Z Z Z Z Z Z Z

>  <atom.prop.IS_HEAVY_ATOM>  (82) 
1 0 0 0 1 0 0 1 0 0 0 1 0 0 0 1 1 0 1 0 1 0 1 0 1 0

>  <DIFUSE_FUNC_ATOM>  (82) 
n/a

>  <FINAL_SINGLE_POINT_ENERGY>  (82) 
0

>  <NONCOV_INTER_ENERGY_QM>  (82) 
0

>  <FF_Energy>  (82) 
9.35

>  <QM_Energy>  (82) 
-1.17

>  <source>  (82) 
ETAM_MBZ

>  <Index>  (82) 
22096

$$$$
ETAM-pdb3m1i-C-LYS-1055:MBZ-pdb3m1i-C-PHE-1051
     RDKit          3D

 26 25  0  0  0  0  0  0  0  0999 V2000
    1.5392   -2.9374    3.3583 C   0  0  0  0  0  0  0  0  0  0  0  0
    2.2135   -2.3196    2.9586 H   0  0  0  0  0  0  0  0  0  0  0  0
    1.9859   -3.7831    3.6463 H   0  0  0  0  0  0  0  0  0  0  0  0
    1.1028   -2.4570    4.2341 H   0  0  0  0  0  0  0  0  0  0  0  0
    0.4998   -3.2697    2.3077 C   0  0  0  0  0  0  0  0  0  0  0  0
   -0.1764   -3.8903    2.7023 H   0  0  0  0  0  0  0  0  0  0  0  0
    0.0514   -2.4275    2.0139 H   0  0  0  0  0  0  0  0  0  0  0  0
    1.1368   -3.9213    1.1354 N   0  0  0  0  0  4  0  0  0  0  0  0
    0.5416   -3.8274    0.3377 H   0  0  0  0  0  0  0  0  0  0  0  0
    2.0165   -3.4834    0.9487 H   0  0  0  0  0  0  0  0  0  0  0  0
    1.2825   -4.8910    1.3307 H   0  0  0  0  0  0  0  0  0  0  0  0
    0.0401    2.9165    0.0118 C   0  0  0  0  0  0  0  0  0  0  0  0
   -0.6667    3.2449   -0.5936 H   0  0  0  0  0  0  0  0  0  0  0  0
    0.9365    3.2060   -0.2833 H   0  0  0  0  0  0  0  0  0  0  0  0
   -0.1396    3.3475    0.9967 H   0  0  0  0  0  0  0  0  0  0  0  0
    0.0055    1.4163    0.0021 C   0  0  0  0  0  0  0  0  0  0  0  0
   -1.2028    0.7271    0.0013 C   0  0  0  0  0  0  0  0  0  0  0  0
   -2.0639    1.2028    0.0004 H   0  0  0  0  0  0  0  0  0  0  0  0
   -1.2145   -0.7066   -0.0000 C   0  0  0  0  0  0  0  0  0  0  0  0
   -2.0923   -1.1797    0.0035 H   0  0  0  0  0  0  0  0  0  0  0  0
   -0.0041   -1.4215   -0.0048 C   0  0  0  0  0  0  0  0  0  0  0  0
   -0.0094   -2.4103   -0.0123 H   0  0  0  0  0  0  0  0  0  0  0  0
    1.2145   -0.7136    0.0000 C   0  0  0  0  0  0  0  0  0  0  0  0
    2.0897   -1.2037    0.0034 H   0  0  0  0  0  0  0  0  0  0  0  0
    1.2014    0.6984    0.0014 C   0  0  0  0  0  0  0  0  0  0  0  0
    2.0742    1.1878    0.0012 H   0  0  0  0  0  0  0  0  0  0  0  0
  1  5  1  0
  5  8  1  0
  1  2  1  0
  1  3  1  0
  1  4  1  0
  5  6  1  0
  5  7  1  0
  8  9  1  0
  8 10  1  0
  8 11  1  0
 12 16  1  0
 16 17  2  0
 17 19  1  0
 19 21  2  0
 21 23  1  0
 23 25  2  0
 25 16  1  0
 12 13  1  0
 12 14  1  0
 12 15  1  0
 17 18  1  0
 19 20  1  0
 21 22  1  0
 23 24  1  0
 25 26  1  0
M  CHG  1   8   1
M  END
>  <PDB_ID>  (83) 
pdb3m1i

>  <RESIDUE_NAME>  (83) 
LYS   PHE

>  <FRAG_NAME>  (83) 
ETAM   MBZ

>  <FRAG_ATOM_NUM>  (83) 
fragi: 11  fragj: 15

>  <atom.prop.CHAIN_ID>  (83) 
A A A A A A A A A A A Z Z Z Z Z Z Z Z Z Z Z Z Z Z Z

>  <atom.prop.IS_HEAVY_ATOM>  (83) 
1 0 0 0 1 0 0 1 0 0 0 1 0 0 0 1 1 0 1 0 1 0 1 0 1 0

>  <DIFUSE_FUNC_ATOM>  (83) 
n/a

>  <FINAL_SINGLE_POINT_ENERGY>  (83) 
0

>  <NONCOV_INTER_ENERGY_QM>  (83) 
0

>  <FF_Energy>  (83) 
14.4

>  <QM_Energy>  (83) 
-0.33

>  <source>  (83) 
ETAM_MBZ

>  <Index>  (83) 
22165

$$$$
ETAM-pdb3mud-D-LYS-220:MBZ-pdb3mud-D-PHE-216
     RDKit          3D

 26 25  0  0  0  0  0  0  0  0999 V2000
    2.2227   -0.9095    4.1070 C   0  0  0  0  0  0  0  0  0  0  0  0
    2.9147   -0.2027    3.9489 H   0  0  0  0  0  0  0  0  0  0  0  0
    2.6420   -1.6831    4.5849 H   0  0  0  0  0  0  0  0  0  0  0  0
    1.4363   -0.4931    4.7366 H   0  0  0  0  0  0  0  0  0  0  0  0
    1.7058   -1.3889    2.7706 C   0  0  0  0  0  0  0  0  0  0  0  0
    1.0171   -2.0981    2.9201 H   0  0  0  0  0  0  0  0  0  0  0  0
    1.2897   -0.6200    2.2844 H   0  0  0  0  0  0  0  0  0  0  0  0
    2.8103   -1.9455    1.9495 N   0  0  0  0  0  4  0  0  0  0  0  0
    2.4737   -2.7281    1.4248 H   0  0  0  0  0  0  0  0  0  0  0  0
    3.1455   -1.2435    1.3212 H   0  0  0  0  0  0  0  0  0  0  0  0
    3.5555   -2.2407    2.5477 H   0  0  0  0  0  0  0  0  0  0  0  0
    0.0013    2.8468   -0.0097 C   0  0  0  0  0  0  0  0  0  0  0  0
   -0.6565    3.1562   -0.6880 H   0  0  0  0  0  0  0  0  0  0  0  0
    0.9160    3.1579   -0.2455 H   0  0  0  0  0  0  0  0  0  0  0  0
   -0.2677    3.2972    0.9457 H   0  0  0  0  0  0  0  0  0  0  0  0
   -0.0005    1.3725    0.0028 C   0  0  0  0  0  0  0  0  0  0  0  0
   -1.1809    0.6779   -0.0029 C   0  0  0  0  0  0  0  0  0  0  0  0
   -2.0508    1.1737   -0.0105 H   0  0  0  0  0  0  0  0  0  0  0  0
   -1.1772   -0.6815   -0.0000 C   0  0  0  0  0  0  0  0  0  0  0  0
   -2.0589   -1.1869    0.0016 H   0  0  0  0  0  0  0  0  0  0  0  0
    0.0049   -1.3585    0.0030 C   0  0  0  0  0  0  0  0  0  0  0  0
   -0.0032   -2.3713    0.0068 H   0  0  0  0  0  0  0  0  0  0  0  0
    1.1772   -0.6848    0.0000 C   0  0  0  0  0  0  0  0  0  0  0  0
    2.0675   -1.1890    0.0012 H   0  0  0  0  0  0  0  0  0  0  0  0
    1.1764    0.6744   -0.0029 C   0  0  0  0  0  0  0  0  0  0  0  0
    2.0502    1.1776   -0.0106 H   0  0  0  0  0  0  0  0  0  0  0  0
  1  5  1  0
  5  8  1  0
  1  2  1  0
  1  3  1  0
  1  4  1  0
  5  6  1  0
  5  7  1  0
  8  9  1  0
  8 10  1  0
  8 11  1  0
 12 16  1  0
 16 17  2  0
 17 19  1  0
 19 21  2  0
 21 23  1  0
 23 25  2  0
 25 16  1  0
 12 13  1  0
 12 14  1  0
 12 15  1  0
 17 18  1  0
 19 20  1  0
 21 22  1  0
 23 24  1  0
 25 26  1  0
M  CHG  1   8   1
M  END
>  <PDB_ID>  (84) 
pdb3mud

>  <RESIDUE_NAME>  (84) 
LYS   PHE

>  <FRAG_NAME>  (84) 
ETAM   MBZ

>  <FRAG_ATOM_NUM>  (84) 
fragi: 11  fragj: 15

>  <atom.prop.CHAIN_ID>  (84) 
A A A A A A A A A A A Z Z Z Z Z Z Z Z Z Z Z Z Z Z Z

>  <atom.prop.IS_HEAVY_ATOM>  (84) 
1 0 0 0 1 0 0 1 0 0 0 1 0 0 0 1 1 0 1 0 1 0 1 0 1 0

>  <DIFUSE_FUNC_ATOM>  (84) 
n/a

>  <FINAL_SINGLE_POINT_ENERGY>  (84) 
0

>  <NONCOV_INTER_ENERGY_QM>  (84) 
0

>  <FF_Energy>  (84) 
12.99

>  <QM_Energy>  (84) 
-1.54

>  <source>  (84) 
ETAM_MBZ

>  <Index>  (84) 
22638

$$$$
ETAM-pdb4k33-A-LYS-708:MBZ-pdb4k33-A-PHE-704
     RDKit          3D

 26 25  0  0  0  0  0  0  0  0999 V2000
    0.1691   -2.4273    2.8684 C   0  0  0  0  0  0  0  0  0  0  0  0
    0.2790   -1.4903    2.5996 H   0  0  0  0  0  0  0  0  0  0  0  0
    0.3405   -2.5699    3.8232 H   0  0  0  0  0  0  0  0  0  0  0  0
   -0.8446   -2.7513    2.6326 H   0  0  0  0  0  0  0  0  0  0  0  0
    1.1341   -3.2843    2.0643 C   0  0  0  0  0  0  0  0  0  0  0  0
    0.9779   -4.2581    2.2968 H   0  0  0  0  0  0  0  0  0  0  0  0
    0.9280   -3.1715    1.0788 H   0  0  0  0  0  0  0  0  0  0  0  0
    2.5786   -2.9628    2.2928 N   0  0  0  0  0  4  0  0  0  0  0  0
    2.7298   -2.8128    3.2675 H   0  0  0  0  0  0  0  0  0  0  0  0
    3.1373   -3.7270    1.9772 H   0  0  0  0  0  0  0  0  0  0  0  0
    2.8150   -2.1375    1.7828 H   0  0  0  0  0  0  0  0  0  0  0  0
   -0.0831    2.8200    0.1639 C   0  0  0  0  0  0  0  0  0  0  0  0
   -0.4391    3.2229   -0.6517 H   0  0  0  0  0  0  0  0  0  0  0  0
    0.7904    3.1746    0.4221 H   0  0  0  0  0  0  0  0  0  0  0  0
   -0.7786    3.0517    0.9704 H   0  0  0  0  0  0  0  0  0  0  0  0
    0.0004    1.3856    0.0039 C   0  0  0  0  0  0  0  0  0  0  0  0
   -1.1984    0.6839   -0.0038 C   0  0  0  0  0  0  0  0  0  0  0  0
   -2.0564    1.1924   -0.0132 H   0  0  0  0  0  0  0  0  0  0  0  0
   -1.1819   -0.6513   -0.0000 C   0  0  0  0  0  0  0  0  0  0  0  0
   -2.0741   -1.1725    0.0525 H   0  0  0  0  0  0  0  0  0  0  0  0
   -0.0079   -1.3825   -0.0620 C   0  0  0  0  0  0  0  0  0  0  0  0
   -0.0387   -2.3701   -0.1497 H   0  0  0  0  0  0  0  0  0  0  0  0
    1.1819   -0.7061    0.0000 C   0  0  0  0  0  0  0  0  0  0  0  0
    2.0660   -1.2195    0.0027 H   0  0  0  0  0  0  0  0  0  0  0  0
    1.2058    0.6704    0.0619 C   0  0  0  0  0  0  0  0  0  0  0  0
    2.0628    1.1610    0.1458 H   0  0  0  0  0  0  0  0  0  0  0  0
  1  5  1  0
  5  8  1  0
  1  2  1  0
  1  3  1  0
  1  4  1  0
  5  6  1  0
  5  7  1  0
  8  9  1  0
  8 10  1  0
  8 11  1  0
 12 16  1  0
 16 17  2  0
 17 19  1  0
 19 21  2  0
 21 23  1  0
 23 25  2  0
 25 16  1  0
 12 13  1  0
 12 14  1  0
 12 15  1  0
 17 18  1  0
 19 20  1  0
 21 22  1  0
 23 24  1  0
 25 26  1  0
M  CHG  1   8   1
M  END
>  <PDB_ID>  (85) 
pdb4k33

>  <RESIDUE_NAME>  (85) 
LYS   PHE

>  <FRAG_NAME>  (85) 
ETAM   MBZ

>  <FRAG_ATOM_NUM>  (85) 
fragi: 11  fragj: 15

>  <atom.prop.CHAIN_ID>  (85) 
A A A A A A A A A A A Z Z Z Z Z Z Z Z Z Z Z Z Z Z Z

>  <atom.prop.IS_HEAVY_ATOM>  (85) 
1 0 0 0 1 0 0 1 0 0 0 1 0 0 0 1 1 0 1 0 1 0 1 0 1 0

>  <DIFUSE_FUNC_ATOM>  (85) 
n/a

>  <FINAL_SINGLE_POINT_ENERGY>  (85) 
0

>  <NONCOV_INTER_ENERGY_QM>  (85) 
0

>  <FF_Energy>  (85) 
9.16

>  <QM_Energy>  (85) 
-4.28

>  <source>  (85) 
ETAM_MBZ

>  <Index>  (85) 
22718

$$$$
ETAM-pdb3mz2-A-LYS-200:MBZ-pdb3mz2-A-PHE-196
     RDKit          3D

 26 25  0  0  0  0  0  0  0  0999 V2000
    0.5095   -2.2725    3.4393 C   0  0  0  0  0  0  0  0  0  0  0  0
    1.2583   -1.8559    2.9186 H   0  0  0  0  0  0  0  0  0  0  0  0
    0.8395   -3.1186    3.8639 H   0  0  0  0  0  0  0  0  0  0  0  0
    0.1810   -1.5813    4.2153 H   0  0  0  0  0  0  0  0  0  0  0  0
   -0.5986   -2.6403    2.4578 C   0  0  0  0  0  0  0  0  0  0  0  0
   -1.0808   -1.8052    2.1904 H   0  0  0  0  0  0  0  0  0  0  0  0
   -0.1844   -3.0571    1.6481 H   0  0  0  0  0  0  0  0  0  0  0  0
   -1.5546   -3.5901    3.0692 N   0  0  0  0  0  4  0  0  0  0  0  0
   -1.0516   -4.2989    3.5659 H   0  0  0  0  0  0  0  0  0  0  0  0
   -2.1524   -3.1010    3.7055 H   0  0  0  0  0  0  0  0  0  0  0  0
   -2.1098   -4.0165    2.3534 H   0  0  0  0  0  0  0  0  0  0  0  0
    0.0062    2.9089    0.0604 C   0  0  0  0  0  0  0  0  0  0  0  0
   -0.7343    3.2360   -0.4962 H   0  0  0  0  0  0  0  0  0  0  0  0
    0.8809    3.2241   -0.2583 H   0  0  0  0  0  0  0  0  0  0  0  0
   -0.1398    3.2916    1.0704 H   0  0  0  0  0  0  0  0  0  0  0  0
    0.0038    1.4024    0.0045 C   0  0  0  0  0  0  0  0  0  0  0  0
   -1.2054    0.6883    0.0128 C   0  0  0  0  0  0  0  0  0  0  0  0
   -2.0656    1.1817    0.0266 H   0  0  0  0  0  0  0  0  0  0  0  0
   -1.2015   -0.6979   -0.0000 C   0  0  0  0  0  0  0  0  0  0  0  0
   -2.0781   -1.1966    0.0069 H   0  0  0  0  0  0  0  0  0  0  0  0
   -0.0043   -1.3831   -0.0204 C   0  0  0  0  0  0  0  0  0  0  0  0
   -0.0042   -2.3872   -0.0503 H   0  0  0  0  0  0  0  0  0  0  0  0
    1.2015   -0.6947    0.0000 C   0  0  0  0  0  0  0  0  0  0  0  0
    2.0776   -1.2036    0.0138 H   0  0  0  0  0  0  0  0  0  0  0  0
    1.2059    0.6849    0.0031 C   0  0  0  0  0  0  0  0  0  0  0  0
    2.0712    1.1849    0.0042 H   0  0  0  0  0  0  0  0  0  0  0  0
  1  5  1  0
  5  8  1  0
  1  2  1  0
  1  3  1  0
  1  4  1  0
  5  6  1  0
  5  7  1  0
  8  9  1  0
  8 10  1  0
  8 11  1  0
 12 16  1  0
 16 17  2  0
 17 19  1  0
 19 21  2  0
 21 23  1  0
 23 25  2  0
 25 16  1  0
 12 13  1  0
 12 14  1  0
 12 15  1  0
 17 18  1  0
 19 20  1  0
 21 22  1  0
 23 24  1  0
 25 26  1  0
M  CHG  1   8   1
M  END
>  <PDB_ID>  (86) 
pdb3mz2

>  <RESIDUE_NAME>  (86) 
LYS   PHE

>  <FRAG_NAME>  (86) 
ETAM   MBZ

>  <FRAG_ATOM_NUM>  (86) 
fragi: 11  fragj: 15

>  <atom.prop.CHAIN_ID>  (86) 
A A A A A A A A A A A Z Z Z Z Z Z Z Z Z Z Z Z Z Z Z

>  <atom.prop.IS_HEAVY_ATOM>  (86) 
1 0 0 0 1 0 0 1 0 0 0 1 0 0 0 1 1 0 1 0 1 0 1 0 1 0

>  <DIFUSE_FUNC_ATOM>  (86) 
n/a

>  <FINAL_SINGLE_POINT_ENERGY>  (86) 
0

>  <NONCOV_INTER_ENERGY_QM>  (86) 
0

>  <FF_Energy>  (86) 
8.35

>  <QM_Energy>  (86) 
-1.71

>  <source>  (86) 
ETAM_MBZ

>  <Index>  (86) 
22751

$$$$
ETAM-pdb4ldg-A-LYS-144:MBZ-pdb4ldg-A-PHE-16
     RDKit          3D

 26 25  0  0  0  0  0  0  0  0999 V2000
    2.6878    2.1371    4.4346 C   0  0  0  0  0  0  0  0  0  0  0  0
    3.6133    1.7637    4.3820 H   0  0  0  0  0  0  0  0  0  0  0  0
    2.1150    1.5356    4.9901 H   0  0  0  0  0  0  0  0  0  0  0  0
    2.7339    3.1158    4.9123 H   0  0  0  0  0  0  0  0  0  0  0  0
    2.1109    2.2036    3.0378 C   0  0  0  0  0  0  0  0  0  0  0  0
    1.1833    2.5745    3.0835 H   0  0  0  0  0  0  0  0  0  0  0  0
    2.6811    2.8015    2.4746 H   0  0  0  0  0  0  0  0  0  0  0  0
    2.0679    0.8507    2.4261 N   0  0  0  0  0  4  0  0  0  0  0  0
    2.9965    0.5632    2.1884 H   0  0  0  0  0  0  0  0  0  0  0  0
    1.6749    0.2028    3.0789 H   0  0  0  0  0  0  0  0  0  0  0  0
    1.5046    0.8768    1.6003 H   0  0  0  0  0  0  0  0  0  0  0  0
   -0.0081    2.8939   -0.0246 C   0  0  0  0  0  0  0  0  0  0  0  0
    0.6416    3.2154    0.6658 H   0  0  0  0  0  0  0  0  0  0  0  0
   -0.9289    3.1997    0.2217 H   0  0  0  0  0  0  0  0  0  0  0  0
    0.2537    3.3734   -0.9679 H   0  0  0  0  0  0  0  0  0  0  0  0
    0.0021    1.3990   -0.0076 C   0  0  0  0  0  0  0  0  0  0  0  0
   -1.1983    0.6924   -0.0084 C   0  0  0  0  0  0  0  0  0  0  0  0
   -2.0638    1.1943   -0.0161 H   0  0  0  0  0  0  0  0  0  0  0  0
   -1.2192   -0.6920   -0.0000 C   0  0  0  0  0  0  0  0  0  0  0  0
   -2.0883   -1.1861   -0.0107 H   0  0  0  0  0  0  0  0  0  0  0  0
   -0.0069   -1.3906    0.0257 C   0  0  0  0  0  0  0  0  0  0  0  0
   -0.0119   -2.3902    0.0610 H   0  0  0  0  0  0  0  0  0  0  0  0
    1.2192   -0.7005   -0.0000 C   0  0  0  0  0  0  0  0  0  0  0  0
    2.0844   -1.2020   -0.0094 H   0  0  0  0  0  0  0  0  0  0  0  0
    1.2030    0.6918   -0.0097 C   0  0  0  0  0  0  0  0  0  0  0  0
    2.0692    1.1940   -0.0192 H   0  0  0  0  0  0  0  0  0  0  0  0
  1  5  1  0
  5  8  1  0
  1  2  1  0
  1  3  1  0
  1  4  1  0
  5  6  1  0
  5  7  1  0
  8  9  1  0
  8 10  1  0
  8 11  1  0
 12 16  1  0
 16 17  2  0
 17 19  1  0
 19 21  2  0
 21 23  1  0
 23 25  2  0
 25 16  1  0
 12 13  1  0
 12 14  1  0
 12 15  1  0
 17 18  1  0
 19 20  1  0
 21 22  1  0
 23 24  1  0
 25 26  1  0
M  CHG  1   8   1
M  END
>  <PDB_ID>  (87) 
pdb4ldg

>  <RESIDUE_NAME>  (87) 
LYS   PHE

>  <FRAG_NAME>  (87) 
ETAM   MBZ

>  <FRAG_ATOM_NUM>  (87) 
fragi: 11  fragj: 15

>  <atom.prop.CHAIN_ID>  (87) 
A A A A A A A A A A A Z Z Z Z Z Z Z Z Z Z Z Z Z Z Z

>  <atom.prop.IS_HEAVY_ATOM>  (87) 
1 0 0 0 1 0 0 1 0 0 0 1 0 0 0 1 1 0 1 0 1 0 1 0 1 0

>  <DIFUSE_FUNC_ATOM>  (87) 
n/a

>  <FINAL_SINGLE_POINT_ENERGY>  (87) 
0

>  <NONCOV_INTER_ENERGY_QM>  (87) 
0

>  <FF_Energy>  (87) 
6.92

>  <QM_Energy>  (87) 
-4.1

>  <source>  (87) 
ETAM_MBZ

>  <Index>  (87) 
23337

$$$$
ETAM-pdb3nx3-B-LYS-123:MBZ-pdb3nx3-B-PHE-118
     RDKit          3D

 26 25  0  0  0  0  0  0  0  0999 V2000
   -4.3613   -0.0104   -0.3856 C   0  0  0  0  0  0  0  0  0  0  0  0
   -4.1679    0.9581   -0.5258 H   0  0  0  0  0  0  0  0  0  0  0  0
   -3.5795   -0.4538    0.0469 H   0  0  0  0  0  0  0  0  0  0  0  0
   -5.2275   -0.1053    0.2692 H   0  0  0  0  0  0  0  0  0  0  0  0
   -4.5894   -0.6581   -1.7496 C   0  0  0  0  0  0  0  0  0  0  0  0
   -5.4773   -0.3445   -2.1115 H   0  0  0  0  0  0  0  0  0  0  0  0
   -3.8672   -0.3452   -2.3802 H   0  0  0  0  0  0  0  0  0  0  0  0
   -4.5823   -2.1485   -1.7034 N   0  0  0  0  0  4  0  0  0  0  0  0
   -5.2862   -2.4626   -1.0666 H   0  0  0  0  0  0  0  0  0  0  0  0
   -4.7707   -2.5081   -2.6166 H   0  0  0  0  0  0  0  0  0  0  0  0
   -3.6861   -2.4653   -1.3969 H   0  0  0  0  0  0  0  0  0  0  0  0
   -0.0033    2.8905    0.0014 C   0  0  0  0  0  0  0  0  0  0  0  0
   -0.7480    3.1994   -0.5692 H   0  0  0  0  0  0  0  0  0  0  0  0
    0.8692    3.2021   -0.3427 H   0  0  0  0  0  0  0  0  0  0  0  0
   -0.1431    3.3238    0.9917 H   0  0  0  0  0  0  0  0  0  0  0  0
   -0.0003    1.3929   -0.0026 C   0  0  0  0  0  0  0  0  0  0  0  0
   -1.1912    0.6893    0.0022 C   0  0  0  0  0  0  0  0  0  0  0  0
   -2.0595    1.1821    0.0063 H   0  0  0  0  0  0  0  0  0  0  0  0
   -1.1960   -0.6919    0.0000 C   0  0  0  0  0  0  0  0  0  0  0  0
   -2.0744   -1.1876   -0.0011 H   0  0  0  0  0  0  0  0  0  0  0  0
   -0.0005   -1.3853    0.0009 C   0  0  0  0  0  0  0  0  0  0  0  0
   -0.0048   -2.3869    0.0018 H   0  0  0  0  0  0  0  0  0  0  0  0
    1.1960   -0.6939   -0.0000 C   0  0  0  0  0  0  0  0  0  0  0  0
    2.0787   -1.1941    0.0012 H   0  0  0  0  0  0  0  0  0  0  0  0
    1.1921    0.6889   -0.0004 C   0  0  0  0  0  0  0  0  0  0  0  0
    2.0614    1.1869    0.0002 H   0  0  0  0  0  0  0  0  0  0  0  0
  1  5  1  0
  5  8  1  0
  1  2  1  0
  1  3  1  0
  1  4  1  0
  5  6  1  0
  5  7  1  0
  8  9  1  0
  8 10  1  0
  8 11  1  0
 12 16  1  0
 16 17  2  0
 17 19  1  0
 19 21  2  0
 21 23  1  0
 23 25  2  0
 25 16  1  0
 12 13  1  0
 12 14  1  0
 12 15  1  0
 17 18  1  0
 19 20  1  0
 21 22  1  0
 23 24  1  0
 25 26  1  0
M  CHG  1   8   1
M  END
>  <PDB_ID>  (88) 
pdb3nx3

>  <RESIDUE_NAME>  (88) 
LYS   PHE

>  <FRAG_NAME>  (88) 
ETAM   MBZ

>  <FRAG_ATOM_NUM>  (88) 
fragi: 11  fragj: 15

>  <atom.prop.CHAIN_ID>  (88) 
A A A A A A A A A A A Z Z Z Z Z Z Z Z Z Z Z Z Z Z Z

>  <atom.prop.IS_HEAVY_ATOM>  (88) 
1 0 0 0 1 0 0 1 0 0 0 1 0 0 0 1 1 0 1 0 1 0 1 0 1 0

>  <DIFUSE_FUNC_ATOM>  (88) 
n/a

>  <FINAL_SINGLE_POINT_ENERGY>  (88) 
0

>  <NONCOV_INTER_ENERGY_QM>  (88) 
0

>  <FF_Energy>  (88) 
11.44

>  <QM_Energy>  (88) 
-0.18

>  <source>  (88) 
ETAM_MBZ

>  <Index>  (88) 
23421

$$$$
ETAM-pdb3o9z-B-LYS-22:MBZ-pdb3o9z-B-PHE-44
     RDKit          3D

 26 25  0  0  0  0  0  0  0  0999 V2000
   -5.1805    1.1889   -1.5908 C   0  0  0  0  0  0  0  0  0  0  0  0
   -5.7256    0.6273   -2.1945 H   0  0  0  0  0  0  0  0  0  0  0  0
   -4.5056    1.7079   -2.0920 H   0  0  0  0  0  0  0  0  0  0  0  0
   -5.8377    1.8794   -1.0622 H   0  0  0  0  0  0  0  0  0  0  0  0
   -4.4561    0.2772   -0.5982 C   0  0  0  0  0  0  0  0  0  0  0  0
   -3.5244    0.6608   -0.4300 H   0  0  0  0  0  0  0  0  0  0  0  0
   -4.9465    0.3207    0.2963 H   0  0  0  0  0  0  0  0  0  0  0  0
   -4.3165   -1.1602   -0.9955 N   0  0  0  0  0  4  0  0  0  0  0  0
   -4.0478   -1.2090   -1.9554 H   0  0  0  0  0  0  0  0  0  0  0  0
   -3.6186   -1.5902   -0.4261 H   0  0  0  0  0  0  0  0  0  0  0  0
   -5.1921   -1.6219   -0.8652 H   0  0  0  0  0  0  0  0  0  0  0  0
   -0.0034    2.9192    0.0410 C   0  0  0  0  0  0  0  0  0  0  0  0
    0.7879    3.2099    0.5620 H   0  0  0  0  0  0  0  0  0  0  0  0
   -0.8443    3.1900    0.4905 H   0  0  0  0  0  0  0  0  0  0  0  0
    0.0332    3.4191   -0.9268 H   0  0  0  0  0  0  0  0  0  0  0  0
    0.0178    1.4046   -0.0241 C   0  0  0  0  0  0  0  0  0  0  0  0
   -1.1953    0.7123    0.0115 C   0  0  0  0  0  0  0  0  0  0  0  0
   -2.0505    1.2115    0.0441 H   0  0  0  0  0  0  0  0  0  0  0  0
   -1.2133   -0.6843    0.0000 C   0  0  0  0  0  0  0  0  0  0  0  0
   -2.1001   -1.1644    0.0060 H   0  0  0  0  0  0  0  0  0  0  0  0
   -0.0239   -1.4035   -0.0177 C   0  0  0  0  0  0  0  0  0  0  0  0
   -0.0310   -2.3950   -0.0426 H   0  0  0  0  0  0  0  0  0  0  0  0
    1.2133   -0.7108   -0.0000 C   0  0  0  0  0  0  0  0  0  0  0  0
    2.0740   -1.2175   -0.0074 H   0  0  0  0  0  0  0  0  0  0  0  0
    1.2014    0.6818    0.0303 C   0  0  0  0  0  0  0  0  0  0  0  0
    2.0771    1.1757    0.0924 H   0  0  0  0  0  0  0  0  0  0  0  0
  1  5  1  0
  5  8  1  0
  1  2  1  0
  1  3  1  0
  1  4  1  0
  5  6  1  0
  5  7  1  0
  8  9  1  0
  8 10  1  0
  8 11  1  0
 12 16  1  0
 16 17  2  0
 17 19  1  0
 19 21  2  0
 21 23  1  0
 23 25  2  0
 25 16  1  0
 12 13  1  0
 12 14  1  0
 12 15  1  0
 17 18  1  0
 19 20  1  0
 21 22  1  0
 23 24  1  0
 25 26  1  0
M  CHG  1   8   1
M  END
>  <PDB_ID>  (89) 
pdb3o9z

>  <RESIDUE_NAME>  (89) 
LYS   PHE

>  <FRAG_NAME>  (89) 
ETAM   MBZ

>  <FRAG_ATOM_NUM>  (89) 
fragi: 11  fragj: 15

>  <atom.prop.CHAIN_ID>  (89) 
A A A A A A A A A A A Z Z Z Z Z Z Z Z Z Z Z Z Z Z Z

>  <atom.prop.IS_HEAVY_ATOM>  (89) 
1 0 0 0 1 0 0 1 0 0 0 1 0 0 0 1 1 0 1 0 1 0 1 0 1 0

>  <DIFUSE_FUNC_ATOM>  (89) 
n/a

>  <FINAL_SINGLE_POINT_ENERGY>  (89) 
0

>  <NONCOV_INTER_ENERGY_QM>  (89) 
0

>  <FF_Energy>  (89) 
17.06

>  <QM_Energy>  (89) 
-0.01

>  <source>  (89) 
ETAM_MBZ

>  <Index>  (89) 
23678

$$$$
ETAM-pdb4m66-B-LYS-51:MBZ-pdb4m66-B-PHE-33
     RDKit          3D

 26 25  0  0  0  0  0  0  0  0999 V2000
    5.3663    0.9373    1.1735 C   0  0  0  0  0  0  0  0  0  0  0  0
    5.0711    0.0248    1.4474 H   0  0  0  0  0  0  0  0  0  0  0  0
    5.9716    1.3222    1.8655 H   0  0  0  0  0  0  0  0  0  0  0  0
    5.9149    0.8588    0.2349 H   0  0  0  0  0  0  0  0  0  0  0  0
    4.1441    1.8269    1.0458 C   0  0  0  0  0  0  0  0  0  0  0  0
    4.4321    2.7386    0.7449 H   0  0  0  0  0  0  0  0  0  0  0  0
    3.5248    1.4365    0.3615 H   0  0  0  0  0  0  0  0  0  0  0  0
    3.4200    1.9486    2.3440 N   0  0  0  0  0  4  0  0  0  0  0  0
    3.9576    1.5123    3.0641 H   0  0  0  0  0  0  0  0  0  0  0  0
    3.2910    2.9149    2.5604 H   0  0  0  0  0  0  0  0  0  0  0  0
    2.5310    1.4992    2.2694 H   0  0  0  0  0  0  0  0  0  0  0  0
    0.0058    2.9072    0.0048 C   0  0  0  0  0  0  0  0  0  0  0  0
    0.8877    3.2054    0.3370 H   0  0  0  0  0  0  0  0  0  0  0  0
   -0.7247    3.2105    0.5983 H   0  0  0  0  0  0  0  0  0  0  0  0
   -0.1516    3.3587   -0.9748 H   0  0  0  0  0  0  0  0  0  0  0  0
   -0.0004    1.3971   -0.0052 C   0  0  0  0  0  0  0  0  0  0  0  0
   -1.1919    0.6939    0.0037 C   0  0  0  0  0  0  0  0  0  0  0  0
   -2.0600    1.1848    0.0113 H   0  0  0  0  0  0  0  0  0  0  0  0
   -1.1946   -0.6894    0.0000 C   0  0  0  0  0  0  0  0  0  0  0  0
   -2.0726   -1.1872    0.0017 H   0  0  0  0  0  0  0  0  0  0  0  0
    0.0051   -1.3894   -0.0043 C   0  0  0  0  0  0  0  0  0  0  0  0
   -0.0049   -2.3880   -0.0109 H   0  0  0  0  0  0  0  0  0  0  0  0
    1.1946   -0.6973    0.0000 C   0  0  0  0  0  0  0  0  0  0  0  0
    2.0807   -1.1931    0.0010 H   0  0  0  0  0  0  0  0  0  0  0  0
    1.1872    0.6850    0.0057 C   0  0  0  0  0  0  0  0  0  0  0  0
    2.0604    1.1838    0.0172 H   0  0  0  0  0  0  0  0  0  0  0  0
  1  5  1  0
  5  8  1  0
  1  2  1  0
  1  3  1  0
  1  4  1  0
  5  6  1  0
  5  7  1  0
  8  9  1  0
  8 10  1  0
  8 11  1  0
 12 16  1  0
 16 17  2  0
 17 19  1  0
 19 21  2  0
 21 23  1  0
 23 25  2  0
 25 16  1  0
 12 13  1  0
 12 14  1  0
 12 15  1  0
 17 18  1  0
 19 20  1  0
 21 22  1  0
 23 24  1  0
 25 26  1  0
M  CHG  1   8   1
M  END
>  <PDB_ID>  (90) 
pdb4m66

>  <RESIDUE_NAME>  (90) 
LYS   PHE

>  <FRAG_NAME>  (90) 
ETAM   MBZ

>  <FRAG_ATOM_NUM>  (90) 
fragi: 11  fragj: 15

>  <atom.prop.CHAIN_ID>  (90) 
A A A A A A A A A A A Z Z Z Z Z Z Z Z Z Z Z Z Z Z Z

>  <atom.prop.IS_HEAVY_ATOM>  (90) 
1 0 0 0 1 0 0 1 0 0 0 1 0 0 0 1 1 0 1 0 1 0 1 0 1 0

>  <DIFUSE_FUNC_ATOM>  (90) 
n/a

>  <FINAL_SINGLE_POINT_ENERGY>  (90) 
0

>  <NONCOV_INTER_ENERGY_QM>  (90) 
0

>  <FF_Energy>  (90) 
29.2

>  <QM_Energy>  (90) 
-2.12

>  <source>  (90) 
ETAM_MBZ

>  <Index>  (90) 
23841

$$$$
ETAM-pdb4mdh-A-LYS-311:MBZ-pdb4mdh-A-PHE-307
     RDKit          3D

 26 25  0  0  0  0  0  0  0  0999 V2000
   -1.6795   -2.3241   -3.8006 C   0  0  0  0  0  0  0  0  0  0  0  0
   -2.5944   -2.3683   -3.4088 H   0  0  0  0  0  0  0  0  0  0  0  0
   -1.5582   -3.0521   -4.4696 H   0  0  0  0  0  0  0  0  0  0  0  0
   -1.5509   -1.3613   -4.2949 H   0  0  0  0  0  0  0  0  0  0  0  0
   -0.6638   -2.5332   -2.6741 C   0  0  0  0  0  0  0  0  0  0  0  0
    0.1511   -1.9559   -2.8698 H   0  0  0  0  0  0  0  0  0  0  0  0
   -1.0701   -2.1807   -1.8102 H   0  0  0  0  0  0  0  0  0  0  0  0
   -0.2299   -3.9342   -2.4702 N   0  0  0  0  0  4  0  0  0  0  0  0
    0.7638   -3.9947   -2.5672 H   0  0  0  0  0  0  0  0  0  0  0  0
   -0.4930   -4.2368   -1.5530 H   0  0  0  0  0  0  0  0  0  0  0  0
   -0.6659   -4.5234   -3.1519 H   0  0  0  0  0  0  0  0  0  0  0  0
   -0.0400    2.9215    0.0741 C   0  0  0  0  0  0  0  0  0  0  0  0
    0.7719    3.2127    0.5523 H   0  0  0  0  0  0  0  0  0  0  0  0
   -0.8604    3.1868    0.5536 H   0  0  0  0  0  0  0  0  0  0  0  0
   -0.0490    3.4107   -0.8999 H   0  0  0  0  0  0  0  0  0  0  0  0
   -0.0161    1.4129   -0.0057 C   0  0  0  0  0  0  0  0  0  0  0  0
   -1.1954    0.6687    0.0050 C   0  0  0  0  0  0  0  0  0  0  0  0
   -2.0776    1.1544    0.0159 H   0  0  0  0  0  0  0  0  0  0  0  0
   -1.2040   -0.7233    0.0000 C   0  0  0  0  0  0  0  0  0  0  0  0
   -2.0662   -1.2217    0.0006 H   0  0  0  0  0  0  0  0  0  0  0  0
    0.0176   -1.4040   -0.0041 C   0  0  0  0  0  0  0  0  0  0  0  0
    0.0328   -2.3963   -0.0106 H   0  0  0  0  0  0  0  0  0  0  0  0
    1.2040   -0.6734    0.0000 C   0  0  0  0  0  0  0  0  0  0  0  0
    2.0993   -1.1627    0.0008 H   0  0  0  0  0  0  0  0  0  0  0  0
    1.1939    0.7191    0.0047 C   0  0  0  0  0  0  0  0  0  0  0  0
    2.0527    1.2218    0.0154 H   0  0  0  0  0  0  0  0  0  0  0  0
  1  5  1  0
  5  8  1  0
  1  2  1  0
  1  3  1  0
  1  4  1  0
  5  6  1  0
  5  7  1  0
  8  9  1  0
  8 10  1  0
  8 11  1  0
 12 16  1  0
 16 17  2  0
 17 19  1  0
 19 21  2  0
 21 23  1  0
 23 25  2  0
 25 16  1  0
 12 13  1  0
 12 14  1  0
 12 15  1  0
 17 18  1  0
 19 20  1  0
 21 22  1  0
 23 24  1  0
 25 26  1  0
M  CHG  1   8   1
M  END
>  <PDB_ID>  (91) 
pdb4mdh

>  <RESIDUE_NAME>  (91) 
LYS   PHE

>  <FRAG_NAME>  (91) 
ETAM   MBZ

>  <FRAG_ATOM_NUM>  (91) 
fragi: 11  fragj: 15

>  <atom.prop.CHAIN_ID>  (91) 
A A A A A A A A A A A Z Z Z Z Z Z Z Z Z Z Z Z Z Z Z

>  <atom.prop.IS_HEAVY_ATOM>  (91) 
1 0 0 0 1 0 0 1 0 0 0 1 0 0 0 1 1 0 1 0 1 0 1 0 1 0

>  <DIFUSE_FUNC_ATOM>  (91) 
n/a

>  <FINAL_SINGLE_POINT_ENERGY>  (91) 
0

>  <NONCOV_INTER_ENERGY_QM>  (91) 
0

>  <FF_Energy>  (91) 
7.53

>  <QM_Energy>  (91) 
-2.5

>  <source>  (91) 
ETAM_MBZ

>  <Index>  (91) 
23946

$$$$
ETAM-pdb4mdh-B-LYS-141:MBZ-pdb4mdh-B-PHE-327
     RDKit          3D

 26 25  0  0  0  0  0  0  0  0999 V2000
   -0.7377   -2.7755    2.7656 C   0  0  0  0  0  0  0  0  0  0  0  0
   -1.0757   -2.9858    1.8522 H   0  0  0  0  0  0  0  0  0  0  0  0
   -1.2469   -2.0099    3.1499 H   0  0  0  0  0  0  0  0  0  0  0  0
   -0.8839   -3.6484    3.4019 H   0  0  0  0  0  0  0  0  0  0  0  0
    0.7364   -2.3684    2.6539 C   0  0  0  0  0  0  0  0  0  0  0  0
    1.2585   -2.8704    3.3606 H   0  0  0  0  0  0  0  0  0  0  0  0
    1.0799   -2.6680    1.7505 H   0  0  0  0  0  0  0  0  0  0  0  0
    0.9687   -0.9156    2.8113 N   0  0  0  0  0  4  0  0  0  0  0  0
    0.4158   -0.4130    2.1445 H   0  0  0  0  0  0  0  0  0  0  0  0
    0.7115   -0.6323    3.7369 H   0  0  0  0  0  0  0  0  0  0  0  0
    1.9372   -0.7118    2.6591 H   0  0  0  0  0  0  0  0  0  0  0  0
   -0.0871    2.9431    0.1011 C   0  0  0  0  0  0  0  0  0  0  0  0
    0.7004    3.2898   -0.3484 H   0  0  0  0  0  0  0  0  0  0  0  0
   -0.1595    3.1968    1.0360 H   0  0  0  0  0  0  0  0  0  0  0  0
   -0.9725    3.3004   -0.4248 H   0  0  0  0  0  0  0  0  0  0  0  0
   -0.0206    1.4188    0.0393 C   0  0  0  0  0  0  0  0  0  0  0  0
   -1.1882    0.6537    0.0163 C   0  0  0  0  0  0  0  0  0  0  0  0
   -2.0810    1.1374    0.0101 H   0  0  0  0  0  0  0  0  0  0  0  0
   -1.2018   -0.7400   -0.0000 C   0  0  0  0  0  0  0  0  0  0  0  0
   -2.0586   -1.2363    0.0317 H   0  0  0  0  0  0  0  0  0  0  0  0
    0.0208   -1.4011   -0.0588 C   0  0  0  0  0  0  0  0  0  0  0  0
    0.0503   -2.3916   -0.1427 H   0  0  0  0  0  0  0  0  0  0  0  0
    1.2018   -0.6618   -0.0000 C   0  0  0  0  0  0  0  0  0  0  0  0
    2.0991   -1.1481    0.0427 H   0  0  0  0  0  0  0  0  0  0  0  0
    1.1880    0.7303    0.0032 C   0  0  0  0  0  0  0  0  0  0  0  0
    2.0456    1.2344   -0.0213 H   0  0  0  0  0  0  0  0  0  0  0  0
  1  5  1  0
  5  8  1  0
  1  2  1  0
  1  3  1  0
  1  4  1  0
  5  6  1  0
  5  7  1  0
  8  9  1  0
  8 10  1  0
  8 11  1  0
 12 16  1  0
 16 17  2  0
 17 19  1  0
 19 21  2  0
 21 23  1  0
 23 25  2  0
 25 16  1  0
 12 13  1  0
 12 14  1  0
 12 15  1  0
 17 18  1  0
 19 20  1  0
 21 22  1  0
 23 24  1  0
 25 26  1  0
M  CHG  1   8   1
M  END
>  <PDB_ID>  (92) 
pdb4mdh

>  <RESIDUE_NAME>  (92) 
LYS   PHE

>  <FRAG_NAME>  (92) 
ETAM   MBZ

>  <FRAG_ATOM_NUM>  (92) 
fragi: 11  fragj: 15

>  <atom.prop.CHAIN_ID>  (92) 
A A A A A A A A A A A Z Z Z Z Z Z Z Z Z Z Z Z Z Z Z

>  <atom.prop.IS_HEAVY_ATOM>  (92) 
1 0 0 0 1 0 0 1 0 0 0 1 0 0 0 1 1 0 1 0 1 0 1 0 1 0

>  <DIFUSE_FUNC_ATOM>  (92) 
n/a

>  <FINAL_SINGLE_POINT_ENERGY>  (92) 
0

>  <NONCOV_INTER_ENERGY_QM>  (92) 
0

>  <FF_Energy>  (92) 
-0.34

>  <QM_Energy>  (92) 
-12.87

>  <source>  (92) 
ETAM_MBZ

>  <Index>  (92) 
23948

$$$$
ETAM-pdb3op1-A-LYS-243:MBZ-pdb3op1-A-PHE-247
     RDKit          3D

 26 25  0  0  0  0  0  0  0  0999 V2000
   -1.4517   -3.8654    1.9406 C   0  0  0  0  0  0  0  0  0  0  0  0
   -1.7981   -4.5920    2.5236 H   0  0  0  0  0  0  0  0  0  0  0  0
   -2.0271   -3.0589    2.0080 H   0  0  0  0  0  0  0  0  0  0  0  0
   -0.4417   -3.6081    2.2597 H   0  0  0  0  0  0  0  0  0  0  0  0
   -1.4642   -4.3506    0.5002 C   0  0  0  0  0  0  0  0  0  0  0  0
   -0.6747   -3.9569    0.0176 H   0  0  0  0  0  0  0  0  0  0  0  0
   -1.3762   -5.3520    0.4935 H   0  0  0  0  0  0  0  0  0  0  0  0
   -2.7129   -3.9659   -0.2120 N   0  0  0  0  0  4  0  0  0  0  0  0
   -2.6503   -3.0105   -0.4991 H   0  0  0  0  0  0  0  0  0  0  0  0
   -2.8297   -4.5490   -1.0149 H   0  0  0  0  0  0  0  0  0  0  0  0
   -3.4939   -4.0805    0.4017 H   0  0  0  0  0  0  0  0  0  0  0  0
    0.0008    2.8829   -0.0017 C   0  0  0  0  0  0  0  0  0  0  0  0
   -0.8560    3.1917   -0.3901 H   0  0  0  0  0  0  0  0  0  0  0  0
    0.7700    3.1891   -0.5463 H   0  0  0  0  0  0  0  0  0  0  0  0
    0.0965    3.3268    0.9893 H   0  0  0  0  0  0  0  0  0  0  0  0
   -0.0009    1.3874    0.0010 C   0  0  0  0  0  0  0  0  0  0  0  0
   -1.1866    0.6867   -0.0034 C   0  0  0  0  0  0  0  0  0  0  0  0
   -2.0562    1.1803   -0.0103 H   0  0  0  0  0  0  0  0  0  0  0  0
   -1.1877   -0.6858   -0.0000 C   0  0  0  0  0  0  0  0  0  0  0  0
   -2.0679   -1.1854    0.0026 H   0  0  0  0  0  0  0  0  0  0  0  0
    0.0015   -1.3759    0.0020 C   0  0  0  0  0  0  0  0  0  0  0  0
   -0.0072   -2.3808    0.0046 H   0  0  0  0  0  0  0  0  0  0  0  0
    1.1877   -0.6935   -0.0000 C   0  0  0  0  0  0  0  0  0  0  0  0
    2.0735   -1.1946   -0.0006 H   0  0  0  0  0  0  0  0  0  0  0  0
    1.1861    0.6812    0.0004 C   0  0  0  0  0  0  0  0  0  0  0  0
    2.0576    1.1808   -0.0004 H   0  0  0  0  0  0  0  0  0  0  0  0
  1  5  1  0
  5  8  1  0
  1  2  1  0
  1  3  1  0
  1  4  1  0
  5  6  1  0
  5  7  1  0
  8  9  1  0
  8 10  1  0
  8 11  1  0
 12 16  1  0
 16 17  2  0
 17 19  1  0
 19 21  2  0
 21 23  1  0
 23 25  2  0
 25 16  1  0
 12 13  1  0
 12 14  1  0
 12 15  1  0
 17 18  1  0
 19 20  1  0
 21 22  1  0
 23 24  1  0
 25 26  1  0
M  CHG  1   8   1
M  END
>  <PDB_ID>  (93) 
pdb3op1

>  <RESIDUE_NAME>  (93) 
LYS   PHE

>  <FRAG_NAME>  (93) 
ETAM   MBZ

>  <FRAG_ATOM_NUM>  (93) 
fragi: 11  fragj: 15

>  <atom.prop.CHAIN_ID>  (93) 
A A A A A A A A A A A Z Z Z Z Z Z Z Z Z Z Z Z Z Z Z

>  <atom.prop.IS_HEAVY_ATOM>  (93) 
1 0 0 0 1 0 0 1 0 0 0 1 0 0 0 1 1 0 1 0 1 0 1 0 1 0

>  <DIFUSE_FUNC_ATOM>  (93) 
n/a

>  <FINAL_SINGLE_POINT_ENERGY>  (93) 
0

>  <NONCOV_INTER_ENERGY_QM>  (93) 
0

>  <FF_Energy>  (93) 
9.11

>  <QM_Energy>  (93) 
-2.76

>  <source>  (93) 
ETAM_MBZ

>  <Index>  (93) 
24031

$$$$
ETAM-pdb3p0k-A-LYS-12:MBZ-pdb3p0k-A-PHE-8
     RDKit          3D

 26 25  0  0  0  0  0  0  0  0999 V2000
   -0.0243   -2.6563    4.1215 C   0  0  0  0  0  0  0  0  0  0  0  0
    0.3106   -3.5904    4.1322 H   0  0  0  0  0  0  0  0  0  0  0  0
   -1.0066   -2.6330    4.2561 H   0  0  0  0  0  0  0  0  0  0  0  0
    0.4569   -2.0986    4.9250 H   0  0  0  0  0  0  0  0  0  0  0  0
    0.2984   -2.0383    2.7765 C   0  0  0  0  0  0  0  0  0  0  0  0
   -0.2172   -2.5124    2.0650 H   0  0  0  0  0  0  0  0  0  0  0  0
    0.0415   -1.0725    2.7892 H   0  0  0  0  0  0  0  0  0  0  0  0
    1.7540   -2.1530    2.4844 N   0  0  0  0  0  4  0  0  0  0  0  0
    1.9637   -3.0903    2.2093 H   0  0  0  0  0  0  0  0  0  0  0  0
    1.9946   -1.5254    1.7445 H   0  0  0  0  0  0  0  0  0  0  0  0
    2.2764   -1.9193    3.3049 H   0  0  0  0  0  0  0  0  0  0  0  0
   -0.0061    2.9123   -0.0118 C   0  0  0  0  0  0  0  0  0  0  0  0
   -0.3553    3.2090   -0.8856 H   0  0  0  0  0  0  0  0  0  0  0  0
    0.9200    3.2209    0.1346 H   0  0  0  0  0  0  0  0  0  0  0  0
   -0.6319    3.3501    0.7658 H   0  0  0  0  0  0  0  0  0  0  0  0
   -0.0005    1.4049   -0.0004 C   0  0  0  0  0  0  0  0  0  0  0  0
   -1.1978    0.6934   -0.0007 C   0  0  0  0  0  0  0  0  0  0  0  0
   -2.0648    1.1828   -0.0022 H   0  0  0  0  0  0  0  0  0  0  0  0
   -1.2033   -0.7002   -0.0000 C   0  0  0  0  0  0  0  0  0  0  0  0
   -2.0783   -1.1938    0.0010 H   0  0  0  0  0  0  0  0  0  0  0  0
    0.0019   -1.3977    0.0006 C   0  0  0  0  0  0  0  0  0  0  0  0
   -0.0018   -2.3945    0.0010 H   0  0  0  0  0  0  0  0  0  0  0  0
    1.2033   -0.6981    0.0000 C   0  0  0  0  0  0  0  0  0  0  0  0
    2.0855   -1.1922    0.0011 H   0  0  0  0  0  0  0  0  0  0  0  0
    1.1964    0.6978    0.0005 C   0  0  0  0  0  0  0  0  0  0  0  0
    2.0652    1.1935    0.0007 H   0  0  0  0  0  0  0  0  0  0  0  0
  1  5  1  0
  5  8  1  0
  1  2  1  0
  1  3  1  0
  1  4  1  0
  5  6  1  0
  5  7  1  0
  8  9  1  0
  8 10  1  0
  8 11  1  0
 12 16  1  0
 16 17  2  0
 17 19  1  0
 19 21  2  0
 21 23  1  0
 23 25  2  0
 25 16  1  0
 12 13  1  0
 12 14  1  0
 12 15  1  0
 17 18  1  0
 19 20  1  0
 21 22  1  0
 23 24  1  0
 25 26  1  0
M  CHG  1   8   1
M  END
>  <PDB_ID>  (94) 
pdb3p0k

>  <RESIDUE_NAME>  (94) 
LYS   PHE

>  <FRAG_NAME>  (94) 
ETAM   MBZ

>  <FRAG_ATOM_NUM>  (94) 
fragi: 11  fragj: 15

>  <atom.prop.CHAIN_ID>  (94) 
A A A A A A A A A A A Z Z Z Z Z Z Z Z Z Z Z Z Z Z Z

>  <atom.prop.IS_HEAVY_ATOM>  (94) 
1 0 0 0 1 0 0 1 0 0 0 1 0 0 0 1 1 0 1 0 1 0 1 0 1 0

>  <DIFUSE_FUNC_ATOM>  (94) 
n/a

>  <FINAL_SINGLE_POINT_ENERGY>  (94) 
0

>  <NONCOV_INTER_ENERGY_QM>  (94) 
0

>  <FF_Energy>  (94) 
4.55

>  <QM_Energy>  (94) 
-6.67

>  <source>  (94) 
ETAM_MBZ

>  <Index>  (94) 
24267

$$$$
ETAM-pdb3p1v-B-LYS-401:MBZ-pdb3p1v-B-PHE-325
     RDKit          3D

 26 25  0  0  0  0  0  0  0  0999 V2000
    1.4007   -3.3008    3.5080 C   0  0  0  0  0  0  0  0  0  0  0  0
    2.3259   -3.1560    3.1297 H   0  0  0  0  0  0  0  0  0  0  0  0
    1.3611   -4.2386    3.8821 H   0  0  0  0  0  0  0  0  0  0  0  0
    1.2590   -2.6012    4.3318 H   0  0  0  0  0  0  0  0  0  0  0  0
    0.3954   -3.1819    2.3891 C   0  0  0  0  0  0  0  0  0  0  0  0
   -0.4802   -2.8692    2.7611 H   0  0  0  0  0  0  0  0  0  0  0  0
    0.7235   -2.5172    1.7161 H   0  0  0  0  0  0  0  0  0  0  0  0
    0.1870   -4.4974    1.7049 N   0  0  0  0  0  4  0  0  0  0  0  0
    0.5496   -4.4443    0.7763 H   0  0  0  0  0  0  0  0  0  0  0  0
    0.6645   -5.2101    2.2148 H   0  0  0  0  0  0  0  0  0  0  0  0
   -0.7896   -4.6996    1.6756 H   0  0  0  0  0  0  0  0  0  0  0  0
   -0.0096    2.8910   -0.0241 C   0  0  0  0  0  0  0  0  0  0  0  0
   -0.8198    3.1920   -0.5305 H   0  0  0  0  0  0  0  0  0  0  0  0
    0.8125    3.2049   -0.5029 H   0  0  0  0  0  0  0  0  0  0  0  0
   -0.0299    3.3964    0.9414 H   0  0  0  0  0  0  0  0  0  0  0  0
    0.0023    1.3994   -0.0072 C   0  0  0  0  0  0  0  0  0  0  0  0
   -1.1984    0.6933   -0.0082 C   0  0  0  0  0  0  0  0  0  0  0  0
   -2.0636    1.1941   -0.0163 H   0  0  0  0  0  0  0  0  0  0  0  0
   -1.2193   -0.6928    0.0000 C   0  0  0  0  0  0  0  0  0  0  0  0
   -2.0879   -1.1852   -0.0107 H   0  0  0  0  0  0  0  0  0  0  0  0
   -0.0070   -1.3906    0.0248 C   0  0  0  0  0  0  0  0  0  0  0  0
   -0.0115   -2.3897    0.0605 H   0  0  0  0  0  0  0  0  0  0  0  0
    1.2193   -0.7008   -0.0000 C   0  0  0  0  0  0  0  0  0  0  0  0
    2.0851   -1.2010   -0.0110 H   0  0  0  0  0  0  0  0  0  0  0  0
    1.2031    0.6916   -0.0095 C   0  0  0  0  0  0  0  0  0  0  0  0
    2.0692    1.1940   -0.0190 H   0  0  0  0  0  0  0  0  0  0  0  0
  1  5  1  0
  5  8  1  0
  1  2  1  0
  1  3  1  0
  1  4  1  0
  5  6  1  0
  5  7  1  0
  8  9  1  0
  8 10  1  0
  8 11  1  0
 12 16  1  0
 16 17  2  0
 17 19  1  0
 19 21  2  0
 21 23  1  0
 23 25  2  0
 25 16  1  0
 12 13  1  0
 12 14  1  0
 12 15  1  0
 17 18  1  0
 19 20  1  0
 21 22  1  0
 23 24  1  0
 25 26  1  0
M  CHG  1   8   1
M  END
>  <PDB_ID>  (95) 
pdb3p1v

>  <RESIDUE_NAME>  (95) 
LYS   PHE

>  <FRAG_NAME>  (95) 
ETAM   MBZ

>  <FRAG_ATOM_NUM>  (95) 
fragi: 11  fragj: 15

>  <atom.prop.CHAIN_ID>  (95) 
A A A A A A A A A A A Z Z Z Z Z Z Z Z Z Z Z Z Z Z Z

>  <atom.prop.IS_HEAVY_ATOM>  (95) 
1 0 0 0 1 0 0 1 0 0 0 1 0 0 0 1 1 0 1 0 1 0 1 0 1 0

>  <DIFUSE_FUNC_ATOM>  (95) 
n/a

>  <FINAL_SINGLE_POINT_ENERGY>  (95) 
0

>  <NONCOV_INTER_ENERGY_QM>  (95) 
0

>  <FF_Energy>  (95) 
13.44

>  <QM_Energy>  (95) 
-0.6

>  <source>  (95) 
ETAM_MBZ

>  <Index>  (95) 
24304

$$$$
ETAM-pdb4niq-A-LYS-59:MBZ-pdb4niq-C-PHE-198
     RDKit          3D

 26 25  0  0  0  0  0  0  0  0999 V2000
    0.0355    2.8015   -3.7846 C   0  0  0  0  0  0  0  0  0  0  0  0
    0.3101    2.9107   -4.7368 H   0  0  0  0  0  0  0  0  0  0  0  0
   -0.9533    2.8997   -3.7017 H   0  0  0  0  0  0  0  0  0  0  0  0
    0.3153    1.8007   -3.4556 H   0  0  0  0  0  0  0  0  0  0  0  0
    0.7033    3.8748   -2.9567 C   0  0  0  0  0  0  0  0  0  0  0  0
    0.4393    3.7643   -1.9966 H   0  0  0  0  0  0  0  0  0  0  0  0
    1.6982    3.7844   -3.0368 H   0  0  0  0  0  0  0  0  0  0  0  0
    0.3031    5.2390   -3.4156 N   0  0  0  0  0  4  0  0  0  0  0  0
    0.9028    5.5246   -4.1618 H   0  0  0  0  0  0  0  0  0  0  0  0
   -0.6428    5.2141   -3.7343 H   0  0  0  0  0  0  0  0  0  0  0  0
    0.3855    5.8796   -2.6534 H   0  0  0  0  0  0  0  0  0  0  0  0
    0.0041    2.8985    0.0112 C   0  0  0  0  0  0  0  0  0  0  0  0
   -0.8046    3.2102   -0.4616 H   0  0  0  0  0  0  0  0  0  0  0  0
    0.8283    3.2068   -0.4357 H   0  0  0  0  0  0  0  0  0  0  0  0
   -0.0109    3.3196    1.0165 H   0  0  0  0  0  0  0  0  0  0  0  0
    0.0012    1.3937   -0.0062 C   0  0  0  0  0  0  0  0  0  0  0  0
   -1.1922    0.6860   -0.0002 C   0  0  0  0  0  0  0  0  0  0  0  0
   -2.0596    1.1781    0.0023 H   0  0  0  0  0  0  0  0  0  0  0  0
   -1.1946   -0.6955   -0.0000 C   0  0  0  0  0  0  0  0  0  0  0  0
   -2.0707   -1.1936    0.0008 H   0  0  0  0  0  0  0  0  0  0  0  0
    0.0037   -1.3864    0.0010 C   0  0  0  0  0  0  0  0  0  0  0  0
    0.0023   -2.3865    0.0014 H   0  0  0  0  0  0  0  0  0  0  0  0
    1.1946   -0.6879    0.0000 C   0  0  0  0  0  0  0  0  0  0  0  0
    2.0804   -1.1866   -0.0030 H   0  0  0  0  0  0  0  0  0  0  0  0
    1.1873    0.6903    0.0054 C   0  0  0  0  0  0  0  0  0  0  0  0
    2.0595    1.1900    0.0166 H   0  0  0  0  0  0  0  0  0  0  0  0
  1  5  1  0
  5  8  1  0
  1  2  1  0
  1  3  1  0
  1  4  1  0
  5  6  1  0
  5  7  1  0
  8  9  1  0
  8 10  1  0
  8 11  1  0
 12 16  1  0
 16 17  2  0
 17 19  1  0
 19 21  2  0
 21 23  1  0
 23 25  2  0
 25 16  1  0
 12 13  1  0
 12 14  1  0
 12 15  1  0
 17 18  1  0
 19 20  1  0
 21 22  1  0
 23 24  1  0
 25 26  1  0
M  CHG  1   8   1
M  END
>  <PDB_ID>  (96) 
pdb4niq

>  <RESIDUE_NAME>  (96) 
LYS   PHE

>  <FRAG_NAME>  (96) 
ETAM   MBZ

>  <FRAG_ATOM_NUM>  (96) 
fragi: 11  fragj: 15

>  <atom.prop.CHAIN_ID>  (96) 
A A A A A A A A A A A Z Z Z Z Z Z Z Z Z Z Z Z Z Z Z

>  <atom.prop.IS_HEAVY_ATOM>  (96) 
1 0 0 0 1 0 0 1 0 0 0 1 0 0 0 1 1 0 1 0 1 0 1 0 1 0

>  <DIFUSE_FUNC_ATOM>  (96) 
n/a

>  <FINAL_SINGLE_POINT_ENERGY>  (96) 
0

>  <NONCOV_INTER_ENERGY_QM>  (96) 
0

>  <FF_Energy>  (96) 
11.19

>  <QM_Energy>  (96) 
-0.5

>  <source>  (96) 
ETAM_MBZ

>  <Index>  (96) 
24731

$$$$
ETAM-pdb3pqd-A-LYS-103:MBZ-pdb3pqd-A-PHE-135
     RDKit          3D

 26 25  0  0  0  0  0  0  0  0999 V2000
   -0.4758   -2.9076    2.7029 C   0  0  0  0  0  0  0  0  0  0  0  0
   -0.3673   -2.4590    1.8197 H   0  0  0  0  0  0  0  0  0  0  0  0
    0.1894   -3.6440    2.7956 H   0  0  0  0  0  0  0  0  0  0  0  0
   -0.2827   -2.1723    3.4840 H   0  0  0  0  0  0  0  0  0  0  0  0
   -1.8670   -3.4822    2.7994 C   0  0  0  0  0  0  0  0  0  0  0  0
   -2.1332   -3.8545    1.9102 H   0  0  0  0  0  0  0  0  0  0  0  0
   -1.8769   -4.2130    3.4831 H   0  0  0  0  0  0  0  0  0  0  0  0
   -2.8426   -2.4313    3.1980 N   0  0  0  0  0  4  0  0  0  0  0  0
   -3.4967   -2.2870    2.4557 H   0  0  0  0  0  0  0  0  0  0  0  0
   -3.3288   -2.7255    4.0204 H   0  0  0  0  0  0  0  0  0  0  0  0
   -2.3546   -1.5789    3.3840 H   0  0  0  0  0  0  0  0  0  0  0  0
   -0.0018    2.8875   -0.0081 C   0  0  0  0  0  0  0  0  0  0  0  0
    0.8192    3.1977   -0.4636 H   0  0  0  0  0  0  0  0  0  0  0  0
   -0.0346    3.2030    0.9279 H   0  0  0  0  0  0  0  0  0  0  0  0
   -0.8546    3.3183   -0.5328 H   0  0  0  0  0  0  0  0  0  0  0  0
    0.0021    1.3945    0.0000 C   0  0  0  0  0  0  0  0  0  0  0  0
   -1.1921    0.6928   -0.0006 C   0  0  0  0  0  0  0  0  0  0  0  0
   -2.0586    1.1822   -0.0026 H   0  0  0  0  0  0  0  0  0  0  0  0
   -1.1966   -0.6978   -0.0000 C   0  0  0  0  0  0  0  0  0  0  0  0
   -2.0763   -1.1889    0.0016 H   0  0  0  0  0  0  0  0  0  0  0  0
   -0.0036   -1.3865    0.0003 C   0  0  0  0  0  0  0  0  0  0  0  0
   -0.0021   -2.3882    0.0005 H   0  0  0  0  0  0  0  0  0  0  0  0
    1.1966   -0.6920    0.0000 C   0  0  0  0  0  0  0  0  0  0  0  0
    2.0772   -1.1941    0.0011 H   0  0  0  0  0  0  0  0  0  0  0  0
    1.1935    0.6891    0.0002 C   0  0  0  0  0  0  0  0  0  0  0  0
    2.0628    1.1876   -0.0008 H   0  0  0  0  0  0  0  0  0  0  0  0
  1  5  1  0
  5  8  1  0
  1  2  1  0
  1  3  1  0
  1  4  1  0
  5  6  1  0
  5  7  1  0
  8  9  1  0
  8 10  1  0
  8 11  1  0
 12 16  1  0
 16 17  2  0
 17 19  1  0
 19 21  2  0
 21 23  1  0
 23 25  2  0
 25 16  1  0
 12 13  1  0
 12 14  1  0
 12 15  1  0
 17 18  1  0
 19 20  1  0
 21 22  1  0
 23 24  1  0
 25 26  1  0
M  CHG  1   8   1
M  END
>  <PDB_ID>  (97) 
pdb3pqd

>  <RESIDUE_NAME>  (97) 
LYS   PHE

>  <FRAG_NAME>  (97) 
ETAM   MBZ

>  <FRAG_ATOM_NUM>  (97) 
fragi: 11  fragj: 15

>  <atom.prop.CHAIN_ID>  (97) 
A A A A A A A A A A A Z Z Z Z Z Z Z Z Z Z Z Z Z Z Z

>  <atom.prop.IS_HEAVY_ATOM>  (97) 
1 0 0 0 1 0 0 1 0 0 0 1 0 0 0 1 1 0 1 0 1 0 1 0 1 0

>  <DIFUSE_FUNC_ATOM>  (97) 
n/a

>  <FINAL_SINGLE_POINT_ENERGY>  (97) 
0

>  <NONCOV_INTER_ENERGY_QM>  (97) 
0

>  <FF_Energy>  (97) 
7.98

>  <QM_Energy>  (97) 
-2.33

>  <source>  (97) 
ETAM_MBZ

>  <Index>  (97) 
24783

$$$$
ETAM-pdb4o94-D-LYS-281:MBZ-pdb4o94-D-PHE-215
     RDKit          3D

 26 25  0  0  0  0  0  0  0  0999 V2000
    0.5928   -1.4723   -4.0858 C   0  0  0  0  0  0  0  0  0  0  0  0
    1.1515   -1.8387   -4.7892 H   0  0  0  0  0  0  0  0  0  0  0  0
    0.7861   -0.5286   -3.9699 H   0  0  0  0  0  0  0  0  0  0  0  0
   -0.4532   -1.5856   -4.3705 H   0  0  0  0  0  0  0  0  0  0  0  0
    0.9472   -2.1832   -2.7922 C   0  0  0  0  0  0  0  0  0  0  0  0
    0.5494   -1.6984   -2.0512 H   0  0  0  0  0  0  0  0  0  0  0  0
    0.5897   -3.0843   -2.8226 H   0  0  0  0  0  0  0  0  0  0  0  0
    2.4284   -2.2858   -2.5304 N   0  0  0  0  0  4  0  0  0  0  0  0
    2.5722   -2.7099   -1.7608 H   0  0  0  0  0  0  0  0  0  0  0  0
    2.8223   -2.7368   -3.1886 H   0  0  0  0  0  0  0  0  0  0  0  0
    2.7856   -1.4718   -2.4835 H   0  0  0  0  0  0  0  0  0  0  0  0
   -0.0151    2.8771    0.0384 C   0  0  0  0  0  0  0  0  0  0  0  0
   -0.6613    3.1991   -0.6084 H   0  0  0  0  0  0  0  0  0  0  0  0
    0.8723    3.1976   -0.1883 H   0  0  0  0  0  0  0  0  0  0  0  0
   -0.2858    3.2447    1.0281 H   0  0  0  0  0  0  0  0  0  0  0  0
   -0.0013    1.3921   -0.0203 C   0  0  0  0  0  0  0  0  0  0  0  0
   -1.1955    0.6874    0.0134 C   0  0  0  0  0  0  0  0  0  0  0  0
   -2.0021    1.1492    0.0135 H   0  0  0  0  0  0  0  0  0  0  0  0
   -1.1973   -0.6990   -0.0000 C   0  0  0  0  0  0  0  0  0  0  0  0
   -2.0016   -1.1652    0.0049 H   0  0  0  0  0  0  0  0  0  0  0  0
    0.0061   -1.3857    0.0060 C   0  0  0  0  0  0  0  0  0  0  0  0
    0.0115   -2.3155   -0.0067 H   0  0  0  0  0  0  0  0  0  0  0  0
    1.1973   -0.6880   -0.0000 C   0  0  0  0  0  0  0  0  0  0  0  0
    2.0060   -1.1477   -0.0059 H   0  0  0  0  0  0  0  0  0  0  0  0
    1.1907    0.6932    0.0009 C   0  0  0  0  0  0  0  0  0  0  0  0
    1.9965    1.1574    0.0019 H   0  0  0  0  0  0  0  0  0  0  0  0
  1  5  1  0
  5  8  1  0
  1  2  1  0
  1  3  1  0
  1  4  1  0
  5  6  1  0
  5  7  1  0
  8  9  1  0
  8 10  1  0
  8 11  1  0
 12 16  1  0
 16 17  2  0
 17 19  1  0
 19 21  2  0
 21 23  1  0
 23 25  2  0
 25 16  1  0
 12 13  1  0
 12 14  1  0
 12 15  1  0
 17 18  1  0
 19 20  1  0
 21 22  1  0
 23 24  1  0
 25 26  1  0
M  CHG  1   8   1
M  END
>  <PDB_ID>  (98) 
pdb4o94

>  <RESIDUE_NAME>  (98) 
LYS   PHE

>  <FRAG_NAME>  (98) 
ETAM   MBZ

>  <FRAG_ATOM_NUM>  (98) 
fragi: 11  fragj: 15

>  <atom.prop.CHAIN_ID>  (98) 
A A A A A A A A A A A Z Z Z Z Z Z Z Z Z Z Z Z Z Z Z

>  <atom.prop.IS_HEAVY_ATOM>  (98) 
1 0 0 0 1 0 0 1 0 0 0 1 0 0 0 1 1 0 1 0 1 0 1 0 1 0

>  <DIFUSE_FUNC_ATOM>  (98) 
n/a

>  <FINAL_SINGLE_POINT_ENERGY>  (98) 
0

>  <NONCOV_INTER_ENERGY_QM>  (98) 
0

>  <FF_Energy>  (98) 
9.25

>  <QM_Energy>  (98) 
-4.91

>  <source>  (98) 
ETAM_MBZ

>  <Index>  (98) 
25182

$$$$
ETAM-pdb3qkx-B-LYS-115:MBZ-pdb3qkx-A-PHE-164
     RDKit          3D

 26 25  0  0  0  0  0  0  0  0999 V2000
    3.0933    0.5049    2.5897 C   0  0  0  0  0  0  0  0  0  0  0  0
    3.7963   -0.0874    2.9831 H   0  0  0  0  0  0  0  0  0  0  0  0
    3.0119    1.3362    3.1380 H   0  0  0  0  0  0  0  0  0  0  0  0
    3.3948    0.7799    1.5790 H   0  0  0  0  0  0  0  0  0  0  0  0
    1.7692   -0.2269    2.6198 C   0  0  0  0  0  0  0  0  0  0  0  0
    1.0611    0.3620    2.2304 H   0  0  0  0  0  0  0  0  0  0  0  0
    1.8438   -1.0627    2.0761 H   0  0  0  0  0  0  0  0  0  0  0  0
    1.4001   -0.5815    4.0133 N   0  0  0  0  0  4  0  0  0  0  0  0
    0.7031   -1.2987    4.0013 H   0  0  0  0  0  0  0  0  0  0  0  0
    2.2099   -0.9113    4.4984 H   0  0  0  0  0  0  0  0  0  0  0  0
    1.0390    0.2263    4.4784 H   0  0  0  0  0  0  0  0  0  0  0  0
   -0.0094    2.8913   -0.0251 C   0  0  0  0  0  0  0  0  0  0  0  0
   -0.8258    3.1967   -0.5076 H   0  0  0  0  0  0  0  0  0  0  0  0
    0.8073    3.2082   -0.4988 H   0  0  0  0  0  0  0  0  0  0  0  0
   -0.0176    3.3771    0.9506 H   0  0  0  0  0  0  0  0  0  0  0  0
    0.0019    1.4000   -0.0073 C   0  0  0  0  0  0  0  0  0  0  0  0
   -1.1985    0.6917   -0.0084 C   0  0  0  0  0  0  0  0  0  0  0  0
   -2.0643    1.1929   -0.0168 H   0  0  0  0  0  0  0  0  0  0  0  0
   -1.2189   -0.6932   -0.0000 C   0  0  0  0  0  0  0  0  0  0  0  0
   -2.0881   -1.1872   -0.0104 H   0  0  0  0  0  0  0  0  0  0  0  0
   -0.0061   -1.3903    0.0255 C   0  0  0  0  0  0  0  0  0  0  0  0
   -0.0110   -2.3904    0.0621 H   0  0  0  0  0  0  0  0  0  0  0  0
    1.2189   -0.7002   -0.0000 C   0  0  0  0  0  0  0  0  0  0  0  0
    2.0856   -1.2004   -0.0092 H   0  0  0  0  0  0  0  0  0  0  0  0
    1.2027    0.6920   -0.0098 C   0  0  0  0  0  0  0  0  0  0  0  0
    2.0695    1.1949   -0.0188 H   0  0  0  0  0  0  0  0  0  0  0  0
  1  5  1  0
  5  8  1  0
  1  2  1  0
  1  3  1  0
  1  4  1  0
  5  6  1  0
  5  7  1  0
  8  9  1  0
  8 10  1  0
  8 11  1  0
 12 16  1  0
 16 17  2  0
 17 19  1  0
 19 21  2  0
 21 23  1  0
 23 25  2  0
 25 16  1  0
 12 13  1  0
 12 14  1  0
 12 15  1  0
 17 18  1  0
 19 20  1  0
 21 22  1  0
 23 24  1  0
 25 26  1  0
M  CHG  1   8   1
M  END
>  <PDB_ID>  (99) 
pdb3qkx

>  <RESIDUE_NAME>  (99) 
LYS   PHE

>  <FRAG_NAME>  (99) 
ETAM   MBZ

>  <FRAG_ATOM_NUM>  (99) 
fragi: 11  fragj: 15

>  <atom.prop.CHAIN_ID>  (99) 
A A A A A A A A A A A Z Z Z Z Z Z Z Z Z Z Z Z Z Z Z

>  <atom.prop.IS_HEAVY_ATOM>  (99) 
1 0 0 0 1 0 0 1 0 0 0 1 0 0 0 1 1 0 1 0 1 0 1 0 1 0

>  <DIFUSE_FUNC_ATOM>  (99) 
n/a

>  <FINAL_SINGLE_POINT_ENERGY>  (99) 
0

>  <NONCOV_INTER_ENERGY_QM>  (99) 
0

>  <FF_Energy>  (99) 
15.57

>  <QM_Energy>  (99) 
-1.03

>  <source>  (99) 
ETAM_MBZ

>  <Index>  (99) 
25341

$$$$
ETAM-pdb3qml-B-LYS-402:MBZ-pdb3qml-B-PHE-399
     RDKit          3D

 26 25  0  0  0  0  0  0  0  0999 V2000
   -1.5429    2.5301   -2.8068 C   0  0  0  0  0  0  0  0  0  0  0  0
   -1.6156    2.2251   -1.8616 H   0  0  0  0  0  0  0  0  0  0  0  0
   -2.4474    2.7067   -3.1823 H   0  0  0  0  0  0  0  0  0  0  0  0
   -0.9593    3.4502   -2.8379 H   0  0  0  0  0  0  0  0  0  0  0  0
   -0.8883    1.4307   -3.6206 C   0  0  0  0  0  0  0  0  0  0  0  0
   -1.5996    0.8136   -3.9701 H   0  0  0  0  0  0  0  0  0  0  0  0
   -0.4067    1.8422   -4.4002 H   0  0  0  0  0  0  0  0  0  0  0  0
    0.0854    0.6390   -2.8128 N   0  0  0  0  0  4  0  0  0  0  0  0
    0.2705   -0.2270   -3.2752 H   0  0  0  0  0  0  0  0  0  0  0  0
    0.9343    1.1582   -2.7180 H   0  0  0  0  0  0  0  0  0  0  0  0
   -0.3030    0.4620   -1.9099 H   0  0  0  0  0  0  0  0  0  0  0  0
   -0.0010    2.8958   -0.0103 C   0  0  0  0  0  0  0  0  0  0  0  0
   -0.7546    3.1943   -0.5804 H   0  0  0  0  0  0  0  0  0  0  0  0
    0.8661    3.1983   -0.3839 H   0  0  0  0  0  0  0  0  0  0  0  0
   -0.1209    3.3550    0.9710 H   0  0  0  0  0  0  0  0  0  0  0  0
    0.0005    1.3942    0.0056 C   0  0  0  0  0  0  0  0  0  0  0  0
   -1.1894    0.6878   -0.0049 C   0  0  0  0  0  0  0  0  0  0  0  0
   -2.0584    1.1791   -0.0169 H   0  0  0  0  0  0  0  0  0  0  0  0
   -1.1923   -0.6935    0.0000 C   0  0  0  0  0  0  0  0  0  0  0  0
   -2.0730   -1.1879    0.0041 H   0  0  0  0  0  0  0  0  0  0  0  0
   -0.0020   -1.3829    0.0010 C   0  0  0  0  0  0  0  0  0  0  0  0
   -0.0045   -2.3861    0.0016 H   0  0  0  0  0  0  0  0  0  0  0  0
    1.1923   -0.6924   -0.0000 C   0  0  0  0  0  0  0  0  0  0  0  0
    2.0753   -1.1949    0.0025 H   0  0  0  0  0  0  0  0  0  0  0  0
    1.1909    0.6868   -0.0016 C   0  0  0  0  0  0  0  0  0  0  0  0
    2.0605    1.1850   -0.0092 H   0  0  0  0  0  0  0  0  0  0  0  0
  1  5  1  0
  5  8  1  0
  1  2  1  0
  1  3  1  0
  1  4  1  0
  5  6  1  0
  5  7  1  0
  8  9  1  0
  8 10  1  0
  8 11  1  0
 12 16  1  0
 16 17  2  0
 17 19  1  0
 19 21  2  0
 21 23  1  0
 23 25  2  0
 25 16  1  0
 12 13  1  0
 12 14  1  0
 12 15  1  0
 17 18  1  0
 19 20  1  0
 21 22  1  0
 23 24  1  0
 25 26  1  0
M  CHG  1   8   1
M  END
>  <PDB_ID>  (100) 
pdb3qml

>  <RESIDUE_NAME>  (100) 
LYS   PHE

>  <FRAG_NAME>  (100) 
ETAM   MBZ

>  <FRAG_ATOM_NUM>  (100) 
fragi: 11  fragj: 15

>  <atom.prop.CHAIN_ID>  (100) 
A A A A A A A A A A A Z Z Z Z Z Z Z Z Z Z Z Z Z Z Z

>  <atom.prop.IS_HEAVY_ATOM>  (100) 
1 0 0 0 1 0 0 1 0 0 0 1 0 0 0 1 1 0 1 0 1 0 1 0 1 0

>  <DIFUSE_FUNC_ATOM>  (100) 
n/a

>  <FINAL_SINGLE_POINT_ENERGY>  (100) 
0

>  <NONCOV_INTER_ENERGY_QM>  (100) 
0

>  <FF_Energy>  (100) 
-1.14

>  <QM_Energy>  (100) 
-12.71

>  <source>  (100) 
ETAM_MBZ

>  <Index>  (100) 
25391

$$$$
ETAM-pdb3rmg-B-LYS-260:MBZ-pdb3rmg-B-PHE-159
     RDKit          3D

 26 25  0  0  0  0  0  0  0  0999 V2000
   -5.0050   -2.2969   -0.8432 C   0  0  0  0  0  0  0  0  0  0  0  0
   -4.1495   -2.7378   -1.1168 H   0  0  0  0  0  0  0  0  0  0  0  0
   -5.5392   -2.0761   -1.6614 H   0  0  0  0  0  0  0  0  0  0  0  0
   -5.5763   -2.9919   -0.2280 H   0  0  0  0  0  0  0  0  0  0  0  0
   -4.6773   -1.0117   -0.1203 C   0  0  0  0  0  0  0  0  0  0  0  0
   -5.5284   -0.5615    0.1525 H   0  0  0  0  0  0  0  0  0  0  0  0
   -4.1387   -1.2222    0.6961 H   0  0  0  0  0  0  0  0  0  0  0  0
   -3.9007   -0.0983   -0.9952 N   0  0  0  0  0  4  0  0  0  0  0  0
   -4.5275    0.4194   -1.5782 H   0  0  0  0  0  0  0  0  0  0  0  0
   -3.3714    0.5354   -0.4306 H   0  0  0  0  0  0  0  0  0  0  0  0
   -3.2783   -0.6329   -1.5669 H   0  0  0  0  0  0  0  0  0  0  0  0
   -0.0261    2.8585    0.0004 C   0  0  0  0  0  0  0  0  0  0  0  0
    0.7553    3.1847   -0.5088 H   0  0  0  0  0  0  0  0  0  0  0  0
   -0.0002    3.1681    0.9384 H   0  0  0  0  0  0  0  0  0  0  0  0
   -0.9226    3.2701   -0.4632 H   0  0  0  0  0  0  0  0  0  0  0  0
   -0.0017    1.3746   -0.0035 C   0  0  0  0  0  0  0  0  0  0  0  0
   -1.1811    0.6690    0.0059 C   0  0  0  0  0  0  0  0  0  0  0  0
   -2.0535    1.1663    0.0161 H   0  0  0  0  0  0  0  0  0  0  0  0
   -1.1814   -0.6902    0.0000 C   0  0  0  0  0  0  0  0  0  0  0  0
   -2.0610   -1.1947   -0.0003 H   0  0  0  0  0  0  0  0  0  0  0  0
    0.0015   -1.3627   -0.0041 C   0  0  0  0  0  0  0  0  0  0  0  0
    0.0057   -2.3719   -0.0104 H   0  0  0  0  0  0  0  0  0  0  0  0
    1.1814   -0.6737   -0.0000 C   0  0  0  0  0  0  0  0  0  0  0  0
    2.0698   -1.1819    0.0035 H   0  0  0  0  0  0  0  0  0  0  0  0
    1.1813    0.6830    0.0017 C   0  0  0  0  0  0  0  0  0  0  0  0
    2.0500    1.1883    0.0062 H   0  0  0  0  0  0  0  0  0  0  0  0
  1  5  1  0
  5  8  1  0
  1  2  1  0
  1  3  1  0
  1  4  1  0
  5  6  1  0
  5  7  1  0
  8  9  1  0
  8 10  1  0
  8 11  1  0
 12 16  1  0
 16 17  2  0
 17 19  1  0
 19 21  2  0
 21 23  1  0
 23 25  2  0
 25 16  1  0
 12 13  1  0
 12 14  1  0
 12 15  1  0
 17 18  1  0
 19 20  1  0
 21 22  1  0
 23 24  1  0
 25 26  1  0
M  CHG  1   8   1
M  END
>  <PDB_ID>  (101) 
pdb3rmg

>  <RESIDUE_NAME>  (101) 
LYS   PHE

>  <FRAG_NAME>  (101) 
ETAM   MBZ

>  <FRAG_ATOM_NUM>  (101) 
fragi: 11  fragj: 15

>  <atom.prop.CHAIN_ID>  (101) 
A A A A A A A A A A A Z Z Z Z Z Z Z Z Z Z Z Z Z Z Z

>  <atom.prop.IS_HEAVY_ATOM>  (101) 
1 0 0 0 1 0 0 1 0 0 0 1 0 0 0 1 1 0 1 0 1 0 1 0 1 0

>  <DIFUSE_FUNC_ATOM>  (101) 
n/a

>  <FINAL_SINGLE_POINT_ENERGY>  (101) 
0

>  <NONCOV_INTER_ENERGY_QM>  (101) 
0

>  <FF_Energy>  (101) 
7.7

>  <QM_Energy>  (101) 
-2.54

>  <source>  (101) 
ETAM_MBZ

>  <Index>  (101) 
26074

$$$$
ETAM-pdb3tc2-C-LYS-168:MBZ-pdb3tc2-C-PHE-53
     RDKit          3D

 26 25  0  0  0  0  0  0  0  0999 V2000
    2.4337   -0.7067   -3.6825 C   0  0  0  0  0  0  0  0  0  0  0  0
    2.2626   -0.8854   -4.6534 H   0  0  0  0  0  0  0  0  0  0  0  0
    2.4510   -1.5756   -3.1853 H   0  0  0  0  0  0  0  0  0  0  0  0
    3.4203   -0.2516   -3.5959 H   0  0  0  0  0  0  0  0  0  0  0  0
    1.2700    0.1495   -3.1306 C   0  0  0  0  0  0  0  0  0  0  0  0
    1.1998   -0.0073   -2.1015 H   0  0  0  0  0  0  0  0  0  0  0  0
    1.5359    1.1564   -3.1964 H   0  0  0  0  0  0  0  0  0  0  0  0
   -0.2196    0.0608   -3.6830 N   0  0  0  0  0  4  0  0  0  0  0  0
   -0.1763   -0.4429   -4.5267 H   0  0  0  0  0  0  0  0  0  0  0  0
   -0.7451   -0.4079   -2.9960 H   0  0  0  0  0  0  0  0  0  0  0  0
   -0.5237    0.9866   -3.8183 H   0  0  0  0  0  0  0  0  0  0  0  0
    0.0790    2.9080    0.0306 C   0  0  0  0  0  0  0  0  0  0  0  0
   -0.7252    3.2503   -0.4364 H   0  0  0  0  0  0  0  0  0  0  0  0
    0.9073    3.1895   -0.4344 H   0  0  0  0  0  0  0  0  0  0  0  0
    0.0946    3.3580    1.0233 H   0  0  0  0  0  0  0  0  0  0  0  0
    0.0238    1.4230    0.0401 C   0  0  0  0  0  0  0  0  0  0  0  0
   -1.2189    0.7311    0.0464 C   0  0  0  0  0  0  0  0  0  0  0  0
   -2.0613    1.2058    0.0798 H   0  0  0  0  0  0  0  0  0  0  0  0
   -1.2135   -0.7121    0.0000 C   0  0  0  0  0  0  0  0  0  0  0  0
   -2.0921   -1.1878    0.0080 H   0  0  0  0  0  0  0  0  0  0  0  0
   -0.0064   -1.4092   -0.0524 C   0  0  0  0  0  0  0  0  0  0  0  0
   -0.0163   -2.4093   -0.1289 H   0  0  0  0  0  0  0  0  0  0  0  0
    1.2135   -0.7289    0.0000 C   0  0  0  0  0  0  0  0  0  0  0  0
    2.0808   -1.2126    0.0617 H   0  0  0  0  0  0  0  0  0  0  0  0
    1.2016    0.6961   -0.0341 C   0  0  0  0  0  0  0  0  0  0  0  0
    2.0811    1.1721   -0.1156 H   0  0  0  0  0  0  0  0  0  0  0  0
  1  5  1  0
  5  8  1  0
  1  2  1  0
  1  3  1  0
  1  4  1  0
  5  6  1  0
  5  7  1  0
  8  9  1  0
  8 10  1  0
  8 11  1  0
 12 16  1  0
 16 17  2  0
 17 19  1  0
 19 21  2  0
 21 23  1  0
 23 25  2  0
 25 16  1  0
 12 13  1  0
 12 14  1  0
 12 15  1  0
 17 18  1  0
 19 20  1  0
 21 22  1  0
 23 24  1  0
 25 26  1  0
M  CHG  1   8   1
M  END
>  <PDB_ID>  (102) 
pdb3tc2

>  <RESIDUE_NAME>  (102) 
LYS   PHE

>  <FRAG_NAME>  (102) 
ETAM   MBZ

>  <FRAG_ATOM_NUM>  (102) 
fragi: 11  fragj: 15

>  <atom.prop.CHAIN_ID>  (102) 
A A A A A A A A A A A Z Z Z Z Z Z Z Z Z Z Z Z Z Z Z

>  <atom.prop.IS_HEAVY_ATOM>  (102) 
1 0 0 0 1 0 0 1 0 0 0 1 0 0 0 1 1 0 1 0 1 0 1 0 1 0

>  <DIFUSE_FUNC_ATOM>  (102) 
n/a

>  <FINAL_SINGLE_POINT_ENERGY>  (102) 
0

>  <NONCOV_INTER_ENERGY_QM>  (102) 
0

>  <FF_Energy>  (102) 
4.6

>  <QM_Energy>  (102) 
-9.89

>  <source>  (102) 
ETAM_MBZ

>  <Index>  (102) 
27018

$$$$
ETAM-pdb3tnf-B-LYS-327:MBZ-pdb3tnf-B-PHE-354
     RDKit          3D

 26 25  0  0  0  0  0  0  0  0999 V2000
   -0.8190    0.0579    2.9985 C   0  0  0  0  0  0  0  0  0  0  0  0
   -1.0933    0.2401    3.9432 H   0  0  0  0  0  0  0  0  0  0  0  0
   -1.0136   -0.8959    2.7733 H   0  0  0  0  0  0  0  0  0  0  0  0
   -1.4009    0.6998    2.3371 H   0  0  0  0  0  0  0  0  0  0  0  0
    0.6697    0.2926    2.8714 C   0  0  0  0  0  0  0  0  0  0  0  0
    0.9511    0.1095    1.9304 H   0  0  0  0  0  0  0  0  0  0  0  0
    0.8722    1.2450    3.1001 H   0  0  0  0  0  0  0  0  0  0  0  0
    1.4197   -0.6011    3.7898 N   0  0  0  0  0  4  0  0  0  0  0  0
    1.8654   -1.3231    3.2604 H   0  0  0  0  0  0  0  0  0  0  0  0
    2.1121   -0.0705    4.2798 H   0  0  0  0  0  0  0  0  0  0  0  0
    0.7875   -1.0110    4.4463 H   0  0  0  0  0  0  0  0  0  0  0  0
    0.0034    2.8999   -0.0069 C   0  0  0  0  0  0  0  0  0  0  0  0
    0.6779    3.2106    0.6431 H   0  0  0  0  0  0  0  0  0  0  0  0
   -0.9024    3.2106    0.2298 H   0  0  0  0  0  0  0  0  0  0  0  0
    0.2570    3.3239   -0.9785 H   0  0  0  0  0  0  0  0  0  0  0  0
    0.0003    1.3983    0.0040 C   0  0  0  0  0  0  0  0  0  0  0  0
   -1.1978    0.6915   -0.0061 C   0  0  0  0  0  0  0  0  0  0  0  0
   -2.0629    1.1843   -0.0195 H   0  0  0  0  0  0  0  0  0  0  0  0
   -1.2045   -0.6965   -0.0000 C   0  0  0  0  0  0  0  0  0  0  0  0
   -2.0798   -1.1909    0.0034 H   0  0  0  0  0  0  0  0  0  0  0  0
   -0.0016   -1.3906    0.0031 C   0  0  0  0  0  0  0  0  0  0  0  0
   -0.0037   -2.3903    0.0066 H   0  0  0  0  0  0  0  0  0  0  0  0
    1.2045   -0.6944   -0.0000 C   0  0  0  0  0  0  0  0  0  0  0  0
    2.0827   -1.1962    0.0004 H   0  0  0  0  0  0  0  0  0  0  0  0
    1.1991    0.6917   -0.0011 C   0  0  0  0  0  0  0  0  0  0  0  0
    2.0655    1.1910   -0.0065 H   0  0  0  0  0  0  0  0  0  0  0  0
  1  5  1  0
  5  8  1  0
  1  2  1  0
  1  3  1  0
  1  4  1  0
  5  6  1  0
  5  7  1  0
  8  9  1  0
  8 10  1  0
  8 11  1  0
 12 16  1  0
 16 17  2  0
 17 19  1  0
 19 21  2  0
 21 23  1  0
 23 25  2  0
 25 16  1  0
 12 13  1  0
 12 14  1  0
 12 15  1  0
 17 18  1  0
 19 20  1  0
 21 22  1  0
 23 24  1  0
 25 26  1  0
M  CHG  1   8   1
M  END
>  <PDB_ID>  (103) 
pdb3tnf

>  <RESIDUE_NAME>  (103) 
LYS   PHE

>  <FRAG_NAME>  (103) 
ETAM   MBZ

>  <FRAG_ATOM_NUM>  (103) 
fragi: 11  fragj: 15

>  <atom.prop.CHAIN_ID>  (103) 
A A A A A A A A A A A Z Z Z Z Z Z Z Z Z Z Z Z Z Z Z

>  <atom.prop.IS_HEAVY_ATOM>  (103) 
1 0 0 0 1 0 0 1 0 0 0 1 0 0 0 1 1 0 1 0 1 0 1 0 1 0

>  <DIFUSE_FUNC_ATOM>  (103) 
n/a

>  <FINAL_SINGLE_POINT_ENERGY>  (103) 
0

>  <NONCOV_INTER_ENERGY_QM>  (103) 
0

>  <FF_Energy>  (103) 
29.43

>  <QM_Energy>  (103) 
-1.35

>  <source>  (103) 
ETAM_MBZ

>  <Index>  (103) 
27260

$$$$
ETAM-pdb3tox-E-LYS-257:MBZ-pdb3tox-D-PHE-153
     RDKit          3D

 26 25  0  0  0  0  0  0  0  0999 V2000
    0.1095   -2.4430   -2.7858 C   0  0  0  0  0  0  0  0  0  0  0  0
   -0.4049   -2.0222   -2.0453 H   0  0  0  0  0  0  0  0  0  0  0  0
    0.9995   -2.7445   -2.4627 H   0  0  0  0  0  0  0  0  0  0  0  0
   -0.4462   -3.2951   -3.1771 H   0  0  0  0  0  0  0  0  0  0  0  0
    0.3383   -1.3699   -3.8688 C   0  0  0  0  0  0  0  0  0  0  0  0
    0.8562   -1.7789   -4.6125 H   0  0  0  0  0  0  0  0  0  0  0  0
   -0.5472   -1.0569   -4.1951 H   0  0  0  0  0  0  0  0  0  0  0  0
    1.0963   -0.2272   -3.2985 N   0  0  0  0  0  4  0  0  0  0  0  0
    0.7534    0.6276   -3.6886 H   0  0  0  0  0  0  0  0  0  0  0  0
    0.9776   -0.2119   -2.3051 H   0  0  0  0  0  0  0  0  0  0  0  0
    2.0670   -0.3283   -3.5178 H   0  0  0  0  0  0  0  0  0  0  0  0
   -0.0156    2.9144   -0.0442 C   0  0  0  0  0  0  0  0  0  0  0  0
    0.8667    3.2384    0.2432 H   0  0  0  0  0  0  0  0  0  0  0  0
   -0.7381    3.2271    0.5445 H   0  0  0  0  0  0  0  0  0  0  0  0
   -0.2058    3.3201   -1.0379 H   0  0  0  0  0  0  0  0  0  0  0  0
    0.0014    1.4029   -0.0111 C   0  0  0  0  0  0  0  0  0  0  0  0
   -1.2097    0.6632    0.0041 C   0  0  0  0  0  0  0  0  0  0  0  0
   -2.0715    1.1629    0.0160 H   0  0  0  0  0  0  0  0  0  0  0  0
   -1.2053   -0.7114    0.0000 C   0  0  0  0  0  0  0  0  0  0  0  0
   -2.0731   -1.2201   -0.0157 H   0  0  0  0  0  0  0  0  0  0  0  0
    0.0042   -1.3920    0.0188 C   0  0  0  0  0  0  0  0  0  0  0  0
    0.0118   -2.3923    0.0462 H   0  0  0  0  0  0  0  0  0  0  0  0
    1.2053   -0.6870    0.0000 C   0  0  0  0  0  0  0  0  0  0  0  0
    2.0906   -1.1763   -0.0042 H   0  0  0  0  0  0  0  0  0  0  0  0
    1.2042    0.7242   -0.0117 C   0  0  0  0  0  0  0  0  0  0  0  0
    2.0648    1.2106   -0.0213 H   0  0  0  0  0  0  0  0  0  0  0  0
  1  5  1  0
  5  8  1  0
  1  2  1  0
  1  3  1  0
  1  4  1  0
  5  6  1  0
  5  7  1  0
  8  9  1  0
  8 10  1  0
  8 11  1  0
 12 16  1  0
 16 17  2  0
 17 19  1  0
 19 21  2  0
 21 23  1  0
 23 25  2  0
 25 16  1  0
 12 13  1  0
 12 14  1  0
 12 15  1  0
 17 18  1  0
 19 20  1  0
 21 22  1  0
 23 24  1  0
 25 26  1  0
M  CHG  1   8   1
M  END
>  <PDB_ID>  (104) 
pdb3tox

>  <RESIDUE_NAME>  (104) 
LYS   PHE

>  <FRAG_NAME>  (104) 
ETAM   MBZ

>  <FRAG_ATOM_NUM>  (104) 
fragi: 11  fragj: 15

>  <atom.prop.CHAIN_ID>  (104) 
A A A A A A A A A A A Z Z Z Z Z Z Z Z Z Z Z Z Z Z Z

>  <atom.prop.IS_HEAVY_ATOM>  (104) 
1 0 0 0 1 0 0 1 0 0 0 1 0 0 0 1 1 0 1 0 1 0 1 0 1 0

>  <DIFUSE_FUNC_ATOM>  (104) 
n/a

>  <FINAL_SINGLE_POINT_ENERGY>  (104) 
0

>  <NONCOV_INTER_ENERGY_QM>  (104) 
0

>  <FF_Energy>  (104) 
-0.58

>  <QM_Energy>  (104) 
-11.48

>  <source>  (104) 
ETAM_MBZ

>  <Index>  (104) 
27282

$$$$
ETAM-pdb3uip-D-LYS-2687:MBZ-pdb3uip-A-PHE-22
     RDKit          3D

 26 25  0  0  0  0  0  0  0  0999 V2000
    1.4590   -5.2704   -1.3098 C   0  0  0  0  0  0  0  0  0  0  0  0
    1.9986   -5.4805   -2.1208 H   0  0  0  0  0  0  0  0  0  0  0  0
    1.1357   -6.1128   -0.8874 H   0  0  0  0  0  0  0  0  0  0  0  0
    2.0937   -4.7445   -0.5965 H   0  0  0  0  0  0  0  0  0  0  0  0
    0.2389   -4.4441   -1.7397 C   0  0  0  0  0  0  0  0  0  0  0  0
   -0.5939   -4.9972   -1.5854 H   0  0  0  0  0  0  0  0  0  0  0  0
    0.1788   -3.6284   -1.1454 H   0  0  0  0  0  0  0  0  0  0  0  0
    0.2698   -4.0022   -3.1698 N   0  0  0  0  0  4  0  0  0  0  0  0
    0.0206   -3.0369   -3.2196 H   0  0  0  0  0  0  0  0  0  0  0  0
    1.1900   -4.1323   -3.5326 H   0  0  0  0  0  0  0  0  0  0  0  0
   -0.3810   -4.5478   -3.6947 H   0  0  0  0  0  0  0  0  0  0  0  0
   -0.0005    2.9045    0.0065 C   0  0  0  0  0  0  0  0  0  0  0  0
   -0.8009    3.2096   -0.4847 H   0  0  0  0  0  0  0  0  0  0  0  0
    0.8314    3.2110   -0.4281 H   0  0  0  0  0  0  0  0  0  0  0  0
   -0.0358    3.3375    1.0062 H   0  0  0  0  0  0  0  0  0  0  0  0
    0.0012    1.3963   -0.0001 C   0  0  0  0  0  0  0  0  0  0  0  0
   -1.1966    0.6905    0.0007 C   0  0  0  0  0  0  0  0  0  0  0  0
   -2.0623    1.1818    0.0008 H   0  0  0  0  0  0  0  0  0  0  0  0
   -1.2017   -0.7006    0.0000 C   0  0  0  0  0  0  0  0  0  0  0  0
   -2.0761   -1.1945    0.0010 H   0  0  0  0  0  0  0  0  0  0  0  0
    0.0010   -1.3889   -0.0007 C   0  0  0  0  0  0  0  0  0  0  0  0
    0.0039   -2.3881   -0.0026 H   0  0  0  0  0  0  0  0  0  0  0  0
    1.2017   -0.6871   -0.0000 C   0  0  0  0  0  0  0  0  0  0  0  0
    2.0826   -1.1904    0.0021 H   0  0  0  0  0  0  0  0  0  0  0  0
    1.1944    0.6897    0.0001 C   0  0  0  0  0  0  0  0  0  0  0  0
    2.0630    1.1935   -0.0001 H   0  0  0  0  0  0  0  0  0  0  0  0
  1  5  1  0
  5  8  1  0
  1  2  1  0
  1  3  1  0
  1  4  1  0
  5  6  1  0
  5  7  1  0
  8  9  1  0
  8 10  1  0
  8 11  1  0
 12 16  1  0
 16 17  2  0
 17 19  1  0
 19 21  2  0
 21 23  1  0
 23 25  2  0
 25 16  1  0
 12 13  1  0
 12 14  1  0
 12 15  1  0
 17 18  1  0
 19 20  1  0
 21 22  1  0
 23 24  1  0
 25 26  1  0
M  CHG  1   8   1
M  END
>  <PDB_ID>  (105) 
pdb3uip

>  <RESIDUE_NAME>  (105) 
LYS   PHE

>  <FRAG_NAME>  (105) 
ETAM   MBZ

>  <FRAG_ATOM_NUM>  (105) 
fragi: 11  fragj: 15

>  <atom.prop.CHAIN_ID>  (105) 
A A A A A A A A A A A Z Z Z Z Z Z Z Z Z Z Z Z Z Z Z

>  <atom.prop.IS_HEAVY_ATOM>  (105) 
1 0 0 0 1 0 0 1 0 0 0 1 0 0 0 1 1 0 1 0 1 0 1 0 1 0

>  <DIFUSE_FUNC_ATOM>  (105) 
n/a

>  <FINAL_SINGLE_POINT_ENERGY>  (105) 
0

>  <NONCOV_INTER_ENERGY_QM>  (105) 
0

>  <FF_Energy>  (105) 
7.35

>  <QM_Energy>  (105) 
-3.12

>  <source>  (105) 
ETAM_MBZ

>  <Index>  (105) 
27918

$$$$
ETAM-pdb4u4c-A-LYS-904:MBZ-pdb4u4c-A-PHE-894
     RDKit          3D

 26 25  0  0  0  0  0  0  0  0999 V2000
   -5.1521    0.0866    0.4916 C   0  0  0  0  0  0  0  0  0  0  0  0
   -6.1341    0.0880    0.3138 H   0  0  0  0  0  0  0  0  0  0  0  0
   -4.7186    0.8399    0.0017 H   0  0  0  0  0  0  0  0  0  0  0  0
   -4.9912    0.2257    1.5607 H   0  0  0  0  0  0  0  0  0  0  0  0
   -4.5692   -1.2170   -0.0066 C   0  0  0  0  0  0  0  0  0  0  0  0
   -3.6352   -1.3136    0.3406 H   0  0  0  0  0  0  0  0  0  0  0  0
   -5.1279   -1.9772    0.3294 H   0  0  0  0  0  0  0  0  0  0  0  0
   -4.5410   -1.2546   -1.4950 N   0  0  0  0  0  4  0  0  0  0  0  0
   -5.3653   -0.8171   -1.8529 H   0  0  0  0  0  0  0  0  0  0  0  0
   -3.7328   -0.7665   -1.8234 H   0  0  0  0  0  0  0  0  0  0  0  0
   -4.5065   -2.2051   -1.8019 H   0  0  0  0  0  0  0  0  0  0  0  0
   -0.0121    2.8921    0.0104 C   0  0  0  0  0  0  0  0  0  0  0  0
    0.4056    3.2064   -0.8284 H   0  0  0  0  0  0  0  0  0  0  0  0
    0.4945    3.1973    0.8021 H   0  0  0  0  0  0  0  0  0  0  0  0
   -1.0117    3.3231    0.0670 H   0  0  0  0  0  0  0  0  0  0  0  0
   -0.0033    1.3918    0.0015 C   0  0  0  0  0  0  0  0  0  0  0  0
   -1.1850    0.6877    0.0028 C   0  0  0  0  0  0  0  0  0  0  0  0
   -2.0576    1.1784    0.0044 H   0  0  0  0  0  0  0  0  0  0  0  0
   -1.1866   -0.6890   -0.0000 C   0  0  0  0  0  0  0  0  0  0  0  0
   -2.0680   -1.1865    0.0040 H   0  0  0  0  0  0  0  0  0  0  0  0
    0.0026   -1.3812   -0.0055 C   0  0  0  0  0  0  0  0  0  0  0  0
   -0.0063   -2.3851   -0.0140 H   0  0  0  0  0  0  0  0  0  0  0  0
    1.1866   -0.6955   -0.0000 C   0  0  0  0  0  0  0  0  0  0  0  0
    2.0742   -1.1932    0.0051 H   0  0  0  0  0  0  0  0  0  0  0  0
    1.1857    0.6862    0.0013 C   0  0  0  0  0  0  0  0  0  0  0  0
    2.0564    1.1822    0.0015 H   0  0  0  0  0  0  0  0  0  0  0  0
  1  5  1  0
  5  8  1  0
  1  2  1  0
  1  3  1  0
  1  4  1  0
  5  6  1  0
  5  7  1  0
  8  9  1  0
  8 10  1  0
  8 11  1  0
 12 16  1  0
 16 17  2  0
 17 19  1  0
 19 21  2  0
 21 23  1  0
 23 25  2  0
 25 16  1  0
 12 13  1  0
 12 14  1  0
 12 15  1  0
 17 18  1  0
 19 20  1  0
 21 22  1  0
 23 24  1  0
 25 26  1  0
M  CHG  1   8   1
M  END
>  <PDB_ID>  (106) 
pdb4u4c

>  <RESIDUE_NAME>  (106) 
LYS   PHE

>  <FRAG_NAME>  (106) 
ETAM   MBZ

>  <FRAG_ATOM_NUM>  (106) 
fragi: 11  fragj: 15

>  <atom.prop.CHAIN_ID>  (106) 
A A A A A A A A A A A Z Z Z Z Z Z Z Z Z Z Z Z Z Z Z

>  <atom.prop.IS_HEAVY_ATOM>  (106) 
1 0 0 0 1 0 0 1 0 0 0 1 0 0 0 1 1 0 1 0 1 0 1 0 1 0

>  <DIFUSE_FUNC_ATOM>  (106) 
n/a

>  <FINAL_SINGLE_POINT_ENERGY>  (106) 
0

>  <NONCOV_INTER_ENERGY_QM>  (106) 
0

>  <FF_Energy>  (106) 
16.21

>  <QM_Energy>  (106) 
-1.86

>  <source>  (106) 
ETAM_MBZ

>  <Index>  (106) 
27943

$$$$
ETAM-pdb4um9-D-LYS-214:MBZ-pdb4um9-D-PHE-186
     RDKit          3D

 26 25  0  0  0  0  0  0  0  0999 V2000
    5.8347   -1.7476    1.1036 C   0  0  0  0  0  0  0  0  0  0  0  0
    6.3197   -0.9290    1.3866 H   0  0  0  0  0  0  0  0  0  0  0  0
    6.1893   -2.0865    0.2409 H   0  0  0  0  0  0  0  0  0  0  0  0
    5.9358   -2.5160    1.8700 H   0  0  0  0  0  0  0  0  0  0  0  0
    4.3766   -1.3987    0.9160 C   0  0  0  0  0  0  0  0  0  0  0  0
    3.8432   -2.2438    0.8474 H   0  0  0  0  0  0  0  0  0  0  0  0
    4.0603   -0.8728    1.7068 H   0  0  0  0  0  0  0  0  0  0  0  0
    4.1795   -0.5956   -0.3150 N   0  0  0  0  0  4  0  0  0  0  0  0
    4.5918    0.3083   -0.1940 H   0  0  0  0  0  0  0  0  0  0  0  0
    4.6125   -1.0586   -1.0891 H   0  0  0  0  0  0  0  0  0  0  0  0
    3.2002   -0.4936   -0.4943 H   0  0  0  0  0  0  0  0  0  0  0  0
   -0.1669    2.8913   -0.0234 C   0  0  0  0  0  0  0  0  0  0  0  0
   -0.9095    3.1185   -0.6420 H   0  0  0  0  0  0  0  0  0  0  0  0
    0.6848    3.2946   -0.3347 H   0  0  0  0  0  0  0  0  0  0  0  0
   -0.4018    3.3386    0.9424 H   0  0  0  0  0  0  0  0  0  0  0  0
   -0.0044    1.3987   -0.0125 C   0  0  0  0  0  0  0  0  0  0  0  0
   -1.1834    0.6618    0.0180 C   0  0  0  0  0  0  0  0  0  0  0  0
   -2.0620    1.1594    0.0537 H   0  0  0  0  0  0  0  0  0  0  0  0
   -1.1924   -0.7051   -0.0000 C   0  0  0  0  0  0  0  0  0  0  0  0
   -2.0734   -1.2022   -0.0153 H   0  0  0  0  0  0  0  0  0  0  0  0
   -0.0074   -1.3900    0.0055 C   0  0  0  0  0  0  0  0  0  0  0  0
    0.0031   -2.3900    0.0134 H   0  0  0  0  0  0  0  0  0  0  0  0
    1.1924   -0.6857   -0.0000 C   0  0  0  0  0  0  0  0  0  0  0  0
    2.0779   -1.1786    0.0049 H   0  0  0  0  0  0  0  0  0  0  0  0
    1.1952    0.7204   -0.0110 C   0  0  0  0  0  0  0  0  0  0  0  0
    2.0572    1.2067   -0.0183 H   0  0  0  0  0  0  0  0  0  0  0  0
  1  5  1  0
  5  8  1  0
  1  2  1  0
  1  3  1  0
  1  4  1  0
  5  6  1  0
  5  7  1  0
  8  9  1  0
  8 10  1  0
  8 11  1  0
 12 16  1  0
 16 17  2  0
 17 19  1  0
 19 21  2  0
 21 23  1  0
 23 25  2  0
 25 16  1  0
 12 13  1  0
 12 14  1  0
 12 15  1  0
 17 18  1  0
 19 20  1  0
 21 22  1  0
 23 24  1  0
 25 26  1  0
M  CHG  1   8   1
M  END
>  <PDB_ID>  (107) 
pdb4um9

>  <RESIDUE_NAME>  (107) 
LYS   PHE

>  <FRAG_NAME>  (107) 
ETAM   MBZ

>  <FRAG_ATOM_NUM>  (107) 
fragi: 11  fragj: 15

>  <atom.prop.CHAIN_ID>  (107) 
A A A A A A A A A A A Z Z Z Z Z Z Z Z Z Z Z Z Z Z Z

>  <atom.prop.IS_HEAVY_ATOM>  (107) 
1 0 0 0 1 0 0 1 0 0 0 1 0 0 0 1 1 0 1 0 1 0 1 0 1 0

>  <DIFUSE_FUNC_ATOM>  (107) 
n/a

>  <FINAL_SINGLE_POINT_ENERGY>  (107) 
0

>  <NONCOV_INTER_ENERGY_QM>  (107) 
0

>  <FF_Energy>  (107) 
10.09

>  <QM_Energy>  (107) 
-0.62

>  <source>  (107) 
ETAM_MBZ

>  <Index>  (107) 
28073

$$$$
ETAM-pdb4xck-C-LYS-273:MBZ-pdb4xck-C-PHE-240
     RDKit          3D

 26 25  0  0  0  0  0  0  0  0999 V2000
   -0.2259   -5.4189    1.2212 C   0  0  0  0  0  0  0  0  0  0  0  0
    0.0561   -5.3059    2.1612 H   0  0  0  0  0  0  0  0  0  0  0  0
   -0.3231   -6.3724    0.9843 H   0  0  0  0  0  0  0  0  0  0  0  0
   -1.1858   -4.9220    1.0806 H   0  0  0  0  0  0  0  0  0  0  0  0
    0.8430   -4.7960    0.3122 C   0  0  0  0  0  0  0  0  0  0  0  0
    0.6055   -5.0084   -0.6541 H   0  0  0  0  0  0  0  0  0  0  0  0
    0.7956   -3.7842    0.4085 H   0  0  0  0  0  0  0  0  0  0  0  0
    2.2532   -5.2382    0.5695 N   0  0  0  0  0  4  0  0  0  0  0  0
    2.8289   -4.4335    0.6964 H   0  0  0  0  0  0  0  0  0  0  0  0
    2.2726   -5.8028    1.3924 H   0  0  0  0  0  0  0  0  0  0  0  0
    2.5767   -5.7670   -0.2124 H   0  0  0  0  0  0  0  0  0  0  0  0
    0.0002    2.9079    0.0059 C   0  0  0  0  0  0  0  0  0  0  0  0
   -0.9174    3.2136   -0.1935 H   0  0  0  0  0  0  0  0  0  0  0  0
    0.6418    3.2145   -0.6784 H   0  0  0  0  0  0  0  0  0  0  0  0
    0.2972    3.3372    0.9627 H   0  0  0  0  0  0  0  0  0  0  0  0
   -0.0016    1.3991   -0.0041 C   0  0  0  0  0  0  0  0  0  0  0  0
   -1.1899    0.6909    0.0015 C   0  0  0  0  0  0  0  0  0  0  0  0
   -2.0603    1.1793    0.0056 H   0  0  0  0  0  0  0  0  0  0  0  0
   -1.1930   -0.6952    0.0000 C   0  0  0  0  0  0  0  0  0  0  0  0
   -2.0722   -1.1893   -0.0005 H   0  0  0  0  0  0  0  0  0  0  0  0
    0.0018   -1.3885    0.0008 C   0  0  0  0  0  0  0  0  0  0  0  0
   -0.0033   -2.3893    0.0016 H   0  0  0  0  0  0  0  0  0  0  0  0
    1.1930   -0.6950   -0.0000 C   0  0  0  0  0  0  0  0  0  0  0  0
    2.0782   -1.1931   -0.0005 H   0  0  0  0  0  0  0  0  0  0  0  0
    1.1897    0.6887    0.0017 C   0  0  0  0  0  0  0  0  0  0  0  0
    2.0599    1.1859    0.0061 H   0  0  0  0  0  0  0  0  0  0  0  0
  1  5  1  0
  5  8  1  0
  1  2  1  0
  1  3  1  0
  1  4  1  0
  5  6  1  0
  5  7  1  0
  8  9  1  0
  8 10  1  0
  8 11  1  0
 12 16  1  0
 16 17  2  0
 17 19  1  0
 19 21  2  0
 21 23  1  0
 23 25  2  0
 25 16  1  0
 12 13  1  0
 12 14  1  0
 12 15  1  0
 17 18  1  0
 19 20  1  0
 21 22  1  0
 23 24  1  0
 25 26  1  0
M  CHG  1   8   1
M  END
>  <PDB_ID>  (108) 
pdb4xck

>  <RESIDUE_NAME>  (108) 
LYS   PHE

>  <FRAG_NAME>  (108) 
ETAM   MBZ

>  <FRAG_ATOM_NUM>  (108) 
fragi: 11  fragj: 15

>  <atom.prop.CHAIN_ID>  (108) 
A A A A A A A A A A A Z Z Z Z Z Z Z Z Z Z Z Z Z Z Z

>  <atom.prop.IS_HEAVY_ATOM>  (108) 
1 0 0 0 1 0 0 1 0 0 0 1 0 0 0 1 1 0 1 0 1 0 1 0 1 0

>  <DIFUSE_FUNC_ATOM>  (108) 
n/a

>  <FINAL_SINGLE_POINT_ENERGY>  (108) 
0

>  <NONCOV_INTER_ENERGY_QM>  (108) 
0

>  <FF_Energy>  (108) 
11.71

>  <QM_Energy>  (108) 
-0.35

>  <source>  (108) 
ETAM_MBZ

>  <Index>  (108) 
28886

$$$$
ETAM-pdb4xfe-A-LYS-294:MBZ-pdb4xfe-A-PHE-107
     RDKit          3D

 26 25  0  0  0  0  0  0  0  0999 V2000
   -5.0384   -2.5842    1.5812 C   0  0  0  0  0  0  0  0  0  0  0  0
   -5.6950   -3.0422    1.0335 H   0  0  0  0  0  0  0  0  0  0  0  0
   -5.4761   -2.0271    2.2433 H   0  0  0  0  0  0  0  0  0  0  0  0
   -4.4041   -3.3166    2.0805 H   0  0  0  0  0  0  0  0  0  0  0  0
   -4.2176   -1.7204    0.7068 C   0  0  0  0  0  0  0  0  0  0  0  0
   -4.4650   -0.7924    0.8459 H   0  0  0  0  0  0  0  0  0  0  0  0
   -3.2780   -1.8541    0.9098 H   0  0  0  0  0  0  0  0  0  0  0  0
   -4.4401   -2.0524   -0.7022 N   0  0  0  0  0  4  0  0  0  0  0  0
   -4.2183   -2.9013   -0.8524 H   0  0  0  0  0  0  0  0  0  0  0  0
   -5.2977   -1.9355   -0.9097 H   0  0  0  0  0  0  0  0  0  0  0  0
   -3.9420   -1.5273   -1.2205 H   0  0  0  0  0  0  0  0  0  0  0  0
    0.0042    2.9003   -0.0073 C   0  0  0  0  0  0  0  0  0  0  0  0
    0.8995    3.1947    0.2222 H   0  0  0  0  0  0  0  0  0  0  0  0
   -0.6231    3.1997    0.6702 H   0  0  0  0  0  0  0  0  0  0  0  0
   -0.2758    3.3412   -0.9640 H   0  0  0  0  0  0  0  0  0  0  0  0
    0.0008    1.3970   -0.0013 C   0  0  0  0  0  0  0  0  0  0  0  0
   -1.1908    0.6949    0.0073 C   0  0  0  0  0  0  0  0  0  0  0  0
   -1.9967    1.1574    0.0051 H   0  0  0  0  0  0  0  0  0  0  0  0
   -1.1940   -0.6913    0.0000 C   0  0  0  0  0  0  0  0  0  0  0  0
   -2.0009   -1.1537    0.0075 H   0  0  0  0  0  0  0  0  0  0  0  0
    0.0022   -1.3908    0.0003 C   0  0  0  0  0  0  0  0  0  0  0  0
    0.0005   -2.3202    0.0024 H   0  0  0  0  0  0  0  0  0  0  0  0
    1.1940   -0.7000    0.0000 C   0  0  0  0  0  0  0  0  0  0  0  0
    2.0010   -1.1639   -0.0049 H   0  0  0  0  0  0  0  0  0  0  0  0
    1.1878    0.6903   -0.0063 C   0  0  0  0  0  0  0  0  0  0  0  0
    1.9955    1.1516   -0.0086 H   0  0  0  0  0  0  0  0  0  0  0  0
  1  5  1  0
  5  8  1  0
  1  2  1  0
  1  3  1  0
  1  4  1  0
  5  6  1  0
  5  7  1  0
  8  9  1  0
  8 10  1  0
  8 11  1  0
 12 16  1  0
 16 17  2  0
 17 19  1  0
 19 21  2  0
 21 23  1  0
 23 25  2  0
 25 16  1  0
 12 13  1  0
 12 14  1  0
 12 15  1  0
 17 18  1  0
 19 20  1  0
 21 22  1  0
 23 24  1  0
 25 26  1  0
M  CHG  1   8   1
M  END
>  <PDB_ID>  (109) 
pdb4xfe

>  <RESIDUE_NAME>  (109) 
LYS   PHE

>  <FRAG_NAME>  (109) 
ETAM   MBZ

>  <FRAG_ATOM_NUM>  (109) 
fragi: 11  fragj: 15

>  <atom.prop.CHAIN_ID>  (109) 
A A A A A A A A A A A Z Z Z Z Z Z Z Z Z Z Z Z Z Z Z

>  <atom.prop.IS_HEAVY_ATOM>  (109) 
1 0 0 0 1 0 0 1 0 0 0 1 0 0 0 1 1 0 1 0 1 0 1 0 1 0

>  <DIFUSE_FUNC_ATOM>  (109) 
n/a

>  <FINAL_SINGLE_POINT_ENERGY>  (109) 
0

>  <NONCOV_INTER_ENERGY_QM>  (109) 
0

>  <FF_Energy>  (109) 
10.09

>  <QM_Energy>  (109) 
-0.87

>  <source>  (109) 
ETAM_MBZ

>  <Index>  (109) 
28963

$$$$
ETAM-pdb3wqt-B-LYS-170:MBZ-pdb3wqt-B-PHE-49
     RDKit          3D

 26 25  0  0  0  0  0  0  0  0999 V2000
    3.2130   -2.9657    2.6179 C   0  0  0  0  0  0  0  0  0  0  0  0
    2.3965   -2.8896    3.1781 H   0  0  0  0  0  0  0  0  0  0  0  0
    3.9753   -3.3059    3.1561 H   0  0  0  0  0  0  0  0  0  0  0  0
    3.0181   -3.6599    1.8005 H   0  0  0  0  0  0  0  0  0  0  0  0
    3.5704   -1.5818    2.0918 C   0  0  0  0  0  0  0  0  0  0  0  0
    4.3689   -1.6625    1.4852 H   0  0  0  0  0  0  0  0  0  0  0  0
    2.7962   -1.2303    1.5528 H   0  0  0  0  0  0  0  0  0  0  0  0
    3.8823   -0.6182    3.1824 N   0  0  0  0  0  4  0  0  0  0  0  0
    3.1071    0.0005    3.3100 H   0  0  0  0  0  0  0  0  0  0  0  0
    4.0531   -1.1206    4.0301 H   0  0  0  0  0  0  0  0  0  0  0  0
    4.6946   -0.0902    2.9360 H   0  0  0  0  0  0  0  0  0  0  0  0
    0.0020    2.9197   -0.0514 C   0  0  0  0  0  0  0  0  0  0  0  0
    0.8840    3.2331    0.2607 H   0  0  0  0  0  0  0  0  0  0  0  0
   -0.7268    3.2458    0.5291 H   0  0  0  0  0  0  0  0  0  0  0  0
   -0.1615    3.3255   -1.0498 H   0  0  0  0  0  0  0  0  0  0  0  0
   -0.0007    1.4108   -0.0011 C   0  0  0  0  0  0  0  0  0  0  0  0
   -1.1983    0.6975    0.0010 C   0  0  0  0  0  0  0  0  0  0  0  0
   -2.0668    1.1830    0.0026 H   0  0  0  0  0  0  0  0  0  0  0  0
   -1.2032   -0.7039    0.0000 C   0  0  0  0  0  0  0  0  0  0  0  0
   -2.0800   -1.1928    0.0013 H   0  0  0  0  0  0  0  0  0  0  0  0
    0.0003   -1.4019   -0.0011 C   0  0  0  0  0  0  0  0  0  0  0  0
   -0.0022   -2.3989   -0.0029 H   0  0  0  0  0  0  0  0  0  0  0  0
    1.2032   -0.7015    0.0000 C   0  0  0  0  0  0  0  0  0  0  0  0
    2.0848   -1.1949    0.0011 H   0  0  0  0  0  0  0  0  0  0  0  0
    1.1987    0.6991    0.0011 C   0  0  0  0  0  0  0  0  0  0  0  0
    2.0668    1.1913    0.0031 H   0  0  0  0  0  0  0  0  0  0  0  0
  1  5  1  0
  5  8  1  0
  1  2  1  0
  1  3  1  0
  1  4  1  0
  5  6  1  0
  5  7  1  0
  8  9  1  0
  8 10  1  0
  8 11  1  0
 12 16  1  0
 16 17  2  0
 17 19  1  0
 19 21  2  0
 21 23  1  0
 23 25  2  0
 25 16  1  0
 12 13  1  0
 12 14  1  0
 12 15  1  0
 17 18  1  0
 19 20  1  0
 21 22  1  0
 23 24  1  0
 25 26  1  0
M  CHG  1   8   1
M  END
>  <PDB_ID>  (110) 
pdb3wqt

>  <RESIDUE_NAME>  (110) 
LYS   PHE

>  <FRAG_NAME>  (110) 
ETAM   MBZ

>  <FRAG_ATOM_NUM>  (110) 
fragi: 11  fragj: 15

>  <atom.prop.CHAIN_ID>  (110) 
A A A A A A A A A A A Z Z Z Z Z Z Z Z Z Z Z Z Z Z Z

>  <atom.prop.IS_HEAVY_ATOM>  (110) 
1 0 0 0 1 0 0 1 0 0 0 1 0 0 0 1 1 0 1 0 1 0 1 0 1 0

>  <DIFUSE_FUNC_ATOM>  (110) 
n/a

>  <FINAL_SINGLE_POINT_ENERGY>  (110) 
0

>  <NONCOV_INTER_ENERGY_QM>  (110) 
0

>  <FF_Energy>  (110) 
9.36

>  <QM_Energy>  (110) 
-2.43

>  <source>  (110) 
ETAM_MBZ

>  <Index>  (110) 
29236

$$$$
ETAM-pdb4zj7-A-LYS-1058:MBZ-pdb4zj7-A-PHE-1088
     RDKit          3D

 26 25  0  0  0  0  0  0  0  0999 V2000
    3.9344    3.5992    1.1833 C   0  0  0  0  0  0  0  0  0  0  0  0
    4.5999    3.5786    1.9317 H   0  0  0  0  0  0  0  0  0  0  0  0
    3.9638    4.4960    0.7388 H   0  0  0  0  0  0  0  0  0  0  0  0
    4.2050    2.8364    0.4532 H   0  0  0  0  0  0  0  0  0  0  0  0
    2.5534    3.3897    1.7601 C   0  0  0  0  0  0  0  0  0  0  0  0
    1.8810    3.4135    1.0192 H   0  0  0  0  0  0  0  0  0  0  0  0
    2.5172    2.4973    2.2113 H   0  0  0  0  0  0  0  0  0  0  0  0
    2.2289    4.4498    2.7479 N   0  0  0  0  0  4  0  0  0  0  0  0
    1.7724    4.0407    3.5374 H   0  0  0  0  0  0  0  0  0  0  0  0
    3.0726    4.8970    3.0449 H   0  0  0  0  0  0  0  0  0  0  0  0
    1.6248    5.1256    2.3257 H   0  0  0  0  0  0  0  0  0  0  0  0
   -0.0003    2.8969    0.0025 C   0  0  0  0  0  0  0  0  0  0  0  0
   -0.7631    3.2037   -0.5460 H   0  0  0  0  0  0  0  0  0  0  0  0
    0.8611    3.2039   -0.3740 H   0  0  0  0  0  0  0  0  0  0  0  0
   -0.1056    3.3366    0.9942 H   0  0  0  0  0  0  0  0  0  0  0  0
   -0.0002    1.3942    0.0016 C   0  0  0  0  0  0  0  0  0  0  0  0
   -1.1901    0.6872   -0.0011 C   0  0  0  0  0  0  0  0  0  0  0  0
   -2.0595    1.1804   -0.0050 H   0  0  0  0  0  0  0  0  0  0  0  0
   -1.1944   -0.6920    0.0000 C   0  0  0  0  0  0  0  0  0  0  0  0
   -2.0735   -1.1883    0.0021 H   0  0  0  0  0  0  0  0  0  0  0  0
   -0.0008   -1.3842   -0.0006 C   0  0  0  0  0  0  0  0  0  0  0  0
   -0.0053   -2.3863   -0.0021 H   0  0  0  0  0  0  0  0  0  0  0  0
    1.1944   -0.6938   -0.0000 C   0  0  0  0  0  0  0  0  0  0  0  0
    2.0767   -1.1939    0.0022 H   0  0  0  0  0  0  0  0  0  0  0  0
    1.1911    0.6887    0.0001 C   0  0  0  0  0  0  0  0  0  0  0  0
    2.0608    1.1862   -0.0016 H   0  0  0  0  0  0  0  0  0  0  0  0
  1  5  1  0
  5  8  1  0
  1  2  1  0
  1  3  1  0
  1  4  1  0
  5  6  1  0
  5  7  1  0
  8  9  1  0
  8 10  1  0
  8 11  1  0
 12 16  1  0
 16 17  2  0
 17 19  1  0
 19 21  2  0
 21 23  1  0
 23 25  2  0
 25 16  1  0
 12 13  1  0
 12 14  1  0
 12 15  1  0
 17 18  1  0
 19 20  1  0
 21 22  1  0
 23 24  1  0
 25 26  1  0
M  CHG  1   8   1
M  END
>  <PDB_ID>  (111) 
pdb4zj7

>  <RESIDUE_NAME>  (111) 
LYS   PHE

>  <FRAG_NAME>  (111) 
ETAM   MBZ

>  <FRAG_ATOM_NUM>  (111) 
fragi: 11  fragj: 15

>  <atom.prop.CHAIN_ID>  (111) 
A A A A A A A A A A A Z Z Z Z Z Z Z Z Z Z Z Z Z Z Z

>  <atom.prop.IS_HEAVY_ATOM>  (111) 
1 0 0 0 1 0 0 1 0 0 0 1 0 0 0 1 1 0 1 0 1 0 1 0 1 0

>  <DIFUSE_FUNC_ATOM>  (111) 
n/a

>  <FINAL_SINGLE_POINT_ENERGY>  (111) 
0

>  <NONCOV_INTER_ENERGY_QM>  (111) 
0

>  <FF_Energy>  (111) 
12.26

>  <QM_Energy>  (111) 
-0.11

>  <source>  (111) 
ETAM_MBZ

>  <Index>  (111) 
29997

$$$$
ETAM-pdb4zoq-G-LYS-79:MBZ-pdb4zoq-G-PHE-51
     RDKit          3D

 26 25  0  0  0  0  0  0  0  0999 V2000
   -0.6053   -2.2302   -3.6211 C   0  0  0  0  0  0  0  0  0  0  0  0
   -0.2541   -2.7631   -2.9115 H   0  0  0  0  0  0  0  0  0  0  0  0
    0.0042   -1.6794   -4.1062 H   0  0  0  0  0  0  0  0  0  0  0  0
   -1.2235   -2.8253   -4.2932 H   0  0  0  0  0  0  0  0  0  0  0  0
   -1.6924   -1.3458   -3.0544 C   0  0  0  0  0  0  0  0  0  0  0  0
   -2.4454   -1.2698   -3.7432 H   0  0  0  0  0  0  0  0  0  0  0  0
   -2.1049   -1.8121   -2.2420 H   0  0  0  0  0  0  0  0  0  0  0  0
   -1.2789    0.0263   -2.6521 N   0  0  0  0  0  4  0  0  0  0  0  0
   -0.5177    0.3251   -3.2266 H   0  0  0  0  0  0  0  0  0  0  0  0
   -2.0501    0.6518   -2.7666 H   0  0  0  0  0  0  0  0  0  0  0  0
   -0.9929    0.0186   -1.6947 H   0  0  0  0  0  0  0  0  0  0  0  0
    0.0839    2.8918    0.0668 C   0  0  0  0  0  0  0  0  0  0  0  0
   -0.5746    3.2531   -0.5740 H   0  0  0  0  0  0  0  0  0  0  0  0
    1.0029    3.1719   -0.1582 H   0  0  0  0  0  0  0  0  0  0  0  0
   -0.1548    3.2935    1.0515 H   0  0  0  0  0  0  0  0  0  0  0  0
    0.0223    1.4001    0.0113 C   0  0  0  0  0  0  0  0  0  0  0  0
   -1.1745    0.7234    0.0001 C   0  0  0  0  0  0  0  0  0  0  0  0
   -2.0365    1.2108   -0.0090 H   0  0  0  0  0  0  0  0  0  0  0  0
   -1.1826   -0.6750   -0.0000 C   0  0  0  0  0  0  0  0  0  0  0  0
   -2.0913   -1.1425    0.0402 H   0  0  0  0  0  0  0  0  0  0  0  0
   -0.0371   -1.3882   -0.0490 C   0  0  0  0  0  0  0  0  0  0  0  0
   -0.0543   -2.3896   -0.1214 H   0  0  0  0  0  0  0  0  0  0  0  0
    1.1826   -0.7291    0.0000 C   0  0  0  0  0  0  0  0  0  0  0  0
    2.0476   -1.2352    0.0095 H   0  0  0  0  0  0  0  0  0  0  0  0
    1.1893    0.6687    0.0376 C   0  0  0  0  0  0  0  0  0  0  0  0
    2.0762    1.1449    0.0842 H   0  0  0  0  0  0  0  0  0  0  0  0
  1  5  1  0
  5  8  1  0
  1  2  1  0
  1  3  1  0
  1  4  1  0
  5  6  1  0
  5  7  1  0
  8  9  1  0
  8 10  1  0
  8 11  1  0
 12 16  1  0
 16 17  2  0
 17 19  1  0
 19 21  2  0
 21 23  1  0
 23 25  2  0
 25 16  1  0
 12 13  1  0
 12 14  1  0
 12 15  1  0
 17 18  1  0
 19 20  1  0
 21 22  1  0
 23 24  1  0
 25 26  1  0
M  CHG  1   8   1
M  END
>  <PDB_ID>  (112) 
pdb4zoq

>  <RESIDUE_NAME>  (112) 
LYS   PHE

>  <FRAG_NAME>  (112) 
ETAM   MBZ

>  <FRAG_ATOM_NUM>  (112) 
fragi: 11  fragj: 15

>  <atom.prop.CHAIN_ID>  (112) 
A A A A A A A A A A A Z Z Z Z Z Z Z Z Z Z Z Z Z Z Z

>  <atom.prop.IS_HEAVY_ATOM>  (112) 
1 0 0 0 1 0 0 1 0 0 0 1 0 0 0 1 1 0 1 0 1 0 1 0 1 0

>  <DIFUSE_FUNC_ATOM>  (112) 
n/a

>  <FINAL_SINGLE_POINT_ENERGY>  (112) 
0

>  <NONCOV_INTER_ENERGY_QM>  (112) 
0

>  <FF_Energy>  (112) 
0.26

>  <QM_Energy>  (112) 
-9.88

>  <source>  (112) 
ETAM_MBZ

>  <Index>  (112) 
30067

$$$$
ETAM-pdb4zoq-G-LYS-79:MBZ-pdb4zoq-G-PHE-76
     RDKit          3D

 26 25  0  0  0  0  0  0  0  0999 V2000
   -4.0082    3.8103    0.0177 C   0  0  0  0  0  0  0  0  0  0  0  0
   -4.7546    4.2544   -0.3778 H   0  0  0  0  0  0  0  0  0  0  0  0
   -3.1740    4.2731    0.0345 H   0  0  0  0  0  0  0  0  0  0  0  0
   -4.2608    3.4120    1.0003 H   0  0  0  0  0  0  0  0  0  0  0  0
   -3.8046    2.4964   -0.7017 C   0  0  0  0  0  0  0  0  0  0  0  0
   -3.5250    1.7883   -0.0180 H   0  0  0  0  0  0  0  0  0  0  0  0
   -4.7050    2.1830   -1.0741 H   0  0  0  0  0  0  0  0  0  0  0  0
   -2.8112    2.5023   -1.8101 N   0  0  0  0  0  4  0  0  0  0  0  0
   -2.1055    3.1837   -1.6194 H   0  0  0  0  0  0  0  0  0  0  0  0
   -2.3919    1.5979   -1.8841 H   0  0  0  0  0  0  0  0  0  0  0  0
   -3.2726    2.7288   -2.6671 H   0  0  0  0  0  0  0  0  0  0  0  0
   -0.0190    2.9179   -0.0102 C   0  0  0  0  0  0  0  0  0  0  0  0
   -0.4655    3.2057   -0.8456 H   0  0  0  0  0  0  0  0  0  0  0  0
    0.9213    3.2275    0.0163 H   0  0  0  0  0  0  0  0  0  0  0  0
   -0.5448    3.3813    0.8246 H   0  0  0  0  0  0  0  0  0  0  0  0
   -0.0052    1.3967    0.0048 C   0  0  0  0  0  0  0  0  0  0  0  0
   -1.1827    0.6837   -0.0015 C   0  0  0  0  0  0  0  0  0  0  0  0
   -2.0594    1.1765   -0.0084 H   0  0  0  0  0  0  0  0  0  0  0  0
   -1.1879   -0.6881   -0.0000 C   0  0  0  0  0  0  0  0  0  0  0  0
   -2.0709   -1.1847   -0.0025 H   0  0  0  0  0  0  0  0  0  0  0  0
   -0.0034   -1.3807    0.0061 C   0  0  0  0  0  0  0  0  0  0  0  0
   -0.0108   -2.3843    0.0143 H   0  0  0  0  0  0  0  0  0  0  0  0
    1.1879   -0.6971    0.0000 C   0  0  0  0  0  0  0  0  0  0  0  0
    2.0715   -1.1987    0.0034 H   0  0  0  0  0  0  0  0  0  0  0  0
    1.1913    0.6855   -0.0094 C   0  0  0  0  0  0  0  0  0  0  0  0
    2.0587    1.1821   -0.0277 H   0  0  0  0  0  0  0  0  0  0  0  0
  1  5  1  0
  5  8  1  0
  1  2  1  0
  1  3  1  0
  1  4  1  0
  5  6  1  0
  5  7  1  0
  8  9  1  0
  8 10  1  0
  8 11  1  0
 12 16  1  0
 16 17  2  0
 17 19  1  0
 19 21  2  0
 21 23  1  0
 23 25  2  0
 25 16  1  0
 12 13  1  0
 12 14  1  0
 12 15  1  0
 17 18  1  0
 19 20  1  0
 21 22  1  0
 23 24  1  0
 25 26  1  0
M  CHG  1   8   1
M  END
>  <PDB_ID>  (113) 
pdb4zoq

>  <RESIDUE_NAME>  (113) 
LYS   PHE

>  <FRAG_NAME>  (113) 
ETAM   MBZ

>  <FRAG_ATOM_NUM>  (113) 
fragi: 11  fragj: 15

>  <atom.prop.CHAIN_ID>  (113) 
A A A A A A A A A A A Z Z Z Z Z Z Z Z Z Z Z Z Z Z Z

>  <atom.prop.IS_HEAVY_ATOM>  (113) 
1 0 0 0 1 0 0 1 0 0 0 1 0 0 0 1 1 0 1 0 1 0 1 0 1 0

>  <DIFUSE_FUNC_ATOM>  (113) 
n/a

>  <FINAL_SINGLE_POINT_ENERGY>  (113) 
0

>  <NONCOV_INTER_ENERGY_QM>  (113) 
0

>  <FF_Energy>  (113) 
22.88

>  <QM_Energy>  (113) 
-1.84

>  <source>  (113) 
ETAM_MBZ

>  <Index>  (113) 
30068

$$$$
ETAM-pdb4zj7-A-LYS-973:MBZ-pdb4zj7-A-PHE-1007
     RDKit          3D

 26 25  0  0  0  0  0  0  0  0999 V2000
   -0.3922   -1.0582   -3.5704 C   0  0  0  0  0  0  0  0  0  0  0  0
   -0.5086   -1.0150   -4.5615 H   0  0  0  0  0  0  0  0  0  0  0  0
   -1.2852   -1.0940   -3.1269 H   0  0  0  0  0  0  0  0  0  0  0  0
    0.1673   -1.9590   -3.3181 H   0  0  0  0  0  0  0  0  0  0  0  0
    0.3224    0.1932   -3.1140 C   0  0  0  0  0  0  0  0  0  0  0  0
    0.5974    0.0858   -2.1678 H   0  0  0  0  0  0  0  0  0  0  0  0
    1.1106    0.3495   -3.6945 H   0  0  0  0  0  0  0  0  0  0  0  0
   -0.6125    1.3337   -3.2316 N   0  0  0  0  0  4  0  0  0  0  0  0
   -1.5557    0.9986   -3.2128 H   0  0  0  0  0  0  0  0  0  0  0  0
   -0.4699    1.9651   -2.4681 H   0  0  0  0  0  0  0  0  0  0  0  0
   -0.4491    1.8144   -4.0939 H   0  0  0  0  0  0  0  0  0  0  0  0
   -0.0023    2.9075    0.0197 C   0  0  0  0  0  0  0  0  0  0  0  0
   -0.7253    3.2205   -0.5667 H   0  0  0  0  0  0  0  0  0  0  0  0
    0.8813    3.2194   -0.2732 H   0  0  0  0  0  0  0  0  0  0  0  0
   -0.1850    3.2944    1.0223 H   0  0  0  0  0  0  0  0  0  0  0  0
    0.0028    1.4013   -0.0129 C   0  0  0  0  0  0  0  0  0  0  0  0
   -1.1886    0.6831   -0.0094 C   0  0  0  0  0  0  0  0  0  0  0  0
   -2.0609    1.1655   -0.0143 H   0  0  0  0  0  0  0  0  0  0  0  0
   -1.1913   -0.7174    0.0000 C   0  0  0  0  0  0  0  0  0  0  0  0
   -2.0727   -1.1998    0.0006 H   0  0  0  0  0  0  0  0  0  0  0  0
   -0.0079   -1.3807    0.0093 C   0  0  0  0  0  0  0  0  0  0  0  0
    0.0090   -2.3910    0.0231 H   0  0  0  0  0  0  0  0  0  0  0  0
    1.1913   -0.6864    0.0000 C   0  0  0  0  0  0  0  0  0  0  0  0
    2.0732   -1.1888   -0.0153 H   0  0  0  0  0  0  0  0  0  0  0  0
    1.1938    0.7001    0.0129 C   0  0  0  0  0  0  0  0  0  0  0  0
    2.0623    1.1933    0.0400 H   0  0  0  0  0  0  0  0  0  0  0  0
  1  5  1  0
  5  8  1  0
  1  2  1  0
  1  3  1  0
  1  4  1  0
  5  6  1  0
  5  7  1  0
  8  9  1  0
  8 10  1  0
  8 11  1  0
 12 16  1  0
 16 17  2  0
 17 19  1  0
 19 21  2  0
 21 23  1  0
 23 25  2  0
 25 16  1  0
 12 13  1  0
 12 14  1  0
 12 15  1  0
 17 18  1  0
 19 20  1  0
 21 22  1  0
 23 24  1  0
 25 26  1  0
M  CHG  1   8   1
M  END
>  <PDB_ID>  (114) 
pdb4zj7

>  <RESIDUE_NAME>  (114) 
LYS   PHE

>  <FRAG_NAME>  (114) 
ETAM   MBZ

>  <FRAG_ATOM_NUM>  (114) 
fragi: 11  fragj: 15

>  <atom.prop.CHAIN_ID>  (114) 
A A A A A A A A A A A Z Z Z Z Z Z Z Z Z Z Z Z Z Z Z

>  <atom.prop.IS_HEAVY_ATOM>  (114) 
1 0 0 0 1 0 0 1 0 0 0 1 0 0 0 1 1 0 1 0 1 0 1 0 1 0

>  <DIFUSE_FUNC_ATOM>  (114) 
n/a

>  <FINAL_SINGLE_POINT_ENERGY>  (114) 
0

>  <NONCOV_INTER_ENERGY_QM>  (114) 
0

>  <FF_Energy>  (114) 
-2.25

>  <QM_Energy>  (114) 
-12.95

>  <source>  (114) 
ETAM_MBZ

>  <Index>  (114) 
30074

$$$$
ETAM-pdb6a9x-D-LYS-66:MBZ-pdb6a9x-D-PHE-62
     RDKit          3D

 26 25  0  0  0  0  0  0  0  0999 V2000
    1.5129   -2.2925    3.4508 C   0  0  0  0  0  0  0  0  0  0  0  0
    2.1288   -1.6249    3.0341 H   0  0  0  0  0  0  0  0  0  0  0  0
    2.0333   -2.9056    4.0443 H   0  0  0  0  0  0  0  0  0  0  0  0
    0.7842   -1.7575    4.0597 H   0  0  0  0  0  0  0  0  0  0  0  0
    0.8636   -3.1076    2.3562 C   0  0  0  0  0  0  0  0  0  0  0  0
    0.0333   -3.5345    2.7134 H   0  0  0  0  0  0  0  0  0  0  0  0
    0.6268   -2.5040    1.5946 H   0  0  0  0  0  0  0  0  0  0  0  0
    1.7884   -4.1632    1.8745 N   0  0  0  0  0  4  0  0  0  0  0  0
    1.5594   -4.4034    0.9309 H   0  0  0  0  0  0  0  0  0  0  0  0
    2.7291   -3.8252    1.9132 H   0  0  0  0  0  0  0  0  0  0  0  0
    1.7017   -4.9730    2.4545 H   0  0  0  0  0  0  0  0  0  0  0  0
   -0.0019    2.8965    0.0123 C   0  0  0  0  0  0  0  0  0  0  0  0
   -0.7264    3.2085   -0.5813 H   0  0  0  0  0  0  0  0  0  0  0  0
    0.8821    3.2085   -0.2977 H   0  0  0  0  0  0  0  0  0  0  0  0
   -0.1763    3.3196    1.0016 H   0  0  0  0  0  0  0  0  0  0  0  0
   -0.0000    1.3968   -0.0011 C   0  0  0  0  0  0  0  0  0  0  0  0
   -1.1884    0.6911    0.0014 C   0  0  0  0  0  0  0  0  0  0  0  0
   -2.0590    1.1796    0.0026 H   0  0  0  0  0  0  0  0  0  0  0  0
   -1.1928   -0.6957    0.0000 C   0  0  0  0  0  0  0  0  0  0  0  0
   -2.0721   -1.1885    0.0002 H   0  0  0  0  0  0  0  0  0  0  0  0
    0.0009   -1.3891   -0.0000 C   0  0  0  0  0  0  0  0  0  0  0  0
   -0.0026   -2.3894   -0.0006 H   0  0  0  0  0  0  0  0  0  0  0  0
    1.1928   -0.6950   -0.0000 C   0  0  0  0  0  0  0  0  0  0  0  0
    2.0778   -1.1906    0.0019 H   0  0  0  0  0  0  0  0  0  0  0  0
    1.1875    0.6920   -0.0002 C   0  0  0  0  0  0  0  0  0  0  0  0
    2.0597    1.1871   -0.0003 H   0  0  0  0  0  0  0  0  0  0  0  0
  1  5  1  0
  5  8  1  0
  1  2  1  0
  1  3  1  0
  1  4  1  0
  5  6  1  0
  5  7  1  0
  8  9  1  0
  8 10  1  0
  8 11  1  0
 12 16  1  0
 16 17  2  0
 17 19  1  0
 19 21  2  0
 21 23  1  0
 23 25  2  0
 25 16  1  0
 12 13  1  0
 12 14  1  0
 12 15  1  0
 17 18  1  0
 19 20  1  0
 21 22  1  0
 23 24  1  0
 25 26  1  0
M  CHG  1   8   1
M  END
>  <PDB_ID>  (115) 
pdb6a9x

>  <RESIDUE_NAME>  (115) 
LYS   PHE

>  <FRAG_NAME>  (115) 
ETAM   MBZ

>  <FRAG_ATOM_NUM>  (115) 
fragi: 11  fragj: 15

>  <atom.prop.CHAIN_ID>  (115) 
A A A A A A A A A A A Z Z Z Z Z Z Z Z Z Z Z Z Z Z Z

>  <atom.prop.IS_HEAVY_ATOM>  (115) 
1 0 0 0 1 0 0 1 0 0 0 1 0 0 0 1 1 0 1 0 1 0 1 0 1 0

>  <DIFUSE_FUNC_ATOM>  (115) 
n/a

>  <FINAL_SINGLE_POINT_ENERGY>  (115) 
0

>  <NONCOV_INTER_ENERGY_QM>  (115) 
0

>  <FF_Energy>  (115) 
23.1

>  <QM_Energy>  (115) 
-0.68

>  <source>  (115) 
ETAM_MBZ

>  <Index>  (115) 
30250

$$$$
ETAM-pdb5b5v-A-LYS-184:MBZ-pdb5b5v-A-PHE-188
     RDKit          3D

 26 25  0  0  0  0  0  0  0  0999 V2000
    4.9452   -2.1031   -0.6874 C   0  0  0  0  0  0  0  0  0  0  0  0
    5.3181   -2.8479   -1.2374 H   0  0  0  0  0  0  0  0  0  0  0  0
    5.6864   -1.6123   -0.2341 H   0  0  0  0  0  0  0  0  0  0  0  0
    4.4193   -1.4121   -1.3463 H   0  0  0  0  0  0  0  0  0  0  0  0
    4.0351   -2.7026    0.3843 C   0  0  0  0  0  0  0  0  0  0  0  0
    3.3810   -2.0037    0.6846 H   0  0  0  0  0  0  0  0  0  0  0  0
    3.5300   -3.4739   -0.0105 H   0  0  0  0  0  0  0  0  0  0  0  0
    4.8074   -3.1910    1.5821 N   0  0  0  0  0  4  0  0  0  0  0  0
    4.2204   -3.1431    2.3857 H   0  0  0  0  0  0  0  0  0  0  0  0
    5.0901   -4.1327    1.4217 H   0  0  0  0  0  0  0  0  0  0  0  0
    5.6079   -2.6105    1.7080 H   0  0  0  0  0  0  0  0  0  0  0  0
   -0.0037    2.9112    0.0159 C   0  0  0  0  0  0  0  0  0  0  0  0
    0.9357    3.2147   -0.0166 H   0  0  0  0  0  0  0  0  0  0  0  0
   -0.4492    3.2022    0.8482 H   0  0  0  0  0  0  0  0  0  0  0  0
   -0.5328    3.3581   -0.8258 H   0  0  0  0  0  0  0  0  0  0  0  0
   -0.0017    1.4008   -0.0019 C   0  0  0  0  0  0  0  0  0  0  0  0
   -1.1900    0.6995    0.0148 C   0  0  0  0  0  0  0  0  0  0  0  0
   -2.0604    1.1847    0.0366 H   0  0  0  0  0  0  0  0  0  0  0  0
   -1.1980   -0.6972   -0.0000 C   0  0  0  0  0  0  0  0  0  0  0  0
   -2.0773   -1.1845    0.0004 H   0  0  0  0  0  0  0  0  0  0  0  0
   -0.0021   -1.3924   -0.0126 C   0  0  0  0  0  0  0  0  0  0  0  0
   -0.0061   -2.3916   -0.0312 H   0  0  0  0  0  0  0  0  0  0  0  0
    1.1980   -0.6986   -0.0000 C   0  0  0  0  0  0  0  0  0  0  0  0
    2.0788   -1.1987    0.0108 H   0  0  0  0  0  0  0  0  0  0  0  0
    1.1938    0.6879   -0.0003 C   0  0  0  0  0  0  0  0  0  0  0  0
    2.0633    1.1858   -0.0004 H   0  0  0  0  0  0  0  0  0  0  0  0
  1  5  1  0
  5  8  1  0
  1  2  1  0
  1  3  1  0
  1  4  1  0
  5  6  1  0
  5  7  1  0
  8  9  1  0
  8 10  1  0
  8 11  1  0
 12 16  1  0
 16 17  2  0
 17 19  1  0
 19 21  2  0
 21 23  1  0
 23 25  2  0
 25 16  1  0
 12 13  1  0
 12 14  1  0
 12 15  1  0
 17 18  1  0
 19 20  1  0
 21 22  1  0
 23 24  1  0
 25 26  1  0
M  CHG  1   8   1
M  END
>  <PDB_ID>  (116) 
pdb5b5v

>  <RESIDUE_NAME>  (116) 
LYS   PHE

>  <FRAG_NAME>  (116) 
ETAM   MBZ

>  <FRAG_ATOM_NUM>  (116) 
fragi: 11  fragj: 15

>  <atom.prop.CHAIN_ID>  (116) 
A A A A A A A A A A A Z Z Z Z Z Z Z Z Z Z Z Z Z Z Z

>  <atom.prop.IS_HEAVY_ATOM>  (116) 
1 0 0 0 1 0 0 1 0 0 0 1 0 0 0 1 1 0 1 0 1 0 1 0 1 0

>  <DIFUSE_FUNC_ATOM>  (116) 
n/a

>  <FINAL_SINGLE_POINT_ENERGY>  (116) 
0

>  <NONCOV_INTER_ENERGY_QM>  (116) 
0

>  <FF_Energy>  (116) 
10.47

>  <QM_Energy>  (116) 
-0.23

>  <source>  (116) 
ETAM_MBZ

>  <Index>  (116) 
30674

$$$$
ETAM-pdb5b5v-C-LYS-184:MBZ-pdb5b5v-C-PHE-188
     RDKit          3D

 26 25  0  0  0  0  0  0  0  0999 V2000
    4.9479   -2.0968   -0.6862 C   0  0  0  0  0  0  0  0  0  0  0  0
    5.3228   -2.8389   -1.2371 H   0  0  0  0  0  0  0  0  0  0  0  0
    5.6855   -1.6024   -0.2329 H   0  0  0  0  0  0  0  0  0  0  0  0
    4.4202   -1.4075   -1.3454 H   0  0  0  0  0  0  0  0  0  0  0  0
    4.0364   -2.6973    0.3828 C   0  0  0  0  0  0  0  0  0  0  0  0
    3.3814   -2.0003    0.6825 H   0  0  0  0  0  0  0  0  0  0  0  0
    3.5347   -3.4701   -0.0119 H   0  0  0  0  0  0  0  0  0  0  0  0
    4.8089   -3.1845    1.5838 N   0  0  0  0  0  4  0  0  0  0  0  0
    5.7798   -3.1931    1.3599 H   0  0  0  0  0  0  0  0  0  0  0  0
    4.6384   -2.5679    2.3472 H   0  0  0  0  0  0  0  0  0  0  0  0
    4.5027   -4.1049    1.8116 H   0  0  0  0  0  0  0  0  0  0  0  0
   -0.0058    2.9098    0.0088 C   0  0  0  0  0  0  0  0  0  0  0  0
    0.9350    3.2136   -0.0250 H   0  0  0  0  0  0  0  0  0  0  0  0
   -0.4492    3.2049    0.8412 H   0  0  0  0  0  0  0  0  0  0  0  0
   -0.5357    3.3560   -0.8327 H   0  0  0  0  0  0  0  0  0  0  0  0
   -0.0041    1.4021   -0.0041 C   0  0  0  0  0  0  0  0  0  0  0  0
   -1.1906    0.6970    0.0125 C   0  0  0  0  0  0  0  0  0  0  0  0
   -2.0626    1.1805    0.0320 H   0  0  0  0  0  0  0  0  0  0  0  0
   -1.1972   -0.7012    0.0000 C   0  0  0  0  0  0  0  0  0  0  0  0
   -2.0756   -1.1889   -0.0014 H   0  0  0  0  0  0  0  0  0  0  0  0
    0.0002   -1.3939   -0.0080 C   0  0  0  0  0  0  0  0  0  0  0  0
   -0.0008   -2.3928   -0.0204 H   0  0  0  0  0  0  0  0  0  0  0  0
    1.1972   -0.6955   -0.0000 C   0  0  0  0  0  0  0  0  0  0  0  0
    2.0810   -1.1942    0.0076 H   0  0  0  0  0  0  0  0  0  0  0  0
    1.1944    0.6915   -0.0003 C   0  0  0  0  0  0  0  0  0  0  0  0
    2.0616    1.1895    0.0010 H   0  0  0  0  0  0  0  0  0  0  0  0
  1  5  1  0
  5  8  1  0
  1  2  1  0
  1  3  1  0
  1  4  1  0
  5  6  1  0
  5  7  1  0
  8  9  1  0
  8 10  1  0
  8 11  1  0
 12 16  1  0
 16 17  2  0
 17 19  1  0
 19 21  2  0
 21 23  1  0
 23 25  2  0
 25 16  1  0
 12 13  1  0
 12 14  1  0
 12 15  1  0
 17 18  1  0
 19 20  1  0
 21 22  1  0
 23 24  1  0
 25 26  1  0
M  CHG  1   8   1
M  END
>  <PDB_ID>  (117) 
pdb5b5v

>  <RESIDUE_NAME>  (117) 
LYS   PHE

>  <FRAG_NAME>  (117) 
ETAM   MBZ

>  <FRAG_ATOM_NUM>  (117) 
fragi: 11  fragj: 15

>  <atom.prop.CHAIN_ID>  (117) 
A A A A A A A A A A A Z Z Z Z Z Z Z Z Z Z Z Z Z Z Z

>  <atom.prop.IS_HEAVY_ATOM>  (117) 
1 0 0 0 1 0 0 1 0 0 0 1 0 0 0 1 1 0 1 0 1 0 1 0 1 0

>  <DIFUSE_FUNC_ATOM>  (117) 
n/a

>  <FINAL_SINGLE_POINT_ENERGY>  (117) 
0

>  <NONCOV_INTER_ENERGY_QM>  (117) 
0

>  <FF_Energy>  (117) 
10.55

>  <QM_Energy>  (117) 
-0.23

>  <source>  (117) 
ETAM_MBZ

>  <Index>  (117) 
30677

$$$$
ETAM-pdb5ca8-A-LYS-545:MBZ-pdb5ca8-A-PHE-548
     RDKit          3D

 26 25  0  0  0  0  0  0  0  0999 V2000
    2.3014    2.6594    2.8813 C   0  0  0  0  0  0  0  0  0  0  0  0
    3.0780    2.3520    2.3163 H   0  0  0  0  0  0  0  0  0  0  0  0
    2.5980    2.6727    3.8447 H   0  0  0  0  0  0  0  0  0  0  0  0
    1.9909    3.6578    2.5733 H   0  0  0  0  0  0  0  0  0  0  0  0
    1.2063    1.6919    2.7405 C   0  0  0  0  0  0  0  0  0  0  0  0
    0.5304    1.8216    3.4847 H   0  0  0  0  0  0  0  0  0  0  0  0
    0.7199    1.8427    1.8638 H   0  0  0  0  0  0  0  0  0  0  0  0
    1.6743    0.2843    2.7771 N   0  0  0  0  0  4  0  0  0  0  0  0
    2.3625    0.1800    3.4956 H   0  0  0  0  0  0  0  0  0  0  0  0
    0.9005   -0.3196    2.9671 H   0  0  0  0  0  0  0  0  0  0  0  0
    2.0757    0.0433    1.8934 H   0  0  0  0  0  0  0  0  0  0  0  0
    0.0008    2.9525    0.1318 C   0  0  0  0  0  0  0  0  0  0  0  0
    0.5805    3.1887    0.9094 H   0  0  0  0  0  0  0  0  0  0  0  0
   -0.9412    3.2255    0.3167 H   0  0  0  0  0  0  0  0  0  0  0  0
    0.3522    3.5102   -0.7363 H   0  0  0  0  0  0  0  0  0  0  0  0
    0.0043    1.4105    0.0260 C   0  0  0  0  0  0  0  0  0  0  0  0
   -1.1908    0.6985    0.0281 C   0  0  0  0  0  0  0  0  0  0  0  0
   -2.0561    1.1862    0.0484 H   0  0  0  0  0  0  0  0  0  0  0  0
   -1.1749   -0.6769   -0.0000 C   0  0  0  0  0  0  0  0  0  0  0  0
   -2.0796   -1.1692   -0.0003 H   0  0  0  0  0  0  0  0  0  0  0  0
   -0.0236   -1.3798   -0.0254 C   0  0  0  0  0  0  0  0  0  0  0  0
   -0.0464   -2.3908   -0.0641 H   0  0  0  0  0  0  0  0  0  0  0  0
    1.1749   -0.7303   -0.0000 C   0  0  0  0  0  0  0  0  0  0  0  0
    2.0519   -1.2349    0.0413 H   0  0  0  0  0  0  0  0  0  0  0  0
    1.2101    0.6780   -0.0287 C   0  0  0  0  0  0  0  0  0  0  0  0
    2.0732    1.1519   -0.0879 H   0  0  0  0  0  0  0  0  0  0  0  0
  1  5  1  0
  5  8  1  0
  1  2  1  0
  1  3  1  0
  1  4  1  0
  5  6  1  0
  5  7  1  0
  8  9  1  0
  8 10  1  0
  8 11  1  0
 12 16  1  0
 16 17  2  0
 17 19  1  0
 19 21  2  0
 21 23  1  0
 23 25  2  0
 25 16  1  0
 12 13  1  0
 12 14  1  0
 12 15  1  0
 17 18  1  0
 19 20  1  0
 21 22  1  0
 23 24  1  0
 25 26  1  0
M  CHG  1   8   1
M  END
>  <PDB_ID>  (118) 
pdb5ca8

>  <RESIDUE_NAME>  (118) 
LYS   PHE

>  <FRAG_NAME>  (118) 
ETAM   MBZ

>  <FRAG_ATOM_NUM>  (118) 
fragi: 11  fragj: 15

>  <atom.prop.CHAIN_ID>  (118) 
A A A A A A A A A A A Z Z Z Z Z Z Z Z Z Z Z Z Z Z Z

>  <atom.prop.IS_HEAVY_ATOM>  (118) 
1 0 0 0 1 0 0 1 0 0 0 1 0 0 0 1 1 0 1 0 1 0 1 0 1 0

>  <DIFUSE_FUNC_ATOM>  (118) 
n/a

>  <FINAL_SINGLE_POINT_ENERGY>  (118) 
0

>  <NONCOV_INTER_ENERGY_QM>  (118) 
0

>  <FF_Energy>  (118) 
39.31

>  <QM_Energy>  (118) 
-3.16

>  <source>  (118) 
ETAM_MBZ

>  <Index>  (118) 
31182

$$$$
ETAM-pdb5ca8-A-LYS-545:MBZ-pdb5ca8-A-PHE-640
     RDKit          3D

 26 25  0  0  0  0  0  0  0  0999 V2000
   -0.3800   -0.0679    3.5908 C   0  0  0  0  0  0  0  0  0  0  0  0
    0.1666   -0.5784    4.2673 H   0  0  0  0  0  0  0  0  0  0  0  0
   -0.6903   -0.7150    2.8829 H   0  0  0  0  0  0  0  0  0  0  0  0
   -1.2400    0.3906    4.0790 H   0  0  0  0  0  0  0  0  0  0  0  0
    0.4780    0.9424    2.9598 C   0  0  0  0  0  0  0  0  0  0  0  0
    0.0466    1.2811    2.1073 H   0  0  0  0  0  0  0  0  0  0  0  0
    0.5885    1.7390    3.5771 H   0  0  0  0  0  0  0  0  0  0  0  0
    1.8268    0.4229    2.6242 N   0  0  0  0  0  4  0  0  0  0  0  0
    1.7436   -0.4952    2.2359 H   0  0  0  0  0  0  0  0  0  0  0  0
    2.2610    1.0284    1.9575 H   0  0  0  0  0  0  0  0  0  0  0  0
    2.3852    0.3850    3.4530 H   0  0  0  0  0  0  0  0  0  0  0  0
    0.0500    2.9015    0.1682 C   0  0  0  0  0  0  0  0  0  0  0  0
    0.8988    3.1225    0.6486 H   0  0  0  0  0  0  0  0  0  0  0  0
   -0.7311    3.1668    0.7337 H   0  0  0  0  0  0  0  0  0  0  0  0
    0.0173    3.4787   -0.7559 H   0  0  0  0  0  0  0  0  0  0  0  0
    0.0007    1.4025    0.0134 C   0  0  0  0  0  0  0  0  0  0  0  0
   -1.1978    0.7054    0.0216 C   0  0  0  0  0  0  0  0  0  0  0  0
   -2.0612    1.1843    0.0412 H   0  0  0  0  0  0  0  0  0  0  0  0
   -1.1909   -0.6975    0.0000 C   0  0  0  0  0  0  0  0  0  0  0  0
   -2.0664   -1.1910    0.0039 H   0  0  0  0  0  0  0  0  0  0  0  0
    0.0123   -1.3833   -0.0240 C   0  0  0  0  0  0  0  0  0  0  0  0
   -0.0028   -2.3918   -0.0598 H   0  0  0  0  0  0  0  0  0  0  0  0
    1.1909   -0.7072   -0.0000 C   0  0  0  0  0  0  0  0  0  0  0  0
    2.0795   -1.1973    0.0270 H   0  0  0  0  0  0  0  0  0  0  0  0
    1.1847    0.6802   -0.0110 C   0  0  0  0  0  0  0  0  0  0  0  0
    2.0614    1.1750   -0.0380 H   0  0  0  0  0  0  0  0  0  0  0  0
  1  5  1  0
  5  8  1  0
  1  2  1  0
  1  3  1  0
  1  4  1  0
  5  6  1  0
  5  7  1  0
  8  9  1  0
  8 10  1  0
  8 11  1  0
 12 16  1  0
 16 17  2  0
 17 19  1  0
 19 21  2  0
 21 23  1  0
 23 25  2  0
 25 16  1  0
 12 13  1  0
 12 14  1  0
 12 15  1  0
 17 18  1  0
 19 20  1  0
 21 22  1  0
 23 24  1  0
 25 26  1  0
M  CHG  1   8   1
M  END
>  <PDB_ID>  (119) 
pdb5ca8

>  <RESIDUE_NAME>  (119) 
LYS   PHE

>  <FRAG_NAME>  (119) 
ETAM   MBZ

>  <FRAG_ATOM_NUM>  (119) 
fragi: 11  fragj: 15

>  <atom.prop.CHAIN_ID>  (119) 
A A A A A A A A A A A Z Z Z Z Z Z Z Z Z Z Z Z Z Z Z

>  <atom.prop.IS_HEAVY_ATOM>  (119) 
1 0 0 0 1 0 0 1 0 0 0 1 0 0 0 1 1 0 1 0 1 0 1 0 1 0

>  <DIFUSE_FUNC_ATOM>  (119) 
n/a

>  <FINAL_SINGLE_POINT_ENERGY>  (119) 
0

>  <NONCOV_INTER_ENERGY_QM>  (119) 
0

>  <FF_Energy>  (119) 
15.86

>  <QM_Energy>  (119) 
-6.88

>  <source>  (119) 
ETAM_MBZ

>  <Index>  (119) 
31183

$$$$
ETAM-pdb5cjz-A-LYS-122:MBZ-pdb5cjz-A-PHE-50
     RDKit          3D

 26 25  0  0  0  0  0  0  0  0999 V2000
    4.1496   -2.5438    0.2475 C   0  0  0  0  0  0  0  0  0  0  0  0
    3.2507   -2.2137    0.5141 H   0  0  0  0  0  0  0  0  0  0  0  0
    4.6972   -1.8025   -0.1227 H   0  0  0  0  0  0  0  0  0  0  0  0
    4.6513   -2.9482    1.1266 H   0  0  0  0  0  0  0  0  0  0  0  0
    3.9753   -3.6044   -0.8342 C   0  0  0  0  0  0  0  0  0  0  0  0
    4.8846   -3.8534   -1.1932 H   0  0  0  0  0  0  0  0  0  0  0  0
    3.5680   -4.4280   -0.4181 H   0  0  0  0  0  0  0  0  0  0  0  0
    3.1121   -3.1564   -1.9680 N   0  0  0  0  0  4  0  0  0  0  0  0
    3.6888   -2.9413   -2.7548 H   0  0  0  0  0  0  0  0  0  0  0  0
    2.4765   -3.8886   -2.2066 H   0  0  0  0  0  0  0  0  0  0  0  0
    2.6020   -2.3436   -1.6918 H   0  0  0  0  0  0  0  0  0  0  0  0
    0.0271    2.9164    0.0123 C   0  0  0  0  0  0  0  0  0  0  0  0
    0.7395    3.2141   -0.6107 H   0  0  0  0  0  0  0  0  0  0  0  0
    0.2246    3.2062    0.9401 H   0  0  0  0  0  0  0  0  0  0  0  0
   -0.9022    3.3969   -0.2937 H   0  0  0  0  0  0  0  0  0  0  0  0
   -0.0015    1.4045   -0.0044 C   0  0  0  0  0  0  0  0  0  0  0  0
   -1.1923    0.6970    0.0045 C   0  0  0  0  0  0  0  0  0  0  0  0
   -2.0623    1.1810    0.0126 H   0  0  0  0  0  0  0  0  0  0  0  0
   -1.1941   -0.6996    0.0000 C   0  0  0  0  0  0  0  0  0  0  0  0
   -2.0716   -1.1910   -0.0022 H   0  0  0  0  0  0  0  0  0  0  0  0
    0.0053   -1.3923   -0.0001 C   0  0  0  0  0  0  0  0  0  0  0  0
   -0.0011   -2.3927   -0.0005 H   0  0  0  0  0  0  0  0  0  0  0  0
    1.1941   -0.6993    0.0000 C   0  0  0  0  0  0  0  0  0  0  0  0
    2.0812   -1.1927    0.0020 H   0  0  0  0  0  0  0  0  0  0  0  0
    1.1885    0.6897   -0.0001 C   0  0  0  0  0  0  0  0  0  0  0  0
    2.0616    1.1853    0.0020 H   0  0  0  0  0  0  0  0  0  0  0  0
  1  5  1  0
  5  8  1  0
  1  2  1  0
  1  3  1  0
  1  4  1  0
  5  6  1  0
  5  7  1  0
  8  9  1  0
  8 10  1  0
  8 11  1  0
 12 16  1  0
 16 17  2  0
 17 19  1  0
 19 21  2  0
 21 23  1  0
 23 25  2  0
 25 16  1  0
 12 13  1  0
 12 14  1  0
 12 15  1  0
 17 18  1  0
 19 20  1  0
 21 22  1  0
 23 24  1  0
 25 26  1  0
M  CHG  1   8   1
M  END
>  <PDB_ID>  (120) 
pdb5cjz

>  <RESIDUE_NAME>  (120) 
LYS   PHE

>  <FRAG_NAME>  (120) 
ETAM   MBZ

>  <FRAG_ATOM_NUM>  (120) 
fragi: 11  fragj: 15

>  <atom.prop.CHAIN_ID>  (120) 
A A A A A A A A A A A Z Z Z Z Z Z Z Z Z Z Z Z Z Z Z

>  <atom.prop.IS_HEAVY_ATOM>  (120) 
1 0 0 0 1 0 0 1 0 0 0 1 0 0 0 1 1 0 1 0 1 0 1 0 1 0

>  <DIFUSE_FUNC_ATOM>  (120) 
n/a

>  <FINAL_SINGLE_POINT_ENERGY>  (120) 
0

>  <NONCOV_INTER_ENERGY_QM>  (120) 
0

>  <FF_Energy>  (120) 
11.46

>  <QM_Energy>  (120) 
-2.42

>  <source>  (120) 
ETAM_MBZ

>  <Index>  (120) 
31369

$$$$
ETAM-pdb5ech-D-LYS-143:MBZ-pdb5ech-D-PHE-212
     RDKit          3D

 26 25  0  0  0  0  0  0  0  0999 V2000
   -0.1068    3.1686   -3.2031 C   0  0  0  0  0  0  0  0  0  0  0  0
    0.1104    3.2245   -2.2275 H   0  0  0  0  0  0  0  0  0  0  0  0
   -1.0763    3.3739   -3.3395 H   0  0  0  0  0  0  0  0  0  0  0  0
    0.5047    3.8793   -3.7591 H   0  0  0  0  0  0  0  0  0  0  0  0
    0.1332    1.7300   -3.6520 C   0  0  0  0  0  0  0  0  0  0  0  0
   -0.1005    1.6504   -4.6194 H   0  0  0  0  0  0  0  0  0  0  0  0
    1.0978    1.5066   -3.5197 H   0  0  0  0  0  0  0  0  0  0  0  0
   -0.7039    0.7864   -2.8626 N   0  0  0  0  0  4  0  0  0  0  0  0
   -1.6296    0.7703   -3.2385 H   0  0  0  0  0  0  0  0  0  0  0  0
   -0.3063   -0.1300   -2.9111 H   0  0  0  0  0  0  0  0  0  0  0  0
   -0.7341    1.0880   -1.9100 H   0  0  0  0  0  0  0  0  0  0  0  0
    0.0019    2.9051   -0.0293 C   0  0  0  0  0  0  0  0  0  0  0  0
   -0.5781    3.1879   -0.7847 H   0  0  0  0  0  0  0  0  0  0  0  0
    0.9380    3.2021   -0.1787 H   0  0  0  0  0  0  0  0  0  0  0  0
   -0.3640    3.3893    0.8761 H   0  0  0  0  0  0  0  0  0  0  0  0
    0.0001    1.3962    0.0093 C   0  0  0  0  0  0  0  0  0  0  0  0
   -1.1851    0.6871   -0.0102 C   0  0  0  0  0  0  0  0  0  0  0  0
   -2.0565    1.1812   -0.0337 H   0  0  0  0  0  0  0  0  0  0  0  0
   -1.1915   -0.6889    0.0000 C   0  0  0  0  0  0  0  0  0  0  0  0
   -2.0752   -1.1837    0.0038 H   0  0  0  0  0  0  0  0  0  0  0  0
   -0.0049   -1.3856    0.0071 C   0  0  0  0  0  0  0  0  0  0  0  0
   -0.0112   -2.3867    0.0173 H   0  0  0  0  0  0  0  0  0  0  0  0
    1.1915   -0.6974   -0.0000 C   0  0  0  0  0  0  0  0  0  0  0  0
    2.0737   -1.1966    0.0003 H   0  0  0  0  0  0  0  0  0  0  0  0
    1.1899    0.6886   -0.0063 C   0  0  0  0  0  0  0  0  0  0  0  0
    2.0608    1.1833   -0.0232 H   0  0  0  0  0  0  0  0  0  0  0  0
  1  5  1  0
  5  8  1  0
  1  2  1  0
  1  3  1  0
  1  4  1  0
  5  6  1  0
  5  7  1  0
  8  9  1  0
  8 10  1  0
  8 11  1  0
 12 16  1  0
 16 17  2  0
 17 19  1  0
 19 21  2  0
 21 23  1  0
 23 25  2  0
 25 16  1  0
 12 13  1  0
 12 14  1  0
 12 15  1  0
 17 18  1  0
 19 20  1  0
 21 22  1  0
 23 24  1  0
 25 26  1  0
M  CHG  1   8   1
M  END
>  <PDB_ID>  (121) 
pdb5ech

>  <RESIDUE_NAME>  (121) 
LYS   PHE

>  <FRAG_NAME>  (121) 
ETAM   MBZ

>  <FRAG_ATOM_NUM>  (121) 
fragi: 11  fragj: 15

>  <atom.prop.CHAIN_ID>  (121) 
A A A A A A A A A A A Z Z Z Z Z Z Z Z Z Z Z Z Z Z Z

>  <atom.prop.IS_HEAVY_ATOM>  (121) 
1 0 0 0 1 0 0 1 0 0 0 1 0 0 0 1 1 0 1 0 1 0 1 0 1 0

>  <DIFUSE_FUNC_ATOM>  (121) 
n/a

>  <FINAL_SINGLE_POINT_ENERGY>  (121) 
0

>  <NONCOV_INTER_ENERGY_QM>  (121) 
0

>  <FF_Energy>  (121) 
11.23

>  <QM_Energy>  (121) 
-9.21

>  <source>  (121) 
ETAM_MBZ

>  <Index>  (121) 
32246

$$$$
ETAM-pdb5epc-A-LYS-457:MBZ-pdb5epc-A-PHE-454
     RDKit          3D

 26 25  0  0  0  0  0  0  0  0999 V2000
   -2.2268    1.5692    2.7963 C   0  0  0  0  0  0  0  0  0  0  0  0
   -1.5390    1.0593    2.2774 H   0  0  0  0  0  0  0  0  0  0  0  0
   -3.0004    0.9690    3.0013 H   0  0  0  0  0  0  0  0  0  0  0  0
   -1.7812    1.8994    3.7347 H   0  0  0  0  0  0  0  0  0  0  0  0
   -2.7174    2.7200    1.9505 C   0  0  0  0  0  0  0  0  0  0  0  0
   -3.0675    3.4415    2.5482 H   0  0  0  0  0  0  0  0  0  0  0  0
   -1.9564    3.0788    1.4089 H   0  0  0  0  0  0  0  0  0  0  0  0
   -3.7998    2.2760    1.0364 N   0  0  0  0  0  4  0  0  0  0  0  0
   -3.6381    1.3261    0.7658 H   0  0  0  0  0  0  0  0  0  0  0  0
   -4.6806    2.3432    1.5046 H   0  0  0  0  0  0  0  0  0  0  0  0
   -3.8093    2.8573    0.2229 H   0  0  0  0  0  0  0  0  0  0  0  0
   -0.0047    2.8804    0.0184 C   0  0  0  0  0  0  0  0  0  0  0  0
   -0.7516    3.1986   -0.5428 H   0  0  0  0  0  0  0  0  0  0  0  0
    0.8658    3.2011   -0.3179 H   0  0  0  0  0  0  0  0  0  0  0  0
   -0.1445    3.2856    1.0206 H   0  0  0  0  0  0  0  0  0  0  0  0
    0.0010    1.3924   -0.0078 C   0  0  0  0  0  0  0  0  0  0  0  0
   -1.1917    0.6895    0.0087 C   0  0  0  0  0  0  0  0  0  0  0  0
   -2.0582    1.1822    0.0262 H   0  0  0  0  0  0  0  0  0  0  0  0
   -1.1956   -0.6925   -0.0000 C   0  0  0  0  0  0  0  0  0  0  0  0
   -2.0759   -1.1876   -0.0039 H   0  0  0  0  0  0  0  0  0  0  0  0
   -0.0038   -1.3850   -0.0019 C   0  0  0  0  0  0  0  0  0  0  0  0
   -0.0065   -2.3868   -0.0049 H   0  0  0  0  0  0  0  0  0  0  0  0
    1.1956   -0.6936    0.0000 C   0  0  0  0  0  0  0  0  0  0  0  0
    2.0766   -1.1965    0.0021 H   0  0  0  0  0  0  0  0  0  0  0  0
    1.1945    0.6893    0.0010 C   0  0  0  0  0  0  0  0  0  0  0  0
    2.0621    1.1867    0.0069 H   0  0  0  0  0  0  0  0  0  0  0  0
  1  5  1  0
  5  8  1  0
  1  2  1  0
  1  3  1  0
  1  4  1  0
  5  6  1  0
  5  7  1  0
  8  9  1  0
  8 10  1  0
  8 11  1  0
 12 16  1  0
 16 17  2  0
 17 19  1  0
 19 21  2  0
 21 23  1  0
 23 25  2  0
 25 16  1  0
 12 13  1  0
 12 14  1  0
 12 15  1  0
 17 18  1  0
 19 20  1  0
 21 22  1  0
 23 24  1  0
 25 26  1  0
M  CHG  1   8   1
M  END
>  <PDB_ID>  (122) 
pdb5epc

>  <RESIDUE_NAME>  (122) 
LYS   PHE

>  <FRAG_NAME>  (122) 
ETAM   MBZ

>  <FRAG_ATOM_NUM>  (122) 
fragi: 11  fragj: 15

>  <atom.prop.CHAIN_ID>  (122) 
A A A A A A A A A A A Z Z Z Z Z Z Z Z Z Z Z Z Z Z Z

>  <atom.prop.IS_HEAVY_ATOM>  (122) 
1 0 0 0 1 0 0 1 0 0 0 1 0 0 0 1 1 0 1 0 1 0 1 0 1 0

>  <DIFUSE_FUNC_ATOM>  (122) 
n/a

>  <FINAL_SINGLE_POINT_ENERGY>  (122) 
0

>  <NONCOV_INTER_ENERGY_QM>  (122) 
0

>  <FF_Energy>  (122) 
12.48

>  <QM_Energy>  (122) 
-0.22

>  <source>  (122) 
ETAM_MBZ

>  <Index>  (122) 
32464

$$$$
ETAM-pdb5fcg-C-GLU-110:MBZ-pdb5fcg-A-PHE-85
     RDKit          3D

 26 25  0  0  0  0  0  0  0  0999 V2000
    0.0894   -5.2157   -3.3792 C   0  0  0  0  0  0  0  0  0  0  0  0
    0.0785   -6.1031   -2.9248 H   0  0  0  0  0  0  0  0  0  0  0  0
   -0.8317   -4.8362   -3.4059 H   0  0  0  0  0  0  0  0  0  0  0  0
    0.3999   -5.3843   -4.4104 H   0  0  0  0  0  0  0  0  0  0  0  0
    0.9516   -4.2734   -2.5290 C   0  0  0  0  0  0  0  0  0  0  0  0
    1.8010   -4.7924   -2.3524 H   0  0  0  0  0  0  0  0  0  0  0  0
    1.2047   -3.3574   -3.0629 H   0  0  0  0  0  0  0  0  0  0  0  0
    0.2670   -4.0009   -1.2804 N   0  0  0  0  0  4  0  0  0  0  0  0
   -0.2444   -3.1404   -1.3452 H   0  0  0  0  0  0  0  0  0  0  0  0
   -0.3761   -4.7421   -1.0683 H   0  0  0  0  0  0  0  0  0  0  0  0
    0.9298   -3.9255   -0.5304 H   0  0  0  0  0  0  0  0  0  0  0  0
    0.0051    2.8956    0.0161 C   0  0  0  0  0  0  0  0  0  0  0  0
   -0.6979    3.2204   -0.5901 H   0  0  0  0  0  0  0  0  0  0  0  0
    0.8994    3.2005   -0.2559 H   0  0  0  0  0  0  0  0  0  0  0  0
   -0.1973    3.2949    1.0100 H   0  0  0  0  0  0  0  0  0  0  0  0
   -0.0043    1.3809   -0.0292 C   0  0  0  0  0  0  0  0  0  0  0  0
   -1.1741    0.6930   -0.0064 C   0  0  0  0  0  0  0  0  0  0  0  0
   -2.0494    1.1907    0.0049 H   0  0  0  0  0  0  0  0  0  0  0  0
   -1.1877   -0.6701    0.0000 C   0  0  0  0  0  0  0  0  0  0  0  0
   -2.0682   -1.1695   -0.0130 H   0  0  0  0  0  0  0  0  0  0  0  0
    0.0025   -1.3708    0.0259 C   0  0  0  0  0  0  0  0  0  0  0  0
   -0.0167   -2.3738    0.0635 H   0  0  0  0  0  0  0  0  0  0  0  0
    1.1877   -0.6964   -0.0000 C   0  0  0  0  0  0  0  0  0  0  0  0
    2.0701   -1.2005   -0.0246 H   0  0  0  0  0  0  0  0  0  0  0  0
    1.1760    0.6634    0.0097 C   0  0  0  0  0  0  0  0  0  0  0  0
    2.0511    1.1719    0.0453 H   0  0  0  0  0  0  0  0  0  0  0  0
  1  5  1  0
  5  8  1  0
  1  2  1  0
  1  3  1  0
  1  4  1  0
  5  6  1  0
  5  7  1  0
  8  9  1  0
  8 10  1  0
  8 11  1  0
 12 16  1  0
 16 17  2  0
 17 19  1  0
 19 21  2  0
 21 23  1  0
 23 25  2  0
 25 16  1  0
 12 13  1  0
 12 14  1  0
 12 15  1  0
 17 18  1  0
 19 20  1  0
 21 22  1  0
 23 24  1  0
 25 26  1  0
M  CHG  1   8   1
M  END
>  <PDB_ID>  (123) 
pdb5fcg

>  <RESIDUE_NAME>  (123) 
GLU   PHE

>  <FRAG_NAME>  (123) 
ETAM   MBZ

>  <FRAG_ATOM_NUM>  (123) 
fragi: 11  fragj: 15

>  <atom.prop.CHAIN_ID>  (123) 
A A A A A A A A A A A Z Z Z Z Z Z Z Z Z Z Z Z Z Z Z

>  <atom.prop.IS_HEAVY_ATOM>  (123) 
1 0 0 0 1 0 0 1 0 0 0 1 0 0 0 1 1 0 1 0 1 0 1 0 1 0

>  <DIFUSE_FUNC_ATOM>  (123) 
n/a

>  <FINAL_SINGLE_POINT_ENERGY>  (123) 
0

>  <NONCOV_INTER_ENERGY_QM>  (123) 
0

>  <FF_Energy>  (123) 
11.3

>  <QM_Energy>  (123) 
-1.17

>  <source>  (123) 
ETAM_MBZ

>  <Index>  (123) 
32768

$$$$
ETAM-pdb6h6l-F-LYS-29:MBZ-pdb6h6l-F-PHE-71
     RDKit          3D

 26 25  0  0  0  0  0  0  0  0999 V2000
   -2.9240   -2.5949    1.7083 C   0  0  0  0  0  0  0  0  0  0  0  0
   -3.5490   -3.3498    1.9141 H   0  0  0  0  0  0  0  0  0  0  0  0
   -2.8742   -2.4677    0.7165 H   0  0  0  0  0  0  0  0  0  0  0  0
   -3.3154   -1.6834    2.1600 H   0  0  0  0  0  0  0  0  0  0  0  0
   -1.5478   -2.9549    2.2178 C   0  0  0  0  0  0  0  0  0  0  0  0
   -0.9153   -2.2077    2.0127 H   0  0  0  0  0  0  0  0  0  0  0  0
   -1.5892   -3.0900    3.2097 H   0  0  0  0  0  0  0  0  0  0  0  0
   -1.0571   -4.2004    1.5765 N   0  0  0  0  0  4  0  0  0  0  0  0
   -0.1288   -4.3960    1.8936 H   0  0  0  0  0  0  0  0  0  0  0  0
   -1.6592   -4.9614    1.8205 H   0  0  0  0  0  0  0  0  0  0  0  0
   -1.0526   -4.0844    0.5836 H   0  0  0  0  0  0  0  0  0  0  0  0
   -0.0089    2.8927   -0.0119 C   0  0  0  0  0  0  0  0  0  0  0  0
    0.9256    3.2057   -0.0414 H   0  0  0  0  0  0  0  0  0  0  0  0
   -0.4753    3.2078    0.7972 H   0  0  0  0  0  0  0  0  0  0  0  0
   -0.5267    3.3078   -0.8766 H   0  0  0  0  0  0  0  0  0  0  0  0
   -0.0003    1.3942    0.0049 C   0  0  0  0  0  0  0  0  0  0  0  0
   -1.1913    0.6868   -0.0024 C   0  0  0  0  0  0  0  0  0  0  0  0
   -2.0595    1.1788   -0.0109 H   0  0  0  0  0  0  0  0  0  0  0  0
   -1.1950   -0.6941    0.0000 C   0  0  0  0  0  0  0  0  0  0  0  0
   -2.0732   -1.1910    0.0028 H   0  0  0  0  0  0  0  0  0  0  0  0
    0.0000   -1.3855    0.0000 C   0  0  0  0  0  0  0  0  0  0  0  0
   -0.0026   -2.3867   -0.0006 H   0  0  0  0  0  0  0  0  0  0  0  0
    1.1950   -0.6922    0.0000 C   0  0  0  0  0  0  0  0  0  0  0  0
    2.0781   -1.1921    0.0036 H   0  0  0  0  0  0  0  0  0  0  0  0
    1.1916    0.6907   -0.0025 C   0  0  0  0  0  0  0  0  0  0  0  0
    2.0606    1.1885   -0.0110 H   0  0  0  0  0  0  0  0  0  0  0  0
  1  5  1  0
  5  8  1  0
  1  2  1  0
  1  3  1  0
  1  4  1  0
  5  6  1  0
  5  7  1  0
  8  9  1  0
  8 10  1  0
  8 11  1  0
 12 16  1  0
 16 17  2  0
 17 19  1  0
 19 21  2  0
 21 23  1  0
 23 25  2  0
 25 16  1  0
 12 13  1  0
 12 14  1  0
 12 15  1  0
 17 18  1  0
 19 20  1  0
 21 22  1  0
 23 24  1  0
 25 26  1  0
M  CHG  1   8   1
M  END
>  <PDB_ID>  (124) 
pdb6h6l

>  <RESIDUE_NAME>  (124) 
LYS   PHE

>  <FRAG_NAME>  (124) 
ETAM   MBZ

>  <FRAG_ATOM_NUM>  (124) 
fragi: 11  fragj: 15

>  <atom.prop.CHAIN_ID>  (124) 
A A A A A A A A A A A Z Z Z Z Z Z Z Z Z Z Z Z Z Z Z

>  <atom.prop.IS_HEAVY_ATOM>  (124) 
1 0 0 0 1 0 0 1 0 0 0 1 0 0 0 1 1 0 1 0 1 0 1 0 1 0

>  <DIFUSE_FUNC_ATOM>  (124) 
n/a

>  <FINAL_SINGLE_POINT_ENERGY>  (124) 
0

>  <NONCOV_INTER_ENERGY_QM>  (124) 
0

>  <FF_Energy>  (124) 
16.95

>  <QM_Energy>  (124) 
-0.26

>  <source>  (124) 
ETAM_MBZ

>  <Index>  (124) 
33440

$$$$
ETAM-pdb6htj-A-LYS-110:MBZ-pdb6htj-A-PHE-11
     RDKit          3D

 26 25  0  0  0  0  0  0  0  0999 V2000
   -1.2341    0.1752    3.4986 C   0  0  0  0  0  0  0  0  0  0  0  0
   -1.0717   -0.5332    4.1839 H   0  0  0  0  0  0  0  0  0  0  0  0
   -1.6392   -0.2321    2.6821 H   0  0  0  0  0  0  0  0  0  0  0  0
   -1.9443    0.8917    3.9113 H   0  0  0  0  0  0  0  0  0  0  0  0
    0.0824    0.8155    3.1300 C   0  0  0  0  0  0  0  0  0  0  0  0
   -0.0787    1.5257    2.4453 H   0  0  0  0  0  0  0  0  0  0  0  0
    0.4892    1.2253    3.9456 H   0  0  0  0  0  0  0  0  0  0  0  0
    1.0128   -0.1973    2.5755 N   0  0  0  0  0  4  0  0  0  0  0  0
    0.7157   -0.4560    1.6548 H   0  0  0  0  0  0  0  0  0  0  0  0
    1.9361    0.1861    2.5309 H   0  0  0  0  0  0  0  0  0  0  0  0
    1.0157   -1.0064    3.1635 H   0  0  0  0  0  0  0  0  0  0  0  0
   -0.0036    2.8890   -0.0053 C   0  0  0  0  0  0  0  0  0  0  0  0
    0.9135    3.1988   -0.2106 H   0  0  0  0  0  0  0  0  0  0  0  0
   -0.2964    3.2012    0.8866 H   0  0  0  0  0  0  0  0  0  0  0  0
   -0.6758    3.3212   -0.7466 H   0  0  0  0  0  0  0  0  0  0  0  0
   -0.0005    1.3942    0.0021 C   0  0  0  0  0  0  0  0  0  0  0  0
   -1.1935    0.6912   -0.0045 C   0  0  0  0  0  0  0  0  0  0  0  0
   -2.0604    1.1833   -0.0139 H   0  0  0  0  0  0  0  0  0  0  0  0
   -1.1985   -0.6924   -0.0000 C   0  0  0  0  0  0  0  0  0  0  0  0
   -2.0754   -1.1881    0.0039 H   0  0  0  0  0  0  0  0  0  0  0  0
    0.0005   -1.3867    0.0011 C   0  0  0  0  0  0  0  0  0  0  0  0
   -0.0045   -2.3876    0.0022 H   0  0  0  0  0  0  0  0  0  0  0  0
    1.1985   -0.6944    0.0000 C   0  0  0  0  0  0  0  0  0  0  0  0
    2.0798   -1.1947   -0.0002 H   0  0  0  0  0  0  0  0  0  0  0  0
    1.1936    0.6881    0.0013 C   0  0  0  0  0  0  0  0  0  0  0  0
    2.0626    1.1877    0.0009 H   0  0  0  0  0  0  0  0  0  0  0  0
  1  5  1  0
  5  8  1  0
  1  2  1  0
  1  3  1  0
  1  4  1  0
  5  6  1  0
  5  7  1  0
  8  9  1  0
  8 10  1  0
  8 11  1  0
 12 16  1  0
 16 17  2  0
 17 19  1  0
 19 21  2  0
 21 23  1  0
 23 25  2  0
 25 16  1  0
 12 13  1  0
 12 14  1  0
 12 15  1  0
 17 18  1  0
 19 20  1  0
 21 22  1  0
 23 24  1  0
 25 26  1  0
M  CHG  1   8   1
M  END
>  <PDB_ID>  (125) 
pdb6htj

>  <RESIDUE_NAME>  (125) 
LYS   PHE

>  <FRAG_NAME>  (125) 
ETAM   MBZ

>  <FRAG_ATOM_NUM>  (125) 
fragi: 11  fragj: 15

>  <atom.prop.CHAIN_ID>  (125) 
A A A A A A A A A A A Z Z Z Z Z Z Z Z Z Z Z Z Z Z Z

>  <atom.prop.IS_HEAVY_ATOM>  (125) 
1 0 0 0 1 0 0 1 0 0 0 1 0 0 0 1 1 0 1 0 1 0 1 0 1 0

>  <DIFUSE_FUNC_ATOM>  (125) 
n/a

>  <FINAL_SINGLE_POINT_ENERGY>  (125) 
0

>  <NONCOV_INTER_ENERGY_QM>  (125) 
0

>  <FF_Energy>  (125) 
6.12

>  <QM_Energy>  (125) 
-6.5

>  <source>  (125) 
ETAM_MBZ

>  <Index>  (125) 
33724

$$$$
ETAM-pdb6ipt-A-LYS-77:MBZ-pdb6ipt-A-PHE-73
     RDKit          3D

 26 25  0  0  0  0  0  0  0  0999 V2000
   -0.0436   -0.8676    4.3814 C   0  0  0  0  0  0  0  0  0  0  0  0
    0.5481   -0.2176    4.8622 H   0  0  0  0  0  0  0  0  0  0  0  0
    0.0568   -1.7734    4.7970 H   0  0  0  0  0  0  0  0  0  0  0  0
   -1.0789   -0.5450    4.4908 H   0  0  0  0  0  0  0  0  0  0  0  0
    0.3990   -0.9469    2.9367 C   0  0  0  0  0  0  0  0  0  0  0  0
   -0.2293   -1.5399    2.4335 H   0  0  0  0  0  0  0  0  0  0  0  0
    0.3825   -0.0299    2.5379 H   0  0  0  0  0  0  0  0  0  0  0  0
    1.7745   -1.4970    2.8388 N   0  0  0  0  0  4  0  0  0  0  0  0
    1.7351   -2.4969    2.8471 H   0  0  0  0  0  0  0  0  0  0  0  0
    2.1983   -1.1861    1.9877 H   0  0  0  0  0  0  0  0  0  0  0  0
    2.3174   -1.1784    3.6165 H   0  0  0  0  0  0  0  0  0  0  0  0
    0.0352    2.9053   -0.1146 C   0  0  0  0  0  0  0  0  0  0  0  0
   -0.0669    3.1408   -1.0864 H   0  0  0  0  0  0  0  0  0  0  0  0
    0.9412    3.2102    0.1960 H   0  0  0  0  0  0  0  0  0  0  0  0
   -0.7113    3.4719    0.4419 H   0  0  0  0  0  0  0  0  0  0  0  0
   -0.0008    1.4041   -0.0056 C   0  0  0  0  0  0  0  0  0  0  0  0
   -1.1765    0.6843   -0.0197 C   0  0  0  0  0  0  0  0  0  0  0  0
   -2.0555    1.1708   -0.0464 H   0  0  0  0  0  0  0  0  0  0  0  0
   -1.1813   -0.6986    0.0000 C   0  0  0  0  0  0  0  0  0  0  0  0
   -2.0679   -1.1881   -0.0188 H   0  0  0  0  0  0  0  0  0  0  0  0
   -0.0035   -1.3878    0.0463 C   0  0  0  0  0  0  0  0  0  0  0  0
   -0.0028   -2.3861    0.1126 H   0  0  0  0  0  0  0  0  0  0  0  0
    1.1813   -0.6939   -0.0000 C   0  0  0  0  0  0  0  0  0  0  0  0
    2.0703   -1.1906   -0.0180 H   0  0  0  0  0  0  0  0  0  0  0  0
    1.1809    0.6919   -0.0210 C   0  0  0  0  0  0  0  0  0  0  0  0
    2.0564    1.1836   -0.0489 H   0  0  0  0  0  0  0  0  0  0  0  0
  1  5  1  0
  5  8  1  0
  1  2  1  0
  1  3  1  0
  1  4  1  0
  5  6  1  0
  5  7  1  0
  8  9  1  0
  8 10  1  0
  8 11  1  0
 12 16  1  0
 16 17  2  0
 17 19  1  0
 19 21  2  0
 21 23  1  0
 23 25  2  0
 25 16  1  0
 12 13  1  0
 12 14  1  0
 12 15  1  0
 17 18  1  0
 19 20  1  0
 21 22  1  0
 23 24  1  0
 25 26  1  0
M  CHG  1   8   1
M  END
>  <PDB_ID>  (126) 
pdb6ipt

>  <RESIDUE_NAME>  (126) 
LYS   PHE

>  <FRAG_NAME>  (126) 
ETAM   MBZ

>  <FRAG_ATOM_NUM>  (126) 
fragi: 11  fragj: 15

>  <atom.prop.CHAIN_ID>  (126) 
A A A A A A A A A A A Z Z Z Z Z Z Z Z Z Z Z Z Z Z Z

>  <atom.prop.IS_HEAVY_ATOM>  (126) 
1 0 0 0 1 0 0 1 0 0 0 1 0 0 0 1 1 0 1 0 1 0 1 0 1 0

>  <DIFUSE_FUNC_ATOM>  (126) 
n/a

>  <FINAL_SINGLE_POINT_ENERGY>  (126) 
0

>  <NONCOV_INTER_ENERGY_QM>  (126) 
0

>  <FF_Energy>  (126) 
0.77

>  <QM_Energy>  (126) 
-9.55

>  <source>  (126) 
ETAM_MBZ

>  <Index>  (126) 
34119

$$$$
ETAM-pdb6jbi-A-LYS-53:MBZ-pdb6jbi-A-PHE-57
     RDKit          3D

 26 25  0  0  0  0  0  0  0  0999 V2000
    2.0600   -3.9822    0.7033 C   0  0  0  0  0  0  0  0  0  0  0  0
    1.4833   -3.4090    0.1252 H   0  0  0  0  0  0  0  0  0  0  0  0
    1.4912   -4.5666    1.2776 H   0  0  0  0  0  0  0  0  0  0  0  0
    2.6887   -4.6077    0.0694 H   0  0  0  0  0  0  0  0  0  0  0  0
    2.8875   -3.0857    1.5981 C   0  0  0  0  0  0  0  0  0  0  0  0
    3.5440   -3.6425    2.1066 H   0  0  0  0  0  0  0  0  0  0  0  0
    3.3800   -2.4219    1.0361 H   0  0  0  0  0  0  0  0  0  0  0  0
    2.0186   -2.3518    2.5668 N   0  0  0  0  0  4  0  0  0  0  0  0
    1.8922   -2.9113    3.3843 H   0  0  0  0  0  0  0  0  0  0  0  0
    2.4569   -1.4887    2.8133 H   0  0  0  0  0  0  0  0  0  0  0  0
    1.1330   -2.1702    2.1423 H   0  0  0  0  0  0  0  0  0  0  0  0
    0.0118    2.8792   -0.0029 C   0  0  0  0  0  0  0  0  0  0  0  0
    0.9372    3.1838    0.1797 H   0  0  0  0  0  0  0  0  0  0  0  0
   -0.6109    3.1952    0.7006 H   0  0  0  0  0  0  0  0  0  0  0  0
   -0.3018    3.3284   -0.9453 H   0  0  0  0  0  0  0  0  0  0  0  0
    0.0006    1.3882   -0.0040 C   0  0  0  0  0  0  0  0  0  0  0  0
   -1.1916    0.6853   -0.0006 C   0  0  0  0  0  0  0  0  0  0  0  0
   -2.0585    1.1778    0.0002 H   0  0  0  0  0  0  0  0  0  0  0  0
   -1.1929   -0.6945   -0.0000 C   0  0  0  0  0  0  0  0  0  0  0  0
   -2.0709   -1.1925    0.0004 H   0  0  0  0  0  0  0  0  0  0  0  0
    0.0003   -1.3794    0.0023 C   0  0  0  0  0  0  0  0  0  0  0  0
    0.0009   -2.3826    0.0052 H   0  0  0  0  0  0  0  0  0  0  0  0
    1.1929   -0.6852    0.0000 C   0  0  0  0  0  0  0  0  0  0  0  0
    2.0765   -1.1906   -0.0015 H   0  0  0  0  0  0  0  0  0  0  0  0
    1.1907    0.6857    0.0023 C   0  0  0  0  0  0  0  0  0  0  0  0
    2.0597    1.1885    0.0080 H   0  0  0  0  0  0  0  0  0  0  0  0
  1  5  1  0
  5  8  1  0
  1  2  1  0
  1  3  1  0
  1  4  1  0
  5  6  1  0
  5  7  1  0
  8  9  1  0
  8 10  1  0
  8 11  1  0
 12 16  1  0
 16 17  2  0
 17 19  1  0
 19 21  2  0
 21 23  1  0
 23 25  2  0
 25 16  1  0
 12 13  1  0
 12 14  1  0
 12 15  1  0
 17 18  1  0
 19 20  1  0
 21 22  1  0
 23 24  1  0
 25 26  1  0
M  CHG  1   8   1
M  END
>  <PDB_ID>  (127) 
pdb6jbi

>  <RESIDUE_NAME>  (127) 
LYS   PHE

>  <FRAG_NAME>  (127) 
ETAM   MBZ

>  <FRAG_ATOM_NUM>  (127) 
fragi: 11  fragj: 15

>  <atom.prop.CHAIN_ID>  (127) 
A A A A A A A A A A A Z Z Z Z Z Z Z Z Z Z Z Z Z Z Z

>  <atom.prop.IS_HEAVY_ATOM>  (127) 
1 0 0 0 1 0 0 1 0 0 0 1 0 0 0 1 1 0 1 0 1 0 1 0 1 0

>  <DIFUSE_FUNC_ATOM>  (127) 
n/a

>  <FINAL_SINGLE_POINT_ENERGY>  (127) 
0

>  <NONCOV_INTER_ENERGY_QM>  (127) 
0

>  <FF_Energy>  (127) 
3.33

>  <QM_Energy>  (127) 
-7.91

>  <source>  (127) 
ETAM_MBZ

>  <Index>  (127) 
34432

$$$$
ETAM-pdb5jcb-C-LYS-163:MBZ-pdb5jcb-E-PHE-93
     RDKit          3D

 26 25  0  0  0  0  0  0  0  0999 V2000
    1.6621    0.4836   -3.9871 C   0  0  0  0  0  0  0  0  0  0  0  0
    1.4387    0.6215   -4.9465 H   0  0  0  0  0  0  0  0  0  0  0  0
    1.5902   -0.4798   -3.7500 H   0  0  0  0  0  0  0  0  0  0  0  0
    2.6844    0.8176   -3.8099 H   0  0  0  0  0  0  0  0  0  0  0  0
    0.6638    1.2644   -3.1410 C   0  0  0  0  0  0  0  0  0  0  0  0
    0.8213    1.0587   -2.1759 H   0  0  0  0  0  0  0  0  0  0  0  0
    0.7926    2.2418   -3.3011 H   0  0  0  0  0  0  0  0  0  0  0  0
   -0.7516    0.8967   -3.4925 N   0  0  0  0  0  4  0  0  0  0  0  0
   -1.3741    1.4005   -2.8990 H   0  0  0  0  0  0  0  0  0  0  0  0
   -0.9210    1.1359   -4.4457 H   0  0  0  0  0  0  0  0  0  0  0  0
   -0.8742   -0.0836   -3.3600 H   0  0  0  0  0  0  0  0  0  0  0  0
    0.0107    2.9110   -0.0259 C   0  0  0  0  0  0  0  0  0  0  0  0
   -0.5994    3.1994   -0.7513 H   0  0  0  0  0  0  0  0  0  0  0  0
    0.9407    3.2008   -0.2065 H   0  0  0  0  0  0  0  0  0  0  0  0
   -0.3172    3.3827    0.9005 H   0  0  0  0  0  0  0  0  0  0  0  0
   -0.0002    1.4008    0.0087 C   0  0  0  0  0  0  0  0  0  0  0  0
   -1.1962    0.6976   -0.0063 C   0  0  0  0  0  0  0  0  0  0  0  0
   -2.0629    1.1842   -0.0229 H   0  0  0  0  0  0  0  0  0  0  0  0
   -1.2004   -0.6997   -0.0000 C   0  0  0  0  0  0  0  0  0  0  0  0
   -2.0761   -1.1905    0.0062 H   0  0  0  0  0  0  0  0  0  0  0  0
    0.0019   -1.3914    0.0000 C   0  0  0  0  0  0  0  0  0  0  0  0
   -0.0001   -2.3915   -0.0001 H   0  0  0  0  0  0  0  0  0  0  0  0
    1.2004   -0.6945    0.0000 C   0  0  0  0  0  0  0  0  0  0  0  0
    2.0821   -1.1948    0.0034 H   0  0  0  0  0  0  0  0  0  0  0  0
    1.1945    0.6872   -0.0024 C   0  0  0  0  0  0  0  0  0  0  0  0
    2.0635    1.1880   -0.0137 H   0  0  0  0  0  0  0  0  0  0  0  0
  1  5  1  0
  5  8  1  0
  1  2  1  0
  1  3  1  0
  1  4  1  0
  5  6  1  0
  5  7  1  0
  8  9  1  0
  8 10  1  0
  8 11  1  0
 12 16  1  0
 16 17  2  0
 17 19  1  0
 19 21  2  0
 21 23  1  0
 23 25  2  0
 25 16  1  0
 12 13  1  0
 12 14  1  0
 12 15  1  0
 17 18  1  0
 19 20  1  0
 21 22  1  0
 23 24  1  0
 25 26  1  0
M  CHG  1   8   1
M  END
>  <PDB_ID>  (128) 
pdb5jcb

>  <RESIDUE_NAME>  (128) 
LYS   PHE

>  <FRAG_NAME>  (128) 
ETAM   MBZ

>  <FRAG_ATOM_NUM>  (128) 
fragi: 11  fragj: 15

>  <atom.prop.CHAIN_ID>  (128) 
A A A A A A A A A A A Z Z Z Z Z Z Z Z Z Z Z Z Z Z Z

>  <atom.prop.IS_HEAVY_ATOM>  (128) 
1 0 0 0 1 0 0 1 0 0 0 1 0 0 0 1 1 0 1 0 1 0 1 0 1 0

>  <DIFUSE_FUNC_ATOM>  (128) 
n/a

>  <FINAL_SINGLE_POINT_ENERGY>  (128) 
0

>  <NONCOV_INTER_ENERGY_QM>  (128) 
0

>  <FF_Energy>  (128) 
0.05

>  <QM_Energy>  (128) 
-10.19

>  <source>  (128) 
ETAM_MBZ

>  <Index>  (128) 
34700

$$$$
ETAM-pdb5j7e-E-LYS-82:MBZ-pdb5j7e-E-PHE-95
     RDKit          3D

 26 25  0  0  0  0  0  0  0  0999 V2000
   -4.4810   -1.8453    2.5944 C   0  0  0  0  0  0  0  0  0  0  0  0
   -5.4171   -2.1191    2.7915 H   0  0  0  0  0  0  0  0  0  0  0  0
   -4.3564   -0.8762    2.7837 H   0  0  0  0  0  0  0  0  0  0  0  0
   -3.8072   -2.4173    3.2323 H   0  0  0  0  0  0  0  0  0  0  0  0
   -4.2046   -2.0907    1.1152 C   0  0  0  0  0  0  0  0  0  0  0  0
   -3.2552   -1.8289    0.9152 H   0  0  0  0  0  0  0  0  0  0  0  0
   -4.3152   -3.0708    0.9222 H   0  0  0  0  0  0  0  0  0  0  0  0
   -5.1222   -1.3132    0.2305 N   0  0  0  0  0  4  0  0  0  0  0  0
   -5.2721   -1.8216   -0.6160 H   0  0  0  0  0  0  0  0  0  0  0  0
   -5.9928   -1.1753    0.7000 H   0  0  0  0  0  0  0  0  0  0  0  0
   -4.7072   -0.4284    0.0222 H   0  0  0  0  0  0  0  0  0  0  0  0
    0.0021    2.8980    0.0211 C   0  0  0  0  0  0  0  0  0  0  0  0
    0.9064    3.2027    0.2892 H   0  0  0  0  0  0  0  0  0  0  0  0
   -0.6815    3.2000    0.6720 H   0  0  0  0  0  0  0  0  0  0  0  0
   -0.2305    3.3597   -0.9385 H   0  0  0  0  0  0  0  0  0  0  0  0
   -0.0006    1.4013    0.0010 C   0  0  0  0  0  0  0  0  0  0  0  0
   -1.1985    0.6954   -0.0011 C   0  0  0  0  0  0  0  0  0  0  0  0
   -2.0643    1.1866   -0.0049 H   0  0  0  0  0  0  0  0  0  0  0  0
   -1.2053   -0.6973    0.0000 C   0  0  0  0  0  0  0  0  0  0  0  0
   -2.0808   -1.1904    0.0021 H   0  0  0  0  0  0  0  0  0  0  0  0
   -0.0009   -1.3947    0.0005 C   0  0  0  0  0  0  0  0  0  0  0  0
   -0.0049   -2.3927    0.0006 H   0  0  0  0  0  0  0  0  0  0  0  0
    1.2053   -0.6973   -0.0000 C   0  0  0  0  0  0  0  0  0  0  0  0
    2.0835   -1.1970    0.0016 H   0  0  0  0  0  0  0  0  0  0  0  0
    1.2000    0.6926   -0.0003 C   0  0  0  0  0  0  0  0  0  0  0  0
    2.0662    1.1919   -0.0026 H   0  0  0  0  0  0  0  0  0  0  0  0
  1  5  1  0
  5  8  1  0
  1  2  1  0
  1  3  1  0
  1  4  1  0
  5  6  1  0
  5  7  1  0
  8  9  1  0
  8 10  1  0
  8 11  1  0
 12 16  1  0
 16 17  2  0
 17 19  1  0
 19 21  2  0
 21 23  1  0
 23 25  2  0
 25 16  1  0
 12 13  1  0
 12 14  1  0
 12 15  1  0
 17 18  1  0
 19 20  1  0
 21 22  1  0
 23 24  1  0
 25 26  1  0
M  CHG  1   8   1
M  END
>  <PDB_ID>  (129) 
pdb5j7e

>  <RESIDUE_NAME>  (129) 
LYS   PHE

>  <FRAG_NAME>  (129) 
ETAM   MBZ

>  <FRAG_ATOM_NUM>  (129) 
fragi: 11  fragj: 15

>  <atom.prop.CHAIN_ID>  (129) 
A A A A A A A A A A A Z Z Z Z Z Z Z Z Z Z Z Z Z Z Z

>  <atom.prop.IS_HEAVY_ATOM>  (129) 
1 0 0 0 1 0 0 1 0 0 0 1 0 0 0 1 1 0 1 0 1 0 1 0 1 0

>  <DIFUSE_FUNC_ATOM>  (129) 
n/a

>  <FINAL_SINGLE_POINT_ENERGY>  (129) 
0

>  <NONCOV_INTER_ENERGY_QM>  (129) 
0

>  <FF_Energy>  (129) 
15.51

>  <QM_Energy>  (129) 
-0.05

>  <source>  (129) 
ETAM_MBZ

>  <Index>  (129) 
34703

$$$$
ETAM-pdb6mry-A-LYS-46:MBZ-pdb6mry-A-PHE-30
     RDKit          3D

 26 25  0  0  0  0  0  0  0  0999 V2000
    2.1182   -0.0565    3.7697 C   0  0  0  0  0  0  0  0  0  0  0  0
    2.3920   -0.7224    4.4556 H   0  0  0  0  0  0  0  0  0  0  0  0
    1.7769    0.7693    4.2069 H   0  0  0  0  0  0  0  0  0  0  0  0
    2.9908    0.2024    3.1699 H   0  0  0  0  0  0  0  0  0  0  0  0
    1.0043   -0.6571    2.9217 C   0  0  0  0  0  0  0  0  0  0  0  0
    0.9095   -0.1122    2.0735 H   0  0  0  0  0  0  0  0  0  0  0  0
    1.2701   -1.5958    2.6500 H   0  0  0  0  0  0  0  0  0  0  0  0
   -0.3349   -0.7181    3.6034 N   0  0  0  0  0  4  0  0  0  0  0  0
   -0.4194   -1.5927    4.0737 H   0  0  0  0  0  0  0  0  0  0  0  0
   -0.3983    0.0294    4.2596 H   0  0  0  0  0  0  0  0  0  0  0  0
   -1.0526   -0.6307    2.9168 H   0  0  0  0  0  0  0  0  0  0  0  0
   -0.0038    2.8769   -0.0237 C   0  0  0  0  0  0  0  0  0  0  0  0
   -0.6712    3.1820   -0.6914 H   0  0  0  0  0  0  0  0  0  0  0  0
    0.9057    3.1888   -0.2687 H   0  0  0  0  0  0  0  0  0  0  0  0
   -0.2617    3.3350    0.9312 H   0  0  0  0  0  0  0  0  0  0  0  0
   -0.0023    1.3946   -0.0031 C   0  0  0  0  0  0  0  0  0  0  0  0
   -1.1922    0.6923   -0.0057 C   0  0  0  0  0  0  0  0  0  0  0  0
   -2.0609    1.1772   -0.0125 H   0  0  0  0  0  0  0  0  0  0  0  0
   -1.1931   -0.7006   -0.0000 C   0  0  0  0  0  0  0  0  0  0  0  0
   -2.0703   -1.1936   -0.0045 H   0  0  0  0  0  0  0  0  0  0  0  0
    0.0053   -1.3883    0.0134 C   0  0  0  0  0  0  0  0  0  0  0  0
    0.0037   -2.3896    0.0319 H   0  0  0  0  0  0  0  0  0  0  0  0
    1.1931   -0.6923    0.0000 C   0  0  0  0  0  0  0  0  0  0  0  0
    2.0811   -1.1877   -0.0055 H   0  0  0  0  0  0  0  0  0  0  0  0
    1.1893    0.6944   -0.0046 C   0  0  0  0  0  0  0  0  0  0  0  0
    2.0583    1.1899   -0.0095 H   0  0  0  0  0  0  0  0  0  0  0  0
  1  5  1  0
  5  8  1  0
  1  2  1  0
  1  3  1  0
  1  4  1  0
  5  6  1  0
  5  7  1  0
  8  9  1  0
  8 10  1  0
  8 11  1  0
 12 16  1  0
 16 17  2  0
 17 19  1  0
 19 21  2  0
 21 23  1  0
 23 25  2  0
 25 16  1  0
 12 13  1  0
 12 14  1  0
 12 15  1  0
 17 18  1  0
 19 20  1  0
 21 22  1  0
 23 24  1  0
 25 26  1  0
M  CHG  1   8   1
M  END
>  <PDB_ID>  (130) 
pdb6mry

>  <RESIDUE_NAME>  (130) 
LYS   PHE

>  <FRAG_NAME>  (130) 
ETAM   MBZ

>  <FRAG_ATOM_NUM>  (130) 
fragi: 11  fragj: 15

>  <atom.prop.CHAIN_ID>  (130) 
A A A A A A A A A A A Z Z Z Z Z Z Z Z Z Z Z Z Z Z Z

>  <atom.prop.IS_HEAVY_ATOM>  (130) 
1 0 0 0 1 0 0 1 0 0 0 1 0 0 0 1 1 0 1 0 1 0 1 0 1 0

>  <DIFUSE_FUNC_ATOM>  (130) 
n/a

>  <FINAL_SINGLE_POINT_ENERGY>  (130) 
0

>  <NONCOV_INTER_ENERGY_QM>  (130) 
0

>  <FF_Energy>  (130) 
7.13

>  <QM_Energy>  (130) 
-8.22

>  <source>  (130) 
ETAM_MBZ

>  <Index>  (130) 
35095

$$$$
ETAM-pdb6n41-B-LYS-47:MBZ-pdb6n41-B-PHE-392
     RDKit          3D

 26 25  0  0  0  0  0  0  0  0999 V2000
    2.3046   -1.4580    3.6825 C   0  0  0  0  0  0  0  0  0  0  0  0
    1.8520   -2.3444    3.5821 H   0  0  0  0  0  0  0  0  0  0  0  0
    2.2610   -1.1688    4.6394 H   0  0  0  0  0  0  0  0  0  0  0  0
    3.3508   -1.5654    3.3961 H   0  0  0  0  0  0  0  0  0  0  0  0
    1.5727   -0.4416    2.8365 C   0  0  0  0  0  0  0  0  0  0  0  0
    2.0169    0.4491    2.9352 H   0  0  0  0  0  0  0  0  0  0  0  0
    1.6075   -0.7252    1.8780 H   0  0  0  0  0  0  0  0  0  0  0  0
    0.1541   -0.3294    3.2613 N   0  0  0  0  0  4  0  0  0  0  0  0
   -0.2907    0.4056    2.7488 H   0  0  0  0  0  0  0  0  0  0  0  0
   -0.3166   -1.1936    3.0820 H   0  0  0  0  0  0  0  0  0  0  0  0
    0.1143   -0.1245    4.2391 H   0  0  0  0  0  0  0  0  0  0  0  0
   -0.0005    2.9112   -0.0280 C   0  0  0  0  0  0  0  0  0  0  0  0
    0.8894    3.2228    0.2615 H   0  0  0  0  0  0  0  0  0  0  0  0
   -0.7138    3.2282    0.5748 H   0  0  0  0  0  0  0  0  0  0  0  0
   -0.1936    3.3185   -1.0204 H   0  0  0  0  0  0  0  0  0  0  0  0
    0.0007    1.4082    0.0038 C   0  0  0  0  0  0  0  0  0  0  0  0
   -1.1971    0.6915   -0.0061 C   0  0  0  0  0  0  0  0  0  0  0  0
   -2.0647    1.1817   -0.0186 H   0  0  0  0  0  0  0  0  0  0  0  0
   -1.1997   -0.6989    0.0000 C   0  0  0  0  0  0  0  0  0  0  0  0
   -2.0768   -1.1941    0.0001 H   0  0  0  0  0  0  0  0  0  0  0  0
    0.0012   -1.3967    0.0073 C   0  0  0  0  0  0  0  0  0  0  0  0
   -0.0067   -2.3962    0.0176 H   0  0  0  0  0  0  0  0  0  0  0  0
    1.1997   -0.7047   -0.0000 C   0  0  0  0  0  0  0  0  0  0  0  0
    2.0825   -1.1944   -0.0003 H   0  0  0  0  0  0  0  0  0  0  0  0
    1.1952    0.7006   -0.0051 C   0  0  0  0  0  0  0  0  0  0  0  0
    2.0661    1.1891   -0.0161 H   0  0  0  0  0  0  0  0  0  0  0  0
  1  5  1  0
  5  8  1  0
  1  2  1  0
  1  3  1  0
  1  4  1  0
  5  6  1  0
  5  7  1  0
  8  9  1  0
  8 10  1  0
  8 11  1  0
 12 16  1  0
 16 17  2  0
 17 19  1  0
 19 21  2  0
 21 23  1  0
 23 25  2  0
 25 16  1  0
 12 13  1  0
 12 14  1  0
 12 15  1  0
 17 18  1  0
 19 20  1  0
 21 22  1  0
 23 24  1  0
 25 26  1  0
M  CHG  1   8   1
M  END
>  <PDB_ID>  (131) 
pdb6n41

>  <RESIDUE_NAME>  (131) 
LYS   PHE

>  <FRAG_NAME>  (131) 
ETAM   MBZ

>  <FRAG_ATOM_NUM>  (131) 
fragi: 11  fragj: 15

>  <atom.prop.CHAIN_ID>  (131) 
A A A A A A A A A A A Z Z Z Z Z Z Z Z Z Z Z Z Z Z Z

>  <atom.prop.IS_HEAVY_ATOM>  (131) 
1 0 0 0 1 0 0 1 0 0 0 1 0 0 0 1 1 0 1 0 1 0 1 0 1 0

>  <DIFUSE_FUNC_ATOM>  (131) 
n/a

>  <FINAL_SINGLE_POINT_ENERGY>  (131) 
0

>  <NONCOV_INTER_ENERGY_QM>  (131) 
0

>  <FF_Energy>  (131) 
31.0

>  <QM_Energy>  (131) 
-6.89

>  <source>  (131) 
ETAM_MBZ

>  <Index>  (131) 
35347

$$$$
ETAM-pdb5ltu-B-LYS-142:MBZ-pdb5ltu-B-PHE-84
     RDKit          3D

 26 25  0  0  0  0  0  0  0  0999 V2000
    2.5706   -3.0531    1.6466 C   0  0  0  0  0  0  0  0  0  0  0  0
    3.1550   -2.5327    2.2723 H   0  0  0  0  0  0  0  0  0  0  0  0
    2.3057   -2.4683    0.8790 H   0  0  0  0  0  0  0  0  0  0  0  0
    3.1368   -3.9016    1.2625 H   0  0  0  0  0  0  0  0  0  0  0  0
    1.3223   -3.4730    2.3891 C   0  0  0  0  0  0  0  0  0  0  0  0
    0.7304   -3.9893    1.7691 H   0  0  0  0  0  0  0  0  0  0  0  0
    1.5797   -4.0537    3.1624 H   0  0  0  0  0  0  0  0  0  0  0  0
    0.5865   -2.2866    2.8928 N   0  0  0  0  0  4  0  0  0  0  0  0
   -0.3929   -2.4085    2.7308 H   0  0  0  0  0  0  0  0  0  0  0  0
    0.7522   -2.1830    3.8736 H   0  0  0  0  0  0  0  0  0  0  0  0
    0.9040   -1.4679    2.4135 H   0  0  0  0  0  0  0  0  0  0  0  0
    0.0004    2.8940    0.0107 C   0  0  0  0  0  0  0  0  0  0  0  0
   -0.7049    3.2095   -0.6040 H   0  0  0  0  0  0  0  0  0  0  0  0
    0.8936    3.2045   -0.2723 H   0  0  0  0  0  0  0  0  0  0  0  0
   -0.2023    3.3149    0.9955 H   0  0  0  0  0  0  0  0  0  0  0  0
    0.0005    1.3918   -0.0093 C   0  0  0  0  0  0  0  0  0  0  0  0
   -1.1892    0.6850    0.0079 C   0  0  0  0  0  0  0  0  0  0  0  0
   -2.0584    1.1788    0.0240 H   0  0  0  0  0  0  0  0  0  0  0  0
   -1.1934   -0.6920    0.0000 C   0  0  0  0  0  0  0  0  0  0  0  0
   -2.0724   -1.1898   -0.0035 H   0  0  0  0  0  0  0  0  0  0  0  0
    0.0005   -1.3840   -0.0003 C   0  0  0  0  0  0  0  0  0  0  0  0
   -0.0031   -2.3854   -0.0012 H   0  0  0  0  0  0  0  0  0  0  0  0
    1.1934   -0.6900    0.0000 C   0  0  0  0  0  0  0  0  0  0  0  0
    2.0776   -1.1904    0.0000 H   0  0  0  0  0  0  0  0  0  0  0  0
    1.1883    0.6891    0.0017 C   0  0  0  0  0  0  0  0  0  0  0  0
    2.0591    1.1879    0.0104 H   0  0  0  0  0  0  0  0  0  0  0  0
  1  5  1  0
  5  8  1  0
  1  2  1  0
  1  3  1  0
  1  4  1  0
  5  6  1  0
  5  7  1  0
  8  9  1  0
  8 10  1  0
  8 11  1  0
 12 16  1  0
 16 17  2  0
 17 19  1  0
 19 21  2  0
 21 23  1  0
 23 25  2  0
 25 16  1  0
 12 13  1  0
 12 14  1  0
 12 15  1  0
 17 18  1  0
 19 20  1  0
 21 22  1  0
 23 24  1  0
 25 26  1  0
M  CHG  1   8   1
M  END
>  <PDB_ID>  (132) 
pdb5ltu

>  <RESIDUE_NAME>  (132) 
LYS   PHE

>  <FRAG_NAME>  (132) 
ETAM   MBZ

>  <FRAG_ATOM_NUM>  (132) 
fragi: 11  fragj: 15

>  <atom.prop.CHAIN_ID>  (132) 
A A A A A A A A A A A Z Z Z Z Z Z Z Z Z Z Z Z Z Z Z

>  <atom.prop.IS_HEAVY_ATOM>  (132) 
1 0 0 0 1 0 0 1 0 0 0 1 0 0 0 1 1 0 1 0 1 0 1 0 1 0

>  <DIFUSE_FUNC_ATOM>  (132) 
n/a

>  <FINAL_SINGLE_POINT_ENERGY>  (132) 
0

>  <NONCOV_INTER_ENERGY_QM>  (132) 
0

>  <FF_Energy>  (132) 
17.95

>  <QM_Energy>  (132) 
-6.89

>  <source>  (132) 
ETAM_MBZ

>  <Index>  (132) 
35952

$$$$
ETAM-pdb6r7v-A-LYS-39:MBZ-pdb6r7v-A-PHE-188
     RDKit          3D

 26 25  0  0  0  0  0  0  0  0999 V2000
    1.3827   -5.2061    0.7964 C   0  0  0  0  0  0  0  0  0  0  0  0
    1.8284   -5.3398   -0.0937 H   0  0  0  0  0  0  0  0  0  0  0  0
    1.4753   -6.0476    1.3356 H   0  0  0  0  0  0  0  0  0  0  0  0
    1.8991   -4.4024    1.3210 H   0  0  0  0  0  0  0  0  0  0  0  0
   -0.0799   -4.9303    0.5722 C   0  0  0  0  0  0  0  0  0  0  0  0
   -0.5493   -4.8855    1.4580 H   0  0  0  0  0  0  0  0  0  0  0  0
   -0.1842   -4.0468    0.1059 H   0  0  0  0  0  0  0  0  0  0  0  0
   -0.7181   -5.9913   -0.2580 N   0  0  0  0  0  4  0  0  0  0  0  0
   -0.1450   -6.8096   -0.2451 H   0  0  0  0  0  0  0  0  0  0  0  0
   -1.6196   -6.2066    0.1165 H   0  0  0  0  0  0  0  0  0  0  0  0
   -0.8139   -5.6635   -1.1968 H   0  0  0  0  0  0  0  0  0  0  0  0
    0.0015    2.9318   -0.0196 C   0  0  0  0  0  0  0  0  0  0  0  0
    0.8409    3.2430    0.3970 H   0  0  0  0  0  0  0  0  0  0  0  0
   -0.7899    3.2451    0.4818 H   0  0  0  0  0  0  0  0  0  0  0  0
   -0.0503    3.3681   -1.0171 H   0  0  0  0  0  0  0  0  0  0  0  0
    0.0019    1.4079    0.0103 C   0  0  0  0  0  0  0  0  0  0  0  0
   -1.1901    0.6956   -0.0178 C   0  0  0  0  0  0  0  0  0  0  0  0
   -2.0595    1.1779   -0.0527 H   0  0  0  0  0  0  0  0  0  0  0  0
   -1.1911   -0.7039   -0.0000 C   0  0  0  0  0  0  0  0  0  0  0  0
   -2.0738   -1.1895    0.0352 H   0  0  0  0  0  0  0  0  0  0  0  0
   -0.0032   -1.3915   -0.0284 C   0  0  0  0  0  0  0  0  0  0  0  0
   -0.0064   -2.3954   -0.0709 H   0  0  0  0  0  0  0  0  0  0  0  0
    1.1911   -0.7058    0.0000 C   0  0  0  0  0  0  0  0  0  0  0  0
    2.0761   -1.1970   -0.0028 H   0  0  0  0  0  0  0  0  0  0  0  0
    1.1914    0.6976    0.0358 C   0  0  0  0  0  0  0  0  0  0  0  0
    2.0638    1.1822    0.0791 H   0  0  0  0  0  0  0  0  0  0  0  0
  1  5  1  0
  5  8  1  0
  1  2  1  0
  1  3  1  0
  1  4  1  0
  5  6  1  0
  5  7  1  0
  8  9  1  0
  8 10  1  0
  8 11  1  0
 12 16  1  0
 16 17  2  0
 17 19  1  0
 19 21  2  0
 21 23  1  0
 23 25  2  0
 25 16  1  0
 12 13  1  0
 12 14  1  0
 12 15  1  0
 17 18  1  0
 19 20  1  0
 21 22  1  0
 23 24  1  0
 25 26  1  0
M  CHG  1   8   1
M  END
>  <PDB_ID>  (133) 
pdb6r7v

>  <RESIDUE_NAME>  (133) 
LYS   PHE

>  <FRAG_NAME>  (133) 
ETAM   MBZ

>  <FRAG_ATOM_NUM>  (133) 
fragi: 11  fragj: 15

>  <atom.prop.CHAIN_ID>  (133) 
A A A A A A A A A A A Z Z Z Z Z Z Z Z Z Z Z Z Z Z Z

>  <atom.prop.IS_HEAVY_ATOM>  (133) 
1 0 0 0 1 0 0 1 0 0 0 1 0 0 0 1 1 0 1 0 1 0 1 0 1 0

>  <DIFUSE_FUNC_ATOM>  (133) 
n/a

>  <FINAL_SINGLE_POINT_ENERGY>  (133) 
0

>  <NONCOV_INTER_ENERGY_QM>  (133) 
0

>  <FF_Energy>  (133) 
10.15

>  <QM_Energy>  (133) 
-0.33

>  <source>  (133) 
ETAM_MBZ

>  <Index>  (133) 
36396

$$$$
ETAM-pdb5v96-C-LYS-152:MBZ-pdb5v96-C-PHE-148
     RDKit          3D

 26 25  0  0  0  0  0  0  0  0999 V2000
   -3.2852   -1.6398   -3.2111 C   0  0  0  0  0  0  0  0  0  0  0  0
   -3.6839   -0.9357   -2.6208 H   0  0  0  0  0  0  0  0  0  0  0  0
   -3.9865   -2.3176   -3.4359 H   0  0  0  0  0  0  0  0  0  0  0  0
   -2.9410   -1.1702   -4.1326 H   0  0  0  0  0  0  0  0  0  0  0  0
   -2.1722   -2.3289   -2.4553 C   0  0  0  0  0  0  0  0  0  0  0  0
   -1.7713   -3.0380   -3.0365 H   0  0  0  0  0  0  0  0  0  0  0  0
   -1.4689   -1.6568   -2.2208 H   0  0  0  0  0  0  0  0  0  0  0  0
   -2.6871   -2.9509   -1.2099 N   0  0  0  0  0  4  0  0  0  0  0  0
   -3.0822   -2.2440   -0.6225 H   0  0  0  0  0  0  0  0  0  0  0  0
   -3.3902   -3.6250   -1.4396 H   0  0  0  0  0  0  0  0  0  0  0  0
   -1.9366   -3.4041   -0.7275 H   0  0  0  0  0  0  0  0  0  0  0  0
   -0.0011    2.8948    0.0046 C   0  0  0  0  0  0  0  0  0  0  0  0
    0.8208    3.2025    0.4609 H   0  0  0  0  0  0  0  0  0  0  0  0
   -0.8121    3.2034    0.4810 H   0  0  0  0  0  0  0  0  0  0  0  0
   -0.0132    3.3374   -0.9914 H   0  0  0  0  0  0  0  0  0  0  0  0
   -0.0018    1.3959    0.0041 C   0  0  0  0  0  0  0  0  0  0  0  0
   -1.1941    0.6915    0.0003 C   0  0  0  0  0  0  0  0  0  0  0  0
   -2.0618    1.1823   -0.0036 H   0  0  0  0  0  0  0  0  0  0  0  0
   -1.1985   -0.6954   -0.0000 C   0  0  0  0  0  0  0  0  0  0  0  0
   -2.0749   -1.1910    0.0059 H   0  0  0  0  0  0  0  0  0  0  0  0
    0.0020   -1.3880   -0.0068 C   0  0  0  0  0  0  0  0  0  0  0  0
   -0.0025   -2.3887   -0.0167 H   0  0  0  0  0  0  0  0  0  0  0  0
    1.1985   -0.6949    0.0000 C   0  0  0  0  0  0  0  0  0  0  0  0
    2.0810   -1.1927    0.0049 H   0  0  0  0  0  0  0  0  0  0  0  0
    1.1939    0.6910    0.0025 C   0  0  0  0  0  0  0  0  0  0  0  0
    2.0614    1.1892    0.0022 H   0  0  0  0  0  0  0  0  0  0  0  0
  1  5  1  0
  5  8  1  0
  1  2  1  0
  1  3  1  0
  1  4  1  0
  5  6  1  0
  5  7  1  0
  8  9  1  0
  8 10  1  0
  8 11  1  0
 12 16  1  0
 16 17  2  0
 17 19  1  0
 19 21  2  0
 21 23  1  0
 23 25  2  0
 25 16  1  0
 12 13  1  0
 12 14  1  0
 12 15  1  0
 17 18  1  0
 19 20  1  0
 21 22  1  0
 23 24  1  0
 25 26  1  0
M  CHG  1   8   1
M  END
>  <PDB_ID>  (134) 
pdb5v96

>  <RESIDUE_NAME>  (134) 
LYS   PHE

>  <FRAG_NAME>  (134) 
ETAM   MBZ

>  <FRAG_ATOM_NUM>  (134) 
fragi: 11  fragj: 15

>  <atom.prop.CHAIN_ID>  (134) 
A A A A A A A A A A A Z Z Z Z Z Z Z Z Z Z Z Z Z Z Z

>  <atom.prop.IS_HEAVY_ATOM>  (134) 
1 0 0 0 1 0 0 1 0 0 0 1 0 0 0 1 1 0 1 0 1 0 1 0 1 0

>  <DIFUSE_FUNC_ATOM>  (134) 
n/a

>  <FINAL_SINGLE_POINT_ENERGY>  (134) 
0

>  <NONCOV_INTER_ENERGY_QM>  (134) 
0

>  <FF_Energy>  (134) 
10.06

>  <QM_Energy>  (134) 
-1.64

>  <source>  (134) 
ETAM_MBZ

>  <Index>  (134) 
37901

$$$$
ETAM-pdb5vak-A-LYS-437:MBZ-pdb5vak-A-PHE-76
     RDKit          3D

 26 25  0  0  0  0  0  0  0  0999 V2000
   -2.0729   -3.5774   -2.9363 C   0  0  0  0  0  0  0  0  0  0  0  0
   -2.6184   -3.7961   -3.7487 H   0  0  0  0  0  0  0  0  0  0  0  0
   -2.0289   -4.3843   -2.3438 H   0  0  0  0  0  0  0  0  0  0  0  0
   -1.0606   -3.3349   -3.2597 H   0  0  0  0  0  0  0  0  0  0  0  0
   -2.7456   -2.4538   -2.1837 C   0  0  0  0  0  0  0  0  0  0  0  0
   -3.7170   -2.6948   -2.0275 H   0  0  0  0  0  0  0  0  0  0  0  0
   -2.3090   -2.3552   -1.2740 H   0  0  0  0  0  0  0  0  0  0  0  0
   -2.6892   -1.1319   -2.8844 N   0  0  0  0  0  4  0  0  0  0  0  0
   -2.9307   -0.4098   -2.2395 H   0  0  0  0  0  0  0  0  0  0  0  0
   -1.7635   -0.9827   -3.2278 H   0  0  0  0  0  0  0  0  0  0  0  0
   -3.3355   -1.1364   -3.6449 H   0  0  0  0  0  0  0  0  0  0  0  0
    0.0045    2.8697    0.0279 C   0  0  0  0  0  0  0  0  0  0  0  0
   -0.9046    3.1793    0.2586 H   0  0  0  0  0  0  0  0  0  0  0  0
    0.2820    3.1933   -0.8640 H   0  0  0  0  0  0  0  0  0  0  0  0
    0.6960    3.2805    0.7637 H   0  0  0  0  0  0  0  0  0  0  0  0
    0.0003    1.3853    0.0053 C   0  0  0  0  0  0  0  0  0  0  0  0
   -1.1888    0.6838   -0.0034 C   0  0  0  0  0  0  0  0  0  0  0  0
   -2.0549    1.1821   -0.0136 H   0  0  0  0  0  0  0  0  0  0  0  0
   -1.1872   -0.6782   -0.0000 C   0  0  0  0  0  0  0  0  0  0  0  0
   -2.0693   -1.1828    0.0126 H   0  0  0  0  0  0  0  0  0  0  0  0
   -0.0012   -1.3709   -0.0115 C   0  0  0  0  0  0  0  0  0  0  0  0
   -0.0135   -2.3770   -0.0283 H   0  0  0  0  0  0  0  0  0  0  0  0
    1.1872   -0.6943    0.0000 C   0  0  0  0  0  0  0  0  0  0  0  0
    2.0704   -1.2014    0.0033 H   0  0  0  0  0  0  0  0  0  0  0  0
    1.1897    0.6742    0.0095 C   0  0  0  0  0  0  0  0  0  0  0  0
    2.0597    1.1759    0.0189 H   0  0  0  0  0  0  0  0  0  0  0  0
  1  5  1  0
  5  8  1  0
  1  2  1  0
  1  3  1  0
  1  4  1  0
  5  6  1  0
  5  7  1  0
  8  9  1  0
  8 10  1  0
  8 11  1  0
 12 16  1  0
 16 17  2  0
 17 19  1  0
 19 21  2  0
 21 23  1  0
 23 25  2  0
 25 16  1  0
 12 13  1  0
 12 14  1  0
 12 15  1  0
 17 18  1  0
 19 20  1  0
 21 22  1  0
 23 24  1  0
 25 26  1  0
M  CHG  1   8   1
M  END
>  <PDB_ID>  (135) 
pdb5vak

>  <RESIDUE_NAME>  (135) 
LYS   PHE

>  <FRAG_NAME>  (135) 
ETAM   MBZ

>  <FRAG_ATOM_NUM>  (135) 
fragi: 11  fragj: 15

>  <atom.prop.CHAIN_ID>  (135) 
A A A A A A A A A A A Z Z Z Z Z Z Z Z Z Z Z Z Z Z Z

>  <atom.prop.IS_HEAVY_ATOM>  (135) 
1 0 0 0 1 0 0 1 0 0 0 1 0 0 0 1 1 0 1 0 1 0 1 0 1 0

>  <DIFUSE_FUNC_ATOM>  (135) 
n/a

>  <FINAL_SINGLE_POINT_ENERGY>  (135) 
0

>  <NONCOV_INTER_ENERGY_QM>  (135) 
0

>  <FF_Energy>  (135) 
4.61

>  <QM_Energy>  (135) 
-6.17

>  <source>  (135) 
ETAM_MBZ

>  <Index>  (135) 
37903

$$$$
ETAM-pdb5vha-A-LYS-575:MBZ-pdb5vha-A-PHE-729
     RDKit          3D

 26 25  0  0  0  0  0  0  0  0999 V2000
    0.8412   -2.8886    4.1143 C   0  0  0  0  0  0  0  0  0  0  0  0
   -0.0704   -2.8421    4.5241 H   0  0  0  0  0  0  0  0  0  0  0  0
    1.4723   -2.3176    4.6417 H   0  0  0  0  0  0  0  0  0  0  0  0
    1.1882   -3.9210    4.1566 H   0  0  0  0  0  0  0  0  0  0  0  0
    0.7680   -2.3560    2.7029 C   0  0  0  0  0  0  0  0  0  0  0  0
    1.6782   -2.3977    2.2891 H   0  0  0  0  0  0  0  0  0  0  0  0
    0.1362   -2.9209    2.1716 H   0  0  0  0  0  0  0  0  0  0  0  0
    0.2920   -0.9512    2.6966 N   0  0  0  0  0  4  0  0  0  0  0  0
    1.0555   -0.3387    2.9039 H   0  0  0  0  0  0  0  0  0  0  0  0
   -0.0780   -0.7281    1.7946 H   0  0  0  0  0  0  0  0  0  0  0  0
   -0.4232   -0.8377    3.3873 H   0  0  0  0  0  0  0  0  0  0  0  0
    0.0113    2.9001    0.0012 C   0  0  0  0  0  0  0  0  0  0  0  0
    0.4762    3.2004    0.8199 H   0  0  0  0  0  0  0  0  0  0  0  0
   -0.9256    3.2144   -0.0173 H   0  0  0  0  0  0  0  0  0  0  0  0
    0.5254    3.3391   -0.8538 H   0  0  0  0  0  0  0  0  0  0  0  0
   -0.0002    1.3966   -0.0030 C   0  0  0  0  0  0  0  0  0  0  0  0
   -1.1929    0.6907    0.0021 C   0  0  0  0  0  0  0  0  0  0  0  0
   -2.0606    1.1811    0.0063 H   0  0  0  0  0  0  0  0  0  0  0  0
   -1.1954   -0.6940    0.0000 C   0  0  0  0  0  0  0  0  0  0  0  0
   -2.0735   -1.1891    0.0001 H   0  0  0  0  0  0  0  0  0  0  0  0
    0.0006   -1.3864   -0.0002 C   0  0  0  0  0  0  0  0  0  0  0  0
   -0.0039   -2.3878   -0.0012 H   0  0  0  0  0  0  0  0  0  0  0  0
    1.1954   -0.6944   -0.0000 C   0  0  0  0  0  0  0  0  0  0  0  0
    2.0784   -1.1945    0.0010 H   0  0  0  0  0  0  0  0  0  0  0  0
    1.1925    0.6876    0.0011 C   0  0  0  0  0  0  0  0  0  0  0  0
    2.0623    1.1860    0.0041 H   0  0  0  0  0  0  0  0  0  0  0  0
  1  5  1  0
  5  8  1  0
  1  2  1  0
  1  3  1  0
  1  4  1  0
  5  6  1  0
  5  7  1  0
  8  9  1  0
  8 10  1  0
  8 11  1  0
 12 16  1  0
 16 17  2  0
 17 19  1  0
 19 21  2  0
 21 23  1  0
 23 25  2  0
 25 16  1  0
 12 13  1  0
 12 14  1  0
 12 15  1  0
 17 18  1  0
 19 20  1  0
 21 22  1  0
 23 24  1  0
 25 26  1  0
M  CHG  1   8   1
M  END
>  <PDB_ID>  (136) 
pdb5vha

>  <RESIDUE_NAME>  (136) 
LYS   PHE

>  <FRAG_NAME>  (136) 
ETAM   MBZ

>  <FRAG_ATOM_NUM>  (136) 
fragi: 11  fragj: 15

>  <atom.prop.CHAIN_ID>  (136) 
A A A A A A A A A A A Z Z Z Z Z Z Z Z Z Z Z Z Z Z Z

>  <atom.prop.IS_HEAVY_ATOM>  (136) 
1 0 0 0 1 0 0 1 0 0 0 1 0 0 0 1 1 0 1 0 1 0 1 0 1 0

>  <DIFUSE_FUNC_ATOM>  (136) 
n/a

>  <FINAL_SINGLE_POINT_ENERGY>  (136) 
0

>  <NONCOV_INTER_ENERGY_QM>  (136) 
0

>  <FF_Energy>  (136) 
-0.24

>  <QM_Energy>  (136) 
-12.41

>  <source>  (136) 
ETAM_MBZ

>  <Index>  (136) 
37969

$$$$
ETAM-pdb5voh-A-LYS-132:MBZ-pdb5voh-A-PHE-242
     RDKit          3D

 26 25  0  0  0  0  0  0  0  0999 V2000
   -3.0489   -3.1701    0.6571 C   0  0  0  0  0  0  0  0  0  0  0  0
   -2.8441   -2.4328    0.0268 H   0  0  0  0  0  0  0  0  0  0  0  0
   -3.7719   -3.7480    0.3028 H   0  0  0  0  0  0  0  0  0  0  0  0
   -2.1518   -3.7718    0.8020 H   0  0  0  0  0  0  0  0  0  0  0  0
   -3.5116   -2.5676    1.9762 C   0  0  0  0  0  0  0  0  0  0  0  0
   -4.3053   -1.9796    1.8035 H   0  0  0  0  0  0  0  0  0  0  0  0
   -3.7847   -3.3093    2.5942 H   0  0  0  0  0  0  0  0  0  0  0  0
   -2.4382   -1.7620    2.6241 N   0  0  0  0  0  4  0  0  0  0  0  0
   -1.5800   -2.2738    2.5988 H   0  0  0  0  0  0  0  0  0  0  0  0
   -2.3293   -0.8992    2.1318 H   0  0  0  0  0  0  0  0  0  0  0  0
   -2.6912   -1.5770    3.5732 H   0  0  0  0  0  0  0  0  0  0  0  0
   -0.0021    2.8937   -0.0071 C   0  0  0  0  0  0  0  0  0  0  0  0
    0.8124    3.2055    0.4568 H   0  0  0  0  0  0  0  0  0  0  0  0
   -0.8208    3.2036    0.4515 H   0  0  0  0  0  0  0  0  0  0  0  0
    0.0008    3.3248   -1.0082 H   0  0  0  0  0  0  0  0  0  0  0  0
    0.0001    1.3941    0.0006 C   0  0  0  0  0  0  0  0  0  0  0  0
   -1.1901    0.6871   -0.0012 C   0  0  0  0  0  0  0  0  0  0  0  0
   -2.0589    1.1792   -0.0052 H   0  0  0  0  0  0  0  0  0  0  0  0
   -1.1930   -0.6930   -0.0000 C   0  0  0  0  0  0  0  0  0  0  0  0
   -2.0724   -1.1894    0.0016 H   0  0  0  0  0  0  0  0  0  0  0  0
    0.0002   -1.3852    0.0017 C   0  0  0  0  0  0  0  0  0  0  0  0
   -0.0033   -2.3867    0.0038 H   0  0  0  0  0  0  0  0  0  0  0  0
    1.1930   -0.6920    0.0000 C   0  0  0  0  0  0  0  0  0  0  0  0
    2.0771   -1.1923    0.0008 H   0  0  0  0  0  0  0  0  0  0  0  0
    1.1897    0.6889   -0.0010 C   0  0  0  0  0  0  0  0  0  0  0  0
    2.0601    1.1863   -0.0036 H   0  0  0  0  0  0  0  0  0  0  0  0
  1  5  1  0
  5  8  1  0
  1  2  1  0
  1  3  1  0
  1  4  1  0
  5  6  1  0
  5  7  1  0
  8  9  1  0
  8 10  1  0
  8 11  1  0
 12 16  1  0
 16 17  2  0
 17 19  1  0
 19 21  2  0
 21 23  1  0
 23 25  2  0
 25 16  1  0
 12 13  1  0
 12 14  1  0
 12 15  1  0
 17 18  1  0
 19 20  1  0
 21 22  1  0
 23 24  1  0
 25 26  1  0
M  CHG  1   8   1
M  END
>  <PDB_ID>  (137) 
pdb5voh

>  <RESIDUE_NAME>  (137) 
LYS   PHE

>  <FRAG_NAME>  (137) 
ETAM   MBZ

>  <FRAG_ATOM_NUM>  (137) 
fragi: 11  fragj: 15

>  <atom.prop.CHAIN_ID>  (137) 
A A A A A A A A A A A Z Z Z Z Z Z Z Z Z Z Z Z Z Z Z

>  <atom.prop.IS_HEAVY_ATOM>  (137) 
1 0 0 0 1 0 0 1 0 0 0 1 0 0 0 1 1 0 1 0 1 0 1 0 1 0

>  <DIFUSE_FUNC_ATOM>  (137) 
n/a

>  <FINAL_SINGLE_POINT_ENERGY>  (137) 
0

>  <NONCOV_INTER_ENERGY_QM>  (137) 
0

>  <FF_Energy>  (137) 
43.36

>  <QM_Energy>  (137) 
-2.91

>  <source>  (137) 
ETAM_MBZ

>  <Index>  (137) 
38031

$$$$
ETAM-pdb5ybj-A-LYS-1109:MBZ-pdb5ybj-A-PHE-1113
     RDKit          3D

 26 25  0  0  0  0  0  0  0  0999 V2000
   -3.4547   -3.2390    1.2073 C   0  0  0  0  0  0  0  0  0  0  0  0
   -4.0207   -3.8747    0.6767 H   0  0  0  0  0  0  0  0  0  0  0  0
   -3.4580   -2.3435    0.7541 H   0  0  0  0  0  0  0  0  0  0  0  0
   -3.9054   -3.1240    2.1930 H   0  0  0  0  0  0  0  0  0  0  0  0
   -2.0509   -3.7575    1.2612 C   0  0  0  0  0  0  0  0  0  0  0  0
   -1.4804   -3.1231    1.7884 H   0  0  0  0  0  0  0  0  0  0  0  0
   -2.0422   -4.6538    1.7106 H   0  0  0  0  0  0  0  0  0  0  0  0
   -1.4837   -3.8969   -0.1030 N   0  0  0  0  0  4  0  0  0  0  0  0
   -2.0738   -4.4900   -0.6506 H   0  0  0  0  0  0  0  0  0  0  0  0
   -1.4256   -2.9948   -0.5337 H   0  0  0  0  0  0  0  0  0  0  0  0
   -0.5690   -4.2971   -0.0450 H   0  0  0  0  0  0  0  0  0  0  0  0
   -0.0082    2.8929   -0.0254 C   0  0  0  0  0  0  0  0  0  0  0  0
   -0.8231    3.1953   -0.5135 H   0  0  0  0  0  0  0  0  0  0  0  0
    0.8095    3.2064   -0.5022 H   0  0  0  0  0  0  0  0  0  0  0  0
   -0.0176    3.3812    0.9491 H   0  0  0  0  0  0  0  0  0  0  0  0
    0.0021    1.3997   -0.0080 C   0  0  0  0  0  0  0  0  0  0  0  0
   -1.1984    0.6921   -0.0084 C   0  0  0  0  0  0  0  0  0  0  0  0
   -2.0635    1.1940   -0.0173 H   0  0  0  0  0  0  0  0  0  0  0  0
   -1.2192   -0.6929    0.0000 C   0  0  0  0  0  0  0  0  0  0  0  0
   -2.0881   -1.1862   -0.0101 H   0  0  0  0  0  0  0  0  0  0  0  0
   -0.0070   -1.3907    0.0259 C   0  0  0  0  0  0  0  0  0  0  0  0
   -0.0120   -2.3894    0.0620 H   0  0  0  0  0  0  0  0  0  0  0  0
    1.2192   -0.7009    0.0000 C   0  0  0  0  0  0  0  0  0  0  0  0
    2.0847   -1.2017   -0.0096 H   0  0  0  0  0  0  0  0  0  0  0  0
    1.2033    0.6927   -0.0095 C   0  0  0  0  0  0  0  0  0  0  0  0
    2.0691    1.1943   -0.0186 H   0  0  0  0  0  0  0  0  0  0  0  0
  1  5  1  0
  5  8  1  0
  1  2  1  0
  1  3  1  0
  1  4  1  0
  5  6  1  0
  5  7  1  0
  8  9  1  0
  8 10  1  0
  8 11  1  0
 12 16  1  0
 16 17  2  0
 17 19  1  0
 19 21  2  0
 21 23  1  0
 23 25  2  0
 25 16  1  0
 12 13  1  0
 12 14  1  0
 12 15  1  0
 17 18  1  0
 19 20  1  0
 21 22  1  0
 23 24  1  0
 25 26  1  0
M  CHG  1   8   1
M  END
>  <PDB_ID>  (138) 
pdb5ybj

>  <RESIDUE_NAME>  (138) 
LYS   PHE

>  <FRAG_NAME>  (138) 
ETAM   MBZ

>  <FRAG_ATOM_NUM>  (138) 
fragi: 11  fragj: 15

>  <atom.prop.CHAIN_ID>  (138) 
A A A A A A A A A A A Z Z Z Z Z Z Z Z Z Z Z Z Z Z Z

>  <atom.prop.IS_HEAVY_ATOM>  (138) 
1 0 0 0 1 0 0 1 0 0 0 1 0 0 0 1 1 0 1 0 1 0 1 0 1 0

>  <DIFUSE_FUNC_ATOM>  (138) 
n/a

>  <FINAL_SINGLE_POINT_ENERGY>  (138) 
0

>  <NONCOV_INTER_ENERGY_QM>  (138) 
0

>  <FF_Energy>  (138) 
15.51

>  <QM_Energy>  (138) 
-0.93

>  <source>  (138) 
ETAM_MBZ

>  <Index>  (138) 
38758

$$$$
ETAM-pdb5ym6-A-LYS-50:MBZ-pdb5ym6-A-PHE-19
     RDKit          3D

 26 25  0  0  0  0  0  0  0  0999 V2000
    1.0974   -2.3522    2.8870 C   0  0  0  0  0  0  0  0  0  0  0  0
    1.6071   -2.0067    2.0962 H   0  0  0  0  0  0  0  0  0  0  0  0
    1.6553   -3.0323    3.3677 H   0  0  0  0  0  0  0  0  0  0  0  0
    0.8977   -1.5213    3.5637 H   0  0  0  0  0  0  0  0  0  0  0  0
   -0.1622   -3.0202    2.3948 C   0  0  0  0  0  0  0  0  0  0  0  0
   -0.6760   -3.3730    3.1788 H   0  0  0  0  0  0  0  0  0  0  0  0
   -0.7237   -2.3495    1.9078 H   0  0  0  0  0  0  0  0  0  0  0  0
    0.1587   -4.1431    1.4779 N   0  0  0  0  0  4  0  0  0  0  0  0
    0.7255   -4.8132    1.9571 H   0  0  0  0  0  0  0  0  0  0  0  0
   -0.6892   -4.5799    1.1764 H   0  0  0  0  0  0  0  0  0  0  0  0
    0.6544   -3.7931    0.6841 H   0  0  0  0  0  0  0  0  0  0  0  0
    0.0075    2.9191    0.0152 C   0  0  0  0  0  0  0  0  0  0  0  0
   -0.7592    3.2307   -0.5203 H   0  0  0  0  0  0  0  0  0  0  0  0
    0.8660    3.2218   -0.3620 H   0  0  0  0  0  0  0  0  0  0  0  0
   -0.0874    3.3451    1.0141 H   0  0  0  0  0  0  0  0  0  0  0  0
    0.0005    1.4051    0.0004 C   0  0  0  0  0  0  0  0  0  0  0  0
   -1.1954    0.6952   -0.0021 C   0  0  0  0  0  0  0  0  0  0  0  0
   -2.0632    1.1794   -0.0067 H   0  0  0  0  0  0  0  0  0  0  0  0
   -1.1968   -0.7044   -0.0000 C   0  0  0  0  0  0  0  0  0  0  0  0
   -2.0746   -1.1938    0.0047 H   0  0  0  0  0  0  0  0  0  0  0  0
    0.0014   -1.3928   -0.0025 C   0  0  0  0  0  0  0  0  0  0  0  0
    0.0012   -2.3941   -0.0060 H   0  0  0  0  0  0  0  0  0  0  0  0
    1.1968   -0.6965    0.0000 C   0  0  0  0  0  0  0  0  0  0  0  0
    2.0809   -1.1930    0.0000 H   0  0  0  0  0  0  0  0  0  0  0  0
    1.1935    0.6935    0.0042 C   0  0  0  0  0  0  0  0  0  0  0  0
    2.0644    1.1881    0.0093 H   0  0  0  0  0  0  0  0  0  0  0  0
  1  5  1  0
  5  8  1  0
  1  2  1  0
  1  3  1  0
  1  4  1  0
  5  6  1  0
  5  7  1  0
  8  9  1  0
  8 10  1  0
  8 11  1  0
 12 16  1  0
 16 17  2  0
 17 19  1  0
 19 21  2  0
 21 23  1  0
 23 25  2  0
 25 16  1  0
 12 13  1  0
 12 14  1  0
 12 15  1  0
 17 18  1  0
 19 20  1  0
 21 22  1  0
 23 24  1  0
 25 26  1  0
M  CHG  1   8   1
M  END
>  <PDB_ID>  (139) 
pdb5ym6

>  <RESIDUE_NAME>  (139) 
LYS   PHE

>  <FRAG_NAME>  (139) 
ETAM   MBZ

>  <FRAG_ATOM_NUM>  (139) 
fragi: 11  fragj: 15

>  <atom.prop.CHAIN_ID>  (139) 
A A A A A A A A A A A Z Z Z Z Z Z Z Z Z Z Z Z Z Z Z

>  <atom.prop.IS_HEAVY_ATOM>  (139) 
1 0 0 0 1 0 0 1 0 0 0 1 0 0 0 1 1 0 1 0 1 0 1 0 1 0

>  <DIFUSE_FUNC_ATOM>  (139) 
n/a

>  <FINAL_SINGLE_POINT_ENERGY>  (139) 
0

>  <NONCOV_INTER_ENERGY_QM>  (139) 
0

>  <FF_Energy>  (139) 
13.94

>  <QM_Energy>  (139) 
-0.54

>  <source>  (139) 
ETAM_MBZ

>  <Index>  (139) 
38873

$$$$
ETAM-pdb5yqg-C-LYS-162:MBZ-pdb5yqg-C-PHE-158
     RDKit          3D

 26 25  0  0  0  0  0  0  0  0999 V2000
    1.4731   -0.5074    4.1441 C   0  0  0  0  0  0  0  0  0  0  0  0
    1.8665    0.4013    4.2693 H   0  0  0  0  0  0  0  0  0  0  0  0
    1.7884   -1.1168    4.8682 H   0  0  0  0  0  0  0  0  0  0  0  0
    0.3863   -0.4346    4.1858 H   0  0  0  0  0  0  0  0  0  0  0  0
    1.9578   -1.0599    2.8084 C   0  0  0  0  0  0  0  0  0  0  0  0
    1.5743   -1.9706    2.6776 H   0  0  0  0  0  0  0  0  0  0  0  0
    1.6522   -0.4545    2.0777 H   0  0  0  0  0  0  0  0  0  0  0  0
    3.4423   -1.1430    2.7921 N   0  0  0  0  0  4  0  0  0  0  0  0
    3.8251   -0.3465    3.2618 H   0  0  0  0  0  0  0  0  0  0  0  0
    3.7336   -1.9775    3.2584 H   0  0  0  0  0  0  0  0  0  0  0  0
    3.7637   -1.1593    1.8457 H   0  0  0  0  0  0  0  0  0  0  0  0
   -0.0133    2.9127    0.0044 C   0  0  0  0  0  0  0  0  0  0  0  0
   -0.1878    3.2106   -0.9199 H   0  0  0  0  0  0  0  0  0  0  0  0
    0.8669    3.2196    0.3278 H   0  0  0  0  0  0  0  0  0  0  0  0
   -0.7799    3.3415    0.6499 H   0  0  0  0  0  0  0  0  0  0  0  0
   -0.0013    1.3982    0.0053 C   0  0  0  0  0  0  0  0  0  0  0  0
   -1.1908    0.6833    0.0007 C   0  0  0  0  0  0  0  0  0  0  0  0
   -2.0619    1.1741   -0.0034 H   0  0  0  0  0  0  0  0  0  0  0  0
   -1.1955   -0.7013    0.0000 C   0  0  0  0  0  0  0  0  0  0  0  0
   -2.0706   -1.1969   -0.0002 H   0  0  0  0  0  0  0  0  0  0  0  0
    0.0044   -1.3910    0.0016 C   0  0  0  0  0  0  0  0  0  0  0  0
    0.0051   -2.3903    0.0037 H   0  0  0  0  0  0  0  0  0  0  0  0
    1.1955   -0.6902   -0.0000 C   0  0  0  0  0  0  0  0  0  0  0  0
    2.0826   -1.1827    0.0063 H   0  0  0  0  0  0  0  0  0  0  0  0
    1.1877    0.7010   -0.0076 C   0  0  0  0  0  0  0  0  0  0  0  0
    2.0576    1.1952   -0.0237 H   0  0  0  0  0  0  0  0  0  0  0  0
  1  5  1  0
  5  8  1  0
  1  2  1  0
  1  3  1  0
  1  4  1  0
  5  6  1  0
  5  7  1  0
  8  9  1  0
  8 10  1  0
  8 11  1  0
 12 16  1  0
 16 17  2  0
 17 19  1  0
 19 21  2  0
 21 23  1  0
 23 25  2  0
 25 16  1  0
 12 13  1  0
 12 14  1  0
 12 15  1  0
 17 18  1  0
 19 20  1  0
 21 22  1  0
 23 24  1  0
 25 26  1  0
M  CHG  1   8   1
M  END
>  <PDB_ID>  (140) 
pdb5yqg

>  <RESIDUE_NAME>  (140) 
LYS   PHE

>  <FRAG_NAME>  (140) 
ETAM   MBZ

>  <FRAG_ATOM_NUM>  (140) 
fragi: 11  fragj: 15

>  <atom.prop.CHAIN_ID>  (140) 
A A A A A A A A A A A Z Z Z Z Z Z Z Z Z Z Z Z Z Z Z

>  <atom.prop.IS_HEAVY_ATOM>  (140) 
1 0 0 0 1 0 0 1 0 0 0 1 0 0 0 1 1 0 1 0 1 0 1 0 1 0

>  <DIFUSE_FUNC_ATOM>  (140) 
n/a

>  <FINAL_SINGLE_POINT_ENERGY>  (140) 
0

>  <NONCOV_INTER_ENERGY_QM>  (140) 
0

>  <FF_Energy>  (140) 
9.25

>  <QM_Energy>  (140) 
-3.14

>  <source>  (140) 
ETAM_MBZ

>  <Index>  (140) 
38952

$$$$
